MODEL 1
REMARK VINA RESULT:    -5.655      0.000      0.000
REMARK INTER + INTRA:          -6.530
REMARK INTER:                  -6.316
REMARK INTRA:                  -0.214
REMARK UNBOUND:                -0.214
REMARK SMILES CC(C)c1ccc(C(=O)[O-])cc1
REMARK SMILES IDX 7 1 6 2 11 3 5 4 12 5 4 6 8 7 9 8 10 9 2 10 1 11 3 12
REMARK H PARENT
REMARK Flexibility Score: inf
ROOT
ATOM      1  C   UNL     1     -20.645 -26.371  39.299  1.00  0.00    -0.003 A 
ATOM      2  C   UNL     1     -20.837 -27.060  38.089  1.00  0.00     0.010 A 
ATOM      3  C   UNL     1     -21.487 -26.658  40.387  1.00  0.00     0.010 A 
ATOM      4  C   UNL     1     -21.851 -28.014  37.970  1.00  0.00     0.004 A 
ATOM      5  C   UNL     1     -22.501 -27.613  40.267  1.00  0.00     0.004 A 
ATOM      6  C   UNL     1     -22.694 -28.302  39.058  1.00  0.00    -0.045 A 
ENDROOT
BRANCH   1   7
ATOM      7  C   UNL     1     -19.573 -25.360  39.430  1.00  0.00     0.071 C 
ATOM      8  O   UNL     1     -19.855 -24.145  39.607  1.00  0.00    -0.545 OA
ATOM      9  O   UNL     1     -18.236 -25.738  39.360  1.00  0.00    -0.545 OA
ENDBRANCH   1   7
BRANCH   6  10
ATOM     10  C   UNL     1     -23.799 -29.336  38.942  1.00  0.00     0.013 C 
ATOM     11  C   UNL     1     -24.788 -29.221  40.108  1.00  0.00     0.012 C 
ATOM     12  C   UNL     1     -24.520 -29.225  37.593  1.00  0.00     0.012 C 
ENDBRANCH   6  10
TORSDOF 2
ENDMDL
MODEL 2
REMARK VINA RESULT:    -5.429      3.083      5.240
REMARK INTER + INTRA:          -6.278
REMARK INTER:                  -6.068
REMARK INTRA:                  -0.210
REMARK UNBOUND:                -0.214
REMARK SMILES CC(C)c1ccc(C(=O)[O-])cc1
REMARK SMILES IDX 7 1 6 2 11 3 5 4 12 5 4 6 8 7 9 8 10 9 2 10 1 11 3 12
REMARK H PARENT
REMARK Flexibility Score: inf
ROOT
ATOM      1  C   UNL     1     -22.837 -28.291  38.911  1.00  0.00    -0.003 A 
ATOM      2  C   UNL     1     -22.662 -27.767  40.203  1.00  0.00     0.010 A 
ATOM      3  C   UNL     1     -21.954 -27.898  37.891  1.00  0.00     0.010 A 
ATOM      4  C   UNL     1     -21.626 -26.867  40.469  1.00  0.00     0.004 A 
ATOM      5  C   UNL     1     -20.918 -26.998  38.158  1.00  0.00     0.004 A 
ATOM      6  C   UNL     1     -20.741 -26.473  39.449  1.00  0.00    -0.045 A 
ENDROOT
BRANCH   1   7
ATOM      7  C   UNL     1     -23.932 -29.244  38.625  1.00  0.00     0.071 C 
ATOM      8  O   UNL     1     -24.379 -29.997  39.530  1.00  0.00    -0.545 OA
ATOM      9  O   UNL     1     -24.484 -29.321  37.350  1.00  0.00    -0.545 OA
ENDBRANCH   1   7
BRANCH   6  10
ATOM     10  C   UNL     1     -19.612 -25.498  39.724  1.00  0.00     0.013 C 
ATOM     11  C   UNL     1     -18.345 -25.886  38.952  1.00  0.00     0.012 C 
ATOM     12  C   UNL     1     -20.035 -24.059  39.403  1.00  0.00     0.012 C 
ENDBRANCH   6  10
TORSDOF 2
ENDMDL
MODEL 3
REMARK VINA RESULT:    -5.390      3.205      5.068
REMARK INTER + INTRA:          -6.234
REMARK INTER:                  -6.025
REMARK INTRA:                  -0.209
REMARK UNBOUND:                -0.214
REMARK SMILES CC(C)c1ccc(C(=O)[O-])cc1
REMARK SMILES IDX 7 1 6 2 11 3 5 4 12 5 4 6 8 7 9 8 10 9 2 10 1 11 3 12
REMARK H PARENT
REMARK Flexibility Score: inf
ROOT
ATOM      1  C   UNL     1     -23.082 -28.467  38.974  1.00  0.00    -0.003 A 
ATOM      2  C   UNL     1     -22.191 -28.108  37.947  1.00  0.00     0.010 A 
ATOM      3  C   UNL     1     -22.910 -27.907  40.250  1.00  0.00     0.010 A 
ATOM      4  C   UNL     1     -21.151 -27.210  38.193  1.00  0.00     0.004 A 
ATOM      5  C   UNL     1     -21.869 -27.008  40.497  1.00  0.00     0.004 A 
ATOM      6  C   UNL     1     -20.978 -26.648  39.472  1.00  0.00    -0.045 A 
ENDROOT
BRANCH   1   7
ATOM      7  C   UNL     1     -24.186 -29.419  38.717  1.00  0.00     0.071 C 
ATOM      8  O   UNL     1     -24.666 -30.111  39.653  1.00  0.00    -0.545 OA
ATOM      9  O   UNL     1     -24.709 -29.563  37.436  1.00  0.00    -0.545 OA
ENDBRANCH   1   7
BRANCH   6  10
ATOM     10  C   UNL     1     -19.852 -25.670  39.753  1.00  0.00     0.013 C 
ATOM     11  C   UNL     1     -18.616 -25.991  38.903  1.00  0.00     0.012 C 
ATOM     12  C   UNL     1     -20.310 -24.223  39.536  1.00  0.00     0.012 C 
ENDBRANCH   6  10
TORSDOF 2
ENDMDL
MODEL 4
REMARK VINA RESULT:    -5.189      4.183      5.503
REMARK INTER + INTRA:          -6.009
REMARK INTER:                  -5.794
REMARK INTRA:                  -0.215
REMARK UNBOUND:                -0.214
REMARK SMILES CC(C)c1ccc(C(=O)[O-])cc1
REMARK SMILES IDX 7 1 6 2 11 3 5 4 12 5 4 6 8 7 9 8 10 9 2 10 1 11 3 12
REMARK H PARENT
REMARK Flexibility Score: inf
ROOT
ATOM      1  C   UNL     1     -26.151 -25.519  41.617  1.00  0.00    -0.003 A 
ATOM      2  C   UNL     1     -24.753 -25.598  41.736  1.00  0.00     0.010 A 
ATOM      3  C   UNL     1     -26.857 -26.631  41.129  1.00  0.00     0.010 A 
ATOM      4  C   UNL     1     -24.075 -26.764  41.372  1.00  0.00     0.004 A 
ATOM      5  C   UNL     1     -26.178 -27.798  40.765  1.00  0.00     0.004 A 
ATOM      6  C   UNL     1     -24.781 -27.878  40.884  1.00  0.00    -0.045 A 
ENDROOT
BRANCH   1   7
ATOM      7  C   UNL     1     -26.873 -24.286  42.001  1.00  0.00     0.071 C 
ATOM      8  O   UNL     1     -27.792 -24.322  42.862  1.00  0.00    -0.545 OA
ATOM      9  O   UNL     1     -26.547 -23.067  41.415  1.00  0.00    -0.545 OA
ENDBRANCH   1   7
BRANCH   6  10
ATOM     10  C   UNL     1     -24.058 -29.151  40.486  1.00  0.00     0.013 C 
ATOM     11  C   UNL     1     -24.924 -30.012  39.558  1.00  0.00     0.012 C 
ATOM     12  C   UNL     1     -22.702 -28.838  39.842  1.00  0.00     0.012 C 
ENDBRANCH   6  10
TORSDOF 2
ENDMDL
MODEL 5
REMARK VINA RESULT:    -5.146      4.240      5.540
REMARK INTER + INTRA:          -5.962
REMARK INTER:                  -5.748
REMARK INTRA:                  -0.214
REMARK UNBOUND:                -0.214
REMARK SMILES CC(C)c1ccc(C(=O)[O-])cc1
REMARK SMILES IDX 7 1 6 2 11 3 5 4 12 5 4 6 8 7 9 8 10 9 2 10 1 11 3 12
REMARK H PARENT
REMARK Flexibility Score: inf
ROOT
ATOM      1  C   UNL     1     -26.202 -25.505  41.670  1.00  0.00    -0.003 A 
ATOM      2  C   UNL     1     -26.874 -26.615  41.130  1.00  0.00     0.010 A 
ATOM      3  C   UNL     1     -24.804 -25.550  41.795  1.00  0.00     0.010 A 
ATOM      4  C   UNL     1     -26.161 -27.746  40.723  1.00  0.00     0.004 A 
ATOM      5  C   UNL     1     -24.091 -26.681  41.388  1.00  0.00     0.004 A 
ATOM      6  C   UNL     1     -24.761 -27.792  40.848  1.00  0.00    -0.045 A 
ENDROOT
BRANCH   1   7
ATOM      7  C   UNL     1     -26.953 -24.305  42.102  1.00  0.00     0.071 C 
ATOM      8  O   UNL     1     -27.828 -24.386  43.005  1.00  0.00    -0.545 OA
ATOM      9  O   UNL     1     -26.704 -23.069  41.515  1.00  0.00    -0.545 OA
ENDBRANCH   1   7
BRANCH   6  10
ATOM     10  C   UNL     1     -23.975 -29.013  40.410  1.00  0.00     0.013 C 
ATOM     11  C   UNL     1     -24.846 -29.963  39.579  1.00  0.00     0.012 C 
ATOM     12  C   UNL     1     -22.710 -28.611  39.642  1.00  0.00     0.012 C 
ENDBRANCH   6  10
TORSDOF 2
ENDMDL
MODEL 6
REMARK VINA RESULT:    -5.095      4.461      5.841
REMARK INTER + INTRA:          -5.905
REMARK INTER:                  -5.693
REMARK INTRA:                  -0.212
REMARK UNBOUND:                -0.214
REMARK SMILES CC(C)c1ccc(C(=O)[O-])cc1
REMARK SMILES IDX 7 1 6 2 11 3 5 4 12 5 4 6 8 7 9 8 10 9 2 10 1 11 3 12
REMARK H PARENT
REMARK Flexibility Score: inf
ROOT
ATOM      1  C   UNL     1     -24.728 -27.876  40.787  1.00  0.00    -0.003 A 
ATOM      2  C   UNL     1     -24.290 -27.079  41.858  1.00  0.00     0.010 A 
ATOM      3  C   UNL     1     -26.079 -27.824  40.408  1.00  0.00     0.010 A 
ATOM      4  C   UNL     1     -25.185 -26.248  42.536  1.00  0.00     0.004 A 
ATOM      5  C   UNL     1     -26.975 -26.993  41.087  1.00  0.00     0.004 A 
ATOM      6  C   UNL     1     -26.539 -26.195  42.157  1.00  0.00    -0.045 A 
ENDROOT
BRANCH   1   7
ATOM      7  C   UNL     1     -23.783 -28.757  40.065  1.00  0.00     0.071 C 
ATOM      8  O   UNL     1     -22.686 -29.088  40.590  1.00  0.00    -0.545 OA
ATOM      9  O   UNL     1     -24.093 -29.234  38.796  1.00  0.00    -0.545 OA
ENDBRANCH   1   7
BRANCH   6  10
ATOM     10  C   UNL     1     -27.522 -25.298  42.885  1.00  0.00     0.013 C 
ATOM     11  C   UNL     1     -27.501 -23.876  42.311  1.00  0.00     0.012 C 
ATOM     12  C   UNL     1     -28.937 -25.886  42.851  1.00  0.00     0.012 C 
ENDBRANCH   6  10
TORSDOF 2
ENDMDL
MODEL 7
REMARK VINA RESULT:    -4.946      3.695      5.402
REMARK INTER + INTRA:          -5.739
REMARK INTER:                  -5.528
REMARK INTRA:                  -0.210
REMARK UNBOUND:                -0.214
REMARK SMILES CC(C)c1ccc(C(=O)[O-])cc1
REMARK SMILES IDX 7 1 6 2 11 3 5 4 12 5 4 6 8 7 9 8 10 9 2 10 1 11 3 12
REMARK H PARENT
REMARK Flexibility Score: inf
ROOT
ATOM      1  C   UNL     1     -24.642 -26.314  41.532  1.00  0.00    -0.003 A 
ATOM      2  C   UNL     1     -23.840 -25.163  41.460  1.00  0.00     0.010 A 
ATOM      3  C   UNL     1     -24.152 -27.520  41.004  1.00  0.00     0.010 A 
ATOM      4  C   UNL     1     -22.574 -25.216  40.872  1.00  0.00     0.004 A 
ATOM      5  C   UNL     1     -22.885 -27.573  40.415  1.00  0.00     0.004 A 
ATOM      6  C   UNL     1     -22.081 -26.423  40.343  1.00  0.00    -0.045 A 
ENDROOT
BRANCH   1   7
ATOM      7  C   UNL     1     -25.984 -26.262  42.154  1.00  0.00     0.071 C 
ATOM      8  O   UNL     1     -26.123 -25.877  43.345  1.00  0.00    -0.545 OA
ATOM      9  O   UNL     1     -27.111 -26.637  41.431  1.00  0.00    -0.545 OA
ENDBRANCH   1   7
BRANCH   6  10
ATOM     10  C   UNL     1     -20.708 -26.496  39.702  1.00  0.00     0.013 C 
ATOM     11  C   UNL     1     -20.806 -26.932  38.235  1.00  0.00     0.012 C 
ATOM     12  C   UNL     1     -19.966 -25.161  39.832  1.00  0.00     0.012 C 
ENDBRANCH   6  10
TORSDOF 2
ENDMDL
MODEL 8
REMARK VINA RESULT:    -4.914      1.827      2.451
REMARK INTER + INTRA:          -5.702
REMARK INTER:                  -5.484
REMARK INTRA:                  -0.218
REMARK UNBOUND:                -0.214
REMARK SMILES CC(C)c1ccc(C(=O)[O-])cc1
REMARK SMILES IDX 7 1 6 2 11 3 5 4 12 5 4 6 8 7 9 8 10 9 2 10 1 11 3 12
REMARK H PARENT
REMARK Flexibility Score: inf
ROOT
ATOM      1  C   UNL     1     -21.254 -25.414  40.170  1.00  0.00    -0.003 A 
ATOM      2  C   UNL     1     -21.523 -26.764  39.888  1.00  0.00     0.010 A 
ATOM      3  C   UNL     1     -22.183 -24.677  40.924  1.00  0.00     0.010 A 
ATOM      4  C   UNL     1     -22.697 -27.365  40.350  1.00  0.00     0.004 A 
ATOM      5  C   UNL     1     -23.358 -25.278  41.386  1.00  0.00     0.004 A 
ATOM      6  C   UNL     1     -23.628 -26.628  41.105  1.00  0.00    -0.045 A 
ENDROOT
BRANCH   1   7
ATOM      7  C   UNL     1     -20.012 -24.775  39.683  1.00  0.00     0.071 C 
ATOM      8  O   UNL     1     -20.010 -23.566  39.326  1.00  0.00    -0.545 OA
ATOM      9  O   UNL     1     -18.827 -25.500  39.612  1.00  0.00    -0.545 OA
ENDBRANCH   1   7
BRANCH   6  10
ATOM     10  C   UNL     1     -24.907 -27.267  41.613  1.00  0.00     0.013 C 
ATOM     11  C   UNL     1     -25.880 -26.209  42.147  1.00  0.00     0.012 C 
ATOM     12  C   UNL     1     -25.566 -28.124  40.526  1.00  0.00     0.012 C 
ENDBRANCH   6  10
TORSDOF 2
ENDMDL
MODEL 9
REMARK VINA RESULT:    -4.818      3.689      5.456
REMARK INTER + INTRA:          -5.595
REMARK INTER:                  -5.374
REMARK INTRA:                  -0.221
REMARK UNBOUND:                -0.214
REMARK SMILES CC(C)c1ccc(C(=O)[O-])cc1
REMARK SMILES IDX 7 1 6 2 11 3 5 4 12 5 4 6 8 7 9 8 10 9 2 10 1 11 3 12
REMARK H PARENT
REMARK Flexibility Score: inf
ROOT
ATOM      1  C   UNL     1     -23.261 -27.539  40.753  1.00  0.00    -0.003 A 
ATOM      2  C   UNL     1     -24.249 -26.750  41.367  1.00  0.00     0.010 A 
ATOM      3  C   UNL     1     -22.090 -26.920  40.284  1.00  0.00     0.010 A 
ATOM      4  C   UNL     1     -24.071 -25.372  41.507  1.00  0.00     0.004 A 
ATOM      5  C   UNL     1     -21.912 -25.540  40.424  1.00  0.00     0.004 A 
ATOM      6  C   UNL     1     -22.899 -24.751  41.037  1.00  0.00    -0.045 A 
ENDROOT
BRANCH   1   7
ATOM      7  C   UNL     1     -23.445 -28.999  40.604  1.00  0.00     0.071 C 
ATOM      8  O   UNL     1     -22.589 -29.695  39.996  1.00  0.00    -0.545 OA
ATOM      9  O   UNL     1     -24.569 -29.625  41.133  1.00  0.00    -0.545 OA
ENDBRANCH   1   7
BRANCH   6  10
ATOM     10  C   UNL     1     -22.693 -23.255  41.182  1.00  0.00     0.013 C 
ATOM     11  C   UNL     1     -21.529 -22.770  40.309  1.00  0.00     0.012 C 
ATOM     12  C   UNL     1     -23.980 -22.485  40.863  1.00  0.00     0.012 C 
ENDBRANCH   6  10
TORSDOF 2
ENDMDL
