MODEL 1
REMARK VINA RESULT:    -4.107      0.000      0.000
REMARK INTER + INTRA:          -4.854
REMARK INTER:                  -4.827
REMARK INTRA:                  -0.027
REMARK UNBOUND:                -0.027
REMARK SMILES O=C([O-])CCC(=O)[O-]
REMARK SMILES IDX 4 1 2 2 1 3 3 4 5 5 6 6 7 7 8 8
REMARK H PARENT
REMARK Flexibility Score: inf
ROOT
ATOM      1  C   UNL     1       7.308   9.412   3.040  1.00  0.00     0.059 C 
ENDROOT
BRANCH   1   2
ATOM      2  C   UNL     1       8.629   8.964   2.493  1.00  0.00     0.042 C 
ATOM      3  O   UNL     1       9.373   9.778   1.885  1.00  0.00    -0.550 OA
ATOM      4  O   UNL     1       9.057   7.657   2.691  1.00  0.00    -0.550 OA
ENDBRANCH   1   2
BRANCH   1   5
ATOM      5  C   UNL     1       6.293   9.672   1.921  1.00  0.00     0.059 C 
BRANCH   5   6
ATOM      6  C   UNL     1       4.904   9.290   2.336  1.00  0.00     0.042 C 
ATOM      7  O   UNL     1       4.375   9.826   3.344  1.00  0.00    -0.550 OA
ATOM      8  O   UNL     1       4.182   8.372   1.584  1.00  0.00    -0.550 OA
ENDBRANCH   5   6
ENDBRANCH   1   5
TORSDOF 3
ENDMDL
MODEL 2
REMARK VINA RESULT:    -3.747      1.270      1.916
REMARK INTER + INTRA:          -4.432
REMARK INTER:                  -4.377
REMARK INTRA:                  -0.055
REMARK UNBOUND:                -0.027
REMARK SMILES O=C([O-])CCC(=O)[O-]
REMARK SMILES IDX 4 1 2 2 1 3 3 4 5 5 6 6 7 7 8 8
REMARK H PARENT
REMARK Flexibility Score: inf
ROOT
ATOM      1  C   UNL     1       8.214   9.870   2.671  1.00  0.00     0.059 C 
ENDROOT
BRANCH   1   2
ATOM      2  C   UNL     1       8.849   8.542   2.397  1.00  0.00     0.042 C 
ATOM      3  O   UNL     1       8.216   7.477   2.625  1.00  0.00    -0.550 OA
ATOM      4  O   UNL     1      10.125   8.480   1.851  1.00  0.00    -0.550 OA
ENDBRANCH   1   2
BRANCH   1   5
ATOM      5  C   UNL     1       6.737   9.886   2.261  1.00  0.00     0.059 C 
BRANCH   5   6
ATOM      6  C   UNL     1       5.834   9.696   3.442  1.00  0.00     0.042 C 
ATOM      7  O   UNL     1       4.584   9.739   3.296  1.00  0.00    -0.550 OA
ATOM      8  O   UNL     1       6.373   9.430   4.694  1.00  0.00    -0.550 OA
ENDBRANCH   5   6
ENDBRANCH   1   5
TORSDOF 3
ENDMDL
MODEL 3
REMARK VINA RESULT:    -3.616     22.700     23.517
REMARK INTER + INTRA:          -4.278
REMARK INTER:                  -4.124
REMARK INTRA:                  -0.154
REMARK UNBOUND:                -0.027
REMARK SMILES O=C([O-])CCC(=O)[O-]
REMARK SMILES IDX 4 1 2 2 1 3 3 4 5 5 6 6 7 7 8 8
REMARK H PARENT
REMARK Flexibility Score: inf
ROOT
ATOM      1  C   UNL     1      -7.196  -7.304  -5.536  1.00  0.00     0.059 C 
ENDROOT
BRANCH   1   2
ATOM      2  C   UNL     1      -6.917  -8.611  -4.860  1.00  0.00     0.042 C 
ATOM      3  O   UNL     1      -5.944  -8.721  -4.069  1.00  0.00    -0.550 OA
ATOM      4  O   UNL     1      -7.757  -9.698  -5.072  1.00  0.00    -0.550 OA
ENDBRANCH   1   2
BRANCH   1   5
ATOM      5  C   UNL     1      -7.843  -6.298  -4.576  1.00  0.00     0.059 C 
BRANCH   5   6
ATOM      6  C   UNL     1      -9.276  -6.639  -4.304  1.00  0.00     0.042 C 
ATOM      7  O   UNL     1     -10.114  -6.647  -5.243  1.00  0.00    -0.550 OA
ATOM      8  O   UNL     1      -9.677  -6.986  -3.020  1.00  0.00    -0.550 OA
ENDBRANCH   5   6
ENDBRANCH   1   5
TORSDOF 3
ENDMDL
MODEL 4
REMARK VINA RESULT:    -3.608     22.699     23.727
REMARK INTER + INTRA:          -4.269
REMARK INTER:                  -4.112
REMARK INTRA:                  -0.156
REMARK UNBOUND:                -0.027
REMARK SMILES O=C([O-])CCC(=O)[O-]
REMARK SMILES IDX 4 1 2 2 1 3 3 4 5 5 6 6 7 7 8 8
REMARK H PARENT
REMARK Flexibility Score: inf
ROOT
ATOM      1  C   UNL     1      -7.828  -6.336  -4.595  1.00  0.00     0.059 C 
ENDROOT
BRANCH   1   2
ATOM      2  C   UNL     1      -9.252  -6.703  -4.310  1.00  0.00     0.042 C 
ATOM      3  O   UNL     1     -10.091  -6.764  -5.246  1.00  0.00    -0.550 OA
ATOM      4  O   UNL     1      -9.644  -7.016  -3.014  1.00  0.00    -0.550 OA
ENDBRANCH   1   2
BRANCH   1   5
ATOM      5  C   UNL     1      -7.167  -7.338  -5.548  1.00  0.00     0.059 C 
BRANCH   5   6
ATOM      6  C   UNL     1      -6.869  -8.637  -4.863  1.00  0.00     0.042 C 
ATOM      7  O   UNL     1      -5.904  -8.723  -4.061  1.00  0.00    -0.550 OA
ATOM      8  O   UNL     1      -7.684  -9.741  -5.082  1.00  0.00    -0.550 OA
ENDBRANCH   5   6
ENDBRANCH   1   5
TORSDOF 3
ENDMDL
MODEL 5
REMARK VINA RESULT:    -3.558     22.533     23.332
REMARK INTER + INTRA:          -4.209
REMARK INTER:                  -4.029
REMARK INTRA:                  -0.181
REMARK UNBOUND:                -0.027
REMARK SMILES O=C([O-])CCC(=O)[O-]
REMARK SMILES IDX 4 1 2 2 1 3 3 4 5 5 6 6 7 7 8 8
REMARK H PARENT
REMARK Flexibility Score: inf
ROOT
ATOM      1  C   UNL     1      -8.584  -7.412  -5.653  1.00  0.00     0.059 C 
ENDROOT
BRANCH   1   2
ATOM      2  C   UNL     1      -8.599  -6.528  -4.444  1.00  0.00     0.042 C 
ATOM      3  O   UNL     1      -8.050  -5.395  -4.480  1.00  0.00    -0.550 OA
ATOM      4  O   UNL     1      -9.253  -6.939  -3.289  1.00  0.00    -0.550 OA
ENDBRANCH   1   2
BRANCH   1   5
ATOM      5  C   UNL     1      -7.791  -8.700  -5.401  1.00  0.00     0.059 C 
BRANCH   5   6
ATOM      6  C   UNL     1      -6.365  -8.409  -5.042  1.00  0.00     0.042 C 
ATOM      7  O   UNL     1      -5.882  -8.846  -3.966  1.00  0.00    -0.550 OA
ATOM      8  O   UNL     1      -5.561  -7.691  -5.918  1.00  0.00    -0.550 OA
ENDBRANCH   5   6
ENDBRANCH   1   5
TORSDOF 3
ENDMDL
MODEL 6
REMARK VINA RESULT:    -3.462     22.659     23.482
REMARK INTER + INTRA:          -4.096
REMARK INTER:                  -3.924
REMARK INTRA:                  -0.172
REMARK UNBOUND:                -0.027
REMARK SMILES O=C([O-])CCC(=O)[O-]
REMARK SMILES IDX 4 1 2 2 1 3 3 4 5 5 6 6 7 7 8 8
REMARK H PARENT
REMARK Flexibility Score: inf
ROOT
ATOM      1  C   UNL     1      -8.808  -7.529  -5.657  1.00  0.00     0.059 C 
ENDROOT
BRANCH   1   2
ATOM      2  C   UNL     1      -8.784  -6.650  -4.444  1.00  0.00     0.042 C 
ATOM      3  O   UNL     1      -9.331  -7.029  -3.375  1.00  0.00    -0.550 OA
ATOM      4  O   UNL     1      -8.122  -5.429  -4.483  1.00  0.00    -0.550 OA
ENDBRANCH   1   2
BRANCH   1   5
ATOM      5  C   UNL     1      -7.916  -8.762  -5.478  1.00  0.00     0.059 C 
BRANCH   5   6
ATOM      6  C   UNL     1      -6.504  -8.380  -5.151  1.00  0.00     0.042 C 
ATOM      7  O   UNL     1      -5.973  -8.777  -4.082  1.00  0.00    -0.550 OA
ATOM      8  O   UNL     1      -5.765  -7.621  -6.048  1.00  0.00    -0.550 OA
ENDBRANCH   5   6
ENDBRANCH   1   5
TORSDOF 3
ENDMDL
MODEL 7
REMARK VINA RESULT:    -3.443     22.505     23.158
REMARK INTER + INTRA:          -4.074
REMARK INTER:                  -3.911
REMARK INTRA:                  -0.164
REMARK UNBOUND:                -0.027
REMARK SMILES O=C([O-])CCC(=O)[O-]
REMARK SMILES IDX 4 1 2 2 1 3 3 4 5 5 6 6 7 7 8 8
REMARK H PARENT
REMARK Flexibility Score: inf
ROOT
ATOM      1  C   UNL     1      -7.950  -8.619  -5.525  1.00  0.00     0.059 C 
ENDROOT
BRANCH   1   2
ATOM      2  C   UNL     1      -6.511  -8.320  -5.232  1.00  0.00     0.042 C 
ATOM      3  O   UNL     1      -5.844  -7.589  -6.010  1.00  0.00    -0.550 OA
ATOM      4  O   UNL     1      -5.919  -8.815  -4.077  1.00  0.00    -0.550 OA
ENDBRANCH   1   2
BRANCH   1   5
ATOM      5  C   UNL     1      -8.777  -7.335  -5.659  1.00  0.00     0.059 C 
BRANCH   5   6
ATOM      6  C   UNL     1      -8.699  -6.496  -4.421  1.00  0.00     0.042 C 
ATOM      7  O   UNL     1      -9.215  -6.902  -3.347  1.00  0.00    -0.550 OA
ATOM      8  O   UNL     1      -8.020  -5.284  -4.444  1.00  0.00    -0.550 OA
ENDBRANCH   5   6
ENDBRANCH   1   5
TORSDOF 3
ENDMDL
MODEL 8
REMARK VINA RESULT:    -3.235     22.863     23.758
REMARK INTER + INTRA:          -3.829
REMARK INTER:                  -3.709
REMARK INTRA:                  -0.120
REMARK UNBOUND:                -0.027
REMARK SMILES O=C([O-])CCC(=O)[O-]
REMARK SMILES IDX 4 1 2 2 1 3 3 4 5 5 6 6 7 7 8 8
REMARK H PARENT
REMARK Flexibility Score: inf
ROOT
ATOM      1  C   UNL     1      -7.559  -6.695  -4.830  1.00  0.00     0.059 C 
ENDROOT
BRANCH   1   2
ATOM      2  C   UNL     1      -9.005  -6.664  -4.440  1.00  0.00     0.042 C 
ATOM      3  O   UNL     1      -9.353  -6.972  -3.270  1.00  0.00    -0.550 OA
ATOM      4  O   UNL     1      -9.965  -6.256  -5.358  1.00  0.00    -0.550 OA
ENDBRANCH   1   2
BRANCH   1   5
ATOM      5  C   UNL     1      -7.202  -7.986  -5.575  1.00  0.00     0.059 C 
BRANCH   5   6
ATOM      6  C   UNL     1      -7.031  -7.745  -7.045  1.00  0.00     0.042 C 
ATOM      7  O   UNL     1      -8.020  -7.826  -7.819  1.00  0.00    -0.550 OA
ATOM      8  O   UNL     1      -5.786  -7.393  -7.551  1.00  0.00    -0.550 OA
ENDBRANCH   5   6
ENDBRANCH   1   5
TORSDOF 3
ENDMDL
MODEL 9
REMARK VINA RESULT:    -3.174     22.507     23.156
REMARK INTER + INTRA:          -3.757
REMARK INTER:                  -3.721
REMARK INTRA:                  -0.036
REMARK UNBOUND:                -0.027
REMARK SMILES O=C([O-])CCC(=O)[O-]
REMARK SMILES IDX 4 1 2 2 1 3 3 4 5 5 6 6 7 7 8 8
REMARK H PARENT
REMARK Flexibility Score: inf
ROOT
ATOM      1  C   UNL     1      -5.178  -7.796  -6.523  1.00  0.00     0.059 C 
ENDROOT
BRANCH   1   2
ATOM      2  C   UNL     1      -4.888  -7.837  -7.992  1.00  0.00     0.042 C 
ATOM      3  O   UNL     1      -5.308  -8.795  -8.695  1.00  0.00    -0.550 OA
ATOM      4  O   UNL     1      -4.188  -6.798  -8.593  1.00  0.00    -0.550 OA
ENDBRANCH   1   2
BRANCH   1   5
ATOM      5  C   UNL     1      -6.677  -7.640  -6.247  1.00  0.00     0.059 C 
BRANCH   5   6
ATOM      6  C   UNL     1      -7.027  -8.045  -4.848  1.00  0.00     0.042 C 
ATOM      7  O   UNL     1      -8.132  -7.709  -4.348  1.00  0.00    -0.550 OA
ATOM      8  O   UNL     1      -6.148  -8.829  -4.111  1.00  0.00    -0.550 OA
ENDBRANCH   5   6
ENDBRANCH   1   5
TORSDOF 3
ENDMDL
