MODEL 1
REMARK VINA RESULT:    -3.170      0.000      0.000
REMARK INTER + INTRA:          -4.237
REMARK INTER:                  -4.004
REMARK INTRA:                  -0.232
REMARK UNBOUND:                -0.232
REMARK SMILES CCCCCCO
REMARK SMILES IDX 4 1 3 2 2 3 1 4 5 5 6 6 7 7
REMARK H PARENT 7 8
REMARK Flexibility Score: inf
ROOT
ATOM      1  C   UNL     1      -0.059  32.047 -43.780  1.00  0.00     0.002 C 
ENDROOT
BRANCH   1   2
ATOM      2  C   UNL     1      -1.085  32.218 -42.652  1.00  0.00    -0.000 C 
BRANCH   2   3
ATOM      3  C   UNL     1      -1.604  30.859 -42.170  1.00  0.00    -0.003 C 
ATOM      4  C   UNL     1      -0.589  29.754 -42.444  1.00  0.00     0.004 C 
ENDBRANCH   2   3
ENDBRANCH   1   2
BRANCH   1   5
ATOM      5  C   UNL     1      -0.665  32.422 -45.137  1.00  0.00     0.028 C 
BRANCH   5   6
ATOM      6  C   UNL     1      -1.160  31.180 -45.882  1.00  0.00     0.156 C 
BRANCH   6   7
ATOM      7  O   UNL     1      -2.529  30.988 -45.649  1.00  0.00    -0.396 OA
ATOM      8  H   UNL     1      -2.731  31.419 -44.777  1.00  0.00     0.210 HD
ENDBRANCH   6   7
ENDBRANCH   5   6
ENDBRANCH   1   5
TORSDOF 5
ENDMDL
MODEL 2
REMARK VINA RESULT:    -3.009      1.424      2.450
REMARK INTER + INTRA:          -4.033
REMARK INTER:                  -3.831
REMARK INTRA:                  -0.203
REMARK UNBOUND:                -0.232
REMARK SMILES CCCCCCO
REMARK SMILES IDX 4 1 3 2 2 3 1 4 5 5 6 6 7 7
REMARK H PARENT 7 8
REMARK Flexibility Score: inf
ROOT
ATOM      1  C   UNL     1      -2.150  29.470 -43.127  1.00  0.00     0.002 C 
ENDROOT
BRANCH   1   2
ATOM      2  C   UNL     1      -1.548  30.527 -42.192  1.00  0.00    -0.000 C 
BRANCH   2   3
ATOM      3  C   UNL     1      -0.694  31.531 -42.975  1.00  0.00    -0.003 C 
ATOM      4  C   UNL     1      -1.301  32.929 -42.921  1.00  0.00     0.004 C 
ENDBRANCH   2   3
ENDBRANCH   1   2
BRANCH   1   5
ATOM      5  C   UNL     1      -1.438  29.466 -44.484  1.00  0.00     0.028 C 
BRANCH   5   6
ATOM      6  C   UNL     1      -2.445  29.521 -45.636  1.00  0.00     0.156 C 
BRANCH   6   7
ATOM      7  O   UNL     1      -3.046  30.787 -45.694  1.00  0.00    -0.396 OA
ATOM      8  H   UNL     1      -4.027  30.634 -45.700  1.00  0.00     0.210 HD
ENDBRANCH   6   7
ENDBRANCH   5   6
ENDBRANCH   1   5
TORSDOF 5
ENDMDL
MODEL 3
REMARK VINA RESULT:    -2.977     12.316     13.283
REMARK INTER + INTRA:          -3.993
REMARK INTER:                  -3.920
REMARK INTRA:                  -0.073
REMARK UNBOUND:                -0.232
REMARK SMILES CCCCCCO
REMARK SMILES IDX 4 1 3 2 2 3 1 4 5 5 6 6 7 7
REMARK H PARENT 7 8
REMARK Flexibility Score: inf
ROOT
ATOM      1  C   UNL     1     -10.829  27.440 -36.308  1.00  0.00     0.002 C 
ENDROOT
BRANCH   1   2
ATOM      2  C   UNL     1     -10.015  28.546 -36.991  1.00  0.00    -0.000 C 
BRANCH   2   3
ATOM      3  C   UNL     1     -10.896  29.759 -37.312  1.00  0.00    -0.003 C 
ATOM      4  C   UNL     1     -10.321  31.034 -36.704  1.00  0.00     0.004 C 
ENDBRANCH   2   3
ENDBRANCH   1   2
BRANCH   1   5
ATOM      5  C   UNL     1     -10.404  27.267 -34.846  1.00  0.00     0.028 C 
BRANCH   5   6
ATOM      6  C   UNL     1      -9.423  26.102 -34.690  1.00  0.00     0.156 C 
BRANCH   6   7
ATOM      7  O   UNL     1      -9.639  25.447 -33.469  1.00  0.00    -0.396 OA
ATOM      8  H   UNL     1      -9.273  24.530 -33.571  1.00  0.00     0.210 HD
ENDBRANCH   6   7
ENDBRANCH   5   6
ENDBRANCH   1   5
TORSDOF 5
ENDMDL
MODEL 4
REMARK VINA RESULT:    -2.963      1.122      2.238
REMARK INTER + INTRA:          -3.974
REMARK INTER:                  -3.753
REMARK INTRA:                  -0.222
REMARK UNBOUND:                -0.232
REMARK SMILES CCCCCCO
REMARK SMILES IDX 4 1 3 2 2 3 1 4 5 5 6 6 7 7
REMARK H PARENT 7 8
REMARK Flexibility Score: inf
ROOT
ATOM      1  C   UNL     1      -1.501  30.583 -42.298  1.00  0.00     0.002 C 
ENDROOT
BRANCH   1   2
ATOM      2  C   UNL     1      -0.154  29.849 -42.267  1.00  0.00    -0.000 C 
BRANCH   2   3
ATOM      3  C   UNL     1      -0.268  28.462 -42.910  1.00  0.00    -0.003 C 
ATOM      4  C   UNL     1      -1.727  28.084 -43.147  1.00  0.00     0.004 C 
ENDBRANCH   2   3
ENDBRANCH   1   2
BRANCH   1   5
ATOM      5  C   UNL     1      -1.343  32.001 -42.858  1.00  0.00     0.028 C 
BRANCH   5   6
ATOM      6  C   UNL     1      -1.277  31.985 -44.388  1.00  0.00     0.156 C 
BRANCH   6   7
ATOM      7  O   UNL     1      -2.297  31.176 -44.909  1.00  0.00    -0.396 OA
ATOM      8  H   UNL     1      -3.157  31.597 -44.645  1.00  0.00     0.210 HD
ENDBRANCH   6   7
ENDBRANCH   5   6
ENDBRANCH   1   5
TORSDOF 5
ENDMDL
MODEL 5
REMARK VINA RESULT:    -2.904     13.949     15.229
REMARK INTER + INTRA:          -3.900
REMARK INTER:                  -3.848
REMARK INTRA:                  -0.052
REMARK UNBOUND:                -0.232
REMARK SMILES CCCCCCO
REMARK SMILES IDX 4 1 3 2 2 3 1 4 5 5 6 6 7 7
REMARK H PARENT 7 8
REMARK Flexibility Score: inf
ROOT
ATOM      1  C   UNL     1      -8.522  24.321 -33.584  1.00  0.00     0.002 C 
ENDROOT
BRANCH   1   2
ATOM      2  C   UNL     1      -8.501  22.791 -33.689  1.00  0.00    -0.000 C 
BRANCH   2   3
ATOM      3  C   UNL     1      -9.144  22.147 -32.455  1.00  0.00    -0.003 C 
ATOM      4  C   UNL     1      -8.404  20.876 -32.049  1.00  0.00     0.004 C 
ENDBRANCH   2   3
ENDBRANCH   1   2
BRANCH   1   5
ATOM      5  C   UNL     1      -8.995  24.956 -34.896  1.00  0.00     0.028 C 
BRANCH   5   6
ATOM      6  C   UNL     1      -9.725  26.277 -34.638  1.00  0.00     0.156 C 
BRANCH   6   7
ATOM      7  O   UNL     1     -10.564  26.157 -33.521  1.00  0.00    -0.396 OA
ATOM      8  H   UNL     1     -11.484  26.023 -33.870  1.00  0.00     0.210 HD
ENDBRANCH   6   7
ENDBRANCH   5   6
ENDBRANCH   1   5
TORSDOF 5
ENDMDL
MODEL 6
REMARK VINA RESULT:    -2.895      1.691      3.301
REMARK INTER + INTRA:          -3.889
REMARK INTER:                  -3.727
REMARK INTRA:                  -0.163
REMARK UNBOUND:                -0.232
REMARK SMILES CCCCCCO
REMARK SMILES IDX 4 1 3 2 2 3 1 4 5 5 6 6 7 7
REMARK H PARENT 7 8
REMARK Flexibility Score: inf
ROOT
ATOM      1  C   UNL     1      -1.465  30.759 -42.226  1.00  0.00     0.002 C 
ENDROOT
BRANCH   1   2
ATOM      2  C   UNL     1      -1.386  32.068 -43.023  1.00  0.00    -0.000 C 
BRANCH   2   3
ATOM      3  C   UNL     1      -1.377  31.794 -44.531  1.00  0.00    -0.003 C 
ATOM      4  C   UNL     1      -0.401  32.718 -45.252  1.00  0.00     0.004 C 
ENDBRANCH   2   3
ENDBRANCH   1   2
BRANCH   1   5
ATOM      5  C   UNL     1      -0.265  29.855 -42.532  1.00  0.00     0.028 C 
BRANCH   5   6
ATOM      6  C   UNL     1      -0.695  28.391 -42.659  1.00  0.00     0.156 C 
BRANCH   6   7
ATOM      7  O   UNL     1      -2.072  28.311 -42.915  1.00  0.00    -0.396 OA
ATOM      8  H   UNL     1      -2.173  28.238 -43.900  1.00  0.00     0.210 HD
ENDBRANCH   6   7
ENDBRANCH   5   6
ENDBRANCH   1   5
TORSDOF 5
ENDMDL
MODEL 7
REMARK VINA RESULT:    -2.893     12.146     13.079
REMARK INTER + INTRA:          -3.887
REMARK INTER:                  -3.743
REMARK INTRA:                  -0.143
REMARK UNBOUND:                -0.232
REMARK SMILES CCCCCCO
REMARK SMILES IDX 4 1 3 2 2 3 1 4 5 5 6 6 7 7
REMARK H PARENT 7 8
REMARK Flexibility Score: inf
ROOT
ATOM      1  C   UNL     1      -9.579  26.129 -37.296  1.00  0.00     0.002 C 
ENDROOT
BRANCH   1   2
ATOM      2  C   UNL     1     -10.883  26.930 -37.402  1.00  0.00    -0.000 C 
BRANCH   2   3
ATOM      3  C   UNL     1     -10.638  28.293 -38.059  1.00  0.00    -0.003 C 
ATOM      4  C   UNL     1      -9.972  29.261 -37.086  1.00  0.00     0.004 C 
ENDBRANCH   2   3
ENDBRANCH   1   2
BRANCH   1   5
ATOM      5  C   UNL     1      -9.528  25.332 -35.988  1.00  0.00     0.028 C 
BRANCH   5   6
ATOM      6  C   UNL     1      -9.442  26.265 -34.776  1.00  0.00     0.156 C 
BRANCH   6   7
ATOM      7  O   UNL     1      -9.845  25.589 -33.615  1.00  0.00    -0.396 OA
ATOM      8  H   UNL     1      -9.649  24.627 -33.764  1.00  0.00     0.210 HD
ENDBRANCH   6   7
ENDBRANCH   5   6
ENDBRANCH   1   5
TORSDOF 5
ENDMDL
MODEL 8
REMARK VINA RESULT:    -2.841     12.288     13.329
REMARK INTER + INTRA:          -3.821
REMARK INTER:                  -3.691
REMARK INTRA:                  -0.130
REMARK UNBOUND:                -0.232
REMARK SMILES CCCCCCO
REMARK SMILES IDX 4 1 3 2 2 3 1 4 5 5 6 6 7 7
REMARK H PARENT 7 8
REMARK Flexibility Score: inf
ROOT
ATOM      1  C   UNL     1     -11.102  26.953 -36.069  1.00  0.00     0.002 C 
ENDROOT
BRANCH   1   2
ATOM      2  C   UNL     1     -10.520  27.672 -37.293  1.00  0.00    -0.000 C 
BRANCH   2   3
ATOM      3  C   UNL     1     -10.468  26.738 -38.507  1.00  0.00    -0.003 C 
ATOM      4  C   UNL     1      -9.394  25.669 -38.333  1.00  0.00     0.004 C 
ENDBRANCH   2   3
ENDBRANCH   1   2
BRANCH   1   5
ATOM      5  C   UNL     1     -10.193  27.124 -34.847  1.00  0.00     0.028 C 
BRANCH   5   6
ATOM      6  C   UNL     1      -9.310  25.891 -34.639  1.00  0.00     0.156 C 
BRANCH   6   7
ATOM      7  O   UNL     1      -9.576  25.309 -33.391  1.00  0.00    -0.396 OA
ATOM      8  H   UNL     1      -8.812  24.709 -33.189  1.00  0.00     0.210 HD
ENDBRANCH   6   7
ENDBRANCH   5   6
ENDBRANCH   1   5
TORSDOF 5
ENDMDL
MODEL 9
REMARK VINA RESULT:    -2.827     13.184     14.267
REMARK INTER + INTRA:          -3.803
REMARK INTER:                  -3.680
REMARK INTRA:                  -0.123
REMARK UNBOUND:                -0.232
REMARK SMILES CCCCCCO
REMARK SMILES IDX 4 1 3 2 2 3 1 4 5 5 6 6 7 7
REMARK H PARENT 7 8
REMARK Flexibility Score: inf
ROOT
ATOM      1  C   UNL     1     -10.360  27.667 -36.145  1.00  0.00     0.002 C 
ENDROOT
BRANCH   1   2
ATOM      2  C   UNL     1     -11.472  27.108 -37.043  1.00  0.00    -0.000 C 
BRANCH   2   3
ATOM      3  C   UNL     1     -12.720  26.764 -36.223  1.00  0.00    -0.003 C 
ATOM      4  C   UNL     1     -13.320  25.434 -36.667  1.00  0.00     0.004 C 
ENDBRANCH   2   3
ENDBRANCH   1   2
BRANCH   1   5
ATOM      5  C   UNL     1     -10.408  27.032 -34.751  1.00  0.00     0.028 C 
BRANCH   5   6
ATOM      6  C   UNL     1      -9.368  25.916 -34.618  1.00  0.00     0.156 C 
BRANCH   6   7
ATOM      7  O   UNL     1      -9.531  25.245 -33.398  1.00  0.00    -0.396 OA
ATOM      8  H   UNL     1      -9.586  24.277 -33.611  1.00  0.00     0.210 HD
ENDBRANCH   6   7
ENDBRANCH   5   6
ENDBRANCH   1   5
TORSDOF 5
ENDMDL
