MODEL 1
REMARK VINA RESULT:    -3.241      0.000      0.000
REMARK INTER + INTRA:          -3.762
REMARK INTER:                  -3.715
REMARK INTRA:                  -0.047
REMARK UNBOUND:                -0.047
REMARK SMILES O=C([O-])c1cc(O)c(O)c(O)c1
REMARK SMILES IDX 4 1 5 2 12 3 6 4 10 5 8 6 2 7 1 8 3 9 7 10 11 12 9 14
REMARK H PARENT 7 11 11 13 9 15
REMARK Flexibility Score: inf
ROOT
ATOM      1  C   UNL     1      73.162  73.783  80.901  1.00  0.00     0.005 A 
ATOM      2  C   UNL     1      73.360  73.153  79.663  1.00  0.00     0.060 A 
ATOM      3  C   UNL     1      72.727  75.117  80.924  1.00  0.00     0.060 A 
ATOM      4  C   UNL     1      73.126  73.843  78.467  1.00  0.00     0.162 A 
ATOM      5  C   UNL     1      72.488  75.819  79.736  1.00  0.00     0.162 A 
ATOM      6  C   UNL     1      72.691  75.175  78.492  1.00  0.00     0.200 A 
ENDROOT
BRANCH   1   7
ATOM      7  C   UNL     1      73.409  73.056  82.166  1.00  0.00     0.072 C 
ATOM      8  O   UNL     1      74.239  73.494  83.006  1.00  0.00    -0.545 OA
ATOM      9  O   UNL     1      72.726  71.877  82.446  1.00  0.00    -0.545 OA
ENDBRANCH   1   7
BRANCH   4  10
ATOM     10  O   UNL     1      73.324  73.208  77.241  1.00  0.00    -0.504 OA
ATOM     11  H   UNL     1      73.942  73.595  76.537  1.00  0.00     0.293 HD
ENDBRANCH   4  10
BRANCH   5  12
ATOM     12  O   UNL     1      72.056  77.143  79.838  1.00  0.00    -0.504 OA
ATOM     13  H   UNL     1      72.249  77.742  80.627  1.00  0.00     0.293 HD
ENDBRANCH   5  12
BRANCH   6  14
ATOM     14  O   UNL     1      72.472  75.817  77.270  1.00  0.00    -0.502 OA
ATOM     15  H   UNL     1      73.210  76.149  76.665  1.00  0.00     0.293 HD
ENDBRANCH   6  14
TORSDOF 4
ENDMDL
MODEL 2
REMARK VINA RESULT:    -3.192      0.157      2.439
REMARK INTER + INTRA:          -3.705
REMARK INTER:                  -3.659
REMARK INTRA:                  -0.046
REMARK UNBOUND:                -0.047
REMARK SMILES O=C([O-])c1cc(O)c(O)c(O)c1
REMARK SMILES IDX 4 1 5 2 12 3 6 4 10 5 8 6 2 7 1 8 3 9 7 10 11 12 9 14
REMARK H PARENT 7 11 11 13 9 15
REMARK Flexibility Score: inf
ROOT
ATOM      1  C   UNL     1      73.051  73.758  80.987  1.00  0.00     0.005 A 
ATOM      2  C   UNL     1      72.571  75.077  80.980  1.00  0.00     0.060 A 
ATOM      3  C   UNL     1      73.307  73.121  79.762  1.00  0.00     0.060 A 
ATOM      4  C   UNL     1      72.351  75.749  79.772  1.00  0.00     0.162 A 
ATOM      5  C   UNL     1      73.093  73.781  78.547  1.00  0.00     0.162 A 
ATOM      6  C   UNL     1      72.609  75.111  78.550  1.00  0.00     0.200 A 
ENDROOT
BRANCH   1   7
ATOM      7  C   UNL     1      73.283  73.046  82.263  1.00  0.00     0.072 C 
ATOM      8  O   UNL     1      74.114  73.486  83.101  1.00  0.00    -0.545 OA
ATOM      9  O   UNL     1      72.585  71.879  82.556  1.00  0.00    -0.545 OA
ENDBRANCH   1   7
BRANCH   4  10
ATOM     10  O   UNL     1      71.875  77.060  79.775  1.00  0.00    -0.504 OA
ATOM     11  H   UNL     1      72.331  77.788  80.312  1.00  0.00     0.293 HD
ENDBRANCH   4  10
BRANCH   5  12
ATOM     12  O   UNL     1      73.370  73.083  77.370  1.00  0.00    -0.504 OA
ATOM     13  H   UNL     1      74.301  72.889  77.032  1.00  0.00     0.293 HD
ENDBRANCH   5  12
BRANCH   6  14
ATOM     14  O   UNL     1      72.373  75.827  77.373  1.00  0.00    -0.502 OA
ATOM     15  H   UNL     1      71.902  76.720  77.338  1.00  0.00     0.293 HD
ENDBRANCH   6  14
TORSDOF 4
ENDMDL
MODEL 3
REMARK VINA RESULT:    -3.158      2.440      3.580
REMARK INTER + INTRA:          -3.666
REMARK INTER:                  -3.614
REMARK INTRA:                  -0.052
REMARK UNBOUND:                -0.047
REMARK SMILES O=C([O-])c1cc(O)c(O)c(O)c1
REMARK SMILES IDX 4 1 5 2 12 3 6 4 10 5 8 6 2 7 1 8 3 9 7 10 11 12 9 14
REMARK H PARENT 7 11 11 13 9 15
REMARK Flexibility Score: inf
ROOT
ATOM      1  C   UNL     1      74.962  73.026  80.232  1.00  0.00     0.005 A 
ATOM      2  C   UNL     1      73.769  72.992  79.494  1.00  0.00     0.060 A 
ATOM      3  C   UNL     1      76.178  72.792  79.569  1.00  0.00     0.060 A 
ATOM      4  C   UNL     1      73.789  72.731  78.119  1.00  0.00     0.162 A 
ATOM      5  C   UNL     1      76.212  72.531  78.195  1.00  0.00     0.162 A 
ATOM      6  C   UNL     1      75.004  72.499  77.459  1.00  0.00     0.200 A 
ENDROOT
BRANCH   1   7
ATOM      7  C   UNL     1      74.944  73.301  81.685  1.00  0.00     0.072 C 
ATOM      8  O   UNL     1      75.987  73.684  82.279  1.00  0.00    -0.545 OA
ATOM      9  O   UNL     1      73.772  73.141  82.418  1.00  0.00    -0.545 OA
ENDBRANCH   1   7
BRANCH   4  10
ATOM     10  O   UNL     1      72.598  72.700  77.393  1.00  0.00    -0.504 OA
ATOM     11  H   UNL     1      72.480  72.091  76.592  1.00  0.00     0.293 HD
ENDBRANCH   4  10
BRANCH   5  12
ATOM     12  O   UNL     1      77.459  72.309  77.606  1.00  0.00    -0.504 OA
ATOM     13  H   UNL     1      77.596  71.815  76.737  1.00  0.00     0.293 HD
ENDBRANCH   5  12
BRANCH   6  14
ATOM     14  O   UNL     1      74.968  72.243  76.086  1.00  0.00    -0.502 OA
ATOM     15  H   UNL     1      75.701  72.504  75.441  1.00  0.00     0.293 HD
ENDBRANCH   6  14
TORSDOF 4
ENDMDL
MODEL 4
REMARK VINA RESULT:    -3.147     17.985     19.442
REMARK INTER + INTRA:          -3.653
REMARK INTER:                  -3.608
REMARK INTRA:                  -0.045
REMARK UNBOUND:                -0.047
REMARK SMILES O=C([O-])c1cc(O)c(O)c(O)c1
REMARK SMILES IDX 4 1 5 2 12 3 6 4 10 5 8 6 2 7 1 8 3 9 7 10 11 12 9 14
REMARK H PARENT 7 11 11 13 9 15
REMARK Flexibility Score: inf
ROOT
ATOM      1  C   UNL     1      75.116  87.980  92.189  1.00  0.00     0.005 A 
ATOM      2  C   UNL     1      76.439  88.295  91.842  1.00  0.00     0.060 A 
ATOM      3  C   UNL     1      74.261  89.010  92.614  1.00  0.00     0.060 A 
ATOM      4  C   UNL     1      76.900  89.615  91.917  1.00  0.00     0.162 A 
ATOM      5  C   UNL     1      74.708  90.334  92.692  1.00  0.00     0.162 A 
ATOM      6  C   UNL     1      76.044  90.641  92.340  1.00  0.00     0.200 A 
ENDROOT
BRANCH   1   7
ATOM      7  C   UNL     1      74.626  86.586  92.112  1.00  0.00     0.072 C 
ATOM      8  O   UNL     1      73.850  86.230  91.186  1.00  0.00    -0.545 OA
ATOM      9  O   UNL     1      75.017  85.649  93.062  1.00  0.00    -0.545 OA
ENDBRANCH   1   7
BRANCH   4  10
ATOM     10  O   UNL     1      78.216  89.918  91.569  1.00  0.00    -0.504 OA
ATOM     11  H   UNL     1      78.689  90.733  91.943  1.00  0.00     0.293 HD
ENDBRANCH   4  10
BRANCH   5  12
ATOM     12  O   UNL     1      73.800  91.303  93.122  1.00  0.00    -0.504 OA
ATOM     13  H   UNL     1      73.017  91.629  92.574  1.00  0.00     0.293 HD
ENDBRANCH   5  12
BRANCH   6  14
ATOM     14  O   UNL     1      76.555  91.941  92.396  1.00  0.00    -0.502 OA
ATOM     15  H   UNL     1      76.383  92.648  91.695  1.00  0.00     0.293 HD
ENDBRANCH   6  14
TORSDOF 4
ENDMDL
MODEL 5
REMARK VINA RESULT:    -3.116      2.445      3.307
REMARK INTER + INTRA:          -3.617
REMARK INTER:                  -3.566
REMARK INTRA:                  -0.051
REMARK UNBOUND:                -0.047
REMARK SMILES O=C([O-])c1cc(O)c(O)c(O)c1
REMARK SMILES IDX 4 1 5 2 12 3 6 4 10 5 8 6 2 7 1 8 3 9 7 10 11 12 9 14
REMARK H PARENT 7 11 11 13 9 15
REMARK Flexibility Score: inf
ROOT
ATOM      1  C   UNL     1      74.906  72.986  80.256  1.00  0.00     0.005 A 
ATOM      2  C   UNL     1      76.145  72.781  79.628  1.00  0.00     0.060 A 
ATOM      3  C   UNL     1      73.736  72.950  79.481  1.00  0.00     0.060 A 
ATOM      4  C   UNL     1      76.213  72.543  78.250  1.00  0.00     0.162 A 
ATOM      5  C   UNL     1      73.790  72.712  78.103  1.00  0.00     0.162 A 
ATOM      6  C   UNL     1      75.043  72.507  77.478  1.00  0.00     0.200 A 
ENDROOT
BRANCH   1   7
ATOM      7  C   UNL     1      74.831  73.238  81.712  1.00  0.00     0.072 C 
ATOM      8  O   UNL     1      75.822  73.704  82.334  1.00  0.00    -0.545 OA
ATOM      9  O   UNL     1      73.663  72.964  82.415  1.00  0.00    -0.545 OA
ENDBRANCH   1   7
BRANCH   4  10
ATOM     10  O   UNL     1      77.448  72.340  77.634  1.00  0.00    -0.504 OA
ATOM     11  H   UNL     1      77.516  71.999  76.682  1.00  0.00     0.293 HD
ENDBRANCH   4  10
BRANCH   5  12
ATOM     12  O   UNL     1      72.584  72.691  77.399  1.00  0.00    -0.504 OA
ATOM     13  H   UNL     1      72.251  71.899  76.870  1.00  0.00     0.293 HD
ENDBRANCH   5  12
BRANCH   6  14
ATOM     14  O   UNL     1      75.168  72.266  76.107  1.00  0.00    -0.502 OA
ATOM     15  H   UNL     1      74.515  71.714  75.567  1.00  0.00     0.293 HD
ENDBRANCH   6  14
TORSDOF 4
ENDMDL
MODEL 6
REMARK VINA RESULT:    -3.092      1.604      2.948
REMARK INTER + INTRA:          -3.590
REMARK INTER:                  -3.545
REMARK INTRA:                  -0.045
REMARK UNBOUND:                -0.047
REMARK SMILES O=C([O-])c1cc(O)c(O)c(O)c1
REMARK SMILES IDX 4 1 5 2 12 3 6 4 10 5 8 6 2 7 1 8 3 9 7 10 11 12 9 14
REMARK H PARENT 7 11 11 13 9 15
REMARK Flexibility Score: inf
ROOT
ATOM      1  C   UNL     1      73.763  73.048  80.868  1.00  0.00     0.005 A 
ATOM      2  C   UNL     1      73.000  73.809  79.969  1.00  0.00     0.060 A 
ATOM      3  C   UNL     1      74.928  72.415  80.404  1.00  0.00     0.060 A 
ATOM      4  C   UNL     1      73.392  73.937  78.632  1.00  0.00     0.162 A 
ATOM      5  C   UNL     1      75.332  72.535  79.070  1.00  0.00     0.162 A 
ATOM      6  C   UNL     1      74.556  73.305  78.171  1.00  0.00     0.200 A 
ENDROOT
BRANCH   1   7
ATOM      7  C   UNL     1      73.350  72.911  82.282  1.00  0.00     0.072 C 
ATOM      8  O   UNL     1      73.968  73.524  83.193  1.00  0.00    -0.545 OA
ATOM      9  O   UNL     1      72.272  72.103  82.626  1.00  0.00    -0.545 OA
ENDBRANCH   1   7
BRANCH   4  10
ATOM     10  O   UNL     1      72.627  74.696  77.746  1.00  0.00    -0.504 OA
ATOM     11  H   UNL     1      72.450  74.386  76.798  1.00  0.00     0.293 HD
ENDBRANCH   4  10
BRANCH   5  12
ATOM     12  O   UNL     1      76.502  71.878  78.683  1.00  0.00    -0.504 OA
ATOM     13  H   UNL     1      76.529  71.101  78.040  1.00  0.00     0.293 HD
ENDBRANCH   5  12
BRANCH   6  14
ATOM     14  O   UNL     1      74.902  73.465  76.827  1.00  0.00    -0.502 OA
ATOM     15  H   UNL     1      75.726  73.063  76.402  1.00  0.00     0.293 HD
ENDBRANCH   6  14
TORSDOF 4
ENDMDL
MODEL 7
REMARK VINA RESULT:    -2.987      2.946      4.724
REMARK INTER + INTRA:          -3.470
REMARK INTER:                  -3.417
REMARK INTRA:                  -0.053
REMARK UNBOUND:                -0.047
REMARK SMILES O=C([O-])c1cc(O)c(O)c(O)c1
REMARK SMILES IDX 4 1 5 2 12 3 6 4 10 5 8 6 2 7 1 8 3 9 7 10 11 12 9 14
REMARK H PARENT 7 11 11 13 9 15
REMARK Flexibility Score: inf
ROOT
ATOM      1  C   UNL     1      74.533  72.929  80.816  1.00  0.00     0.005 A 
ATOM      2  C   UNL     1      73.319  72.645  81.460  1.00  0.00     0.060 A 
ATOM      3  C   UNL     1      75.519  73.650  81.509  1.00  0.00     0.060 A 
ATOM      4  C   UNL     1      73.093  73.072  82.774  1.00  0.00     0.162 A 
ATOM      5  C   UNL     1      75.307  74.081  82.824  1.00  0.00     0.162 A 
ATOM      6  C   UNL     1      74.079  73.790  83.465  1.00  0.00     0.200 A 
ENDROOT
BRANCH   1   7
ATOM      7  C   UNL     1      74.775  72.480  79.427  1.00  0.00     0.072 C 
ATOM      8  O   UNL     1      75.906  72.625  78.893  1.00  0.00    -0.545 OA
ATOM      9  O   UNL     1      73.754  71.888  78.691  1.00  0.00    -0.545 OA
ENDBRANCH   1   7
BRANCH   4  10
ATOM     10  O   UNL     1      71.884  72.784  83.406  1.00  0.00    -0.504 OA
ATOM     11  H   UNL     1      71.289  73.518  83.772  1.00  0.00     0.293 HD
ENDBRANCH   4  10
BRANCH   5  12
ATOM     12  O   UNL     1      76.334  74.792  83.449  1.00  0.00    -0.504 OA
ATOM     13  H   UNL     1      77.313  74.568  83.360  1.00  0.00     0.293 HD
ENDBRANCH   5  12
BRANCH   6  14
ATOM     14  O   UNL     1      73.802  74.192  84.774  1.00  0.00    -0.502 OA
ATOM     15  H   UNL     1      73.960  75.126  85.126  1.00  0.00     0.293 HD
ENDBRANCH   6  14
TORSDOF 4
ENDMDL
MODEL 8
REMARK VINA RESULT:    -2.972      2.622      4.073
REMARK INTER + INTRA:          -3.453
REMARK INTER:                  -3.404
REMARK INTRA:                  -0.050
REMARK UNBOUND:                -0.047
REMARK SMILES O=C([O-])c1cc(O)c(O)c(O)c1
REMARK SMILES IDX 4 1 5 2 12 3 6 4 10 5 8 6 2 7 1 8 3 9 7 10 11 12 9 14
REMARK H PARENT 7 11 11 13 9 15
REMARK Flexibility Score: inf
ROOT
ATOM      1  C   UNL     1      75.626  72.938  78.771  1.00  0.00     0.005 A 
ATOM      2  C   UNL     1      74.717  73.683  78.004  1.00  0.00     0.060 A 
ATOM      3  C   UNL     1      75.284  72.595  80.089  1.00  0.00     0.060 A 
ATOM      4  C   UNL     1      73.486  74.077  78.543  1.00  0.00     0.162 A 
ATOM      5  C   UNL     1      74.057  72.982  80.640  1.00  0.00     0.162 A 
ATOM      6  C   UNL     1      73.147  73.733  79.859  1.00  0.00     0.200 A 
ENDROOT
BRANCH   1   7
ATOM      7  C   UNL     1      76.928  72.520  78.204  1.00  0.00     0.072 C 
ATOM      8  O   UNL     1      77.965  72.513  78.918  1.00  0.00    -0.545 OA
ATOM      9  O   UNL     1      77.023  72.128  76.873  1.00  0.00    -0.545 OA
ENDBRANCH   1   7
BRANCH   4  10
ATOM     10  O   UNL     1      72.589  74.817  77.774  1.00  0.00    -0.504 OA
ATOM     11  H   UNL     1      72.022  74.381  77.055  1.00  0.00     0.293 HD
ENDBRANCH   4  10
BRANCH   5  12
ATOM     12  O   UNL     1      73.787  72.603  81.957  1.00  0.00    -0.504 OA
ATOM     13  H   UNL     1      72.872  72.640  82.381  1.00  0.00     0.293 HD
ENDBRANCH   5  12
BRANCH   6  14
ATOM     14  O   UNL     1      71.906  74.152  80.348  1.00  0.00    -0.502 OA
ATOM     15  H   UNL     1      71.318  74.834  79.890  1.00  0.00     0.293 HD
ENDBRANCH   6  14
TORSDOF 4
ENDMDL
