MODEL 1
REMARK VINA RESULT:    -7.011      0.000      0.000
REMARK INTER + INTRA:         -13.151
REMARK INTER:                 -11.109
REMARK INTRA:                  -2.042
REMARK UNBOUND:                -2.042
REMARK SMILES C[C@H]1O[C@H](O[C@H]2[C@@H](Oc3cc(O)c4c(c3)O[C@H](c3ccc(O)cc3)CC4=O)O[C@H](CO)[C@H](O)[C@H]2O)[C@@H](O)[C@H](O)[C@@H]1O
REMARK SMILES IDX 6 1 34 2 32 3 29 4 28 5 7 6 5 7 4 8 1 9 2 10 40 11 3 12
REMARK SMILES IDX 38 13 36 14 41 15 39 17 37 19 35 21 8 23 9 24 10 25 15 26
REMARK SMILES IDX 11 27 14 28 13 29 16 30 26 31 17 32 27 33 25 34 12 35 18 37
REMARK SMILES IDX 19 38 24 39 20 40 23 41 21 42 22 43 33 45 30 47 31 48
REMARK H PARENT 41 16 39 18 37 20 35 22 12 36 22 44 33 46 31 49
REMARK Flexibility Score: inf
ROOT
ATOM      1  C   UNL     1     101.328 123.065 125.793  1.00  0.00     0.221 C 
ATOM      2  C   UNL     1      99.964 123.753 126.030  1.00  0.00     0.181 C 
ATOM      3  C   UNL     1      98.817 122.806 125.623  1.00  0.00     0.177 C 
ATOM      4  C   UNL     1      99.061 122.160 124.228  1.00  0.00     0.179 C 
ATOM      5  O   UNL     1     100.388 121.677 124.043  1.00  0.00    -0.332 OA
ATOM      6  C   UNL     1     101.377 122.657 124.315  1.00  0.00     0.339 C 
ENDROOT
BRANCH   1   7
ATOM      7  O   UNL     1     101.475 121.886 126.568  1.00  0.00    -0.337 OA
BRANCH   7   8
ATOM      8  C   UNL     1     102.386 122.024 127.652  1.00  0.00     0.282 C 
ATOM      9  C   UNL     1     101.287 119.092 129.582  1.00  0.00     0.041 C 
ATOM     10  C   UNL     1     101.897 119.847 128.400  1.00  0.00     0.150 C 
ATOM     11  C   UNL     1     103.308 119.299 128.062  1.00  0.00     0.174 C 
ATOM     12  O   UNL     1     101.969 121.221 128.750  1.00  0.00    -0.344 OA
ATOM     13  C   UNL     1     103.987 120.136 126.950  1.00  0.00     0.179 C 
ATOM     14  C   UNL     1     103.819 121.657 127.195  1.00  0.00     0.202 C 
BRANCH  11  15
ATOM     15  O   UNL     1     103.276 117.938 127.715  1.00  0.00    -0.388 OA
ATOM     16  H   UNL     1     102.344 117.611 127.832  1.00  0.00     0.211 HD
ENDBRANCH  11  15
BRANCH  13  17
ATOM     17  O   UNL     1     103.537 119.777 125.661  1.00  0.00    -0.387 OA
ATOM     18  H   UNL     1     102.853 120.434 125.376  1.00  0.00     0.211 HD
ENDBRANCH  13  17
BRANCH  14  19
ATOM     19  O   UNL     1     104.774 122.113 128.124  1.00  0.00    -0.385 OA
ATOM     20  H   UNL     1     105.660 121.757 127.847  1.00  0.00     0.211 HD
ENDBRANCH  14  19
ENDBRANCH   7   8
ENDBRANCH   1   7
BRANCH   2  21
ATOM     21  O   UNL     1      99.815 124.138 127.371  1.00  0.00    -0.387 OA
ATOM     22  H   UNL     1      99.925 123.317 127.918  1.00  0.00     0.211 HD
ENDBRANCH   2  21
BRANCH   6  23
ATOM     23  O   UNL     1     102.660 122.105 124.022  1.00  0.00    -0.462 OA
BRANCH  23  24
ATOM     24  C   UNL     1     103.351 122.308 122.815  1.00  0.00     0.130 A 
ATOM     25  C   UNL     1     102.824 123.089 121.769  1.00  0.00     0.093 A 
ATOM     26  C   UNL     1     104.600 121.702 122.648  1.00  0.00     0.094 A 
ATOM     27  C   UNL     1     103.523 123.237 120.563  1.00  0.00     0.133 A 
ATOM     28  C   UNL     1     105.296 121.824 121.442  1.00  0.00     0.138 A 
ATOM     29  C   UNL     1     104.763 122.591 120.389  1.00  0.00     0.102 A 
ATOM     30  O   UNL     1     106.529 121.180 121.289  1.00  0.00    -0.484 OA
ATOM     31  C   UNL     1     105.560 122.706 119.142  1.00  0.00     0.174 C 
ATOM     32  C   UNL     1     107.110 120.957 120.001  1.00  0.00     0.211 C 
ATOM     33  O   UNL     1     105.081 123.255 118.112  1.00  0.00    -0.294 OA
ATOM     34  C   UNL     1     106.976 122.208 119.119  1.00  0.00     0.131 C 
BRANCH  27  35
ATOM     35  O   UNL     1     102.983 124.027 119.549  1.00  0.00    -0.507 OA
ATOM     36  H   UNL     1     103.033 123.746 118.574  1.00  0.00     0.293 HD
ENDBRANCH  27  35
BRANCH  32  37
ATOM     37  C   UNL     1     108.558 120.555 120.149  1.00  0.00    -0.007 A 
ATOM     38  C   UNL     1     109.336 121.081 121.196  1.00  0.00     0.011 A 
ATOM     39  C   UNL     1     109.136 119.618 119.271  1.00  0.00     0.011 A 
ATOM     40  C   UNL     1     110.669 120.686 121.352  1.00  0.00     0.046 A 
ATOM     41  C   UNL     1     110.467 119.219 119.435  1.00  0.00     0.046 A 
ATOM     42  C   UNL     1     111.236 119.752 120.474  1.00  0.00     0.115 A 
BRANCH  42  43
ATOM     43  O   UNL     1     112.562 119.348 120.624  1.00  0.00    -0.508 OA
ATOM     44  H   UNL     1     113.133 119.675 121.398  1.00  0.00     0.293 HD
ENDBRANCH  42  43
ENDBRANCH  32  37
ENDBRANCH  23  24
ENDBRANCH   6  23
BRANCH   3  45
ATOM     45  O   UNL     1      97.584 123.478 125.633  1.00  0.00    -0.387 OA
ATOM     46  H   UNL     1      97.540 124.013 124.801  1.00  0.00     0.211 HD
ENDBRANCH   3  45
BRANCH   4  47
ATOM     47  C   UNL     1      98.568 122.984 123.015  1.00  0.00     0.191 C 
BRANCH  47  48
ATOM     48  O   UNL     1      97.190 122.838 122.804  1.00  0.00    -0.394 OA
ATOM     49  H   UNL     1      96.766 123.670 123.146  1.00  0.00     0.210 HD
ENDBRANCH  47  48
ENDBRANCH   4  47
TORSDOF 14
ENDMDL
MODEL 2
REMARK VINA RESULT:    -6.989      1.900      3.357
REMARK INTER + INTRA:         -13.118
REMARK INTER:                 -11.929
REMARK INTRA:                  -1.189
REMARK UNBOUND:                -2.042
REMARK SMILES C[C@H]1O[C@H](O[C@H]2[C@@H](Oc3cc(O)c4c(c3)O[C@H](c3ccc(O)cc3)CC4=O)O[C@H](CO)[C@H](O)[C@H]2O)[C@@H](O)[C@H](O)[C@@H]1O
REMARK SMILES IDX 6 1 34 2 32 3 29 4 28 5 7 6 5 7 4 8 1 9 2 10 40 11 3 12
REMARK SMILES IDX 38 13 36 14 41 15 39 17 37 19 35 21 8 23 9 24 10 25 15 26
REMARK SMILES IDX 11 27 14 28 13 29 16 30 26 31 17 32 27 33 25 34 12 35 18 37
REMARK SMILES IDX 19 38 24 39 20 40 23 41 21 42 22 43 33 45 30 47 31 48
REMARK H PARENT 41 16 39 18 37 20 35 22 12 36 22 44 33 46 31 49
REMARK Flexibility Score: inf
ROOT
ATOM      1  C   UNL     1     101.362 119.783 124.913  1.00  0.00     0.221 C 
ATOM      2  C   UNL     1     101.155 118.278 125.199  1.00  0.00     0.181 C 
ATOM      3  C   UNL     1     102.518 117.559 125.256  1.00  0.00     0.177 C 
ATOM      4  C   UNL     1     103.430 117.941 124.053  1.00  0.00     0.179 C 
ATOM      5  O   UNL     1     103.452 119.337 123.771  1.00  0.00    -0.332 OA
ATOM      6  C   UNL     1     102.156 119.890 123.605  1.00  0.00     0.339 C 
ENDROOT
BRANCH   1   7
ATOM      7  O   UNL     1     102.121 120.422 125.928  1.00  0.00    -0.337 OA
BRANCH   7   8
ATOM      8  C   UNL     1     101.346 121.253 126.784  1.00  0.00     0.282 C 
ATOM      9  C   UNL     1     101.595 119.184 129.816  1.00  0.00     0.041 C 
ATOM     10  C   UNL     1     102.097 120.076 128.680  1.00  0.00     0.150 C 
ATOM     11  C   UNL     1     102.908 121.276 129.234  1.00  0.00     0.174 C 
ATOM     12  O   UNL     1     100.967 120.535 127.953  1.00  0.00    -0.344 OA
ATOM     13  C   UNL     1     103.315 122.253 128.104  1.00  0.00     0.179 C 
ATOM     14  C   UNL     1     102.136 122.536 127.140  1.00  0.00     0.202 C 
BRANCH  11  15
ATOM     15  O   UNL     1     104.035 120.858 129.964  1.00  0.00    -0.388 OA
ATOM     16  H   UNL     1     104.847 121.132 129.461  1.00  0.00     0.211 HD
ENDBRANCH  11  15
BRANCH  13  17
ATOM     17  O   UNL     1     104.453 121.809 127.398  1.00  0.00    -0.387 OA
ATOM     18  H   UNL     1     105.242 122.301 127.739  1.00  0.00     0.211 HD
ENDBRANCH  13  17
BRANCH  14  19
ATOM     19  O   UNL     1     101.282 123.515 127.682  1.00  0.00    -0.385 OA
ATOM     20  H   UNL     1     100.583 123.717 127.004  1.00  0.00     0.211 HD
ENDBRANCH  14  19
ENDBRANCH   7   8
ENDBRANCH   1   7
BRANCH   2  21
ATOM     21  O   UNL     1     100.459 118.080 126.401  1.00  0.00    -0.387 OA
ATOM     22  H   UNL     1      99.604 117.634 126.167  1.00  0.00     0.211 HD
ENDBRANCH   2  21
BRANCH   6  23
ATOM     23  O   UNL     1     102.287 121.265 123.245  1.00  0.00    -0.462 OA
BRANCH  23  24
ATOM     24  C   UNL     1     103.101 121.734 122.199  1.00  0.00     0.130 A 
ATOM     25  C   UNL     1     102.667 122.722 121.295  1.00  0.00     0.093 A 
ATOM     26  C   UNL     1     104.380 121.190 122.051  1.00  0.00     0.094 A 
ATOM     27  C   UNL     1     103.490 123.138 120.240  1.00  0.00     0.133 A 
ATOM     28  C   UNL     1     105.201 121.582 120.989  1.00  0.00     0.138 A 
ATOM     29  C   UNL     1     104.763 122.557 120.074  1.00  0.00     0.102 A 
ATOM     30  O   UNL     1     106.465 120.998 120.844  1.00  0.00    -0.484 OA
ATOM     31  C   UNL     1     105.689 122.951 118.983  1.00  0.00     0.174 C 
ATOM     32  C   UNL     1     107.193 121.069 119.614  1.00  0.00     0.211 C 
ATOM     33  O   UNL     1     105.309 123.709 118.049  1.00  0.00    -0.294 OA
ATOM     34  C   UNL     1     107.115 122.483 119.016  1.00  0.00     0.131 C 
BRANCH  27  35
ATOM     35  O   UNL     1     103.040 124.127 119.367  1.00  0.00    -0.507 OA
ATOM     36  H   UNL     1     103.688 124.708 118.843  1.00  0.00     0.293 HD
ENDBRANCH  27  35
BRANCH  32  37
ATOM     37  C   UNL     1     108.628 120.657 119.838  1.00  0.00    -0.007 A 
ATOM     38  C   UNL     1     109.421 121.332 120.783  1.00  0.00     0.011 A 
ATOM     39  C   UNL     1     109.179 119.565 119.138  1.00  0.00     0.011 A 
ATOM     40  C   UNL     1     110.741 120.931 121.013  1.00  0.00     0.046 A 
ATOM     41  C   UNL     1     110.496 119.162 119.376  1.00  0.00     0.046 A 
ATOM     42  C   UNL     1     111.280 119.844 120.312  1.00  0.00     0.115 A 
BRANCH  42  43
ATOM     43  O   UNL     1     112.593 119.433 120.537  1.00  0.00    -0.508 OA
ATOM     44  H   UNL     1     112.915 118.509 120.263  1.00  0.00     0.293 HD
ENDBRANCH  42  43
ENDBRANCH  32  37
ENDBRANCH  23  24
ENDBRANCH   6  23
BRANCH   3  45
ATOM     45  O   UNL     1     102.349 116.166 125.306  1.00  0.00    -0.387 OA
ATOM     46  H   UNL     1     103.106 115.801 125.830  1.00  0.00     0.211 HD
ENDBRANCH   3  45
BRANCH   4  47
ATOM     47  C   UNL     1     103.239 117.092 122.774  1.00  0.00     0.191 C 
BRANCH  47  48
ATOM     48  O   UNL     1     104.224 117.360 121.813  1.00  0.00    -0.394 OA
ATOM     49  H   UNL     1     104.552 118.280 121.999  1.00  0.00     0.210 HD
ENDBRANCH  47  48
ENDBRANCH   4  47
TORSDOF 14
ENDMDL
MODEL 3
REMARK VINA RESULT:    -6.946      2.263      4.363
REMARK INTER + INTRA:         -13.049
REMARK INTER:                 -11.227
REMARK INTRA:                  -1.822
REMARK UNBOUND:                -2.042
REMARK SMILES C[C@H]1O[C@H](O[C@H]2[C@@H](Oc3cc(O)c4c(c3)O[C@H](c3ccc(O)cc3)CC4=O)O[C@H](CO)[C@H](O)[C@H]2O)[C@@H](O)[C@H](O)[C@@H]1O
REMARK SMILES IDX 6 1 34 2 32 3 29 4 28 5 7 6 5 7 4 8 1 9 2 10 40 11 3 12
REMARK SMILES IDX 38 13 36 14 41 15 39 17 37 19 35 21 8 23 9 24 10 25 15 26
REMARK SMILES IDX 11 27 14 28 13 29 16 30 26 31 17 32 27 33 25 34 12 35 18 37
REMARK SMILES IDX 19 38 24 39 20 40 23 41 21 42 22 43 33 45 30 47 31 48
REMARK H PARENT 41 16 39 18 37 20 35 22 12 36 22 44 33 46 31 49
REMARK Flexibility Score: inf
ROOT
ATOM      1  C   UNL     1     102.799 119.906 124.652  1.00  0.00     0.221 C 
ATOM      2  C   UNL     1     103.411 119.127 125.838  1.00  0.00     0.181 C 
ATOM      3  C   UNL     1     102.775 119.596 127.163  1.00  0.00     0.177 C 
ATOM      4  C   UNL     1     102.734 121.149 127.272  1.00  0.00     0.179 C 
ATOM      5  O   UNL     1     102.291 121.795 126.082  1.00  0.00    -0.332 OA
ATOM      6  C   UNL     1     103.019 121.399 124.931  1.00  0.00     0.339 C 
ENDROOT
BRANCH   1   7
ATOM      7  O   UNL     1     101.401 119.694 124.534  1.00  0.00    -0.337 OA
BRANCH   7   8
ATOM      8  C   UNL     1     101.021 119.042 123.329  1.00  0.00     0.282 C 
ATOM      9  C   UNL     1     100.369 115.718 124.762  1.00  0.00     0.041 C 
ATOM     10  C   UNL     1     100.157 117.215 124.535  1.00  0.00     0.150 C 
ATOM     11  C   UNL     1      98.687 117.512 124.139  1.00  0.00     0.174 C 
ATOM     12  O   UNL     1     101.042 117.630 123.505  1.00  0.00    -0.344 OA
ATOM     13  C   UNL     1      98.489 119.007 123.784  1.00  0.00     0.179 C 
ATOM     14  C   UNL     1      99.626 119.534 122.873  1.00  0.00     0.202 C 
BRANCH  11  15
ATOM     15  O   UNL     1      97.781 117.109 125.134  1.00  0.00    -0.388 OA
ATOM     16  H   UNL     1      98.236 116.443 125.715  1.00  0.00     0.211 HD
ENDBRANCH  11  15
BRANCH  13  17
ATOM     17  O   UNL     1      98.343 119.813 124.933  1.00  0.00    -0.387 OA
ATOM     18  H   UNL     1      98.019 119.241 125.675  1.00  0.00     0.211 HD
ENDBRANCH  13  17
BRANCH  14  19
ATOM     19  O   UNL     1      99.384 119.182 121.532  1.00  0.00    -0.385 OA
ATOM     20  H   UNL     1      98.568 118.614 121.510  1.00  0.00     0.211 HD
ENDBRANCH  14  19
ENDBRANCH   7   8
ENDBRANCH   1   7
BRANCH   2  21
ATOM     21  O   UNL     1     103.230 117.743 125.685  1.00  0.00    -0.387 OA
ATOM     22  H   UNL     1     103.929 117.431 125.054  1.00  0.00     0.211 HD
ENDBRANCH   2  21
BRANCH   6  23
ATOM     23  O   UNL     1     102.559 122.159 123.814  1.00  0.00    -0.462 OA
BRANCH  23  24
ATOM     24  C   UNL     1     103.291 122.344 122.628  1.00  0.00     0.130 A 
ATOM     25  C   UNL     1     102.802 123.113 121.556  1.00  0.00     0.093 A 
ATOM     26  C   UNL     1     104.543 121.732 122.512  1.00  0.00     0.094 A 
ATOM     27  C   UNL     1     103.543 123.244 120.372  1.00  0.00     0.133 A 
ATOM     28  C   UNL     1     105.279 121.837 121.328  1.00  0.00     0.138 A 
ATOM     29  C   UNL     1     104.786 122.592 120.248  1.00  0.00     0.102 A 
ATOM     30  O   UNL     1     106.515 121.187 121.226  1.00  0.00    -0.484 OA
ATOM     31  C   UNL     1     105.624 122.689 119.028  1.00  0.00     0.174 C 
ATOM     32  C   UNL     1     107.138 120.946 119.960  1.00  0.00     0.211 C 
ATOM     33  O   UNL     1     105.182 123.226 117.976  1.00  0.00    -0.294 OA
ATOM     34  C   UNL     1     107.038 122.186 119.059  1.00  0.00     0.131 C 
BRANCH  27  35
ATOM     35  O   UNL     1     103.040 124.022 119.331  1.00  0.00    -0.507 OA
ATOM     36  H   UNL     1     103.447 123.991 118.401  1.00  0.00     0.293 HD
ENDBRANCH  27  35
BRANCH  32  37
ATOM     37  C   UNL     1     108.579 120.542 120.163  1.00  0.00    -0.007 A 
ATOM     38  C   UNL     1     109.293 120.997 121.286  1.00  0.00     0.011 A 
ATOM     39  C   UNL     1     109.214 119.669 119.257  1.00  0.00     0.011 A 
ATOM     40  C   UNL     1     110.618 120.598 121.490  1.00  0.00     0.046 A 
ATOM     41  C   UNL     1     110.536 119.266 119.468  1.00  0.00     0.046 A 
ATOM     42  C   UNL     1     111.241 119.730 120.583  1.00  0.00     0.115 A 
BRANCH  42  43
ATOM     43  O   UNL     1     112.560 119.323 120.780  1.00  0.00    -0.508 OA
ATOM     44  H   UNL     1     112.915 118.460 120.378  1.00  0.00     0.293 HD
ENDBRANCH  42  43
ENDBRANCH  32  37
ENDBRANCH  23  24
ENDBRANCH   6  23
BRANCH   3  45
ATOM     45  O   UNL     1     103.456 119.056 128.266  1.00  0.00    -0.387 OA
ATOM     46  H   UNL     1     104.424 119.163 128.089  1.00  0.00     0.211 HD
ENDBRANCH   3  45
BRANCH   4  47
ATOM     47  C   UNL     1     104.003 121.812 127.855  1.00  0.00     0.191 C 
BRANCH  47  48
ATOM     48  O   UNL     1     104.026 121.765 129.256  1.00  0.00    -0.394 OA
ATOM     49  H   UNL     1     103.347 122.422 129.567  1.00  0.00     0.210 HD
ENDBRANCH  47  48
ENDBRANCH   4  47
TORSDOF 14
ENDMDL
MODEL 4
REMARK VINA RESULT:    -6.895      1.535      2.299
REMARK INTER + INTRA:         -12.969
REMARK INTER:                 -10.727
REMARK INTRA:                  -2.242
REMARK UNBOUND:                -2.042
REMARK SMILES C[C@H]1O[C@H](O[C@H]2[C@@H](Oc3cc(O)c4c(c3)O[C@H](c3ccc(O)cc3)CC4=O)O[C@H](CO)[C@H](O)[C@H]2O)[C@@H](O)[C@H](O)[C@@H]1O
REMARK SMILES IDX 6 1 34 2 32 3 29 4 28 5 7 6 5 7 4 8 1 9 2 10 40 11 3 12
REMARK SMILES IDX 38 13 36 14 41 15 39 17 37 19 35 21 8 23 9 24 10 25 15 26
REMARK SMILES IDX 11 27 14 28 13 29 16 30 26 31 17 32 27 33 25 34 12 35 18 37
REMARK SMILES IDX 19 38 24 39 20 40 23 41 21 42 22 43 33 45 30 47 31 48
REMARK H PARENT 41 16 39 18 37 20 35 22 12 36 22 44 33 46 31 49
REMARK Flexibility Score: inf
ROOT
ATOM      1  C   UNL     1     101.944 122.559 123.416  1.00  0.00     0.221 C 
ATOM      2  C   UNL     1     101.127 123.454 124.375  1.00  0.00     0.181 C 
ATOM      3  C   UNL     1      99.728 122.844 124.602  1.00  0.00     0.177 C 
ATOM      4  C   UNL     1      99.052 122.422 123.265  1.00  0.00     0.179 C 
ATOM      5  O   UNL     1      99.921 121.723 122.378  1.00  0.00    -0.332 OA
ATOM      6  C   UNL     1     101.130 122.419 122.123  1.00  0.00     0.339 C 
ENDROOT
BRANCH   1   7
ATOM      7  O   UNL     1     102.146 121.255 123.939  1.00  0.00    -0.337 OA
BRANCH   7   8
ATOM      8  C   UNL     1     103.509 120.949 124.202  1.00  0.00     0.282 C 
ATOM      9  C   UNL     1     103.264 120.767 127.867  1.00  0.00     0.041 C 
ATOM     10  C   UNL     1     102.995 120.354 126.420  1.00  0.00     0.150 C 
ATOM     11  C   UNL     1     103.317 118.852 126.204  1.00  0.00     0.174 C 
ATOM     12  O   UNL     1     103.804 121.160 125.578  1.00  0.00    -0.344 OA
ATOM     13  C   UNL     1     103.168 118.451 124.716  1.00  0.00     0.179 C 
ATOM     14  C   UNL     1     103.821 119.494 123.774  1.00  0.00     0.202 C 
BRANCH  11  15
ATOM     15  O   UNL     1     102.536 118.021 127.027  1.00  0.00    -0.388 OA
ATOM     16  H   UNL     1     101.940 117.482 126.442  1.00  0.00     0.211 HD
ENDBRANCH  11  15
BRANCH  13  17
ATOM     17  O   UNL     1     101.823 118.215 124.358  1.00  0.00    -0.387 OA
ATOM     18  H   UNL     1     101.294 118.113 125.190  1.00  0.00     0.211 HD
ENDBRANCH  13  17
BRANCH  14  19
ATOM     19  O   UNL     1     105.210 119.282 123.695  1.00  0.00    -0.385 OA
ATOM     20  H   UNL     1     105.374 118.616 122.974  1.00  0.00     0.211 HD
ENDBRANCH  14  19
ENDBRANCH   7   8
ENDBRANCH   1   7
BRANCH   2  21
ATOM     21  O   UNL     1     101.784 123.615 125.605  1.00  0.00    -0.387 OA
ATOM     22  H   UNL     1     102.064 122.710 125.900  1.00  0.00     0.211 HD
ENDBRANCH   2  21
BRANCH   6  23
ATOM     23  O   UNL     1     101.890 121.682 121.166  1.00  0.00    -0.462 OA
BRANCH  23  24
ATOM     24  C   UNL     1     103.007 122.192 120.482  1.00  0.00     0.130 A 
ATOM     25  C   UNL     1     102.933 123.345 119.677  1.00  0.00     0.093 A 
ATOM     26  C   UNL     1     104.227 121.521 120.600  1.00  0.00     0.094 A 
ATOM     27  C   UNL     1     104.058 123.802 118.977  1.00  0.00     0.133 A 
ATOM     28  C   UNL     1     105.350 121.955 119.888  1.00  0.00     0.138 A 
ATOM     29  C   UNL     1     105.275 123.097 119.070  1.00  0.00     0.102 A 
ATOM     30  O   UNL     1     106.552 121.246 119.999  1.00  0.00    -0.484 OA
ATOM     31  C   UNL     1     106.506 123.525 118.361  1.00  0.00     0.174 C 
ATOM     32  C   UNL     1     107.610 121.402 119.048  1.00  0.00     0.211 C 
ATOM     33  O   UNL     1     106.475 124.450 117.503  1.00  0.00    -0.294 OA
ATOM     34  C   UNL     1     107.820 122.885 118.704  1.00  0.00     0.131 C 
BRANCH  27  35
ATOM     35  O   UNL     1     103.960 124.953 118.197  1.00  0.00    -0.507 OA
ATOM     36  H   UNL     1     103.343 125.717 118.455  1.00  0.00     0.293 HD
ENDBRANCH  27  35
BRANCH  32  37
ATOM     37  C   UNL     1     108.881 120.788 119.584  1.00  0.00    -0.007 A 
ATOM     38  C   UNL     1     109.433 119.648 118.971  1.00  0.00     0.011 A 
ATOM     39  C   UNL     1     109.554 121.370 120.676  1.00  0.00     0.011 A 
ATOM     40  C   UNL     1     110.626 119.098 119.449  1.00  0.00     0.046 A 
ATOM     41  C   UNL     1     110.751 120.822 121.146  1.00  0.00     0.046 A 
ATOM     42  C   UNL     1     111.289 119.684 120.536  1.00  0.00     0.115 A 
BRANCH  42  43
ATOM     43  O   UNL     1     112.481 119.146 121.017  1.00  0.00    -0.508 OA
ATOM     44  H   UNL     1     113.003 119.595 121.765  1.00  0.00     0.293 HD
ENDBRANCH  42  43
ENDBRANCH  32  37
ENDBRANCH  23  24
ENDBRANCH   6  23
BRANCH   3  45
ATOM     45  O   UNL     1      98.898 123.737 125.299  1.00  0.00    -0.387 OA
ATOM     46  H   UNL     1      97.986 123.353 125.287  1.00  0.00     0.211 HD
ENDBRANCH   3  45
BRANCH   4  47
ATOM     47  C   UNL     1      98.252 123.530 122.541  1.00  0.00     0.191 C 
BRANCH  47  48
ATOM     48  O   UNL     1      97.009 123.763 123.146  1.00  0.00    -0.394 OA
ATOM     49  H   UNL     1      96.323 123.431 122.507  1.00  0.00     0.210 HD
ENDBRANCH  47  48
ENDBRANCH   4  47
TORSDOF 14
ENDMDL
MODEL 5
REMARK VINA RESULT:    -6.758      2.193      3.135
REMARK INTER + INTRA:         -12.751
REMARK INTER:                 -10.625
REMARK INTRA:                  -2.126
REMARK UNBOUND:                -2.042
REMARK SMILES C[C@H]1O[C@H](O[C@H]2[C@@H](Oc3cc(O)c4c(c3)O[C@H](c3ccc(O)cc3)CC4=O)O[C@H](CO)[C@H](O)[C@H]2O)[C@@H](O)[C@H](O)[C@@H]1O
REMARK SMILES IDX 6 1 34 2 32 3 29 4 28 5 7 6 5 7 4 8 1 9 2 10 40 11 3 12
REMARK SMILES IDX 38 13 36 14 41 15 39 17 37 19 35 21 8 23 9 24 10 25 15 26
REMARK SMILES IDX 11 27 14 28 13 29 16 30 26 31 17 32 27 33 25 34 12 35 18 37
REMARK SMILES IDX 19 38 24 39 20 40 23 41 21 42 22 43 33 45 30 47 31 48
REMARK H PARENT 41 16 39 18 37 20 35 22 12 36 22 44 33 46 31 49
REMARK Flexibility Score: inf
ROOT
ATOM      1  C   UNL     1     102.558 121.117 125.232  1.00  0.00     0.221 C 
ATOM      2  C   UNL     1     102.644 121.761 126.634  1.00  0.00     0.181 C 
ATOM      3  C   UNL     1     101.261 122.301 127.052  1.00  0.00     0.177 C 
ATOM      4  C   UNL     1     100.594 123.137 125.920  1.00  0.00     0.179 C 
ATOM      5  O   UNL     1     100.685 122.533 124.632  1.00  0.00    -0.332 OA
ATOM      6  C   UNL     1     102.014 122.186 124.276  1.00  0.00     0.339 C 
ENDROOT
BRANCH   1   7
ATOM      7  O   UNL     1     101.662 120.017 125.200  1.00  0.00    -0.337 OA
BRANCH   7   8
ATOM      8  C   UNL     1     102.309 118.751 125.219  1.00  0.00     0.282 C 
ATOM      9  C   UNL     1      99.322 116.693 125.829  1.00  0.00     0.041 C 
ATOM     10  C   UNL     1     100.240 117.641 125.056  1.00  0.00     0.150 C 
ATOM     11  C   UNL     1     100.522 117.099 123.631  1.00  0.00     0.174 C 
ATOM     12  O   UNL     1     101.450 117.769 125.787  1.00  0.00    -0.344 OA
ATOM     13  C   UNL     1     101.549 117.985 122.883  1.00  0.00     0.179 C 
ATOM     14  C   UNL     1     102.750 118.356 123.788  1.00  0.00     0.202 C 
BRANCH  11  15
ATOM     15  O   UNL     1      99.344 116.955 122.878  1.00  0.00    -0.388 OA
ATOM     16  H   UNL     1      98.576 116.931 123.509  1.00  0.00     0.211 HD
ENDBRANCH  11  15
BRANCH  13  17
ATOM     17  O   UNL     1     100.955 119.138 122.328  1.00  0.00    -0.387 OA
ATOM     18  H   UNL     1     100.225 118.851 121.723  1.00  0.00     0.211 HD
ENDBRANCH  13  17
BRANCH  14  19
ATOM     19  O   UNL     1     103.683 117.302 123.825  1.00  0.00    -0.385 OA
ATOM     20  H   UNL     1     104.145 117.276 122.945  1.00  0.00     0.211 HD
ENDBRANCH  14  19
ENDBRANCH   7   8
ENDBRANCH   1   7
BRANCH   2  21
ATOM     21  O   UNL     1     103.107 120.842 127.589  1.00  0.00    -0.387 OA
ATOM     22  H   UNL     1     103.779 121.318 128.142  1.00  0.00     0.211 HD
ENDBRANCH   2  21
BRANCH   6  23
ATOM     23  O   UNL     1     102.011 121.670 122.945  1.00  0.00    -0.462 OA
BRANCH  23  24
ATOM     24  C   UNL     1     102.909 122.068 121.940  1.00  0.00     0.130 A 
ATOM     25  C   UNL     1     102.578 123.046 120.982  1.00  0.00     0.093 A 
ATOM     26  C   UNL     1     104.167 121.463 121.889  1.00  0.00     0.094 A 
ATOM     27  C   UNL     1     103.484 123.390 119.969  1.00  0.00     0.133 A 
ATOM     28  C   UNL     1     105.070 121.783 120.870  1.00  0.00     0.138 A 
ATOM     29  C   UNL     1     104.737 122.747 119.901  1.00  0.00     0.102 A 
ATOM     30  O   UNL     1     106.312 121.138 120.822  1.00  0.00    -0.484 OA
ATOM     31  C   UNL     1     105.745 123.064 118.860  1.00  0.00     0.174 C 
ATOM     32  C   UNL     1     107.117 121.137 119.639  1.00  0.00     0.211 C 
ATOM     33  O   UNL     1     105.460 123.808 117.883  1.00  0.00    -0.294 OA
ATOM     34  C   UNL     1     107.143 122.533 118.997  1.00  0.00     0.131 C 
BRANCH  27  35
ATOM     35  O   UNL     1     103.136 124.370 119.041  1.00  0.00    -0.507 OA
ATOM     36  H   UNL     1     102.273 124.314 118.509  1.00  0.00     0.293 HD
ENDBRANCH  27  35
BRANCH  32  37
ATOM     37  C   UNL     1     108.514 120.668 119.966  1.00  0.00    -0.007 A 
ATOM     38  C   UNL     1     109.170 121.138 121.118  1.00  0.00     0.011 A 
ATOM     39  C   UNL     1     109.163 119.722 119.148  1.00  0.00     0.011 A 
ATOM     40  C   UNL     1     110.452 120.680 121.437  1.00  0.00     0.046 A 
ATOM     41  C   UNL     1     110.442 119.260 119.474  1.00  0.00     0.046 A 
ATOM     42  C   UNL     1     111.090 119.739 120.617  1.00  0.00     0.115 A 
BRANCH  42  43
ATOM     43  O   UNL     1     112.366 119.272 120.929  1.00  0.00    -0.508 OA
ATOM     44  H   UNL     1     112.801 119.473 121.825  1.00  0.00     0.293 HD
ENDBRANCH  42  43
ENDBRANCH  32  37
ENDBRANCH  23  24
ENDBRANCH   6  23
BRANCH   3  45
ATOM     45  O   UNL     1     101.355 123.070 128.223  1.00  0.00    -0.387 OA
ATOM     46  H   UNL     1     101.977 123.816 128.030  1.00  0.00     0.211 HD
ENDBRANCH   3  45
BRANCH   4  47
ATOM     47  C   UNL     1     100.970 124.636 125.886  1.00  0.00     0.191 C 
BRANCH  47  48
ATOM     48  O   UNL     1     100.343 125.359 126.912  1.00  0.00    -0.394 OA
ATOM     49  H   UNL     1     100.202 124.717 127.658  1.00  0.00     0.210 HD
ENDBRANCH  47  48
ENDBRANCH   4  47
TORSDOF 14
ENDMDL
MODEL 6
REMARK VINA RESULT:    -6.718      5.505      9.483
REMARK INTER + INTRA:         -12.688
REMARK INTER:                 -10.898
REMARK INTRA:                  -1.789
REMARK UNBOUND:                -2.042
REMARK SMILES C[C@H]1O[C@H](O[C@H]2[C@@H](Oc3cc(O)c4c(c3)O[C@H](c3ccc(O)cc3)CC4=O)O[C@H](CO)[C@H](O)[C@H]2O)[C@@H](O)[C@H](O)[C@@H]1O
REMARK SMILES IDX 6 1 34 2 32 3 29 4 28 5 7 6 5 7 4 8 1 9 2 10 40 11 3 12
REMARK SMILES IDX 38 13 36 14 41 15 39 17 37 19 35 21 8 23 9 24 10 25 15 26
REMARK SMILES IDX 11 27 14 28 13 29 16 30 26 31 17 32 27 33 25 34 12 35 18 37
REMARK SMILES IDX 19 38 24 39 20 40 23 41 21 42 22 43 33 45 30 47 31 48
REMARK H PARENT 41 16 39 18 37 20 35 22 12 36 22 44 33 46 31 49
REMARK Flexibility Score: inf
ROOT
ATOM      1  C   UNL     1     100.805 119.790 115.845  1.00  0.00     0.221 C 
ATOM      2  C   UNL     1     100.316 120.907 114.895  1.00  0.00     0.181 C 
ATOM      3  C   UNL     1     101.521 121.693 114.339  1.00  0.00     0.177 C 
ATOM      4  C   UNL     1     102.523 122.094 115.461  1.00  0.00     0.179 C 
ATOM      5  O   UNL     1     102.810 121.043 116.377  1.00  0.00    -0.332 OA
ATOM      6  C   UNL     1     101.643 120.463 116.939  1.00  0.00     0.339 C 
ENDROOT
BRANCH   1   7
ATOM      7  O   UNL     1     101.638 118.850 115.184  1.00  0.00    -0.337 OA
BRANCH   7   8
ATOM      8  C   UNL     1     101.028 117.579 114.994  1.00  0.00     0.282 C 
ATOM      9  C   UNL     1     100.457 117.858 111.371  1.00  0.00     0.041 C 
ATOM     10  C   UNL     1     101.273 117.761 112.660  1.00  0.00     0.150 C 
ATOM     11  C   UNL     1     102.311 116.612 112.573  1.00  0.00     0.174 C 
ATOM     12  O   UNL     1     100.371 117.534 113.732  1.00  0.00    -0.344 OA
ATOM     13  C   UNL     1     103.058 116.423 113.917  1.00  0.00     0.179 C 
ATOM     14  C   UNL     1     102.085 116.455 115.121  1.00  0.00     0.202 C 
BRANCH  11  15
ATOM     15  O   UNL     1     103.220 116.801 111.517  1.00  0.00    -0.388 OA
ATOM     16  H   UNL     1     102.942 116.218 110.762  1.00  0.00     0.211 HD
ENDBRANCH  11  15
BRANCH  13  17
ATOM     17  O   UNL     1     104.104 117.357 114.082  1.00  0.00    -0.387 OA
ATOM     18  H   UNL     1     104.102 117.967 113.301  1.00  0.00     0.211 HD
ENDBRANCH  13  17
BRANCH  14  19
ATOM     19  O   UNL     1     101.466 115.202 115.287  1.00  0.00    -0.385 OA
ATOM     20  H   UNL     1     102.043 114.519 114.852  1.00  0.00     0.211 HD
ENDBRANCH  14  19
ENDBRANCH   7   8
ENDBRANCH   1   7
BRANCH   2  21
ATOM     21  O   UNL     1      99.560 120.379 113.837  1.00  0.00    -0.387 OA
ATOM     22  H   UNL     1      99.721 120.963 113.050  1.00  0.00     0.211 HD
ENDBRANCH   2  21
BRANCH   6  23
ATOM     23  O   UNL     1     102.036 119.483 117.900  1.00  0.00    -0.462 OA
BRANCH  23  24
ATOM     24  C   UNL     1     102.716 119.776 119.095  1.00  0.00     0.130 A 
ATOM     25  C   UNL     1     102.036 120.051 120.298  1.00  0.00     0.093 A 
ATOM     26  C   UNL     1     104.113 119.804 119.081  1.00  0.00     0.094 A 
ATOM     27  C   UNL     1     102.746 120.378 121.462  1.00  0.00     0.133 A 
ATOM     28  C   UNL     1     104.830 120.150 120.231  1.00  0.00     0.138 A 
ATOM     29  C   UNL     1     104.154 120.442 121.430  1.00  0.00     0.102 A 
ATOM     30  O   UNL     1     106.228 120.202 120.182  1.00  0.00    -0.484 OA
ATOM     31  C   UNL     1     104.968 120.777 122.623  1.00  0.00     0.174 C 
ATOM     32  C   UNL     1     106.993 120.886 121.178  1.00  0.00     0.211 C 
ATOM     33  O   UNL     1     104.428 121.187 123.686  1.00  0.00    -0.294 OA
ATOM     34  C   UNL     1     106.456 120.577 122.584  1.00  0.00     0.131 C 
BRANCH  27  35
ATOM     35  O   UNL     1     102.049 120.634 122.641  1.00  0.00    -0.507 OA
ATOM     36  H   UNL     1     101.609 119.886 123.171  1.00  0.00     0.293 HD
ENDBRANCH  27  35
BRANCH  32  37
ATOM     37  C   UNL     1     108.450 120.505 121.062  1.00  0.00    -0.007 A 
ATOM     38  C   UNL     1     109.299 120.597 122.179  1.00  0.00     0.011 A 
ATOM     39  C   UNL     1     108.968 120.010 119.849  1.00  0.00     0.011 A 
ATOM     40  C   UNL     1     110.641 120.216 122.080  1.00  0.00     0.046 A 
ATOM     41  C   UNL     1     110.308 119.622 119.755  1.00  0.00     0.046 A 
ATOM     42  C   UNL     1     111.148 119.724 120.869  1.00  0.00     0.115 A 
BRANCH  42  43
ATOM     43  O   UNL     1     112.482 119.337 120.760  1.00  0.00    -0.508 OA
ATOM     44  H   UNL     1     113.054 119.167 121.583  1.00  0.00     0.293 HD
ENDBRANCH  42  43
ENDBRANCH  32  37
ENDBRANCH  23  24
ENDBRANCH   6  23
BRANCH   3  45
ATOM     45  O   UNL     1     101.097 122.835 113.642  1.00  0.00    -0.387 OA
ATOM     46  H   UNL     1     100.107 122.840 113.668  1.00  0.00     0.211 HD
ENDBRANCH   3  45
BRANCH   4  47
ATOM     47  C   UNL     1     102.217 123.427 116.183  1.00  0.00     0.191 C 
BRANCH  47  48
ATOM     48  O   UNL     1     102.705 124.534 115.474  1.00  0.00    -0.394 OA
ATOM     49  H   UNL     1     103.541 124.813 115.936  1.00  0.00     0.210 HD
ENDBRANCH  47  48
ENDBRANCH   4  47
TORSDOF 14
ENDMDL
MODEL 7
REMARK VINA RESULT:    -6.682      5.632     10.347
REMARK INTER + INTRA:         -12.630
REMARK INTER:                 -10.525
REMARK INTRA:                  -2.105
REMARK UNBOUND:                -2.042
REMARK SMILES C[C@H]1O[C@H](O[C@H]2[C@@H](Oc3cc(O)c4c(c3)O[C@H](c3ccc(O)cc3)CC4=O)O[C@H](CO)[C@H](O)[C@H]2O)[C@@H](O)[C@H](O)[C@@H]1O
REMARK SMILES IDX 6 1 34 2 32 3 29 4 28 5 7 6 5 7 4 8 1 9 2 10 40 11 3 12
REMARK SMILES IDX 38 13 36 14 41 15 39 17 37 19 35 21 8 23 9 24 10 25 15 26
REMARK SMILES IDX 11 27 14 28 13 29 16 30 26 31 17 32 27 33 25 34 12 35 18 37
REMARK SMILES IDX 19 38 24 39 20 40 23 41 21 42 22 43 33 45 30 47 31 48
REMARK H PARENT 41 16 39 18 37 20 35 22 12 36 22 44 33 46 31 49
REMARK Flexibility Score: inf
ROOT
ATOM      1  C   UNL     1     103.186 119.710 114.222  1.00  0.00     0.221 C 
ATOM      2  C   UNL     1     103.961 118.760 113.281  1.00  0.00     0.181 C 
ATOM      3  C   UNL     1     103.002 117.709 112.685  1.00  0.00     0.177 C 
ATOM      4  C   UNL     1     102.099 117.059 113.775  1.00  0.00     0.179 C 
ATOM      5  O   UNL     1     101.537 117.996 114.687  1.00  0.00    -0.332 OA
ATOM      6  C   UNL     1     102.509 118.838 115.287  1.00  0.00     0.339 C 
ENDROOT
BRANCH   1   7
ATOM      7  O   UNL     1     102.166 120.424 113.542  1.00  0.00    -0.337 OA
BRANCH   7   8
ATOM      8  C   UNL     1     102.441 121.812 113.395  1.00  0.00     0.282 C 
ATOM      9  C   UNL     1      99.862 122.550 110.877  1.00  0.00     0.041 C 
ATOM     10  C   UNL     1     100.414 122.137 112.242  1.00  0.00     0.150 C 
ATOM     11  C   UNL     1      99.784 122.989 113.375  1.00  0.00     0.174 C 
ATOM     12  O   UNL     1     101.823 122.313 112.215  1.00  0.00    -0.344 OA
ATOM     13  C   UNL     1     100.426 122.668 114.747  1.00  0.00     0.179 C 
ATOM     14  C   UNL     1     101.970 122.585 114.651  1.00  0.00     0.202 C 
BRANCH  11  15
ATOM     15  O   UNL     1      98.387 122.843 113.429  1.00  0.00    -0.388 OA
ATOM     16  H   UNL     1      98.182 122.047 113.988  1.00  0.00     0.211 HD
ENDBRANCH  11  15
BRANCH  13  17
ATOM     17  O   UNL     1      99.890 121.498 115.327  1.00  0.00    -0.387 OA
ATOM     18  H   UNL     1     100.299 121.379 116.221  1.00  0.00     0.211 HD
ENDBRANCH  13  17
BRANCH  14  19
ATOM     19  O   UNL     1     102.535 123.874 114.686  1.00  0.00    -0.385 OA
ATOM     20  H   UNL     1     101.870 124.507 114.303  1.00  0.00     0.211 HD
ENDBRANCH  14  19
ENDBRANCH   7   8
ENDBRANCH   1   7
BRANCH   2  21
ATOM     21  O   UNL     1     104.593 119.470 112.249  1.00  0.00    -0.387 OA
ATOM     22  H   UNL     1     105.004 118.796 111.647  1.00  0.00     0.211 HD
ENDBRANCH   2  21
BRANCH   6  23
ATOM     23  O   UNL     1     101.861 119.679 116.241  1.00  0.00    -0.462 OA
BRANCH  23  24
ATOM     24  C   UNL     1     102.503 120.259 117.349  1.00  0.00     0.130 A 
ATOM     25  C   UNL     1     101.804 121.009 118.314  1.00  0.00     0.093 A 
ATOM     26  C   UNL     1     103.883 120.091 117.486  1.00  0.00     0.094 A 
ATOM     27  C   UNL     1     102.483 121.608 119.385  1.00  0.00     0.133 A 
ATOM     28  C   UNL     1     104.574 120.702 118.538  1.00  0.00     0.138 A 
ATOM     29  C   UNL     1     103.881 121.466 119.494  1.00  0.00     0.102 A 
ATOM     30  O   UNL     1     105.961 120.544 118.634  1.00  0.00    -0.484 OA
ATOM     31  C   UNL     1     104.663 122.067 120.602  1.00  0.00     0.174 C 
ATOM     32  C   UNL     1     106.765 121.412 119.439  1.00  0.00     0.211 C 
ATOM     33  O   UNL     1     104.132 122.878 121.409  1.00  0.00    -0.294 OA
ATOM     34  C   UNL     1     106.097 121.667 120.799  1.00  0.00     0.131 C 
BRANCH  27  35
ATOM     35  O   UNL     1     101.765 122.334 120.332  1.00  0.00    -0.507 OA
ATOM     36  H   UNL     1     102.224 122.775 121.124  1.00  0.00     0.293 HD
ENDBRANCH  27  35
BRANCH  32  37
ATOM     37  C   UNL     1     108.143 120.820 119.619  1.00  0.00    -0.007 A 
ATOM     38  C   UNL     1     109.057 121.408 120.511  1.00  0.00     0.011 A 
ATOM     39  C   UNL     1     108.516 119.649 118.930  1.00  0.00     0.011 A 
ATOM     40  C   UNL     1     110.322 120.842 120.700  1.00  0.00     0.046 A 
ATOM     41  C   UNL     1     109.779 119.082 119.126  1.00  0.00     0.046 A 
ATOM     42  C   UNL     1     110.685 119.677 120.010  1.00  0.00     0.115 A 
BRANCH  42  43
ATOM     43  O   UNL     1     111.942 119.103 120.195  1.00  0.00    -0.508 OA
ATOM     44  H   UNL     1     112.795 119.641 120.071  1.00  0.00     0.293 HD
ENDBRANCH  42  43
ENDBRANCH  32  37
ENDBRANCH  23  24
ENDBRANCH   6  23
BRANCH   3  45
ATOM     45  O   UNL     1     103.714 116.714 111.995  1.00  0.00    -0.387 OA
ATOM     46  H   UNL     1     103.993 117.105 111.130  1.00  0.00     0.211 HD
ENDBRANCH   3  45
BRANCH   4  47
ATOM     47  C   UNL     1     102.703 115.833 114.498  1.00  0.00     0.191 C 
BRANCH  47  48
ATOM     48  O   UNL     1     102.537 114.652 113.762  1.00  0.00    -0.394 OA
ATOM     49  H   UNL     1     102.489 113.913 114.427  1.00  0.00     0.210 HD
ENDBRANCH  47  48
ENDBRANCH   4  47
TORSDOF 14
ENDMDL
MODEL 8
REMARK VINA RESULT:    -6.574      7.050     10.341
REMARK INTER + INTRA:         -12.459
REMARK INTER:                 -10.710
REMARK INTRA:                  -1.749
REMARK UNBOUND:                -2.042
REMARK SMILES C[C@H]1O[C@H](O[C@H]2[C@@H](Oc3cc(O)c4c(c3)O[C@H](c3ccc(O)cc3)CC4=O)O[C@H](CO)[C@H](O)[C@H]2O)[C@@H](O)[C@H](O)[C@@H]1O
REMARK SMILES IDX 6 1 34 2 32 3 29 4 28 5 7 6 5 7 4 8 1 9 2 10 40 11 3 12
REMARK SMILES IDX 38 13 36 14 41 15 39 17 37 19 35 21 8 23 9 24 10 25 15 26
REMARK SMILES IDX 11 27 14 28 13 29 16 30 26 31 17 32 27 33 25 34 12 35 18 37
REMARK SMILES IDX 19 38 24 39 20 40 23 41 21 42 22 43 33 45 30 47 31 48
REMARK H PARENT 41 16 39 18 37 20 35 22 12 36 22 44 33 46 31 49
REMARK Flexibility Score: inf
ROOT
ATOM      1  C   UNL     1     100.890 118.015 113.873  1.00  0.00     0.221 C 
ATOM      2  C   UNL     1     101.315 117.563 112.457  1.00  0.00     0.181 C 
ATOM      3  C   UNL     1     102.707 116.902 112.508  1.00  0.00     0.177 C 
ATOM      4  C   UNL     1     103.725 117.752 113.325  1.00  0.00     0.179 C 
ATOM      5  O   UNL     1     103.204 118.246 114.555  1.00  0.00    -0.332 OA
ATOM      6  C   UNL     1     101.985 118.954 114.395  1.00  0.00     0.339 C 
ENDROOT
BRANCH   1   7
ATOM      7  O   UNL     1     100.794 116.925 114.777  1.00  0.00    -0.337 OA
BRANCH   7   8
ATOM      8  C   UNL     1      99.456 116.544 115.073  1.00  0.00     0.282 C 
ATOM      9  C   UNL     1      99.510 113.264 113.408  1.00  0.00     0.041 C 
ATOM     10  C   UNL     1      99.902 114.320 114.441  1.00  0.00     0.150 C 
ATOM     11  C   UNL     1      99.748 113.768 115.883  1.00  0.00     0.174 C 
ATOM     12  O   UNL     1      99.063 115.450 114.251  1.00  0.00    -0.344 OA
ATOM     13  C   UNL     1     100.021 114.867 116.940  1.00  0.00     0.179 C 
ATOM     14  C   UNL     1      99.319 116.199 116.576  1.00  0.00     0.202 C 
BRANCH  11  15
ATOM     15  O   UNL     1     100.562 112.644 116.107  1.00  0.00    -0.388 OA
ATOM     16  H   UNL     1     100.980 112.741 117.004  1.00  0.00     0.211 HD
ENDBRANCH  11  15
BRANCH  13  17
ATOM     17  O   UNL     1     101.401 115.063 117.162  1.00  0.00    -0.387 OA
ATOM     18  H   UNL     1     101.570 116.038 117.222  1.00  0.00     0.211 HD
ENDBRANCH  13  17
BRANCH  14  19
ATOM     19  O   UNL     1      97.965 116.162 116.960  1.00  0.00    -0.385 OA
ATOM     20  H   UNL     1      97.498 115.519 116.363  1.00  0.00     0.211 HD
ENDBRANCH  14  19
ENDBRANCH   7   8
ENDBRANCH   1   7
BRANCH   2  21
ATOM     21  O   UNL     1     100.382 116.671 111.907  1.00  0.00    -0.387 OA
ATOM     22  H   UNL     1      99.501 117.128 111.927  1.00  0.00     0.211 HD
ENDBRANCH   2  21
BRANCH   6  23
ATOM     23  O   UNL     1     101.590 119.478 115.662  1.00  0.00    -0.462 OA
BRANCH  23  24
ATOM     24  C   UNL     1     102.209 120.570 116.294  1.00  0.00     0.130 A 
ATOM     25  C   UNL     1     101.706 121.881 116.192  1.00  0.00     0.093 A 
ATOM     26  C   UNL     1     103.369 120.342 117.040  1.00  0.00     0.094 A 
ATOM     27  C   UNL     1     102.372 122.953 116.803  1.00  0.00     0.133 A 
ATOM     28  C   UNL     1     104.053 121.407 117.635  1.00  0.00     0.138 A 
ATOM     29  C   UNL     1     103.563 122.720 117.521  1.00  0.00     0.102 A 
ATOM     30  O   UNL     1     105.231 121.156 118.349  1.00  0.00    -0.484 OA
ATOM     31  C   UNL     1     104.317 123.805 118.196  1.00  0.00     0.174 C 
ATOM     32  C   UNL     1     106.160 122.197 118.663  1.00  0.00     0.211 C 
ATOM     33  O   UNL     1     104.016 125.017 118.016  1.00  0.00    -0.294 OA
ATOM     34  C   UNL     1     105.424 123.456 119.148  1.00  0.00     0.131 C 
BRANCH  27  35
ATOM     35  O   UNL     1     101.845 124.239 116.696  1.00  0.00    -0.507 OA
ATOM     36  H   UNL     1     102.243 124.925 116.061  1.00  0.00     0.293 HD
ENDBRANCH  27  35
BRANCH  32  37
ATOM     37  C   UNL     1     107.145 121.715 119.701  1.00  0.00    -0.007 A 
ATOM     38  C   UNL     1     106.689 121.210 120.932  1.00  0.00     0.011 A 
ATOM     39  C   UNL     1     108.529 121.723 119.436  1.00  0.00     0.011 A 
ATOM     40  C   UNL     1     107.599 120.735 121.881  1.00  0.00     0.046 A 
ATOM     41  C   UNL     1     109.436 121.241 120.385  1.00  0.00     0.046 A 
ATOM     42  C   UNL     1     108.974 120.747 121.609  1.00  0.00     0.115 A 
BRANCH  42  43
ATOM     43  O   UNL     1     109.890 120.272 122.547  1.00  0.00    -0.508 OA
ATOM     44  H   UNL     1     109.594 119.965 123.469  1.00  0.00     0.293 HD
ENDBRANCH  42  43
ENDBRANCH  32  37
ENDBRANCH  23  24
ENDBRANCH   6  23
BRANCH   3  45
ATOM     45  O   UNL     1     103.203 116.673 111.215  1.00  0.00    -0.387 OA
ATOM     46  H   UNL     1     104.188 116.609 111.289  1.00  0.00     0.211 HD
ENDBRANCH   3  45
BRANCH   4  47
ATOM     47  C   UNL     1     104.473 118.846 112.529  1.00  0.00     0.191 C 
BRANCH  47  48
ATOM     48  O   UNL     1     105.660 118.364 111.959  1.00  0.00    -0.394 OA
ATOM     49  H   UNL     1     106.117 117.839 112.670  1.00  0.00     0.210 HD
ENDBRANCH  47  48
ENDBRANCH   4  47
TORSDOF 14
ENDMDL
MODEL 9
REMARK VINA RESULT:    -6.519      3.738      7.890
REMARK INTER + INTRA:         -12.372
REMARK INTER:                 -10.135
REMARK INTRA:                  -2.237
REMARK UNBOUND:                -2.042
REMARK SMILES C[C@H]1O[C@H](O[C@H]2[C@@H](Oc3cc(O)c4c(c3)O[C@H](c3ccc(O)cc3)CC4=O)O[C@H](CO)[C@H](O)[C@H]2O)[C@@H](O)[C@H](O)[C@@H]1O
REMARK SMILES IDX 6 1 34 2 32 3 29 4 28 5 7 6 5 7 4 8 1 9 2 10 40 11 3 12
REMARK SMILES IDX 38 13 36 14 41 15 39 17 37 19 35 21 8 23 9 24 10 25 15 26
REMARK SMILES IDX 11 27 14 28 13 29 16 30 26 31 17 32 27 33 25 34 12 35 18 37
REMARK SMILES IDX 19 38 24 39 20 40 23 41 21 42 22 43 33 45 30 47 31 48
REMARK H PARENT 41 16 39 18 37 20 35 22 12 36 22 44 33 46 31 49
REMARK Flexibility Score: inf
ROOT
ATOM      1  C   UNL     1     100.278 122.599 118.020  1.00  0.00     0.221 C 
ATOM      2  C   UNL     1      98.748 122.813 117.987  1.00  0.00     0.181 C 
ATOM      3  C   UNL     1      98.408 124.065 117.154  1.00  0.00     0.177 C 
ATOM      4  C   UNL     1      99.293 125.285 117.547  1.00  0.00     0.179 C 
ATOM      5  O   UNL     1     100.674 124.968 117.694  1.00  0.00    -0.332 OA
ATOM      6  C   UNL     1     100.902 123.884 118.581  1.00  0.00     0.339 C 
ENDROOT
BRANCH   1   7
ATOM      7  O   UNL     1     100.820 122.390 116.725  1.00  0.00    -0.337 OA
BRANCH   7   8
ATOM      8  C   UNL     1     101.165 121.036 116.461  1.00  0.00     0.282 C 
ATOM      9  C   UNL     1     101.280 121.274 112.792  1.00  0.00     0.041 C 
ATOM     10  C   UNL     1     101.708 121.561 114.232  1.00  0.00     0.150 C 
ATOM     11  C   UNL     1     103.222 121.288 114.424  1.00  0.00     0.174 C 
ATOM     12  O   UNL     1     100.941 120.729 115.090  1.00  0.00    -0.344 OA
ATOM     13  C   UNL     1     103.642 121.455 115.906  1.00  0.00     0.179 C 
ATOM     14  C   UNL     1     102.636 120.772 116.866  1.00  0.00     0.202 C 
BRANCH  11  15
ATOM     15  O   UNL     1     104.014 122.092 113.586  1.00  0.00    -0.388 OA
ATOM     16  H   UNL     1     103.982 121.707 112.670  1.00  0.00     0.211 HD
ENDBRANCH  11  15
BRANCH  13  17
ATOM     17  O   UNL     1     103.841 122.807 116.255  1.00  0.00    -0.387 OA
ATOM     18  H   UNL     1     103.039 123.320 115.979  1.00  0.00     0.211 HD
ENDBRANCH  13  17
BRANCH  14  19
ATOM     19  O   UNL     1     102.894 119.390 116.946  1.00  0.00    -0.385 OA
ATOM     20  H   UNL     1     103.732 119.268 117.467  1.00  0.00     0.211 HD
ENDBRANCH  14  19
ENDBRANCH   7   8
ENDBRANCH   1   7
BRANCH   2  21
ATOM     21  O   UNL     1      98.090 121.692 117.456  1.00  0.00    -0.387 OA
ATOM     22  H   UNL     1      98.676 121.327 116.743  1.00  0.00     0.211 HD
ENDBRANCH   2  21
BRANCH   6  23
ATOM     23  O   UNL     1     102.310 123.699 118.725  1.00  0.00    -0.462 OA
BRANCH  23  24
ATOM     24  C   UNL     1     102.915 123.052 119.817  1.00  0.00     0.130 A 
ATOM     25  C   UNL     1     102.215 122.773 121.006  1.00  0.00     0.093 A 
ATOM     26  C   UNL     1     104.259 122.683 119.715  1.00  0.00     0.094 A 
ATOM     27  C   UNL     1     102.861 122.161 122.090  1.00  0.00     0.133 A 
ATOM     28  C   UNL     1     104.919 122.093 120.797  1.00  0.00     0.138 A 
ATOM     29  C   UNL     1     104.227 121.828 121.994  1.00  0.00     0.102 A 
ATOM     30  O   UNL     1     106.274 121.763 120.681  1.00  0.00    -0.484 OA
ATOM     31  C   UNL     1     104.973 121.175 123.098  1.00  0.00     0.174 C 
ATOM     32  C   UNL     1     107.090 121.506 121.829  1.00  0.00     0.211 C 
ATOM     33  O   UNL     1     104.458 121.041 124.241  1.00  0.00    -0.294 OA
ATOM     34  C   UNL     1     106.344 120.620 122.839  1.00  0.00     0.131 C 
BRANCH  27  35
ATOM     35  O   UNL     1     102.141 121.885 123.251  1.00  0.00    -0.507 OA
ATOM     36  H   UNL     1     102.057 120.939 123.611  1.00  0.00     0.293 HD
ENDBRANCH  27  35
BRANCH  32  37
ATOM     37  C   UNL     1     108.389 120.864 121.405  1.00  0.00    -0.007 A 
ATOM     38  C   UNL     1     108.560 120.410 120.085  1.00  0.00     0.011 A 
ATOM     39  C   UNL     1     109.462 120.750 122.311  1.00  0.00     0.011 A 
ATOM     40  C   UNL     1     109.774 119.843 119.684  1.00  0.00     0.046 A 
ATOM     41  C   UNL     1     110.677 120.189 121.905  1.00  0.00     0.046 A 
ATOM     42  C   UNL     1     110.836 119.734 120.592  1.00  0.00     0.115 A 
BRANCH  42  43
ATOM     43  O   UNL     1     112.051 119.174 120.202  1.00  0.00    -0.508 OA
ATOM     44  H   UNL     1     112.456 118.384 120.697  1.00  0.00     0.293 HD
ENDBRANCH  42  43
ENDBRANCH  32  37
ENDBRANCH  23  24
ENDBRANCH   6  23
BRANCH   3  45
ATOM     45  O   UNL     1      97.050 124.398 117.279  1.00  0.00    -0.387 OA
ATOM     46  H   UNL     1      96.735 124.673 116.382  1.00  0.00     0.211 HD
ENDBRANCH   3  45
BRANCH   4  47
ATOM     47  C   UNL     1      98.765 126.143 118.720  1.00  0.00     0.191 C 
BRANCH  47  48
ATOM     48  O   UNL     1      97.831 127.098 118.295  1.00  0.00    -0.394 OA
ATOM     49  H   UNL     1      98.347 127.931 118.118  1.00  0.00     0.210 HD
ENDBRANCH  47  48
ENDBRANCH   4  47
TORSDOF 14
ENDMDL
