MODEL 1
REMARK VINA RESULT:    -5.515      0.000      0.000
REMARK INTER + INTRA:         -11.165
REMARK INTER:                  -9.385
REMARK INTRA:                  -1.780
REMARK UNBOUND:                -1.780
REMARK SMILES CCCCCCCCCCCCCC(=O)[O-]
REMARK SMILES IDX 8 1 9 2 10 3 11 4 12 5 13 6 14 7 15 8 16 9 7 10 6 11 5 12
REMARK SMILES IDX 4 13 3 14 2 15 1 16
REMARK H PARENT
REMARK Flexibility Score: inf
ROOT
ATOM      1  C   UNL     1      32.937  -2.144   9.077  1.00  0.00     0.000 C 
ENDROOT
BRANCH   1   2
ATOM      2  C   UNL     1      32.105  -1.028   9.739  1.00  0.00     0.000 C 
BRANCH   2   3
ATOM      3  C   UNL     1      32.138   0.310   8.965  1.00  0.00     0.000 C 
BRANCH   3   4
ATOM      4  C   UNL     1      30.857   0.611   8.161  1.00  0.00     0.000 C 
BRANCH   4   5
ATOM      5  C   UNL     1      29.644  -0.279   8.503  1.00  0.00     0.006 C 
BRANCH   5   6
ATOM      6  C   UNL     1      28.467   0.460   9.159  1.00  0.00     0.053 C 
BRANCH   6   7
ATOM      7  C   UNL     1      28.726   0.765  10.602  1.00  0.00     0.041 C 
ATOM      8  O   UNL     1      28.553   1.930  11.045  1.00  0.00    -0.550 OA
ATOM      9  O   UNL     1      29.127  -0.248  11.464  1.00  0.00    -0.550 OA
ENDBRANCH   6   7
ENDBRANCH   5   6
ENDBRANCH   4   5
ENDBRANCH   3   4
ENDBRANCH   2   3
ENDBRANCH   1   2
BRANCH   1  10
ATOM     10  C   UNL     1      32.166  -2.999   8.054  1.00  0.00     0.000 C 
BRANCH  10  11
ATOM     11  C   UNL     1      32.405  -2.627   6.576  1.00  0.00    -0.000 C 
BRANCH  11  12
ATOM     12  C   UNL     1      31.144  -2.223   5.793  1.00  0.00    -0.000 C 
BRANCH  12  13
ATOM     13  C   UNL     1      29.928  -3.107   6.123  1.00  0.00    -0.000 C 
BRANCH  13  14
ATOM     14  C   UNL     1      28.628  -2.580   5.495  1.00  0.00    -0.000 C 
BRANCH  14  15
ATOM     15  C   UNL     1      27.455  -2.580   6.486  1.00  0.00    -0.003 C 
ATOM     16  C   UNL     1      26.626  -1.306   6.357  1.00  0.00     0.004 C 
ENDBRANCH  14  15
ENDBRANCH  13  14
ENDBRANCH  12  13
ENDBRANCH  11  12
ENDBRANCH  10  11
ENDBRANCH   1  10
TORSDOF 12
ENDMDL
MODEL 2
REMARK VINA RESULT:    -5.481     13.934     16.800
REMARK INTER + INTRA:         -11.107
REMARK INTER:                  -9.608
REMARK INTRA:                  -1.500
REMARK UNBOUND:                -1.780
REMARK SMILES CCCCCCCCCCCCCC(=O)[O-]
REMARK SMILES IDX 8 1 9 2 10 3 11 4 12 5 13 6 14 7 15 8 16 9 7 10 6 11 5 12
REMARK SMILES IDX 4 13 3 14 2 15 1 16
REMARK H PARENT
REMARK Flexibility Score: inf
ROOT
ATOM      1  C   UNL     1      17.321   0.241  15.957  1.00  0.00     0.000 C 
ENDROOT
BRANCH   1   2
ATOM      2  C   UNL     1      16.112   0.438  15.022  1.00  0.00     0.000 C 
BRANCH   2   3
ATOM      3  C   UNL     1      15.485   1.848  15.109  1.00  0.00     0.000 C 
BRANCH   3   4
ATOM      4  C   UNL     1      15.362   2.575  13.754  1.00  0.00     0.000 C 
BRANCH   4   5
ATOM      5  C   UNL     1      15.414   1.659  12.512  1.00  0.00     0.006 C 
BRANCH   5   6
ATOM      6  C   UNL     1      16.398   2.109  11.421  1.00  0.00     0.053 C 
BRANCH   6   7
ATOM      7  C   UNL     1      17.446   1.075  11.146  1.00  0.00     0.041 C 
ATOM      8  O   UNL     1      17.740   0.770   9.961  1.00  0.00    -0.550 OA
ATOM      9  O   UNL     1      18.122   0.475  12.201  1.00  0.00    -0.550 OA
ENDBRANCH   6   7
ENDBRANCH   5   6
ENDBRANCH   4   5
ENDBRANCH   3   4
ENDBRANCH   2   3
ENDBRANCH   1   2
BRANCH   1  10
ATOM     10  C   UNL     1      17.400   1.243  17.125  1.00  0.00     0.000 C 
BRANCH  10  11
ATOM     11  C   UNL     1      17.370   0.611  18.532  1.00  0.00    -0.000 C 
BRANCH  11  12
ATOM     12  C   UNL     1      16.046   0.785  19.297  1.00  0.00    -0.000 C 
BRANCH  12  13
ATOM     13  C   UNL     1      14.848   0.152  18.567  1.00  0.00    -0.000 C 
BRANCH  13  14
ATOM     14  C   UNL     1      13.679   1.135  18.390  1.00  0.00    -0.000 C 
BRANCH  14  15
ATOM     15  C   UNL     1      14.112   2.599  18.553  1.00  0.00    -0.003 C 
ATOM     16  C   UNL     1      13.240   3.527  17.713  1.00  0.00     0.004 C 
ENDBRANCH  14  15
ENDBRANCH  13  14
ENDBRANCH  12  13
ENDBRANCH  11  12
ENDBRANCH  10  11
ENDBRANCH   1  10
TORSDOF 12
ENDMDL
MODEL 3
REMARK VINA RESULT:    -5.477     14.126     16.587
REMARK INTER + INTRA:         -11.100
REMARK INTER:                  -9.859
REMARK INTRA:                  -1.241
REMARK UNBOUND:                -1.780
REMARK SMILES CCCCCCCCCCCCCC(=O)[O-]
REMARK SMILES IDX 8 1 9 2 10 3 11 4 12 5 13 6 14 7 15 8 16 9 7 10 6 11 5 12
REMARK SMILES IDX 4 13 3 14 2 15 1 16
REMARK H PARENT
REMARK Flexibility Score: inf
ROOT
ATOM      1  C   UNL     1      15.468   3.003  13.044  1.00  0.00     0.000 C 
ENDROOT
BRANCH   1   2
ATOM      2  C   UNL     1      15.177   2.537  14.484  1.00  0.00     0.000 C 
BRANCH   2   3
ATOM      3  C   UNL     1      13.677   2.289  14.764  1.00  0.00     0.000 C 
BRANCH   3   4
ATOM      4  C   UNL     1      13.123   3.053  15.983  1.00  0.00     0.000 C 
BRANCH   4   5
ATOM      5  C   UNL     1      14.160   3.381  17.079  1.00  0.00     0.006 C 
BRANCH   5   6
ATOM      6  C   UNL     1      13.802   2.862  18.480  1.00  0.00     0.053 C 
BRANCH   6   7
ATOM      7  C   UNL     1      14.476   1.561  18.789  1.00  0.00     0.041 C 
ATOM      8  O   UNL     1      14.395   0.597  17.984  1.00  0.00    -0.550 OA
ATOM      9  O   UNL     1      15.224   1.425  19.953  1.00  0.00    -0.550 OA
ENDBRANCH   6   7
ENDBRANCH   5   6
ENDBRANCH   4   5
ENDBRANCH   3   4
ENDBRANCH   2   3
ENDBRANCH   1   2
BRANCH   1  10
ATOM     10  C   UNL     1      15.594   1.865  12.014  1.00  0.00     0.000 C 
BRANCH  10  11
ATOM     11  C   UNL     1      16.870   1.902  11.148  1.00  0.00    -0.000 C 
BRANCH  11  12
ATOM     12  C   UNL     1      17.961   0.894  11.551  1.00  0.00    -0.000 C 
BRANCH  12  13
ATOM     13  C   UNL     1      17.447  -0.185  12.520  1.00  0.00    -0.000 C 
BRANCH  13  14
ATOM     14  C   UNL     1      18.419  -0.447  13.681  1.00  0.00    -0.000 C 
BRANCH  14  15
ATOM     15  C   UNL     1      17.844  -0.017  15.039  1.00  0.00    -0.003 C 
ATOM     16  C   UNL     1      16.536  -0.742  15.336  1.00  0.00     0.004 C 
ENDBRANCH  14  15
ENDBRANCH  13  14
ENDBRANCH  12  13
ENDBRANCH  11  12
ENDBRANCH  10  11
ENDBRANCH   1  10
TORSDOF 12
ENDMDL
MODEL 4
REMARK VINA RESULT:    -5.415     14.978     17.733
REMARK INTER + INTRA:         -10.994
REMARK INTER:                 -10.264
REMARK INTRA:                  -0.730
REMARK UNBOUND:                -1.780
REMARK SMILES CCCCCCCCCCCCCC(=O)[O-]
REMARK SMILES IDX 8 1 9 2 10 3 11 4 12 5 13 6 14 7 15 8 16 9 7 10 6 11 5 12
REMARK SMILES IDX 4 13 3 14 2 15 1 16
REMARK H PARENT
REMARK Flexibility Score: inf
ROOT
ATOM      1  C   UNL     1      14.061   2.555  18.489  1.00  0.00     0.000 C 
ENDROOT
BRANCH   1   2
ATOM      2  C   UNL     1      13.743   1.047  18.472  1.00  0.00     0.000 C 
BRANCH   2   3
ATOM      3  C   UNL     1      14.442   0.254  19.600  1.00  0.00     0.000 C 
BRANCH   3   4
ATOM      4  C   UNL     1      15.862   0.748  19.940  1.00  0.00     0.000 C 
BRANCH   4   5
ATOM      5  C   UNL     1      17.009  -0.050  19.283  1.00  0.00     0.006 C 
BRANCH   5   6
ATOM      6  C   UNL     1      16.695  -1.531  19.022  1.00  0.00     0.053 C 
BRANCH   6   7
ATOM      7  C   UNL     1      16.779  -1.878  17.568  1.00  0.00     0.041 C 
ATOM      8  O   UNL     1      17.650  -2.689  17.158  1.00  0.00    -0.550 OA
ATOM      9  O   UNL     1      15.872  -1.330  16.670  1.00  0.00    -0.550 OA
ENDBRANCH   6   7
ENDBRANCH   5   6
ENDBRANCH   4   5
ENDBRANCH   3   4
ENDBRANCH   2   3
ENDBRANCH   1   2
BRANCH   1  10
ATOM     10  C   UNL     1      13.228   3.398  17.504  1.00  0.00     0.000 C 
BRANCH  10  11
ATOM     11  C   UNL     1      13.253   2.910  16.041  1.00  0.00    -0.000 C 
BRANCH  11  12
ATOM     12  C   UNL     1      14.656   2.641  15.467  1.00  0.00    -0.000 C 
BRANCH  12  13
ATOM     13  C   UNL     1      14.615   1.983  14.077  1.00  0.00    -0.000 C 
BRANCH  13  14
ATOM     14  C   UNL     1      15.455   2.745  13.039  1.00  0.00    -0.000 C 
BRANCH  14  15
ATOM     15  C   UNL     1      15.620   1.963  11.728  1.00  0.00    -0.003 C 
ATOM     16  C   UNL     1      17.080   1.935  11.285  1.00  0.00     0.004 C 
ENDBRANCH  14  15
ENDBRANCH  13  14
ENDBRANCH  12  13
ENDBRANCH  11  12
ENDBRANCH  10  11
ENDBRANCH   1  10
TORSDOF 12
ENDMDL
MODEL 5
REMARK VINA RESULT:    -5.393     14.433     17.567
REMARK INTER + INTRA:         -10.957
REMARK INTER:                  -9.890
REMARK INTRA:                  -1.068
REMARK UNBOUND:                -1.780
REMARK SMILES CCCCCCCCCCCCCC(=O)[O-]
REMARK SMILES IDX 8 1 9 2 10 3 11 4 12 5 13 6 14 7 15 8 16 9 7 10 6 11 5 12
REMARK SMILES IDX 4 13 3 14 2 15 1 16
REMARK H PARENT
REMARK Flexibility Score: inf
ROOT
ATOM      1  C   UNL     1      13.156   3.310  16.945  1.00  0.00     0.000 C 
ENDROOT
BRANCH   1   2
ATOM      2  C   UNL     1      13.226   2.682  15.539  1.00  0.00     0.000 C 
BRANCH   2   3
ATOM      3  C   UNL     1      14.669   2.439  15.040  1.00  0.00     0.000 C 
BRANCH   3   4
ATOM      4  C   UNL     1      14.758   1.784  13.647  1.00  0.00     0.000 C 
BRANCH   4   5
ATOM      5  C   UNL     1      15.792   2.416  12.690  1.00  0.00     0.006 C 
BRANCH   5   6
ATOM      6  C   UNL     1      15.910   1.725  11.322  1.00  0.00     0.053 C 
BRANCH   6   7
ATOM      7  C   UNL     1      17.249   1.086  11.127  1.00  0.00     0.041 C 
ATOM      8  O   UNL     1      17.920   0.701  12.120  1.00  0.00    -0.550 OA
ATOM      9  O   UNL     1      17.741   0.882   9.843  1.00  0.00    -0.550 OA
ENDBRANCH   6   7
ENDBRANCH   5   6
ENDBRANCH   4   5
ENDBRANCH   3   4
ENDBRANCH   2   3
ENDBRANCH   1   2
BRANCH   1  10
ATOM     10  C   UNL     1      14.465   3.222  17.753  1.00  0.00     0.000 C 
BRANCH  10  11
ATOM     11  C   UNL     1      14.371   2.416  19.065  1.00  0.00    -0.000 C 
BRANCH  11  12
ATOM     12  C   UNL     1      13.916   0.955  18.902  1.00  0.00    -0.000 C 
BRANCH  12  13
ATOM     13  C   UNL     1      15.094  -0.030  18.809  1.00  0.00    -0.000 C 
BRANCH  13  14
ATOM     14  C   UNL     1      16.322   0.443  19.604  1.00  0.00    -0.000 C 
BRANCH  14  15
ATOM     15  C   UNL     1      17.633   0.260  18.825  1.00  0.00    -0.003 C 
ATOM     16  C   UNL     1      17.703   1.213  17.636  1.00  0.00     0.004 C 
ENDBRANCH  14  15
ENDBRANCH  13  14
ENDBRANCH  12  13
ENDBRANCH  11  12
ENDBRANCH  10  11
ENDBRANCH   1  10
TORSDOF 12
ENDMDL
MODEL 6
REMARK VINA RESULT:    -5.371     14.013     16.433
REMARK INTER + INTRA:         -10.920
REMARK INTER:                  -9.351
REMARK INTRA:                  -1.569
REMARK UNBOUND:                -1.780
REMARK SMILES CCCCCCCCCCCCCC(=O)[O-]
REMARK SMILES IDX 8 1 9 2 10 3 11 4 12 5 13 6 14 7 15 8 16 9 7 10 6 11 5 12
REMARK SMILES IDX 4 13 3 14 2 15 1 16
REMARK H PARENT
REMARK Flexibility Score: inf
ROOT
ATOM      1  C   UNL     1      17.675  -0.055  15.710  1.00  0.00     0.000 C 
ENDROOT
BRANCH   1   2
ATOM      2  C   UNL     1      16.175   0.217  15.482  1.00  0.00     0.000 C 
BRANCH   2   3
ATOM      3  C   UNL     1      15.822   1.721  15.418  1.00  0.00     0.000 C 
BRANCH   3   4
ATOM      4  C   UNL     1      14.810   2.090  14.315  1.00  0.00     0.000 C 
BRANCH   4   5
ATOM      5  C   UNL     1      15.410   2.811  13.089  1.00  0.00     0.006 C 
BRANCH   5   6
ATOM      6  C   UNL     1      15.562   1.933  11.837  1.00  0.00     0.053 C 
BRANCH   6   7
ATOM      7  C   UNL     1      16.979   1.502  11.619  1.00  0.00     0.041 C 
ATOM      8  O   UNL     1      17.412   0.450  12.158  1.00  0.00    -0.550 OA
ATOM      9  O   UNL     1      17.811   2.245  10.790  1.00  0.00    -0.550 OA
ENDBRANCH   6   7
ENDBRANCH   5   6
ENDBRANCH   4   5
ENDBRANCH   3   4
ENDBRANCH   2   3
ENDBRANCH   1   2
BRANCH   1  10
ATOM     10  C   UNL     1      17.998  -1.466  16.238  1.00  0.00     0.000 C 
BRANCH  10  11
ATOM     11  C   UNL     1      16.963  -2.051  17.222  1.00  0.00    -0.000 C 
BRANCH  11  12
ATOM     12  C   UNL     1      17.305  -1.867  18.712  1.00  0.00    -0.000 C 
BRANCH  12  13
ATOM     13  C   UNL     1      16.248  -1.044  19.469  1.00  0.00    -0.000 C 
BRANCH  13  14
ATOM     14  C   UNL     1      16.545   0.464  19.443  1.00  0.00    -0.000 C 
BRANCH  14  15
ATOM     15  C   UNL     1      15.327   1.296  19.016  1.00  0.00    -0.003 C 
ATOM     16  C   UNL     1      14.113   0.407  18.770  1.00  0.00     0.004 C 
ENDBRANCH  14  15
ENDBRANCH  13  14
ENDBRANCH  12  13
ENDBRANCH  11  12
ENDBRANCH  10  11
ENDBRANCH   1  10
TORSDOF 12
ENDMDL
MODEL 7
REMARK VINA RESULT:    -5.349     14.695     17.467
REMARK INTER + INTRA:         -10.881
REMARK INTER:                  -9.752
REMARK INTRA:                  -1.130
REMARK UNBOUND:                -1.780
REMARK SMILES CCCCCCCCCCCCCC(=O)[O-]
REMARK SMILES IDX 8 1 9 2 10 3 11 4 12 5 13 6 14 7 15 8 16 9 7 10 6 11 5 12
REMARK SMILES IDX 4 13 3 14 2 15 1 16
REMARK H PARENT
REMARK Flexibility Score: inf
ROOT
ATOM      1  C   UNL     1      14.293   3.490  17.662  1.00  0.00     0.000 C 
ENDROOT
BRANCH   1   2
ATOM      2  C   UNL     1      14.322   2.603  18.922  1.00  0.00     0.000 C 
BRANCH   2   3
ATOM      3  C   UNL     1      13.841   1.155  18.672  1.00  0.00     0.000 C 
BRANCH   3   4
ATOM      4  C   UNL     1      14.605   0.083  19.474  1.00  0.00     0.000 C 
BRANCH   4   5
ATOM      5  C   UNL     1      16.060  -0.164  19.019  1.00  0.00     0.006 C 
BRANCH   5   6
ATOM      6  C   UNL     1      16.228  -0.429  17.515  1.00  0.00     0.053 C 
BRANCH   6   7
ATOM      7  C   UNL     1      17.147   0.560  16.867  1.00  0.00     0.041 C 
ATOM      8  O   UNL     1      17.616   1.519  17.532  1.00  0.00    -0.550 OA
ATOM      9  O   UNL     1      17.512   0.400  15.536  1.00  0.00    -0.550 OA
ENDBRANCH   6   7
ENDBRANCH   5   6
ENDBRANCH   4   5
ENDBRANCH   3   4
ENDBRANCH   2   3
ENDBRANCH   1   2
BRANCH   1  10
ATOM     10  C   UNL     1      13.008   3.369  16.821  1.00  0.00     0.000 C 
BRANCH  10  11
ATOM     11  C   UNL     1      13.196   2.741  15.424  1.00  0.00    -0.000 C 
BRANCH  11  12
ATOM     12  C   UNL     1      14.658   2.483  15.017  1.00  0.00    -0.000 C 
BRANCH  12  13
ATOM     13  C   UNL     1      14.782   1.752  13.669  1.00  0.00    -0.000 C 
BRANCH  13  14
ATOM     14  C   UNL     1      15.564   2.567  12.626  1.00  0.00    -0.000 C 
BRANCH  14  15
ATOM     15  C   UNL     1      15.934   1.737  11.388  1.00  0.00    -0.003 C 
ATOM     16  C   UNL     1      17.412   1.889  11.045  1.00  0.00     0.004 C 
ENDBRANCH  14  15
ENDBRANCH  13  14
ENDBRANCH  12  13
ENDBRANCH  11  12
ENDBRANCH  10  11
ENDBRANCH   1  10
TORSDOF 12
ENDMDL
MODEL 8
REMARK VINA RESULT:    -5.327     13.661     16.141
REMARK INTER + INTRA:         -10.845
REMARK INTER:                  -9.592
REMARK INTRA:                  -1.253
REMARK UNBOUND:                -1.780
REMARK SMILES CCCCCCCCCCCCCC(=O)[O-]
REMARK SMILES IDX 8 1 9 2 10 3 11 4 12 5 13 6 14 7 15 8 16 9 7 10 6 11 5 12
REMARK SMILES IDX 4 13 3 14 2 15 1 16
REMARK H PARENT
REMARK Flexibility Score: inf
ROOT
ATOM      1  C   UNL     1      17.799   0.401  11.417  1.00  0.00     0.000 C 
ENDROOT
BRANCH   1   2
ATOM      2  C   UNL     1      17.363  -0.314  12.711  1.00  0.00     0.000 C 
BRANCH   2   3
ATOM      3  C   UNL     1      18.476  -0.390  13.781  1.00  0.00     0.000 C 
BRANCH   3   4
ATOM      4  C   UNL     1      17.962  -0.389  15.235  1.00  0.00     0.000 C 
BRANCH   4   5
ATOM      5  C   UNL     1      16.440  -0.597  15.392  1.00  0.00     0.006 C 
BRANCH   5   6
ATOM      6  C   UNL     1      15.896  -0.330  16.804  1.00  0.00     0.053 C 
BRANCH   6   7
ATOM      7  C   UNL     1      15.871  -1.570  17.643  1.00  0.00     0.041 C 
ATOM      8  O   UNL     1      14.824  -2.263  17.720  1.00  0.00    -0.550 OA
ATOM      9  O   UNL     1      17.018  -1.978  18.313  1.00  0.00    -0.550 OA
ENDBRANCH   6   7
ENDBRANCH   5   6
ENDBRANCH   4   5
ENDBRANCH   3   4
ENDBRANCH   2   3
ENDBRANCH   1   2
BRANCH   1  10
ATOM     10  C   UNL     1      17.376   1.880  11.327  1.00  0.00     0.000 C 
BRANCH  10  11
ATOM     11  C   UNL     1      15.867   2.142  11.511  1.00  0.00    -0.000 C 
BRANCH  11  12
ATOM     12  C   UNL     1      15.493   2.939  12.774  1.00  0.00    -0.000 C 
BRANCH  12  13
ATOM     13  C   UNL     1      14.707   2.101  13.796  1.00  0.00    -0.000 C 
BRANCH  13  14
ATOM     14  C   UNL     1      14.619   2.780  15.173  1.00  0.00    -0.000 C 
BRANCH  14  15
ATOM     15  C   UNL     1      13.210   2.699  15.779  1.00  0.00    -0.003 C 
ATOM     16  C   UNL     1      13.192   3.248  17.202  1.00  0.00     0.004 C 
ENDBRANCH  14  15
ENDBRANCH  13  14
ENDBRANCH  12  13
ENDBRANCH  11  12
ENDBRANCH  10  11
ENDBRANCH   1  10
TORSDOF 12
ENDMDL
MODEL 9
REMARK VINA RESULT:    -5.310     15.016     17.480
REMARK INTER + INTRA:         -10.815
REMARK INTER:                  -8.952
REMARK INTRA:                  -1.863
REMARK UNBOUND:                -1.780
REMARK SMILES CCCCCCCCCCCCCC(=O)[O-]
REMARK SMILES IDX 8 1 9 2 10 3 11 4 12 5 13 6 14 7 15 8 16 9 7 10 6 11 5 12
REMARK SMILES IDX 4 13 3 14 2 15 1 16
REMARK H PARENT
REMARK Flexibility Score: inf
ROOT
ATOM      1  C   UNL     1      14.325   2.135  19.270  1.00  0.00     0.000 C 
ENDROOT
BRANCH   1   2
ATOM      2  C   UNL     1      13.788   3.081  18.178  1.00  0.00     0.000 C 
BRANCH   2   3
ATOM      3  C   UNL     1      14.686   3.150  16.922  1.00  0.00     0.000 C 
BRANCH   3   4
ATOM      4  C   UNL     1      14.176   2.318  15.729  1.00  0.00     0.000 C 
BRANCH   4   5
ATOM      5  C   UNL     1      14.914   2.562  14.395  1.00  0.00     0.006 C 
BRANCH   5   6
ATOM      6  C   UNL     1      14.745   1.447  13.352  1.00  0.00     0.053 C 
BRANCH   6   7
ATOM      7  C   UNL     1      15.859   1.438  12.350  1.00  0.00     0.041 C 
ATOM      8  O   UNL     1      15.800   2.172  11.330  1.00  0.00    -0.550 OA
ATOM      9  O   UNL     1      16.978   0.643  12.564  1.00  0.00    -0.550 OA
ENDBRANCH   6   7
ENDBRANCH   5   6
ENDBRANCH   4   5
ENDBRANCH   3   4
ENDBRANCH   2   3
ENDBRANCH   1   2
BRANCH   1  10
ATOM     10  C   UNL     1      14.106   0.637  18.987  1.00  0.00     0.000 C 
BRANCH  10  11
ATOM     11  C   UNL     1      15.207  -0.300  19.527  1.00  0.00    -0.000 C 
BRANCH  11  12
ATOM     12  C   UNL     1      16.590   0.353  19.703  1.00  0.00    -0.000 C 
BRANCH  12  13
ATOM     13  C   UNL     1      17.572  -0.019  18.579  1.00  0.00    -0.000 C 
BRANCH  13  14
ATOM     14  C   UNL     1      17.677   1.073  17.502  1.00  0.00    -0.000 C 
BRANCH  14  15
ATOM     15  C   UNL     1      17.494   0.518  16.082  1.00  0.00    -0.003 C 
ATOM     16  C   UNL     1      16.420  -0.566  16.049  1.00  0.00     0.004 C 
ENDBRANCH  14  15
ENDBRANCH  13  14
ENDBRANCH  12  13
ENDBRANCH  11  12
ENDBRANCH  10  11
ENDBRANCH   1  10
TORSDOF 12
ENDMDL
