MODEL 1
REMARK VINA RESULT:    -1.618      0.000      0.000
REMARK INTER + INTRA:          -4.587
REMARK INTER:                  -2.658
REMARK INTRA:                  -1.929
REMARK UNBOUND:                -1.929
REMARK SMILES C[C@@H]1O[C@@H](OC[C@@H]2O[C@H](Oc3c(-c4ccc(O)c(O)c4)oc4cc(O)cc(O)c4c3=O)[C@H](O)[C@@H](O)[C@H]2O)[C@@H](O)[C@H](O)[C@H]1O
REMARK SMILES IDX 7 1 36 2 34 3 32 4 9 5 8 6 6 7 5 8 4 9 1 10 2 11 42 12 3 13
REMARK SMILES IDX 40 14 38 15 43 16 41 18 39 20 37 22 35 24 10 26 11 27 12 28
REMARK SMILES IDX 30 29 21 30 29 31 31 32 22 33 27 34 23 35 26 36 24 37 13 38
REMARK SMILES IDX 20 39 14 40 18 41 15 42 16 43 19 44 17 46 28 48 25 50 33 52
REMARK H PARENT 43 17 41 19 39 21 37 23 35 25 19 45 17 47 28 49 25 51 33 53
REMARK Flexibility Score: inf
ROOT
ATOM      1  C   UNL     1      -9.109  28.519  16.232  1.00  0.00     0.180 C 
ATOM      2  C   UNL     1     -10.332  27.715  15.591  1.00  0.00     0.177 C 
ATOM      3  C   UNL     1     -11.036  27.190  16.768  1.00  0.00     0.180 C 
ATOM      4  C   UNL     1     -11.714  28.222  17.730  1.00  0.00     0.214 C 
ATOM      5  C   UNL     1     -10.506  29.048  18.161  1.00  0.00     0.339 C 
ATOM      6  O   UNL     1      -9.709  29.550  17.022  1.00  0.00    -0.332 OA
ENDROOT
BRANCH   1   7
ATOM      7  C   UNL     1      -7.703  28.075  16.806  1.00  0.00     0.198 C 
BRANCH   7   8
ATOM      8  O   UNL     1      -6.512  28.139  15.987  1.00  0.00    -0.347 OA
BRANCH   8   9
ATOM      9  C   UNL     1      -6.491  29.034  14.913  1.00  0.00     0.281 C 
ATOM     10  C   UNL     1      -7.087  29.982  12.087  1.00  0.00     0.041 C 
ATOM     11  C   UNL     1      -6.465  28.539  12.551  1.00  0.00     0.150 C 
ATOM     12  C   UNL     1      -4.940  28.394  12.373  1.00  0.00     0.174 C 
ATOM     13  O   UNL     1      -6.928  28.208  13.850  1.00  0.00    -0.344 OA
ATOM     14  C   UNL     1      -4.175  29.059  13.572  1.00  0.00     0.179 C 
ATOM     15  C   UNL     1      -5.072  29.697  14.614  1.00  0.00     0.202 C 
BRANCH  12  16
ATOM     16  O   UNL     1      -4.629  27.032  12.261  1.00  0.00    -0.388 OA
ATOM     17  H   UNL     1      -5.117  26.542  12.974  1.00  0.00     0.211 HD
ENDBRANCH  12  16
BRANCH  14  18
ATOM     18  O   UNL     1      -3.374  30.043  12.947  1.00  0.00    -0.387 OA
ATOM     19  H   UNL     1      -3.958  30.838  12.840  1.00  0.00     0.211 HD
ENDBRANCH  14  18
BRANCH  15  20
ATOM     20  O   UNL     1      -4.497  29.960  15.869  1.00  0.00    -0.385 OA
ATOM     21  H   UNL     1      -5.208  29.771  16.592  1.00  0.00     0.211 HD
ENDBRANCH  15  20
ENDBRANCH   8   9
ENDBRANCH   7   8
ENDBRANCH   1   7
BRANCH   2  22
ATOM     22  O   UNL     1     -11.056  28.467  14.607  1.00  0.00    -0.387 OA
ATOM     23  H   UNL     1     -12.042  28.095  14.594  1.00  0.00     0.211 HD
ENDBRANCH   2  22
BRANCH   3  24
ATOM     24  O   UNL     1     -11.817  26.070  16.347  1.00  0.00    -0.387 OA
ATOM     25  H   UNL     1     -12.349  26.409  15.534  1.00  0.00     0.211 HD
ENDBRANCH   3  24
BRANCH   5  26
ATOM     26  O   UNL     1      -9.701  28.391  19.249  1.00  0.00    -0.454 OA
BRANCH  26  27
ATOM     27  C   UNL     1      -9.123  28.972  20.394  1.00  0.00     0.214 A 
ATOM     28  C   UNL     1      -7.732  29.226  20.601  1.00  0.00     0.180 A 
ATOM     29  C   UNL     1      -9.878  28.934  21.583  1.00  0.00     0.239 A 
ATOM     30  O   UNL     1      -7.301  29.506  21.806  1.00  0.00    -0.452 OA
ATOM     31  C   UNL     1      -9.246  28.842  22.861  1.00  0.00     0.111 A 
ATOM     32  O   UNL     1     -11.139  28.934  21.389  1.00  0.00    -0.285 OA
ATOM     33  C   UNL     1      -7.841  28.905  22.782  1.00  0.00     0.146 A 
ATOM     34  C   UNL     1      -9.875  28.701  24.177  1.00  0.00     0.134 A 
ATOM     35  C   UNL     1      -7.149  28.301  23.834  1.00  0.00     0.094 A 
ATOM     36  C   UNL     1      -9.099  28.536  25.317  1.00  0.00     0.093 A 
ATOM     37  C   UNL     1      -7.743  28.275  25.185  1.00  0.00     0.123 A 
BRANCH  28  38
ATOM     38  C   UNL     1      -6.827  28.341  19.921  1.00  0.00     0.025 A 
ATOM     39  C   UNL     1      -5.749  28.966  19.323  1.00  0.00     0.062 A 
ATOM     40  C   UNL     1      -6.870  26.962  19.925  1.00  0.00     0.016 A 
ATOM     41  C   UNL     1      -4.543  28.285  19.243  1.00  0.00     0.158 A 
ATOM     42  C   UNL     1      -5.709  26.179  19.655  1.00  0.00     0.051 A 
ATOM     43  C   UNL     1      -4.488  26.884  19.411  1.00  0.00     0.157 A 
BRANCH  41  44
ATOM     44  O   UNL     1      -3.297  29.077  19.226  1.00  0.00    -0.504 OA
ATOM     45  H   UNL     1      -2.442  28.651  19.461  1.00  0.00     0.293 HD
ENDBRANCH  41  44
BRANCH  43  46
ATOM     46  O   UNL     1      -3.235  26.216  19.404  1.00  0.00    -0.504 OA
ATOM     47  H   UNL     1      -2.756  26.342  18.500  1.00  0.00     0.293 HD
ENDBRANCH  43  46
ENDBRANCH  28  38
BRANCH  34  48
ATOM     48  O   UNL     1     -11.237  28.638  24.355  1.00  0.00    -0.507 OA
ATOM     49  H   UNL     1     -11.694  29.338  25.015  1.00  0.00     0.293 HD
ENDBRANCH  34  48
BRANCH  37  50
ATOM     50  O   UNL     1      -7.203  27.366  26.041  1.00  0.00    -0.508 OA
ATOM     51  H   UNL     1      -7.005  26.507  25.514  1.00  0.00     0.293 HD
ENDBRANCH  37  50
ENDBRANCH  26  27
ENDBRANCH   5  26
BRANCH   4  52
ATOM     52  O   UNL     1     -12.255  27.619  18.858  1.00  0.00    -0.384 OA
ATOM     53  H   UNL     1     -11.787  27.975  19.665  1.00  0.00     0.211 HD
ENDBRANCH   4  52
TORSDOF 16
ENDMDL
MODEL 2
REMARK VINA RESULT:    -1.497      1.919      5.590
REMARK INTER + INTRA:          -4.389
REMARK INTER:                  -2.424
REMARK INTRA:                  -1.964
REMARK UNBOUND:                -1.929
REMARK SMILES C[C@@H]1O[C@@H](OC[C@@H]2O[C@H](Oc3c(-c4ccc(O)c(O)c4)oc4cc(O)cc(O)c4c3=O)[C@H](O)[C@@H](O)[C@H]2O)[C@@H](O)[C@H](O)[C@H]1O
REMARK SMILES IDX 7 1 36 2 34 3 32 4 9 5 8 6 6 7 5 8 4 9 1 10 2 11 42 12 3 13
REMARK SMILES IDX 40 14 38 15 43 16 41 18 39 20 37 22 35 24 10 26 11 27 12 28
REMARK SMILES IDX 30 29 21 30 29 31 31 32 22 33 27 34 23 35 26 36 24 37 13 38
REMARK SMILES IDX 20 39 14 40 18 41 15 42 16 43 19 44 17 46 28 48 25 50 33 52
REMARK H PARENT 43 17 41 19 39 21 37 23 35 25 19 45 17 47 28 49 25 51 33 53
REMARK Flexibility Score: inf
ROOT
ATOM      1  C   UNL     1      -7.346  28.518  16.227  1.00  0.00     0.180 C 
ATOM      2  C   UNL     1      -6.105  29.304  15.598  1.00  0.00     0.177 C 
ATOM      3  C   UNL     1      -5.403  29.815  16.783  1.00  0.00     0.180 C 
ATOM      4  C   UNL     1      -4.750  28.770  17.748  1.00  0.00     0.214 C 
ATOM      5  C   UNL     1      -5.975  27.962  18.167  1.00  0.00     0.339 C 
ATOM      6  O   UNL     1      -6.769  27.475  17.019  1.00  0.00    -0.332 OA
ENDROOT
BRANCH   1   7
ATOM      7  C   UNL     1      -8.750  28.983  16.789  1.00  0.00     0.198 C 
BRANCH   7   8
ATOM      8  O   UNL     1      -9.945  28.883  15.979  1.00  0.00    -0.347 OA
BRANCH   8   9
ATOM      9  C   UNL     1      -9.952  27.978  14.914  1.00  0.00     0.281 C 
ATOM     10  C   UNL     1      -9.331  27.007  12.101  1.00  0.00     0.041 C 
ATOM     11  C   UNL     1      -9.966  28.450  12.547  1.00  0.00     0.150 C 
ATOM     12  C   UNL     1     -11.490  28.584  12.357  1.00  0.00     0.174 C 
ATOM     13  O   UNL     1      -9.513  28.797  13.845  1.00  0.00    -0.344 OA
ATOM     14  C   UNL     1     -12.259  27.926  13.557  1.00  0.00     0.179 C 
ATOM     15  C   UNL     1     -11.365  27.303  14.611  1.00  0.00     0.202 C 
BRANCH  12  16
ATOM     16  O   UNL     1     -11.808  29.943  12.230  1.00  0.00    -0.388 OA
ATOM     17  H   UNL     1     -11.812  30.348  13.137  1.00  0.00     0.211 HD
ENDBRANCH  12  16
BRANCH  14  18
ATOM     18  O   UNL     1     -13.050  26.931  12.935  1.00  0.00    -0.387 OA
ATOM     19  H   UNL     1     -13.939  27.348  12.788  1.00  0.00     0.211 HD
ENDBRANCH  14  18
BRANCH  15  20
ATOM     20  O   UNL     1     -11.948  27.049  15.864  1.00  0.00    -0.385 OA
ATOM     21  H   UNL     1     -12.944  26.825  15.713  1.00  0.00     0.211 HD
ENDBRANCH  15  20
ENDBRANCH   8   9
ENDBRANCH   7   8
ENDBRANCH   1   7
BRANCH   2  22
ATOM     22  O   UNL     1      -5.384  28.543  14.619  1.00  0.00    -0.387 OA
ATOM     23  H   UNL     1      -4.374  28.838  14.677  1.00  0.00     0.211 HD
ENDBRANCH   2  22
BRANCH   3  24
ATOM     24  O   UNL     1      -4.601  30.923  16.372  1.00  0.00    -0.387 OA
ATOM     25  H   UNL     1      -3.657  30.712  16.722  1.00  0.00     0.211 HD
ENDBRANCH   3  24
BRANCH   5  26
ATOM     26  O   UNL     1      -6.780  28.629  19.249  1.00  0.00    -0.454 OA
BRANCH  26  27
ATOM     27  C   UNL     1      -7.359  28.058  20.398  1.00  0.00     0.214 A 
ATOM     28  C   UNL     1      -8.749  27.794  20.600  1.00  0.00     0.180 A 
ATOM     29  C   UNL     1      -6.612  28.119  21.591  1.00  0.00     0.239 A 
ATOM     30  O   UNL     1      -9.185  27.526  21.806  1.00  0.00    -0.452 OA
ATOM     31  C   UNL     1      -7.253  28.222  22.864  1.00  0.00     0.111 A 
ATOM     32  O   UNL     1      -5.350  28.128  21.404  1.00  0.00    -0.285 OA
ATOM     33  C   UNL     1      -8.656  28.145  22.777  1.00  0.00     0.146 A 
ATOM     34  C   UNL     1      -6.633  28.386  24.182  1.00  0.00     0.134 A 
ATOM     35  C   UNL     1      -9.360  28.757  23.817  1.00  0.00     0.094 A 
ATOM     36  C   UNL     1      -7.418  28.559  25.314  1.00  0.00     0.093 A 
ATOM     37  C   UNL     1      -8.775  28.806  25.170  1.00  0.00     0.123 A 
BRANCH  28  38
ATOM     38  C   UNL     1      -9.657  28.661  19.903  1.00  0.00     0.025 A 
ATOM     39  C   UNL     1     -10.722  28.018  19.300  1.00  0.00     0.062 A 
ATOM     40  C   UNL     1      -9.631  30.040  19.894  1.00  0.00     0.016 A 
ATOM     41  C   UNL     1     -11.936  28.683  19.202  1.00  0.00     0.158 A 
ATOM     42  C   UNL     1     -10.799  30.807  19.605  1.00  0.00     0.051 A 
ATOM     43  C   UNL     1     -12.009  30.085  19.356  1.00  0.00     0.157 A 
BRANCH  41  44
ATOM     44  O   UNL     1     -13.172  27.876  19.180  1.00  0.00    -0.504 OA
ATOM     45  H   UNL     1     -14.031  28.302  18.962  1.00  0.00     0.293 HD
ENDBRANCH  41  44
BRANCH  43  46
ATOM     46  O   UNL     1     -13.270  30.738  19.330  1.00  0.00    -0.504 OA
ATOM     47  H   UNL     1     -13.369  31.378  20.133  1.00  0.00     0.293 HD
ENDBRANCH  43  46
ENDBRANCH  28  38
BRANCH  34  48
ATOM     48  O   UNL     1      -5.273  28.464  24.367  1.00  0.00    -0.507 OA
ATOM     49  H   UNL     1      -4.909  28.922  25.258  1.00  0.00     0.293 HD
ENDBRANCH  34  48
BRANCH  37  50
ATOM     50  O   UNL     1      -9.328  29.721  26.011  1.00  0.00    -0.508 OA
ATOM     51  H   UNL     1     -10.013  30.273  25.480  1.00  0.00     0.293 HD
ENDBRANCH  37  50
ENDBRANCH  26  27
ENDBRANCH   5  26
BRANCH   4  52
ATOM     52  O   UNL     1      -4.210  29.362  18.883  1.00  0.00    -0.384 OA
ATOM     53  H   UNL     1      -3.327  28.939  19.073  1.00  0.00     0.211 HD
ENDBRANCH   4  52
TORSDOF 16
ENDMDL
MODEL 3
REMARK VINA RESULT:     0.913      2.144      5.495
REMARK INTER + INTRA:          -0.428
REMARK INTER:                  -0.420
REMARK INTRA:                  -0.008
REMARK UNBOUND:                -1.929
REMARK SMILES C[C@@H]1O[C@@H](OC[C@@H]2O[C@H](Oc3c(-c4ccc(O)c(O)c4)oc4cc(O)cc(O)c4c3=O)[C@H](O)[C@@H](O)[C@H]2O)[C@@H](O)[C@H](O)[C@H]1O
REMARK SMILES IDX 7 1 36 2 34 3 32 4 9 5 8 6 6 7 5 8 4 9 1 10 2 11 42 12 3 13
REMARK SMILES IDX 40 14 38 15 43 16 41 18 39 20 37 22 35 24 10 26 11 27 12 28
REMARK SMILES IDX 30 29 21 30 29 31 31 32 22 33 27 34 23 35 26 36 24 37 13 38
REMARK SMILES IDX 20 39 14 40 18 41 15 42 16 43 19 44 17 46 28 48 25 50 33 52
REMARK H PARENT 43 17 41 19 39 21 37 23 35 25 19 45 17 47 28 49 25 51 33 53
REMARK Flexibility Score: inf
ROOT
ATOM      1  C   UNL     1      -6.943  27.106  12.743  1.00  0.00     0.180 C 
ATOM      2  C   UNL     1      -6.339  28.435  12.094  1.00  0.00     0.177 C 
ATOM      3  C   UNL     1      -6.508  29.431  13.161  1.00  0.00     0.180 C 
ATOM      4  C   UNL     1      -5.682  29.232  14.476  1.00  0.00     0.214 C 
ATOM      5  C   UNL     1      -6.196  27.872  14.936  1.00  0.00     0.339 C 
ATOM      6  O   UNL     1      -6.122  26.837  13.882  1.00  0.00    -0.332 OA
ENDROOT
BRANCH   1   7
ATOM      7  C   UNL     1      -8.419  26.569  12.934  1.00  0.00     0.198 C 
BRANCH   7   8
ATOM      8  O   UNL     1      -9.282  26.344  11.794  1.00  0.00    -0.347 OA
BRANCH   8   9
ATOM      9  C   UNL     1     -10.396  27.170  11.630  1.00  0.00     0.281 C 
ATOM     10  C   UNL     1     -12.063  29.682  12.025  1.00  0.00     0.041 C 
ATOM     11  C   UNL     1     -11.294  28.798  13.170  1.00  0.00     0.150 C 
ATOM     12  C   UNL     1     -12.199  27.853  13.987  1.00  0.00     0.174 C 
ATOM     13  O   UNL     1     -10.156  28.165  12.609  1.00  0.00    -0.344 OA
ATOM     14  C   UNL     1     -12.464  26.520  13.200  1.00  0.00     0.179 C 
ATOM     15  C   UNL     1     -11.806  26.453  11.837  1.00  0.00     0.202 C 
BRANCH  12  16
ATOM     16  O   UNL     1     -11.586  27.603  15.223  1.00  0.00    -0.388 OA
ATOM     17  H   UNL     1     -11.711  26.643  15.444  1.00  0.00     0.211 HD
ENDBRANCH  12  16
BRANCH  14  18
ATOM     18  O   UNL     1     -13.872  26.492  13.067  1.00  0.00    -0.387 OA
ATOM     19  H   UNL     1     -14.220  27.134  13.740  1.00  0.00     0.211 HD
ENDBRANCH  14  18
BRANCH  15  20
ATOM     20  O   UNL     1     -11.679  25.179  11.258  1.00  0.00    -0.385 OA
ATOM     21  H   UNL     1     -10.840  25.184  10.657  1.00  0.00     0.211 HD
ENDBRANCH  15  20
ENDBRANCH   8   9
ENDBRANCH   7   8
ENDBRANCH   1   7
BRANCH   2  22
ATOM     22  O   UNL     1      -5.048  28.244  11.498  1.00  0.00    -0.387 OA
ATOM     23  H   UNL     1      -4.671  29.199  11.259  1.00  0.00     0.211 HD
ENDBRANCH   2  22
BRANCH   3  24
ATOM     24  O   UNL     1      -6.487  30.725  12.559  1.00  0.00    -0.387 OA
ATOM     25  H   UNL     1      -5.847  30.636  11.758  1.00  0.00     0.211 HD
ENDBRANCH   3  24
BRANCH   5  26
ATOM     26  O   UNL     1      -7.522  27.951  15.644  1.00  0.00    -0.454 OA
BRANCH  26  27
ATOM     27  C   UNL     1      -7.893  28.759  16.736  1.00  0.00     0.214 A 
ATOM     28  C   UNL     1      -7.076  29.081  17.863  1.00  0.00     0.180 A 
ATOM     29  C   UNL     1      -9.272  28.936  16.963  1.00  0.00     0.239 A 
ATOM     30  O   UNL     1      -7.629  29.602  18.931  1.00  0.00    -0.452 OA
ATOM     31  C   UNL     1      -9.791  29.112  18.282  1.00  0.00     0.111 A 
ATOM     32  O   UNL     1      -9.978  28.868  15.902  1.00  0.00    -0.285 OA
ATOM     33  C   UNL     1      -8.781  29.191  19.260  1.00  0.00     0.146 A 
ATOM     34  C   UNL     1     -11.192  29.217  18.701  1.00  0.00     0.134 A 
ATOM     35  C   UNL     1      -9.162  28.822  20.552  1.00  0.00     0.094 A 
ATOM     36  C   UNL     1     -11.522  29.297  20.047  1.00  0.00     0.093 A 
ATOM     37  C   UNL     1     -10.549  29.047  21.002  1.00  0.00     0.123 A 
BRANCH  28  38
ATOM     38  C   UNL     1      -6.087  28.102  18.219  1.00  0.00     0.025 A 
ATOM     39  C   UNL     1      -4.784  28.564  18.202  1.00  0.00     0.062 A 
ATOM     40  C   UNL     1      -6.327  26.825  18.684  1.00  0.00     0.016 A 
ATOM     41  C   UNL     1      -3.873  28.025  19.098  1.00  0.00     0.158 A 
ATOM     42  C   UNL     1      -5.356  26.117  19.452  1.00  0.00     0.051 A 
ATOM     43  C   UNL     1      -4.133  26.799  19.748  1.00  0.00     0.157 A 
BRANCH  41  44
ATOM     44  O   UNL     1      -2.749  28.873  19.543  1.00  0.00    -0.504 OA
ATOM     45  H   UNL     1      -2.318  28.701  20.409  1.00  0.00     0.293 HD
ENDBRANCH  41  44
BRANCH  43  46
ATOM     46  O   UNL     1      -3.225  26.303  20.721  1.00  0.00    -0.504 OA
ATOM     47  H   UNL     1      -2.252  26.377  20.387  1.00  0.00     0.293 HD
ENDBRANCH  43  46
ENDBRANCH  28  38
BRANCH  34  48
ATOM     48  O   UNL     1     -12.245  29.158  17.818  1.00  0.00    -0.507 OA
ATOM     49  H   UNL     1     -12.725  30.068  17.542  1.00  0.00     0.293 HD
ENDBRANCH  34  48
BRANCH  37  50
ATOM     50  O   UNL     1     -10.928  28.337  22.099  1.00  0.00    -0.508 OA
ATOM     51  H   UNL     1     -11.249  28.999  22.815  1.00  0.00     0.293 HD
ENDBRANCH  37  50
ENDBRANCH  26  27
ENDBRANCH   5  26
BRANCH   4  52
ATOM     52  O   UNL     1      -6.002  30.170  15.448  1.00  0.00    -0.384 OA
ATOM     53  H   UNL     1      -5.651  29.851  16.327  1.00  0.00     0.211 HD
ENDBRANCH   4  52
TORSDOF 16
ENDMDL
