MODEL 1
REMARK VINA RESULT:    15.322      0.000      0.000
REMARK INTER + INTRA:          30.335
REMARK INTER:                  24.278
REMARK INTRA:                   6.056
REMARK UNBOUND:                 6.056
REMARK SMILES C[C@H]1O[C@H](O[C@H]2[C@@H](Oc3cc(O)c4c(c3)O[C@H](c3ccc(O)cc3)CC4=O)O[C@@H](CO)[C@H](O)[C@@H]2O)[C@@H](O)[C@@H](O)[C@@H]1O
REMARK SMILES IDX 6 1 34 2 32 3 29 4 28 5 7 6 5 7 4 8 1 9 2 10 40 11 3 12
REMARK SMILES IDX 38 13 36 14 41 15 39 17 37 19 35 21 8 23 9 24 10 25 15 26
REMARK SMILES IDX 11 27 14 28 13 29 16 30 26 31 17 32 27 33 25 34 12 35 18 37
REMARK SMILES IDX 19 38 24 39 20 40 23 41 21 42 22 43 33 45 30 47 31 48
REMARK H PARENT 41 16 39 18 37 20 35 22 12 36 22 44 33 46 31 49
REMARK Flexibility Score: inf
ROOT
ATOM      1  C   UNL     1      14.512  -5.973  17.450  1.00  0.00     0.221 C 
ATOM      2  C   UNL     1      14.674  -4.451  17.384  1.00  0.00     0.181 C 
ATOM      3  C   UNL     1      14.933  -3.893  18.795  1.00  0.00     0.177 C 
ATOM      4  C   UNL     1      16.115  -4.629  19.467  1.00  0.00     0.179 C 
ATOM      5  O   UNL     1      15.975  -6.046  19.445  1.00  0.00    -0.332 OA
ATOM      6  C   UNL     1      15.737  -6.594  18.156  1.00  0.00     0.339 C 
ENDROOT
BRANCH   1   7
ATOM      7  O   UNL     1      14.393  -6.472  16.126  1.00  0.00    -0.337 OA
BRANCH   7   8
ATOM      8  C   UNL     1      13.779  -5.541  15.239  1.00  0.00     0.282 C 
ATOM      9  C   UNL     1      16.738  -4.573  13.270  1.00  0.00     0.041 C 
ATOM     10  C   UNL     1      15.663  -5.511  13.821  1.00  0.00     0.150 C 
ATOM     11  C   UNL     1      14.914  -6.221  12.664  1.00  0.00     0.174 C 
ATOM     12  O   UNL     1      14.766  -4.739  14.605  1.00  0.00    -0.344 OA
ATOM     13  C   UNL     1      13.794  -7.107  13.232  1.00  0.00     0.179 C 
ATOM     14  C   UNL     1      12.913  -6.292  14.197  1.00  0.00     0.202 C 
BRANCH  11  15
ATOM     15  O   UNL     1      15.793  -6.987  11.876  1.00  0.00    -0.388 OA
ATOM     16  H   UNL     1      15.722  -7.933  12.174  1.00  0.00     0.211 HD
ENDBRANCH  11  15
BRANCH  13  17
ATOM     17  O   UNL     1      13.022  -7.627  12.179  1.00  0.00    -0.387 OA
ATOM     18  H   UNL     1      13.363  -8.545  12.002  1.00  0.00     0.211 HD
ENDBRANCH  13  17
BRANCH  14  19
ATOM     19  O   UNL     1      12.067  -5.417  13.485  1.00  0.00    -0.385 OA
ATOM     20  H   UNL     1      12.411  -4.493  13.579  1.00  0.00     0.211 HD
ENDBRANCH  14  19
ENDBRANCH   7   8
ENDBRANCH   1   7
BRANCH   2  21
ATOM     21  O   UNL     1      13.512  -3.882  16.837  1.00  0.00    -0.387 OA
ATOM     22  H   UNL     1      12.766  -4.117  17.448  1.00  0.00     0.211 HD
ENDBRANCH   2  21
BRANCH   6  23
ATOM     23  O   UNL     1      16.895  -6.500  17.323  1.00  0.00    -0.462 OA
BRANCH  23  24
ATOM     24  C   UNL     1      17.240  -7.414  16.314  1.00  0.00     0.130 A 
ATOM     25  C   UNL     1      18.456  -8.092  16.427  1.00  0.00     0.093 A 
ATOM     26  C   UNL     1      16.418  -7.656  15.201  1.00  0.00     0.094 A 
ATOM     27  C   UNL     1      18.881  -8.978  15.427  1.00  0.00     0.133 A 
ATOM     28  C   UNL     1      16.826  -8.540  14.201  1.00  0.00     0.138 A 
ATOM     29  C   UNL     1      18.068  -9.194  14.296  1.00  0.00     0.102 A 
ATOM     30  O   UNL     1      15.982  -8.770  13.105  1.00  0.00    -0.484 OA
ATOM     31  C   UNL     1      18.474 -10.072  13.177  1.00  0.00     0.174 C 
ATOM     32  C   UNL     1      16.225  -9.771  12.109  1.00  0.00     0.211 C 
ATOM     33  O   UNL     1      19.466 -10.842  13.276  1.00  0.00    -0.294 OA
ATOM     34  C   UNL     1      17.732  -9.986  11.876  1.00  0.00     0.131 C 
BRANCH  27  35
ATOM     35  O   UNL     1      20.107  -9.627  15.557  1.00  0.00    -0.507 OA
ATOM     36  H   UNL     1      20.452 -10.252  14.837  1.00  0.00     0.293 HD
ENDBRANCH  27  35
BRANCH  32  37
ATOM     37  C   UNL     1      15.523 -11.073  12.447  1.00  0.00    -0.007 A 
ATOM     38  C   UNL     1      16.238 -12.236  12.797  1.00  0.00     0.011 A 
ATOM     39  C   UNL     1      14.121 -11.145  12.346  1.00  0.00     0.011 A 
ATOM     40  C   UNL     1      15.562 -13.430  13.061  1.00  0.00     0.046 A 
ATOM     41  C   UNL     1      13.448 -12.341  12.610  1.00  0.00     0.046 A 
ATOM     42  C   UNL     1      14.165 -13.486  12.968  1.00  0.00     0.115 A 
BRANCH  42  43
ATOM     43  O   UNL     1      13.483 -14.673  13.228  1.00  0.00    -0.508 OA
ATOM     44  H   UNL     1      13.485 -15.440  12.565  1.00  0.00     0.293 HD
ENDBRANCH  42  43
ENDBRANCH  32  37
ENDBRANCH  23  24
ENDBRANCH   6  23
BRANCH   3  45
ATOM     45  O   UNL     1      13.787  -4.050  19.597  1.00  0.00    -0.387 OA
ATOM     46  H   UNL     1      12.999  -3.970  18.998  1.00  0.00     0.211 HD
ENDBRANCH   3  45
BRANCH   4  47
ATOM     47  C   UNL     1      17.494  -4.150  18.974  1.00  0.00     0.191 C 
BRANCH  47  48
ATOM     48  O   UNL     1      17.501  -4.082  17.573  1.00  0.00    -0.394 OA
ATOM     49  H   UNL     1      18.392  -3.724  17.316  1.00  0.00     0.210 HD
ENDBRANCH  47  48
ENDBRANCH   4  47
TORSDOF 14
ENDMDL
MODEL 2
REMARK VINA RESULT:    15.328      1.477      4.503
REMARK INTER + INTRA:          30.345
REMARK INTER:                  24.149
REMARK INTRA:                   6.196
REMARK UNBOUND:                 6.056
REMARK SMILES C[C@H]1O[C@H](O[C@H]2[C@@H](Oc3cc(O)c4c(c3)O[C@H](c3ccc(O)cc3)CC4=O)O[C@@H](CO)[C@H](O)[C@@H]2O)[C@@H](O)[C@@H](O)[C@@H]1O
REMARK SMILES IDX 6 1 34 2 32 3 29 4 28 5 7 6 5 7 4 8 1 9 2 10 40 11 3 12
REMARK SMILES IDX 38 13 36 14 41 15 39 17 37 19 35 21 8 23 9 24 10 25 15 26
REMARK SMILES IDX 11 27 14 28 13 29 16 30 26 31 17 32 27 33 25 34 12 35 18 37
REMARK SMILES IDX 19 38 24 39 20 40 23 41 21 42 22 43 33 45 30 47 31 48
REMARK H PARENT 41 16 39 18 37 20 35 22 12 36 22 44 33 46 31 49
REMARK Flexibility Score: inf
ROOT
ATOM      1  C   UNL     1      14.703  -4.649  15.397  1.00  0.00     0.221 C 
ATOM      2  C   UNL     1      14.108  -6.032  15.117  1.00  0.00     0.181 C 
ATOM      3  C   UNL     1      12.995  -5.918  14.061  1.00  0.00     0.177 C 
ATOM      4  C   UNL     1      13.506  -5.180  12.803  1.00  0.00     0.179 C 
ATOM      5  O   UNL     1      14.123  -3.932  13.099  1.00  0.00    -0.332 OA
ATOM      6  C   UNL     1      15.158  -4.003  14.069  1.00  0.00     0.339 C 
ENDROOT
BRANCH   1   7
ATOM      7  O   UNL     1      15.802  -4.800  16.281  1.00  0.00    -0.337 OA
BRANCH   7   8
ATOM      8  C   UNL     1      15.430  -4.674  17.651  1.00  0.00     0.282 C 
ATOM      9  C   UNL     1      14.973  -8.238  18.461  1.00  0.00     0.041 C 
ATOM     10  C   UNL     1      15.734  -6.980  18.040  1.00  0.00     0.150 C 
ATOM     11  C   UNL     1      16.963  -6.754  18.956  1.00  0.00     0.174 C 
ATOM     12  O   UNL     1      14.838  -5.880  18.114  1.00  0.00    -0.344 OA
ATOM     13  C   UNL     1      17.676  -5.450  18.563  1.00  0.00     0.179 C 
ATOM     14  C   UNL     1      16.665  -4.291  18.504  1.00  0.00     0.202 C 
BRANCH  11  15
ATOM     15  O   UNL     1      17.857  -7.839  18.895  1.00  0.00    -0.388 OA
ATOM     16  H   UNL     1      17.367  -8.652  19.190  1.00  0.00     0.211 HD
ENDBRANCH  11  15
BRANCH  13  17
ATOM     17  O   UNL     1      18.696  -5.170  19.489  1.00  0.00    -0.387 OA
ATOM     18  H   UNL     1      19.288  -5.969  19.510  1.00  0.00     0.211 HD
ENDBRANCH  13  17
BRANCH  14  19
ATOM     19  O   UNL     1      16.302  -3.877  19.802  1.00  0.00    -0.385 OA
ATOM     20  H   UNL     1      16.817  -3.064  20.035  1.00  0.00     0.211 HD
ENDBRANCH  14  19
ENDBRANCH   7   8
ENDBRANCH   1   7
BRANCH   2  21
ATOM     21  O   UNL     1      13.600  -6.571  16.311  1.00  0.00    -0.387 OA
ATOM     22  H   UNL     1      12.769  -7.057  16.070  1.00  0.00     0.211 HD
ENDBRANCH   2  21
BRANCH   6  23
ATOM     23  O   UNL     1      16.313  -4.674  13.558  1.00  0.00    -0.462 OA
BRANCH  23  24
ATOM     24  C   UNL     1      16.592  -6.039  13.720  1.00  0.00     0.130 A 
ATOM     25  C   UNL     1      17.154  -6.459  14.929  1.00  0.00     0.093 A 
ATOM     26  C   UNL     1      16.340  -6.987  12.714  1.00  0.00     0.094 A 
ATOM     27  C   UNL     1      17.503  -7.801  15.133  1.00  0.00     0.133 A 
ATOM     28  C   UNL     1      16.677  -8.328  12.906  1.00  0.00     0.138 A 
ATOM     29  C   UNL     1      17.278  -8.743  14.108  1.00  0.00     0.102 A 
ATOM     30  O   UNL     1      16.406  -9.254  11.888  1.00  0.00    -0.484 OA
ATOM     31  C   UNL     1      17.669 -10.164  14.231  1.00  0.00     0.174 C 
ATOM     32  C   UNL     1      16.560 -10.671  12.038  1.00  0.00     0.211 C 
ATOM     33  O   UNL     1      18.021 -10.653  15.337  1.00  0.00    -0.294 OA
ATOM     34  C   UNL     1      17.714 -11.017  12.997  1.00  0.00     0.131 C 
BRANCH  27  35
ATOM     35  O   UNL     1      18.078  -8.188  16.341  1.00  0.00    -0.507 OA
ATOM     36  H   UNL     1      17.513  -8.536  17.107  1.00  0.00     0.293 HD
ENDBRANCH  27  35
BRANCH  32  37
ATOM     37  C   UNL     1      15.263 -11.328  12.470  1.00  0.00    -0.007 A 
ATOM     38  C   UNL     1      15.189 -12.702  12.774  1.00  0.00     0.011 A 
ATOM     39  C   UNL     1      14.083 -10.562  12.506  1.00  0.00     0.011 A 
ATOM     40  C   UNL     1      13.968 -13.285  13.127  1.00  0.00     0.046 A 
ATOM     41  C   UNL     1      12.864 -11.148  12.859  1.00  0.00     0.046 A 
ATOM     42  C   UNL     1      12.802 -12.509  13.171  1.00  0.00     0.115 A 
BRANCH  42  43
ATOM     43  O   UNL     1      11.582 -13.082  13.520  1.00  0.00    -0.508 OA
ATOM     44  H   UNL     1      11.504 -14.068  13.740  1.00  0.00     0.293 HD
ENDBRANCH  42  43
ENDBRANCH  32  37
ENDBRANCH  23  24
ENDBRANCH   6  23
BRANCH   3  45
ATOM     45  O   UNL     1      11.898  -5.209  14.587  1.00  0.00    -0.387 OA
ATOM     46  H   UNL     1      12.237  -4.322  14.877  1.00  0.00     0.211 HD
ENDBRANCH   3  45
BRANCH   4  47
ATOM     47  C   UNL     1      14.357  -6.071  11.875  1.00  0.00     0.191 C 
BRANCH  47  48
ATOM     48  O   UNL     1      13.851  -7.378  11.876  1.00  0.00    -0.394 OA
ATOM     49  H   UNL     1      13.094  -7.385  11.233  1.00  0.00     0.210 HD
ENDBRANCH  47  48
ENDBRANCH   4  47
TORSDOF 14
ENDMDL
MODEL 3
REMARK VINA RESULT:    17.443      1.735      4.648
REMARK INTER + INTRA:          33.696
REMARK INTER:                  23.151
REMARK INTRA:                  10.545
REMARK UNBOUND:                 6.056
REMARK SMILES C[C@H]1O[C@H](O[C@H]2[C@@H](Oc3cc(O)c4c(c3)O[C@H](c3ccc(O)cc3)CC4=O)O[C@@H](CO)[C@H](O)[C@@H]2O)[C@@H](O)[C@@H](O)[C@@H]1O
REMARK SMILES IDX 6 1 34 2 32 3 29 4 28 5 7 6 5 7 4 8 1 9 2 10 40 11 3 12
REMARK SMILES IDX 38 13 36 14 41 15 39 17 37 19 35 21 8 23 9 24 10 25 15 26
REMARK SMILES IDX 11 27 14 28 13 29 16 30 26 31 17 32 27 33 25 34 12 35 18 37
REMARK SMILES IDX 19 38 24 39 20 40 23 41 21 42 22 43 33 45 30 47 31 48
REMARK H PARENT 41 16 39 18 37 20 35 22 12 36 22 44 33 46 31 49
REMARK Flexibility Score: inf
ROOT
ATOM      1  C   UNL     1      16.857  -5.409  15.308  1.00  0.00     0.221 C 
ATOM      2  C   UNL     1      15.848  -6.494  14.922  1.00  0.00     0.181 C 
ATOM      3  C   UNL     1      15.162  -6.121  13.595  1.00  0.00     0.177 C 
ATOM      4  C   UNL     1      16.212  -5.813  12.504  1.00  0.00     0.179 C 
ATOM      5  O   UNL     1      17.184  -4.858  12.917  1.00  0.00    -0.332 OA
ATOM      6  C   UNL     1      17.838  -5.175  14.138  1.00  0.00     0.339 C 
ENDROOT
BRANCH   1   7
ATOM      7  O   UNL     1      17.556  -5.835  16.468  1.00  0.00    -0.337 OA
BRANCH   7   8
ATOM      8  C   UNL     1      17.607  -4.833  17.480  1.00  0.00     0.282 C 
ATOM      9  C   UNL     1      14.051  -3.876  17.533  1.00  0.00     0.041 C 
ATOM     10  C   UNL     1      15.259  -4.800  17.693  1.00  0.00     0.150 C 
ATOM     11  C   UNL     1      15.290  -5.415  19.115  1.00  0.00     0.174 C 
ATOM     12  O   UNL     1      16.431  -4.037  17.445  1.00  0.00    -0.344 OA
ATOM     13  C   UNL     1      16.546  -6.285  19.281  1.00  0.00     0.179 C 
ATOM     14  C   UNL     1      17.799  -5.492  18.869  1.00  0.00     0.202 C 
BRANCH  11  15
ATOM     15  O   UNL     1      14.131  -6.170  19.374  1.00  0.00    -0.388 OA
ATOM     16  H   UNL     1      14.278  -7.084  19.011  1.00  0.00     0.211 HD
ENDBRANCH  11  15
BRANCH  13  17
ATOM     17  O   UNL     1      16.650  -6.717  20.615  1.00  0.00    -0.387 OA
ATOM     18  H   UNL     1      16.369  -7.671  20.628  1.00  0.00     0.211 HD
ENDBRANCH  13  17
BRANCH  14  19
ATOM     19  O   UNL     1      18.140  -4.546  19.858  1.00  0.00    -0.385 OA
ATOM     20  H   UNL     1      18.678  -3.827  19.441  1.00  0.00     0.211 HD
ENDBRANCH  14  19
ENDBRANCH   7   8
ENDBRANCH   1   7
BRANCH   2  21
ATOM     21  O   UNL     1      14.895  -6.630  15.946  1.00  0.00    -0.387 OA
ATOM     22  H   UNL     1      15.264  -6.164  16.740  1.00  0.00     0.211 HD
ENDBRANCH   2  21
BRANCH   6  23
ATOM     23  O   UNL     1      18.716  -6.293  13.990  1.00  0.00    -0.462 OA
BRANCH  23  24
ATOM     24  C   UNL     1      18.323  -7.640  14.032  1.00  0.00     0.130 A 
ATOM     25  C   UNL     1      18.498  -8.340  15.228  1.00  0.00     0.093 A 
ATOM     26  C   UNL     1      17.777  -8.303  12.920  1.00  0.00     0.094 A 
ATOM     27  C   UNL     1      18.174  -9.701  15.318  1.00  0.00     0.133 A 
ATOM     28  C   UNL     1      17.444  -9.656  12.998  1.00  0.00     0.138 A 
ATOM     29  C   UNL     1      17.657 -10.371  14.190  1.00  0.00     0.102 A 
ATOM     30  O   UNL     1      16.893 -10.290  11.876  1.00  0.00    -0.484 OA
ATOM     31  C   UNL     1      17.342 -11.816  14.195  1.00  0.00     0.174 C 
ATOM     32  C   UNL     1      16.368 -11.624  11.892  1.00  0.00     0.211 C 
ATOM     33  O   UNL     1      17.311 -12.476  15.268  1.00  0.00    -0.294 OA
ATOM     34  C   UNL     1      17.127 -12.520  12.888  1.00  0.00     0.131 C 
BRANCH  27  35
ATOM     35  O   UNL     1      18.376 -10.380  16.518  1.00  0.00    -0.507 OA
ATOM     36  H   UNL     1      18.452  -9.884  17.399  1.00  0.00     0.293 HD
ENDBRANCH  27  35
BRANCH  32  37
ATOM     37  C   UNL     1      14.875 -11.630  12.164  1.00  0.00    -0.007 A 
ATOM     38  C   UNL     1      14.159 -12.827  12.364  1.00  0.00     0.011 A 
ATOM     39  C   UNL     1      14.169 -10.412  12.153  1.00  0.00     0.011 A 
ATOM     40  C   UNL     1      12.777 -12.800  12.569  1.00  0.00     0.046 A 
ATOM     41  C   UNL     1      12.788 -10.389  12.360  1.00  0.00     0.046 A 
ATOM     42  C   UNL     1      12.087 -11.580  12.568  1.00  0.00     0.115 A 
BRANCH  42  43
ATOM     43  O   UNL     1      10.710 -11.544  12.771  1.00  0.00    -0.508 OA
ATOM     44  H   UNL     1      10.062 -11.480  11.994  1.00  0.00     0.293 HD
ENDBRANCH  42  43
ENDBRANCH  32  37
ENDBRANCH  23  24
ENDBRANCH   6  23
BRANCH   3  45
ATOM     45  O   UNL     1      14.347  -4.987  13.772  1.00  0.00    -0.387 OA
ATOM     46  H   UNL     1      14.474  -4.680  14.708  1.00  0.00     0.211 HD
ENDBRANCH   3  45
BRANCH   4  47
ATOM     47  C   UNL     1      16.835  -7.078  11.880  1.00  0.00     0.191 C 
BRANCH  47  48
ATOM     48  O   UNL     1      15.895  -8.119  11.875  1.00  0.00    -0.394 OA
ATOM     49  H   UNL     1      15.989  -8.575  10.998  1.00  0.00     0.210 HD
ENDBRANCH  47  48
ENDBRANCH   4  47
TORSDOF 14
ENDMDL
