MODEL 1
REMARK VINA RESULT:    11.680      0.000      0.000
REMARK INTER + INTRA:          20.596
REMARK INTER:                  21.239
REMARK INTRA:                  -0.642
REMARK UNBOUND:                -0.642
REMARK SMILES CCCCCC=CCC=CCCCCCCCC(=O)[O-]
REMARK SMILES IDX 11 1 12 2 13 3 14 4 15 5 16 6 17 7 18 8 19 9 20 10 10 11
REMARK SMILES IDX 9 12 8 13 7 14 6 15 5 16 4 17 3 18 2 19 1 20
REMARK H PARENT
REMARK Flexibility Score: inf
ROOT
ATOM      1  C   UNL     1       4.640  41.637  11.862  1.00  0.00     0.027 C 
ENDROOT
BRANCH   1   2
ATOM      2  C   UNL     1       3.605  41.319  12.948  1.00  0.00     0.004 C 
BRANCH   2   3
ATOM      3  C   UNL     1       4.264  41.012  14.303  1.00  0.00     0.000 C 
BRANCH   3   4
ATOM      4  C   UNL     1       3.786  39.683  14.910  1.00  0.00     0.000 C 
BRANCH   4   5
ATOM      5  C   UNL     1       4.777  39.110  15.939  1.00  0.00     0.000 C 
BRANCH   5   6
ATOM      6  C   UNL     1       6.014  38.482  15.276  1.00  0.00     0.006 C 
BRANCH   6   7
ATOM      7  C   UNL     1       7.292  38.691  16.099  1.00  0.00     0.053 C 
BRANCH   7   8
ATOM      8  C   UNL     1       8.211  39.642  15.401  1.00  0.00     0.041 C 
ATOM      9  O   UNL     1       8.052  40.885  15.526  1.00  0.00    -0.550 OA
ATOM     10  O   UNL     1       9.276  39.157  14.653  1.00  0.00    -0.550 OA
ENDBRANCH   7   8
ENDBRANCH   6   7
ENDBRANCH   5   6
ENDBRANCH   4   5
ENDBRANCH   3   4
ENDBRANCH   2   3
ENDBRANCH   1   2
BRANCH   1  11
ATOM     11  C   UNL     1       4.035  42.449  10.742  1.00  0.00    -0.031 C 
ATOM     12  C   UNL     1       4.695  42.856   9.642  1.00  0.00    -0.027 C 
BRANCH  12  13
ATOM     13  C   UNL     1       6.153  42.590   9.372  1.00  0.00     0.054 C 
BRANCH  13  14
ATOM     14  C   UNL     1       6.488  42.805   7.922  1.00  0.00    -0.027 C 
ATOM     15  C   UNL     1       7.541  42.188   7.366  1.00  0.00    -0.031 C 
BRANCH  15  16
ATOM     16  C   UNL     1       7.896  42.383   5.915  1.00  0.00     0.027 C 
BRANCH  16  17
ATOM     17  C   UNL     1       9.275  41.798   5.570  1.00  0.00     0.004 C 
BRANCH  17  18
ATOM     18  C   UNL     1       9.165  40.480   4.784  1.00  0.00     0.000 C 
BRANCH  18  19
ATOM     19  C   UNL     1      10.160  40.405   3.614  1.00  0.00    -0.003 C 
ATOM     20  C   UNL     1       9.508  40.712   2.266  1.00  0.00     0.004 C 
ENDBRANCH  18  19
ENDBRANCH  17  18
ENDBRANCH  16  17
ENDBRANCH  15  16
ENDBRANCH  13  14
ENDBRANCH  12  13
ENDBRANCH   1  11
TORSDOF 14
ENDMDL
MODEL 2
REMARK VINA RESULT:    12.382      0.678      1.143
REMARK INTER + INTRA:          21.874
REMARK INTER:                  22.360
REMARK INTRA:                  -0.486
REMARK UNBOUND:                -0.642
REMARK SMILES CCCCCC=CCC=CCCCCCCCC(=O)[O-]
REMARK SMILES IDX 11 1 12 2 13 3 14 4 15 5 16 6 17 7 18 8 19 9 20 10 10 11
REMARK SMILES IDX 9 12 8 13 7 14 6 15 5 16 4 17 3 18 2 19 1 20
REMARK H PARENT
REMARK Flexibility Score: inf
ROOT
ATOM      1  C   UNL     1       4.554  41.874  11.721  1.00  0.00     0.027 C 
ENDROOT
BRANCH   1   2
ATOM      2  C   UNL     1       3.805  41.256  12.908  1.00  0.00     0.004 C 
BRANCH   2   3
ATOM      3  C   UNL     1       4.717  41.067  14.132  1.00  0.00     0.000 C 
BRANCH   3   4
ATOM      4  C   UNL     1       4.343  39.833  14.969  1.00  0.00     0.000 C 
BRANCH   4   5
ATOM      5  C   UNL     1       5.467  39.404  15.929  1.00  0.00     0.000 C 
BRANCH   5   6
ATOM      6  C   UNL     1       6.386  38.334  15.317  1.00  0.00     0.006 C 
BRANCH   6   7
ATOM      7  C   UNL     1       7.795  38.353  15.924  1.00  0.00     0.053 C 
BRANCH   7   8
ATOM      8  C   UNL     1       8.706  39.204  15.098  1.00  0.00     0.041 C 
ATOM      9  O   UNL     1       9.785  38.731  14.651  1.00  0.00    -0.550 OA
ATOM     10  O   UNL     1       8.342  40.506  14.776  1.00  0.00    -0.550 OA
ENDBRANCH   7   8
ENDBRANCH   6   7
ENDBRANCH   5   6
ENDBRANCH   4   5
ENDBRANCH   3   4
ENDBRANCH   2   3
ENDBRANCH   1   2
BRANCH   1  11
ATOM     11  C   UNL     1       3.636  42.091  10.541  1.00  0.00    -0.031 C 
ATOM     12  C   UNL     1       3.940  42.824   9.454  1.00  0.00    -0.027 C 
BRANCH  12  13
ATOM     13  C   UNL     1       5.236  43.568   9.258  1.00  0.00     0.054 C 
BRANCH  13  14
ATOM     14  C   UNL     1       6.365  42.627   8.948  1.00  0.00    -0.027 C 
ATOM     15  C   UNL     1       6.884  42.565   7.713  1.00  0.00    -0.031 C 
BRANCH  15  16
ATOM     16  C   UNL     1       8.018  41.633   7.376  1.00  0.00     0.027 C 
BRANCH  16  17
ATOM     17  C   UNL     1       8.983  42.239   6.344  1.00  0.00     0.004 C 
BRANCH  17  18
ATOM     18  C   UNL     1       8.666  41.773   4.912  1.00  0.00     0.000 C 
BRANCH  18  19
ATOM     19  C   UNL     1       9.386  40.467   4.543  1.00  0.00    -0.003 C 
ATOM     20  C   UNL     1      10.048  40.527   3.166  1.00  0.00     0.004 C 
ENDBRANCH  18  19
ENDBRANCH  17  18
ENDBRANCH  16  17
ENDBRANCH  15  16
ENDBRANCH  13  14
ENDBRANCH  12  13
ENDBRANCH   1  11
TORSDOF 14
ENDMDL
MODEL 3
REMARK VINA RESULT:    12.973      3.173      8.434
REMARK INTER + INTRA:          22.948
REMARK INTER:                  23.921
REMARK INTRA:                  -0.974
REMARK UNBOUND:                -0.642
REMARK SMILES CCCCCC=CCC=CCCCCCCCC(=O)[O-]
REMARK SMILES IDX 11 1 12 2 13 3 14 4 15 5 16 6 17 7 18 8 19 9 20 10 10 11
REMARK SMILES IDX 9 12 8 13 7 14 6 15 5 16 4 17 3 18 2 19 1 20
REMARK H PARENT
REMARK Flexibility Score: inf
ROOT
ATOM      1  C   UNL     1       4.532  41.039  12.815  1.00  0.00     0.027 C 
ENDROOT
BRANCH   1   2
ATOM      2  C   UNL     1       4.105  42.159  11.857  1.00  0.00     0.004 C 
BRANCH   2   3
ATOM      3  C   UNL     1       4.780  42.031  10.481  1.00  0.00     0.000 C 
BRANCH   3   4
ATOM      4  C   UNL     1       4.850  43.369   9.726  1.00  0.00     0.000 C 
BRANCH   4   5
ATOM      5  C   UNL     1       4.500  43.227   8.234  1.00  0.00     0.000 C 
BRANCH   5   6
ATOM      6  C   UNL     1       5.750  43.163   7.342  1.00  0.00     0.006 C 
BRANCH   6   7
ATOM      7  C   UNL     1       6.850  42.273   7.934  1.00  0.00     0.053 C 
BRANCH   7   8
ATOM      8  C   UNL     1       7.965  42.098   6.952  1.00  0.00     0.041 C 
ATOM      9  O   UNL     1       8.779  41.146   7.079  1.00  0.00    -0.550 OA
ATOM     10  O   UNL     1       8.075  42.957   5.865  1.00  0.00    -0.550 OA
ENDBRANCH   7   8
ENDBRANCH   6   7
ENDBRANCH   5   6
ENDBRANCH   4   5
ENDBRANCH   3   4
ENDBRANCH   2   3
ENDBRANCH   1   2
BRANCH   1  11
ATOM     11  C   UNL     1       3.778  41.111  14.121  1.00  0.00    -0.031 C 
ATOM     12  C   UNL     1       3.269  40.051  14.776  1.00  0.00    -0.027 C 
BRANCH  12  13
ATOM     13  C   UNL     1       3.348  38.628  14.291  1.00  0.00     0.054 C 
BRANCH  13  14
ATOM     14  C   UNL     1       4.640  37.980  14.703  1.00  0.00    -0.027 C 
ATOM     15  C   UNL     1       5.387  38.507  15.684  1.00  0.00    -0.031 C 
BRANCH  15  16
ATOM     16  C   UNL     1       6.683  37.876  16.118  1.00  0.00     0.027 C 
BRANCH  16  17
ATOM     17  C   UNL     1       7.907  38.585  15.518  1.00  0.00     0.004 C 
BRANCH  17  18
ATOM     18  C   UNL     1       8.002  40.055  15.964  1.00  0.00     0.000 C 
BRANCH  18  19
ATOM     19  C   UNL     1       8.136  41.024  14.778  1.00  0.00    -0.003 C 
ATOM     20  C   UNL     1       7.749  40.382  13.446  1.00  0.00     0.004 C 
ENDBRANCH  18  19
ENDBRANCH  17  18
ENDBRANCH  16  17
ENDBRANCH  15  16
ENDBRANCH  13  14
ENDBRANCH  12  13
ENDBRANCH   1  11
TORSDOF 14
ENDMDL
MODEL 4
REMARK VINA RESULT:    13.227      4.057      9.692
REMARK INTER + INTRA:          23.409
REMARK INTER:                  24.247
REMARK INTRA:                  -0.838
REMARK UNBOUND:                -0.642
REMARK SMILES CCCCCC=CCC=CCCCCCCCC(=O)[O-]
REMARK SMILES IDX 11 1 12 2 13 3 14 4 15 5 16 6 17 7 18 8 19 9 20 10 10 11
REMARK SMILES IDX 9 12 8 13 7 14 6 15 5 16 4 17 3 18 2 19 1 20
REMARK H PARENT
REMARK Flexibility Score: inf
ROOT
ATOM      1  C   UNL     1       6.820  42.606   8.884  1.00  0.00     0.027 C 
ENDROOT
BRANCH   1   2
ATOM      2  C   UNL     1       6.258  42.831   7.475  1.00  0.00     0.004 C 
BRANCH   2   3
ATOM      3  C   UNL     1       7.372  42.974   6.424  1.00  0.00     0.000 C 
BRANCH   3   4
ATOM      4  C   UNL     1       8.687  42.307   6.857  1.00  0.00     0.000 C 
BRANCH   4   5
ATOM      5  C   UNL     1       8.651  40.774   6.714  1.00  0.00     0.000 C 
BRANCH   5   6
ATOM      6  C   UNL     1       8.723  40.319   5.247  1.00  0.00     0.006 C 
BRANCH   6   7
ATOM      7  C   UNL     1       9.557  41.269   4.378  1.00  0.00     0.053 C 
BRANCH   7   8
ATOM      8  C   UNL     1      10.032  40.566   3.146  1.00  0.00     0.041 C 
ATOM      9  O   UNL     1      10.640  39.467   3.238  1.00  0.00    -0.550 OA
ATOM     10  O   UNL     1       9.758  41.097   1.892  1.00  0.00    -0.550 OA
ENDBRANCH   7   8
ENDBRANCH   6   7
ENDBRANCH   5   6
ENDBRANCH   4   5
ENDBRANCH   3   4
ENDBRANCH   2   3
ENDBRANCH   1   2
BRANCH   1  11
ATOM     11  C   UNL     1       5.715  42.443   9.901  1.00  0.00    -0.031 C 
ATOM     12  C   UNL     1       5.852  41.843  11.098  1.00  0.00    -0.027 C 
BRANCH  12  13
ATOM     13  C   UNL     1       7.125  41.211  11.597  1.00  0.00     0.054 C 
BRANCH  13  14
ATOM     14  C   UNL     1       6.945  40.633  12.973  1.00  0.00    -0.027 C 
ATOM     15  C   UNL     1       7.925  40.719  13.884  1.00  0.00    -0.031 C 
BRANCH  15  16
ATOM     16  C   UNL     1       7.769  40.152  15.270  1.00  0.00     0.027 C 
BRANCH  16  17
ATOM     17  C   UNL     1       7.430  38.653  15.252  1.00  0.00     0.004 C 
BRANCH  17  18
ATOM     18  C   UNL     1       6.101  38.350  15.968  1.00  0.00     0.000 C 
BRANCH  18  19
ATOM     19  C   UNL     1       5.216  39.597  16.120  1.00  0.00    -0.003 C 
ATOM     20  C   UNL     1       4.011  39.583  15.179  1.00  0.00     0.004 C 
ENDBRANCH  18  19
ENDBRANCH  17  18
ENDBRANCH  16  17
ENDBRANCH  15  16
ENDBRANCH  13  14
ENDBRANCH  12  13
ENDBRANCH   1  11
TORSDOF 14
ENDMDL
MODEL 5
REMARK VINA RESULT:    13.543      2.227      3.950
REMARK INTER + INTRA:          23.986
REMARK INTER:                  23.857
REMARK INTRA:                   0.129
REMARK UNBOUND:                -0.642
REMARK SMILES CCCCCC=CCC=CCCCCCCCC(=O)[O-]
REMARK SMILES IDX 11 1 12 2 13 3 14 4 15 5 16 6 17 7 18 8 19 9 20 10 10 11
REMARK SMILES IDX 9 12 8 13 7 14 6 15 5 16 4 17 3 18 2 19 1 20
REMARK H PARENT
REMARK Flexibility Score: inf
ROOT
ATOM      1  C   UNL     1       7.458  40.387  14.166  1.00  0.00     0.027 C 
ENDROOT
BRANCH   1   2
ATOM      2  C   UNL     1       8.089  40.687  15.531  1.00  0.00     0.004 C 
BRANCH   2   3
ATOM      3  C   UNL     1       8.799  39.457  16.123  1.00  0.00     0.000 C 
BRANCH   3   4
ATOM      4  C   UNL     1       8.214  38.130  15.613  1.00  0.00     0.000 C 
BRANCH   4   5
ATOM      5  C   UNL     1       6.784  37.876  16.125  1.00  0.00     0.000 C 
BRANCH   5   6
ATOM      6  C   UNL     1       5.712  38.342  15.127  1.00  0.00     0.006 C 
BRANCH   6   7
ATOM      7  C   UNL     1       4.287  38.141  15.660  1.00  0.00     0.053 C 
BRANCH   7   8
ATOM      8  C   UNL     1       3.344  39.091  14.992  1.00  0.00     0.041 C 
ATOM      9  O   UNL     1       3.666  40.298  14.833  1.00  0.00    -0.550 OA
ATOM     10  O   UNL     1       2.128  38.633  14.499  1.00  0.00    -0.550 OA
ENDBRANCH   7   8
ENDBRANCH   6   7
ENDBRANCH   5   6
ENDBRANCH   4   5
ENDBRANCH   3   4
ENDBRANCH   2   3
ENDBRANCH   1   2
BRANCH   1  11
ATOM     11  C   UNL     1       8.449  40.585  13.044  1.00  0.00    -0.031 C 
ATOM     12  C   UNL     1       8.156  41.114  11.841  1.00  0.00    -0.027 C 
BRANCH  12  13
ATOM     13  C   UNL     1       6.782  41.564  11.417  1.00  0.00     0.054 C 
BRANCH  13  14
ATOM     14  C   UNL     1       6.849  42.464  10.214  1.00  0.00    -0.027 C 
ATOM     15  C   UNL     1       5.938  42.364   9.235  1.00  0.00    -0.031 C 
BRANCH  15  16
ATOM     16  C   UNL     1       5.979  43.256   8.023  1.00  0.00     0.027 C 
BRANCH  16  17
ATOM     17  C   UNL     1       6.399  42.496   6.754  1.00  0.00     0.004 C 
BRANCH  17  18
ATOM     18  C   UNL     1       7.922  42.527   6.538  1.00  0.00     0.000 C 
BRANCH  18  19
ATOM     19  C   UNL     1       8.459  41.220   5.936  1.00  0.00    -0.003 C 
ATOM     20  C   UNL     1       9.678  41.440   5.038  1.00  0.00     0.004 C 
ENDBRANCH  18  19
ENDBRANCH  17  18
ENDBRANCH  16  17
ENDBRANCH  15  16
ENDBRANCH  13  14
ENDBRANCH  12  13
ENDBRANCH   1  11
TORSDOF 14
ENDMDL
MODEL 6
REMARK VINA RESULT:    13.616      3.808      9.382
REMARK INTER + INTRA:          24.118
REMARK INTER:                  24.607
REMARK INTRA:                  -0.489
REMARK UNBOUND:                -0.642
REMARK SMILES CCCCCC=CCC=CCCCCCCCC(=O)[O-]
REMARK SMILES IDX 11 1 12 2 13 3 14 4 15 5 16 6 17 7 18 8 19 9 20 10 10 11
REMARK SMILES IDX 9 12 8 13 7 14 6 15 5 16 4 17 3 18 2 19 1 20
REMARK H PARENT
REMARK Flexibility Score: inf
ROOT
ATOM      1  C   UNL     1       5.601  43.418   8.923  1.00  0.00     0.027 C 
ENDROOT
BRANCH   1   2
ATOM      2  C   UNL     1       6.545  42.214   9.026  1.00  0.00     0.004 C 
BRANCH   2   3
ATOM      3  C   UNL     1       7.605  42.213   7.913  1.00  0.00     0.000 C 
BRANCH   3   4
ATOM      4  C   UNL     1       7.061  42.732   6.572  1.00  0.00     0.000 C 
BRANCH   4   5
ATOM      5  C   UNL     1       8.151  42.840   5.490  1.00  0.00     0.000 C 
BRANCH   5   6
ATOM      6  C   UNL     1       9.258  41.788   5.665  1.00  0.00     0.006 C 
BRANCH   6   7
ATOM      7  C   UNL     1       8.964  40.492   4.897  1.00  0.00     0.053 C 
BRANCH   7   8
ATOM      8  C   UNL     1       9.802  40.418   3.661  1.00  0.00     0.041 C 
ATOM      9  O   UNL     1      10.618  39.471   3.503  1.00  0.00    -0.550 OA
ATOM     10  O   UNL     1       9.647  41.366   2.657  1.00  0.00    -0.550 OA
ENDBRANCH   7   8
ENDBRANCH   6   7
ENDBRANCH   5   6
ENDBRANCH   4   5
ENDBRANCH   3   4
ENDBRANCH   2   3
ENDBRANCH   1   2
BRANCH   1  11
ATOM     11  C   UNL     1       4.182  43.041   9.276  1.00  0.00    -0.031 C 
ATOM     12  C   UNL     1       3.811  42.416  10.410  1.00  0.00    -0.027 C 
BRANCH  12  13
ATOM     13  C   UNL     1       4.760  41.969  11.490  1.00  0.00     0.054 C 
BRANCH  13  14
ATOM     14  C   UNL     1       4.028  41.291  12.615  1.00  0.00    -0.027 C 
ATOM     15  C   UNL     1       4.687  40.870  13.704  1.00  0.00    -0.031 C 
BRANCH  15  16
ATOM     16  C   UNL     1       3.978  40.192  14.846  1.00  0.00     0.027 C 
BRANCH  16  17
ATOM     17  C   UNL     1       4.930  39.342  15.702  1.00  0.00     0.004 C 
BRANCH  17  18
ATOM     18  C   UNL     1       6.290  40.032  15.915  1.00  0.00     0.000 C 
BRANCH  18  19
ATOM     19  C   UNL     1       7.470  39.169  15.443  1.00  0.00    -0.003 C 
ATOM     20  C   UNL     1       8.560  39.988  14.751  1.00  0.00     0.004 C 
ENDBRANCH  18  19
ENDBRANCH  17  18
ENDBRANCH  16  17
ENDBRANCH  15  16
ENDBRANCH  13  14
ENDBRANCH  12  13
ENDBRANCH   1  11
TORSDOF 14
ENDMDL
MODEL 7
REMARK VINA RESULT:    13.666      3.789      9.289
REMARK INTER + INTRA:          24.208
REMARK INTER:                  25.048
REMARK INTRA:                  -0.840
REMARK UNBOUND:                -0.642
REMARK SMILES CCCCCC=CCC=CCCCCCCCC(=O)[O-]
REMARK SMILES IDX 11 1 12 2 13 3 14 4 15 5 16 6 17 7 18 8 19 9 20 10 10 11
REMARK SMILES IDX 9 12 8 13 7 14 6 15 5 16 4 17 3 18 2 19 1 20
REMARK H PARENT
REMARK Flexibility Score: inf
ROOT
ATOM      1  C   UNL     1       5.415  42.663  10.335  1.00  0.00     0.027 C 
ENDROOT
BRANCH   1   2
ATOM      2  C   UNL     1       5.424  42.663   8.801  1.00  0.00     0.004 C 
BRANCH   2   3
ATOM      3  C   UNL     1       6.852  42.653   8.231  1.00  0.00     0.000 C 
BRANCH   3   4
ATOM      4  C   UNL     1       6.907  43.083   6.756  1.00  0.00     0.000 C 
BRANCH   4   5
ATOM      5  C   UNL     1       8.333  43.039   6.177  1.00  0.00     0.000 C 
BRANCH   5   6
ATOM      6  C   UNL     1       8.861  41.603   6.025  1.00  0.00     0.006 C 
BRANCH   6   7
ATOM      7  C   UNL     1       8.421  40.951   4.708  1.00  0.00     0.053 C 
BRANCH   7   8
ATOM      8  C   UNL     1       9.602  40.377   3.992  1.00  0.00     0.041 C 
ATOM      9  O   UNL     1       9.910  40.791   2.843  1.00  0.00    -0.550 OA
ATOM     10  O   UNL     1      10.395  39.420   4.613  1.00  0.00    -0.550 OA
ENDBRANCH   7   8
ENDBRANCH   6   7
ENDBRANCH   5   6
ENDBRANCH   4   5
ENDBRANCH   3   4
ENDBRANCH   2   3
ENDBRANCH   1   2
BRANCH   1  11
ATOM     11  C   UNL     1       6.466  41.734  10.894  1.00  0.00    -0.031 C 
ATOM     12  C   UNL     1       6.358  41.056  12.052  1.00  0.00    -0.027 C 
BRANCH  12  13
ATOM     13  C   UNL     1       5.180  41.143  12.987  1.00  0.00     0.054 C 
BRANCH  13  14
ATOM     14  C   UNL     1       5.582  40.838  14.402  1.00  0.00    -0.027 C 
ATOM     15  C   UNL     1       6.715  40.168  14.662  1.00  0.00    -0.031 C 
BRANCH  15  16
ATOM     16  C   UNL     1       7.143  39.853  16.071  1.00  0.00     0.027 C 
BRANCH  16  17
ATOM     17  C   UNL     1       8.528  39.189  16.125  1.00  0.00     0.004 C 
BRANCH  17  18
ATOM     18  C   UNL     1       8.837  38.389  14.847  1.00  0.00     0.000 C 
BRANCH  18  19
ATOM     19  C   UNL     1      10.326  38.032  14.720  1.00  0.00    -0.003 C 
ATOM     20  C   UNL     1      11.034  37.968  16.074  1.00  0.00     0.004 C 
ENDBRANCH  18  19
ENDBRANCH  17  18
ENDBRANCH  16  17
ENDBRANCH  15  16
ENDBRANCH  13  14
ENDBRANCH  12  13
ENDBRANCH   1  11
TORSDOF 14
ENDMDL
MODEL 8
REMARK VINA RESULT:    13.902      2.456      3.084
REMARK INTER + INTRA:          24.638
REMARK INTER:                  25.126
REMARK INTRA:                  -0.487
REMARK UNBOUND:                -0.642
REMARK SMILES CCCCCC=CCC=CCCCCCCCC(=O)[O-]
REMARK SMILES IDX 11 1 12 2 13 3 14 4 15 5 16 6 17 7 18 8 19 9 20 10 10 11
REMARK SMILES IDX 9 12 8 13 7 14 6 15 5 16 4 17 3 18 2 19 1 20
REMARK H PARENT
REMARK Flexibility Score: inf
ROOT
ATOM      1  C   UNL     1       4.454  41.356  12.316  1.00  0.00     0.027 C 
ENDROOT
BRANCH   1   2
ATOM      2  C   UNL     1       4.432  40.840  13.760  1.00  0.00     0.004 C 
BRANCH   2   3
ATOM      3  C   UNL     1       5.793  41.009  14.455  1.00  0.00     0.000 C 
BRANCH   3   4
ATOM      4  C   UNL     1       6.013  39.994  15.589  1.00  0.00     0.000 C 
BRANCH   4   5
ATOM      5  C   UNL     1       6.160  38.551  15.074  1.00  0.00     0.000 C 
BRANCH   5   6
ATOM      6  C   UNL     1       4.803  37.875  14.823  1.00  0.00     0.006 C 
BRANCH   6   7
ATOM      7  C   UNL     1       3.743  38.285  15.853  1.00  0.00     0.053 C 
BRANCH   7   8
ATOM      8  C   UNL     1       2.371  38.135  15.277  1.00  0.00     0.041 C 
ATOM      9  O   UNL     1       2.210  38.077  14.029  1.00  0.00    -0.550 OA
ATOM     10  O   UNL     1       1.272  38.006  16.118  1.00  0.00    -0.550 OA
ENDBRANCH   7   8
ENDBRANCH   6   7
ENDBRANCH   5   6
ENDBRANCH   4   5
ENDBRANCH   3   4
ENDBRANCH   2   3
ENDBRANCH   1   2
BRANCH   1  11
ATOM     11  C   UNL     1       5.853  41.719  11.880  1.00  0.00    -0.031 C 
ATOM     12  C   UNL     1       6.177  42.228  10.676  1.00  0.00    -0.027 C 
BRANCH  12  13
ATOM     13  C   UNL     1       5.195  42.487   9.564  1.00  0.00     0.054 C 
BRANCH  13  14
ATOM     14  C   UNL     1       5.879  43.051   8.351  1.00  0.00    -0.027 C 
ATOM     15  C   UNL     1       6.814  42.342   7.702  1.00  0.00    -0.031 C 
BRANCH  15  16
ATOM     16  C   UNL     1       7.512  42.881   6.481  1.00  0.00     0.027 C 
BRANCH  16  17
ATOM     17  C   UNL     1       8.730  42.032   6.083  1.00  0.00     0.004 C 
BRANCH  17  18
ATOM     18  C   UNL     1       8.466  41.200   4.815  1.00  0.00     0.000 C 
BRANCH  18  19
ATOM     19  C   UNL     1       9.730  40.495   4.299  1.00  0.00    -0.003 C 
ATOM     20  C   UNL     1       9.900  40.624   2.785  1.00  0.00     0.004 C 
ENDBRANCH  18  19
ENDBRANCH  17  18
ENDBRANCH  16  17
ENDBRANCH  15  16
ENDBRANCH  13  14
ENDBRANCH  12  13
ENDBRANCH   1  11
TORSDOF 14
ENDMDL
MODEL 9
REMARK VINA RESULT:    14.118      4.128      9.340
REMARK INTER + INTRA:          25.030
REMARK INTER:                  25.285
REMARK INTRA:                  -0.255
REMARK UNBOUND:                -0.642
REMARK SMILES CCCCCC=CCC=CCCCCCCCC(=O)[O-]
REMARK SMILES IDX 11 1 12 2 13 3 14 4 15 5 16 6 17 7 18 8 19 9 20 10 10 11
REMARK SMILES IDX 9 12 8 13 7 14 6 15 5 16 4 17 3 18 2 19 1 20
REMARK H PARENT
REMARK Flexibility Score: inf
ROOT
ATOM      1  C   UNL     1       5.526  43.543   8.174  1.00  0.00     0.027 C 
ENDROOT
BRANCH   1   2
ATOM      2  C   UNL     1       6.480  42.434   7.713  1.00  0.00     0.004 C 
BRANCH   2   3
ATOM      3  C   UNL     1       7.289  42.845   6.472  1.00  0.00     0.000 C 
BRANCH   3   4
ATOM      4  C   UNL     1       8.785  42.514   6.600  1.00  0.00     0.000 C 
BRANCH   4   5
ATOM      5  C   UNL     1       9.056  41.000   6.663  1.00  0.00     0.000 C 
BRANCH   5   6
ATOM      6  C   UNL     1       8.978  40.332   5.281  1.00  0.00     0.006 C 
BRANCH   6   7
ATOM      7  C   UNL     1       9.480  41.247   4.157  1.00  0.00     0.053 C 
BRANCH   7   8
ATOM      8  C   UNL     1      10.046  40.434   3.037  1.00  0.00     0.041 C 
ATOM      9  O   UNL     1       9.925  40.824   1.845  1.00  0.00    -0.550 OA
ATOM     10  O   UNL     1      10.754  39.270   3.310  1.00  0.00    -0.550 OA
ENDBRANCH   7   8
ENDBRANCH   6   7
ENDBRANCH   5   6
ENDBRANCH   4   5
ENDBRANCH   3   4
ENDBRANCH   2   3
ENDBRANCH   1   2
BRANCH   1  11
ATOM     11  C   UNL     1       4.630  43.072   9.294  1.00  0.00    -0.031 C 
ATOM     12  C   UNL     1       5.051  42.427  10.398  1.00  0.00    -0.027 C 
BRANCH  12  13
ATOM     13  C   UNL     1       6.483  42.047  10.672  1.00  0.00     0.054 C 
BRANCH  13  14
ATOM     14  C   UNL     1       6.571  40.966  11.713  1.00  0.00    -0.027 C 
ATOM     15  C   UNL     1       6.564  41.272  13.019  1.00  0.00    -0.031 C 
BRANCH  15  16
ATOM     16  C   UNL     1       6.648  40.209  14.082  1.00  0.00     0.027 C 
BRANCH  16  17
ATOM     17  C   UNL     1       7.919  40.337  14.936  1.00  0.00     0.004 C 
BRANCH  17  18
ATOM     18  C   UNL     1       8.030  39.214  15.982  1.00  0.00     0.000 C 
BRANCH  18  19
ATOM     19  C   UNL     1       9.179  38.239  15.681  1.00  0.00    -0.003 C 
ATOM     20  C   UNL     1      10.236  38.842  14.755  1.00  0.00     0.004 C 
ENDBRANCH  18  19
ENDBRANCH  17  18
ENDBRANCH  16  17
ENDBRANCH  15  16
ENDBRANCH  13  14
ENDBRANCH  12  13
ENDBRANCH   1  11
TORSDOF 14
ENDMDL
