MODEL 1
REMARK VINA RESULT:    -7.495      0.000      0.000
REMARK INTER + INTRA:          -9.063
REMARK INTER:                  -9.029
REMARK INTRA:                  -0.034
REMARK UNBOUND:                -0.034
REMARK SMILES O=c1c(O)c(-c2ccc(O)c(O)c2)oc2cc(O)cc(O)c12
REMARK SMILES IDX 5 1 3 2 2 3 1 4 22 5 20 6 19 7 17 8 16 9 15 10 14 11 6 12
REMARK SMILES IDX 7 13 8 14 9 15 13 16 11 17 10 18 12 20 4 22 21 24 18 26
REMARK H PARENT 10 19 12 21 4 23 21 25 18 27
REMARK Flexibility Score: inf
ROOT
ATOM      1  C   UNL     1      -0.684  15.947  16.368  1.00  0.00     0.180 A 
ATOM      2  C   UNL     1       0.369  16.356  15.531  1.00  0.00     0.208 A 
ATOM      3  C   UNL     1       1.516  15.552  15.437  1.00  0.00     0.238 A 
ATOM      4  O   UNL     1       2.432  15.895  14.646  1.00  0.00    -0.285 OA
ATOM      5  C   UNL     1       1.603  14.358  16.194  1.00  0.00     0.111 A 
ATOM      6  C   UNL     1       2.734  13.488  16.207  1.00  0.00     0.134 A 
ATOM      7  C   UNL     1       2.659  12.267  16.890  1.00  0.00     0.093 A 
ATOM      8  C   UNL     1       1.520  11.916  17.614  1.00  0.00     0.123 A 
ATOM      9  C   UNL     1       0.430  12.787  17.657  1.00  0.00     0.094 A 
ATOM     10  C   UNL     1       0.462  13.995  16.955  1.00  0.00     0.146 A 
ATOM     11  O   UNL     1      -0.600  14.790  17.013  1.00  0.00    -0.452 OA
ENDROOT
BRANCH   1  12
ATOM     12  C   UNL     1      -1.914  16.754  16.537  1.00  0.00     0.025 A 
ATOM     13  C   UNL     1      -1.810  18.102  16.910  1.00  0.00     0.016 A 
ATOM     14  C   UNL     1      -2.956  18.888  17.055  1.00  0.00     0.051 A 
ATOM     15  C   UNL     1      -4.222  18.343  16.816  1.00  0.00     0.157 A 
ATOM     16  C   UNL     1      -3.186  16.213  16.276  1.00  0.00     0.062 A 
ATOM     17  C   UNL     1      -4.338  17.001  16.420  1.00  0.00     0.158 A 
BRANCH  15  18
ATOM     18  O   UNL     1      -5.347  19.151  16.971  1.00  0.00    -0.504 OA
ATOM     19  H   UNL     1      -6.283  18.766  17.015  1.00  0.00     0.293 HD
ENDBRANCH  15  18
BRANCH  17  20
ATOM     20  O   UNL     1      -5.596  16.454  16.165  1.00  0.00    -0.504 OA
ATOM     21  H   UNL     1      -5.875  15.560  16.551  1.00  0.00     0.293 HD
ENDBRANCH  17  20
ENDBRANCH   1  12
BRANCH   2  22
ATOM     22  O   UNL     1       0.254  17.527  14.776  1.00  0.00    -0.502 OA
ATOM     23  H   UNL     1      -0.462  18.221  14.955  1.00  0.00     0.293 HD
ENDBRANCH   2  22
BRANCH   6  24
ATOM     24  O   UNL     1       3.955  13.785  15.592  1.00  0.00    -0.507 OA
ATOM     25  H   UNL     1       4.709  13.128  15.464  1.00  0.00     0.293 HD
ENDBRANCH   6  24
BRANCH   8  26
ATOM     26  O   UNL     1       1.486  10.701  18.295  1.00  0.00    -0.508 OA
ATOM     27  H   UNL     1       1.646  10.650  19.295  1.00  0.00     0.293 HD
ENDBRANCH   8  26
TORSDOF 6
ENDMDL
MODEL 2
REMARK VINA RESULT:    -6.998      1.689      7.295
REMARK INTER + INTRA:          -8.464
REMARK INTER:                  -8.719
REMARK INTRA:                   0.255
REMARK UNBOUND:                -0.034
REMARK SMILES O=c1c(O)c(-c2ccc(O)c(O)c2)oc2cc(O)cc(O)c12
REMARK SMILES IDX 5 1 3 2 2 3 1 4 22 5 20 6 19 7 17 8 16 9 15 10 14 11 6 12
REMARK SMILES IDX 7 13 8 14 9 15 13 16 11 17 10 18 12 20 4 22 21 24 18 26
REMARK H PARENT 10 19 12 21 4 23 21 25 18 27
REMARK Flexibility Score: inf
ROOT
ATOM      1  C   UNL     1      -1.059  14.042  16.222  1.00  0.00     0.180 A 
ATOM      2  C   UNL     1      -2.318  13.498  15.912  1.00  0.00     0.208 A 
ATOM      3  C   UNL     1      -3.452  14.323  15.981  1.00  0.00     0.238 A 
ATOM      4  O   UNL     1      -4.568  13.845  15.650  1.00  0.00    -0.285 OA
ATOM      5  C   UNL     1      -3.316  15.676  16.375  1.00  0.00     0.111 A 
ATOM      6  C   UNL     1      -4.402  16.592  16.517  1.00  0.00     0.134 A 
ATOM      7  C   UNL     1      -4.137  17.941  16.786  1.00  0.00     0.093 A 
ATOM      8  C   UNL     1      -2.833  18.394  16.980  1.00  0.00     0.123 A 
ATOM      9  C   UNL     1      -1.768  17.495  16.902  1.00  0.00     0.094 A 
ATOM     10  C   UNL     1      -1.998  16.151  16.600  1.00  0.00     0.146 A 
ATOM     11  O   UNL     1      -0.956  15.331  16.523  1.00  0.00    -0.452 OA
ENDROOT
BRANCH   1  12
ATOM     12  C   UNL     1       0.178  13.230  16.195  1.00  0.00     0.025 A 
ATOM     13  C   UNL     1       0.122  11.873  16.546  1.00  0.00     0.016 A 
ATOM     14  C   UNL     1       1.273  11.082  16.509  1.00  0.00     0.051 A 
ATOM     15  C   UNL     1       2.494  11.630  16.105  1.00  0.00     0.157 A 
ATOM     16  C   UNL     1       1.403  13.774  15.769  1.00  0.00     0.062 A 
ATOM     17  C   UNL     1       2.560  12.982  15.729  1.00  0.00     0.158 A 
BRANCH  15  18
ATOM     18  O   UNL     1       3.626  10.817  16.080  1.00  0.00    -0.504 OA
ATOM     19  H   UNL     1       3.722  10.050  15.425  1.00  0.00     0.293 HD
ENDBRANCH  15  18
BRANCH  17  20
ATOM     20  O   UNL     1       3.772  13.532  15.311  1.00  0.00    -0.504 OA
ATOM     21  H   UNL     1       4.430  13.005  14.750  1.00  0.00     0.293 HD
ENDBRANCH  17  20
ENDBRANCH   1  12
BRANCH   2  22
ATOM     22  O   UNL     1      -2.427  12.165  15.504  1.00  0.00    -0.502 OA
ATOM     23  H   UNL     1      -1.933  11.413  15.968  1.00  0.00     0.293 HD
ENDBRANCH   2  22
BRANCH   6  24
ATOM     24  O   UNL     1      -5.748  16.224  16.434  1.00  0.00    -0.507 OA
ATOM     25  H   UNL     1      -6.324  16.332  15.613  1.00  0.00     0.293 HD
ENDBRANCH   6  24
BRANCH   8  26
ATOM     26  O   UNL     1      -2.608  19.740  17.261  1.00  0.00    -0.508 OA
ATOM     27  H   UNL     1      -3.170  20.241  17.940  1.00  0.00     0.293 HD
ENDBRANCH   8  26
TORSDOF 6
ENDMDL
MODEL 3
REMARK VINA RESULT:    -6.934      4.730      6.839
REMARK INTER + INTRA:          -8.387
REMARK INTER:                  -8.133
REMARK INTRA:                  -0.253
REMARK UNBOUND:                -0.034
REMARK SMILES O=c1c(O)c(-c2ccc(O)c(O)c2)oc2cc(O)cc(O)c12
REMARK SMILES IDX 5 1 3 2 2 3 1 4 22 5 20 6 19 7 17 8 16 9 15 10 14 11 6 12
REMARK SMILES IDX 7 13 8 14 9 15 13 16 11 17 10 18 12 20 4 22 21 24 18 26
REMARK H PARENT 10 19 12 21 4 23 21 25 18 27
REMARK Flexibility Score: inf
ROOT
ATOM      1  C   UNL     1      -1.891  13.476  14.247  1.00  0.00     0.180 A 
ATOM      2  C   UNL     1      -3.198  13.992  14.272  1.00  0.00     0.208 A 
ATOM      3  C   UNL     1      -4.167  13.435  13.422  1.00  0.00     0.238 A 
ATOM      4  O   UNL     1      -5.348  13.863  13.488  1.00  0.00    -0.285 OA
ATOM      5  C   UNL     1      -3.812  12.381  12.544  1.00  0.00     0.111 A 
ATOM      6  C   UNL     1      -4.702  11.769  11.612  1.00  0.00     0.134 A 
ATOM      7  C   UNL     1      -4.278  10.648  10.886  1.00  0.00     0.093 A 
ATOM      8  C   UNL     1      -2.980  10.158  11.012  1.00  0.00     0.123 A 
ATOM      9  C   UNL     1      -2.082  10.786  11.878  1.00  0.00     0.094 A 
ATOM     10  C   UNL     1      -2.487  11.884  12.641  1.00  0.00     0.146 A 
ATOM     11  O   UNL     1      -1.606  12.445  13.461  1.00  0.00    -0.452 OA
ENDROOT
BRANCH   1  12
ATOM     12  C   UNL     1      -0.810  14.028  15.096  1.00  0.00     0.025 A 
ATOM     13  C   UNL     1      -0.777  13.713  16.462  1.00  0.00     0.016 A 
ATOM     14  C   UNL     1       0.245  14.205  17.278  1.00  0.00     0.051 A 
ATOM     15  C   UNL     1       1.257  15.005  16.738  1.00  0.00     0.157 A 
ATOM     16  C   UNL     1       0.220  14.815  14.550  1.00  0.00     0.062 A 
ATOM     17  C   UNL     1       1.248  15.309  15.367  1.00  0.00     0.158 A 
BRANCH  15  18
ATOM     18  O   UNL     1       2.263  15.483  17.577  1.00  0.00    -0.504 OA
ATOM     19  H   UNL     1       3.237  15.242  17.440  1.00  0.00     0.293 HD
ENDBRANCH  15  18
BRANCH  17  20
ATOM     20  O   UNL     1       2.262  16.094  14.819  1.00  0.00    -0.504 OA
ATOM     21  H   UNL     1       2.699  16.841  15.345  1.00  0.00     0.293 HD
ENDBRANCH  17  20
ENDBRANCH   1  12
BRANCH   2  22
ATOM     22  O   UNL     1      -3.533  15.018  15.162  1.00  0.00    -0.502 OA
ATOM     23  H   UNL     1      -4.329  14.958  15.785  1.00  0.00     0.293 HD
ENDBRANCH   2  22
BRANCH   6  24
ATOM     24  O   UNL     1      -5.992  12.237  11.341  1.00  0.00    -0.507 OA
ATOM     25  H   UNL     1      -6.603  11.861  10.633  1.00  0.00     0.293 HD
ENDBRANCH   6  24
BRANCH   8  26
ATOM     26  O   UNL     1      -2.587   9.050  10.263  1.00  0.00    -0.508 OA
ATOM     27  H   UNL     1      -3.268   8.425   9.847  1.00  0.00     0.293 HD
ENDBRANCH   8  26
TORSDOF 6
ENDMDL
MODEL 4
REMARK VINA RESULT:    -6.785      4.737      6.782
REMARK INTER + INTRA:          -8.207
REMARK INTER:                  -7.925
REMARK INTRA:                  -0.283
REMARK UNBOUND:                -0.034
REMARK SMILES O=c1c(O)c(-c2ccc(O)c(O)c2)oc2cc(O)cc(O)c12
REMARK SMILES IDX 5 1 3 2 2 3 1 4 22 5 20 6 19 7 17 8 16 9 15 10 14 11 6 12
REMARK SMILES IDX 7 13 8 14 9 15 13 16 11 17 10 18 12 20 4 22 21 24 18 26
REMARK H PARENT 10 19 12 21 4 23 21 25 18 27
REMARK Flexibility Score: inf
ROOT
ATOM      1  C   UNL     1      -1.825  13.404  14.315  1.00  0.00     0.180 A 
ATOM      2  C   UNL     1      -3.118  13.954  14.334  1.00  0.00     0.208 A 
ATOM      3  C   UNL     1      -4.085  13.452  13.449  1.00  0.00     0.238 A 
ATOM      4  O   UNL     1      -5.255  13.911  13.508  1.00  0.00    -0.285 OA
ATOM      5  C   UNL     1      -3.742  12.418  12.544  1.00  0.00     0.111 A 
ATOM      6  C   UNL     1      -4.631  11.861  11.577  1.00  0.00     0.134 A 
ATOM      7  C   UNL     1      -4.225  10.752  10.823  1.00  0.00     0.093 A 
ATOM      8  C   UNL     1      -2.942  10.222  10.955  1.00  0.00     0.123 A 
ATOM      9  C   UNL     1      -2.044  10.797  11.857  1.00  0.00     0.094 A 
ATOM     10  C   UNL     1      -2.433  11.880  12.648  1.00  0.00     0.146 A 
ATOM     11  O   UNL     1      -1.553  12.390  13.502  1.00  0.00    -0.452 OA
ENDROOT
BRANCH   1  12
ATOM     12  C   UNL     1      -0.745  13.898  15.201  1.00  0.00     0.025 A 
ATOM     13  C   UNL     1      -0.091  15.099  14.890  1.00  0.00     0.016 A 
ATOM     14  C   UNL     1       0.916  15.594  15.722  1.00  0.00     0.051 A 
ATOM     15  C   UNL     1       1.273  14.906  16.885  1.00  0.00     0.157 A 
ATOM     16  C   UNL     1      -0.399  13.217  16.383  1.00  0.00     0.062 A 
ATOM     17  C   UNL     1       0.610  13.714  17.221  1.00  0.00     0.158 A 
BRANCH  15  18
ATOM     18  O   UNL     1       2.283  15.423  17.695  1.00  0.00    -0.504 OA
ATOM     19  H   UNL     1       2.212  15.427  18.706  1.00  0.00     0.293 HD
ENDBRANCH  15  18
BRANCH  17  20
ATOM     20  O   UNL     1       0.951  13.029  18.388  1.00  0.00    -0.504 OA
ATOM     21  H   UNL     1       0.794  13.431  19.304  1.00  0.00     0.293 HD
ENDBRANCH  17  20
ENDBRANCH   1  12
BRANCH   2  22
ATOM     22  O   UNL     1      -3.441  14.960  15.250  1.00  0.00    -0.502 OA
ATOM     23  H   UNL     1      -2.967  15.854  15.265  1.00  0.00     0.293 HD
ENDBRANCH   2  22
BRANCH   6  24
ATOM     24  O   UNL     1      -5.903  12.372  11.299  1.00  0.00    -0.507 OA
ATOM     25  H   UNL     1      -6.733  11.814  11.177  1.00  0.00     0.293 HD
ENDBRANCH   6  24
BRANCH   8  26
ATOM     26  O   UNL     1      -2.566   9.128  10.178  1.00  0.00    -0.508 OA
ATOM     27  H   UNL     1      -2.415   9.215   9.180  1.00  0.00     0.293 HD
ENDBRANCH   8  26
TORSDOF 6
ENDMDL
MODEL 5
REMARK VINA RESULT:    -6.719      4.129      5.388
REMARK INTER + INTRA:          -8.128
REMARK INTER:                  -7.915
REMARK INTRA:                  -0.213
REMARK UNBOUND:                -0.034
REMARK SMILES O=c1c(O)c(-c2ccc(O)c(O)c2)oc2cc(O)cc(O)c12
REMARK SMILES IDX 5 1 3 2 2 3 1 4 22 5 20 6 19 7 17 8 16 9 15 10 14 11 6 12
REMARK SMILES IDX 7 13 8 14 9 15 13 16 11 17 10 18 12 20 4 22 21 24 18 26
REMARK H PARENT 10 19 12 21 4 23 21 25 18 27
REMARK Flexibility Score: inf
ROOT
ATOM      1  C   UNL     1      -2.466  14.256  15.238  1.00  0.00     0.180 A 
ATOM      2  C   UNL     1      -1.889  13.108  15.806  1.00  0.00     0.208 A 
ATOM      3  C   UNL     1      -2.054  11.872  15.160  1.00  0.00     0.238 A 
ATOM      4  O   UNL     1      -1.490  10.857  15.644  1.00  0.00    -0.285 OA
ATOM      5  C   UNL     1      -2.807  11.798  13.963  1.00  0.00     0.111 A 
ATOM      6  C   UNL     1      -3.072  10.593  13.246  1.00  0.00     0.134 A 
ATOM      7  C   UNL     1      -3.717  10.655  12.004  1.00  0.00     0.093 A 
ATOM      8  C   UNL     1      -4.165  11.869  11.485  1.00  0.00     0.123 A 
ATOM      9  C   UNL     1      -3.964  13.048  12.207  1.00  0.00     0.094 A 
ATOM     10  C   UNL     1      -3.291  13.021  13.431  1.00  0.00     0.146 A 
ATOM     11  O   UNL     1      -3.111  14.165  14.080  1.00  0.00    -0.452 OA
ENDROOT
BRANCH   1  12
ATOM     12  C   UNL     1      -2.357  15.589  15.873  1.00  0.00     0.025 A 
ATOM     13  C   UNL     1      -1.127  16.263  15.859  1.00  0.00     0.016 A 
ATOM     14  C   UNL     1      -1.006  17.531  16.434  1.00  0.00     0.051 A 
ATOM     15  C   UNL     1      -2.115  18.150  17.018  1.00  0.00     0.157 A 
ATOM     16  C   UNL     1      -3.476  16.223  16.443  1.00  0.00     0.062 A 
ATOM     17  C   UNL     1      -3.358  17.497  17.019  1.00  0.00     0.158 A 
BRANCH  15  18
ATOM     18  O   UNL     1      -1.963  19.414  17.586  1.00  0.00    -0.504 OA
ATOM     19  H   UNL     1      -2.719  20.089  17.606  1.00  0.00     0.293 HD
ENDBRANCH  15  18
BRANCH  17  20
ATOM     20  O   UNL     1      -4.472  18.115  17.587  1.00  0.00    -0.504 OA
ATOM     21  H   UNL     1      -4.641  19.108  17.480  1.00  0.00     0.293 HD
ENDBRANCH  17  20
ENDBRANCH   1  12
BRANCH   2  22
ATOM     22  O   UNL     1      -1.131  13.206  16.977  1.00  0.00    -0.502 OA
ATOM     23  H   UNL     1      -0.577  12.437  17.332  1.00  0.00     0.293 HD
ENDBRANCH   2  22
BRANCH   6  24
ATOM     24  O   UNL     1      -2.749   9.316  13.718  1.00  0.00    -0.507 OA
ATOM     25  H   UNL     1      -2.731   9.051  14.690  1.00  0.00     0.293 HD
ENDBRANCH   6  24
BRANCH   8  26
ATOM     26  O   UNL     1      -4.817  11.893  10.255  1.00  0.00    -0.508 OA
ATOM     27  H   UNL     1      -4.509  11.316   9.480  1.00  0.00     0.293 HD
ENDBRANCH   8  26
TORSDOF 6
ENDMDL
MODEL 6
REMARK VINA RESULT:    -6.666      5.431      6.678
REMARK INTER + INTRA:          -8.064
REMARK INTER:                  -7.754
REMARK INTRA:                  -0.311
REMARK UNBOUND:                -0.034
REMARK SMILES O=c1c(O)c(-c2ccc(O)c(O)c2)oc2cc(O)cc(O)c12
REMARK SMILES IDX 5 1 3 2 2 3 1 4 22 5 20 6 19 7 17 8 16 9 15 10 14 11 6 12
REMARK SMILES IDX 7 13 8 14 9 15 13 16 11 17 10 18 12 20 4 22 21 24 18 26
REMARK H PARENT 10 19 12 21 4 23 21 25 18 27
REMARK Flexibility Score: inf
ROOT
ATOM      1  C   UNL     1      -1.781  11.761  13.562  1.00  0.00     0.180 A 
ATOM      2  C   UNL     1      -2.181  13.099  13.712  1.00  0.00     0.208 A 
ATOM      3  C   UNL     1      -1.757  13.814  14.844  1.00  0.00     0.238 A 
ATOM      4  O   UNL     1      -2.072  15.028  14.946  1.00  0.00    -0.285 OA
ATOM      5  C   UNL     1      -0.953  13.176  15.820  1.00  0.00     0.111 A 
ATOM      6  C   UNL     1      -0.499  13.792  17.024  1.00  0.00     0.134 A 
ATOM      7  C   UNL     1       0.400  13.109  17.854  1.00  0.00     0.093 A 
ATOM      8  C   UNL     1       0.809  11.810  17.556  1.00  0.00     0.123 A 
ATOM      9  C   UNL     1       0.325  11.176  16.411  1.00  0.00     0.094 A 
ATOM     10  C   UNL     1      -0.544  11.845  15.545  1.00  0.00     0.146 A 
ATOM     11  O   UNL     1      -0.973  11.211  14.461  1.00  0.00    -0.452 OA
ENDROOT
BRANCH   1  12
ATOM     12  C   UNL     1      -2.208  10.935  12.409  1.00  0.00     0.025 A 
ATOM     13  C   UNL     1      -1.307  10.693  11.362  1.00  0.00     0.016 A 
ATOM     14  C   UNL     1      -1.682   9.900  10.274  1.00  0.00     0.051 A 
ATOM     15  C   UNL     1      -2.955   9.325  10.223  1.00  0.00     0.157 A 
ATOM     16  C   UNL     1      -3.481  10.339  12.367  1.00  0.00     0.062 A 
ATOM     17  C   UNL     1      -3.859   9.541  11.277  1.00  0.00     0.158 A 
BRANCH  15  18
ATOM     18  O   UNL     1      -3.301   8.541   9.124  1.00  0.00    -0.504 OA
ATOM     19  H   UNL     1      -2.636   8.314   8.395  1.00  0.00     0.293 HD
ENDBRANCH  15  18
BRANCH  17  20
ATOM     20  O   UNL     1      -5.126   8.959  11.241  1.00  0.00    -0.504 OA
ATOM     21  H   UNL     1      -5.517   8.486  12.047  1.00  0.00     0.293 HD
ENDBRANCH  17  20
ENDBRANCH   1  12
BRANCH   2  22
ATOM     22  O   UNL     1      -2.957  13.717  12.726  1.00  0.00    -0.502 OA
ATOM     23  H   UNL     1      -3.930  13.955  12.871  1.00  0.00     0.293 HD
ENDBRANCH   2  22
BRANCH   6  24
ATOM     24  O   UNL     1      -0.919  15.052  17.463  1.00  0.00    -0.507 OA
ATOM     25  H   UNL     1      -0.345  15.702  17.978  1.00  0.00     0.293 HD
ENDBRANCH   6  24
BRANCH   8  26
ATOM     26  O   UNL     1       1.692  11.154  18.412  1.00  0.00    -0.508 OA
ATOM     27  H   UNL     1       2.652  10.970  18.143  1.00  0.00     0.293 HD
ENDBRANCH   8  26
TORSDOF 6
ENDMDL
MODEL 7
REMARK VINA RESULT:    -6.627      4.843      6.066
REMARK INTER + INTRA:          -8.018
REMARK INTER:                  -7.740
REMARK INTRA:                  -0.278
REMARK UNBOUND:                -0.034
REMARK SMILES O=c1c(O)c(-c2ccc(O)c(O)c2)oc2cc(O)cc(O)c12
REMARK SMILES IDX 5 1 3 2 2 3 1 4 22 5 20 6 19 7 17 8 16 9 15 10 14 11 6 12
REMARK SMILES IDX 7 13 8 14 9 15 13 16 11 17 10 18 12 20 4 22 21 24 18 26
REMARK H PARENT 10 19 12 21 4 23 21 25 18 27
REMARK Flexibility Score: inf
ROOT
ATOM      1  C   UNL     1      -1.591  12.129  14.118  1.00  0.00     0.180 A 
ATOM      2  C   UNL     1      -1.621  13.516  13.898  1.00  0.00     0.208 A 
ATOM      3  C   UNL     1      -0.988  14.366  14.819  1.00  0.00     0.238 A 
ATOM      4  O   UNL     1      -0.972  15.603  14.589  1.00  0.00    -0.285 OA
ATOM      5  C   UNL     1      -0.347  13.819  15.957  1.00  0.00     0.111 A 
ATOM      6  C   UNL     1       0.291  14.588  16.975  1.00  0.00     0.134 A 
ATOM      7  C   UNL     1       1.007  13.936  17.988  1.00  0.00     0.093 A 
ATOM      8  C   UNL     1       1.053  12.544  18.055  1.00  0.00     0.123 A 
ATOM      9  C   UNL     1       0.382  11.781  17.098  1.00  0.00     0.094 A 
ATOM     10  C   UNL     1      -0.310  12.404  16.055  1.00  0.00     0.146 A 
ATOM     11  O   UNL     1      -0.925  11.642  15.159  1.00  0.00    -0.452 OA
ENDROOT
BRANCH   1  12
ATOM     12  C   UNL     1      -2.256  11.172  13.205  1.00  0.00     0.025 A 
ATOM     13  C   UNL     1      -1.477  10.356  12.371  1.00  0.00     0.016 A 
ATOM     14  C   UNL     1      -2.083   9.432  11.516  1.00  0.00     0.051 A 
ATOM     15  C   UNL     1      -3.475   9.296  11.494  1.00  0.00     0.157 A 
ATOM     16  C   UNL     1      -3.655  11.020  13.196  1.00  0.00     0.062 A 
ATOM     17  C   UNL     1      -4.266  10.090  12.341  1.00  0.00     0.158 A 
BRANCH  15  18
ATOM     18  O   UNL     1      -4.051   8.367  10.630  1.00  0.00    -0.504 OA
ATOM     19  H   UNL     1      -4.991   8.015  10.768  1.00  0.00     0.293 HD
ENDBRANCH  15  18
BRANCH  17  20
ATOM     20  O   UNL     1      -5.653   9.951  12.335  1.00  0.00    -0.504 OA
ATOM     21  H   UNL     1      -6.205  10.168  11.513  1.00  0.00     0.293 HD
ENDBRANCH  17  20
ENDBRANCH   1  12
BRANCH   2  22
ATOM     22  O   UNL     1      -2.241  14.035  12.757  1.00  0.00    -0.502 OA
ATOM     23  H   UNL     1      -2.607  14.978  12.718  1.00  0.00     0.293 HD
ENDBRANCH   2  22
BRANCH   6  24
ATOM     24  O   UNL     1       0.230  15.983  17.054  1.00  0.00    -0.507 OA
ATOM     25  H   UNL     1       0.046  16.596  16.274  1.00  0.00     0.293 HD
ENDBRANCH   6  24
BRANCH   8  26
ATOM     26  O   UNL     1       1.761  11.928  19.085  1.00  0.00    -0.508 OA
ATOM     27  H   UNL     1       2.144  12.462  19.857  1.00  0.00     0.293 HD
ENDBRANCH   8  26
TORSDOF 6
ENDMDL
MODEL 8
REMARK VINA RESULT:    -6.589      4.041      5.608
REMARK INTER + INTRA:          -7.972
REMARK INTER:                  -7.843
REMARK INTRA:                  -0.129
REMARK UNBOUND:                -0.034
REMARK SMILES O=c1c(O)c(-c2ccc(O)c(O)c2)oc2cc(O)cc(O)c12
REMARK SMILES IDX 5 1 3 2 2 3 1 4 22 5 20 6 19 7 17 8 16 9 15 10 14 11 6 12
REMARK SMILES IDX 7 13 8 14 9 15 13 16 11 17 10 18 12 20 4 22 21 24 18 26
REMARK H PARENT 10 19 12 21 4 23 21 25 18 27
REMARK Flexibility Score: inf
ROOT
ATOM      1  C   UNL     1      -1.531  12.638  14.179  1.00  0.00     0.180 A 
ATOM      2  C   UNL     1      -1.348  11.810  15.299  1.00  0.00     0.208 A 
ATOM      3  C   UNL     1      -0.270  12.061  16.163  1.00  0.00     0.238 A 
ATOM      4  O   UNL     1      -0.142  11.351  17.194  1.00  0.00    -0.285 OA
ATOM      5  C   UNL     1       0.620  13.128  15.887  1.00  0.00     0.111 A 
ATOM      6  C   UNL     1       1.768  13.449  16.672  1.00  0.00     0.134 A 
ATOM      7  C   UNL     1       2.503  14.605  16.380  1.00  0.00     0.093 A 
ATOM      8  C   UNL     1       2.171  15.414  15.294  1.00  0.00     0.123 A 
ATOM      9  C   UNL     1       1.086  15.077  14.484  1.00  0.00     0.094 A 
ATOM     10  C   UNL     1       0.312  13.950  14.772  1.00  0.00     0.146 A 
ATOM     11  O   UNL     1      -0.719  13.670  13.984  1.00  0.00    -0.452 OA
ENDROOT
BRANCH   1  12
ATOM     12  C   UNL     1      -2.630  12.420  13.210  1.00  0.00     0.025 A 
ATOM     13  C   UNL     1      -2.693  11.214  12.497  1.00  0.00     0.016 A 
ATOM     14  C   UNL     1      -3.732  10.979  11.592  1.00  0.00     0.051 A 
ATOM     15  C   UNL     1      -4.731  11.937  11.399  1.00  0.00     0.157 A 
ATOM     16  C   UNL     1      -3.648  13.374  13.030  1.00  0.00     0.062 A 
ATOM     17  C   UNL     1      -4.693  13.139  12.124  1.00  0.00     0.158 A 
BRANCH  15  18
ATOM     18  O   UNL     1      -5.754  11.675  10.489  1.00  0.00    -0.504 OA
ATOM     19  H   UNL     1      -6.721  11.589  10.778  1.00  0.00     0.293 HD
ENDBRANCH  15  18
BRANCH  17  20
ATOM     20  O   UNL     1      -5.695  14.094  11.948  1.00  0.00    -0.504 OA
ATOM     21  H   UNL     1      -6.379  14.015  11.205  1.00  0.00     0.293 HD
ENDBRANCH  17  20
ENDBRANCH   1  12
BRANCH   2  22
ATOM     22  O   UNL     1      -2.251  10.776  15.566  1.00  0.00    -0.502 OA
ATOM     23  H   UNL     1      -3.046  10.582  14.970  1.00  0.00     0.293 HD
ENDBRANCH   2  22
BRANCH   6  24
ATOM     24  O   UNL     1       2.242  12.657  17.722  1.00  0.00    -0.507 OA
ATOM     25  H   UNL     1       2.673  13.013  18.562  1.00  0.00     0.293 HD
ENDBRANCH   6  24
BRANCH   8  26
ATOM     26  O   UNL     1       2.934  16.548  15.024  1.00  0.00    -0.508 OA
ATOM     27  H   UNL     1       3.432  16.655  14.147  1.00  0.00     0.293 HD
ENDBRANCH   8  26
TORSDOF 6
ENDMDL
MODEL 9
REMARK VINA RESULT:    -6.520      5.106      7.035
REMARK INTER + INTRA:          -7.888
REMARK INTER:                  -7.575
REMARK INTRA:                  -0.312
REMARK UNBOUND:                -0.034
REMARK SMILES O=c1c(O)c(-c2ccc(O)c(O)c2)oc2cc(O)cc(O)c12
REMARK SMILES IDX 5 1 3 2 2 3 1 4 22 5 20 6 19 7 17 8 16 9 15 10 14 11 6 12
REMARK SMILES IDX 7 13 8 14 9 15 13 16 11 17 10 18 12 20 4 22 21 24 18 26
REMARK H PARENT 10 19 12 21 4 23 21 25 18 27
REMARK Flexibility Score: inf
ROOT
ATOM      1  C   UNL     1      -2.736  12.662  13.636  1.00  0.00     0.180 A 
ATOM      2  C   UNL     1      -3.531  13.029  14.735  1.00  0.00     0.208 A 
ATOM      3  C   UNL     1      -3.044  13.988  15.638  1.00  0.00     0.238 A 
ATOM      4  O   UNL     1      -3.782  14.352  16.590  1.00  0.00    -0.285 OA
ATOM      5  C   UNL     1      -1.762  14.556  15.439  1.00  0.00     0.111 A 
ATOM      6  C   UNL     1      -1.153  15.506  16.311  1.00  0.00     0.134 A 
ATOM      7  C   UNL     1       0.063  16.099  15.947  1.00  0.00     0.093 A 
ATOM      8  C   UNL     1       0.722  15.728  14.776  1.00  0.00     0.123 A 
ATOM      9  C   UNL     1       0.164  14.756  13.944  1.00  0.00     0.094 A 
ATOM     10  C   UNL     1      -1.065  14.173  14.263  1.00  0.00     0.146 A 
ATOM     11  O   UNL     1      -1.567  13.261  13.440  1.00  0.00    -0.452 OA
ENDROOT
BRANCH   1  12
ATOM     12  C   UNL     1      -3.170  11.640  12.656  1.00  0.00     0.025 A 
ATOM     13  C   UNL     1      -3.977  12.020  11.573  1.00  0.00     0.016 A 
ATOM     14  C   UNL     1      -4.381  11.077  10.625  1.00  0.00     0.051 A 
ATOM     15  C   UNL     1      -3.974   9.744  10.735  1.00  0.00     0.157 A 
ATOM     16  C   UNL     1      -2.744  10.303  12.754  1.00  0.00     0.062 A 
ATOM     17  C   UNL     1      -3.147   9.355  11.802  1.00  0.00     0.158 A 
BRANCH  15  18
ATOM     18  O   UNL     1      -4.394   8.825   9.775  1.00  0.00    -0.504 OA
ATOM     19  H   UNL     1      -5.340   8.822   9.413  1.00  0.00     0.293 HD
ENDBRANCH  15  18
BRANCH  17  20
ATOM     20  O   UNL     1      -2.724   8.030  11.911  1.00  0.00    -0.504 OA
ATOM     21  H   UNL     1      -3.352   7.295  12.216  1.00  0.00     0.293 HD
ENDBRANCH  17  20
ENDBRANCH   1  12
BRANCH   2  22
ATOM     22  O   UNL     1      -4.802  12.471  14.902  1.00  0.00    -0.502 OA
ATOM     23  H   UNL     1      -5.638  13.038  14.976  1.00  0.00     0.293 HD
ENDBRANCH   2  22
BRANCH   6  24
ATOM     24  O   UNL     1      -1.682  15.879  17.551  1.00  0.00    -0.507 OA
ATOM     25  H   UNL     1      -1.641  16.810  17.937  1.00  0.00     0.293 HD
ENDBRANCH   6  24
BRANCH   8  26
ATOM     26  O   UNL     1       1.938  16.327  14.452  1.00  0.00    -0.508 OA
ATOM     27  H   UNL     1       2.817  15.965  14.805  1.00  0.00     0.293 HD
ENDBRANCH   8  26
TORSDOF 6
ENDMDL
