MODEL 1
REMARK VINA RESULT:    60.724      0.000      0.000
REMARK INTER + INTRA:          88.134
REMARK INTER:                  85.573
REMARK INTRA:                   2.561
REMARK UNBOUND:                 2.561
REMARK SMILES C[C@H](CO)CCC(=O)[C@@H](C)[C@H]1C(=O)C[C@@H]2[C@H]3CC=C4C[C@@H](O)CC[C@]4(C)[C@@H]3CC[C@]21C
REMARK SMILES IDX 6 1 5 2 2 3 1 4 3 5 4 6 7 8 8 9 9 10 10 11 11 12 12 13 30 14
REMARK SMILES IDX 13 15 14 16 15 17 29 18 31 19 16 20 28 21 27 22 17 23 25 24
REMARK SMILES IDX 18 25 19 26 24 27 26 28 20 29 23 30 21 31 22 32
REMARK H PARENT 4 7 22 33
REMARK Flexibility Score: inf
ROOT
ATOM      1  C   UNL     1      19.199  16.462  26.403  1.00  0.00     0.076 C 
ENDROOT
BRANCH   1   2
ATOM      2  C   UNL     1      18.448  16.120  25.102  1.00  0.00     0.013 C 
BRANCH   2   3
ATOM      3  C   UNL     1      17.300  17.105  24.788  1.00  0.00     0.012 C 
ATOM      4  C   UNL     1      16.390  16.526  23.694  1.00  0.00     0.010 C 
BRANCH   3   5
ATOM      5  C   UNL     1      17.799  18.511  24.393  1.00  0.00     0.159 C 
BRANCH   5   6
ATOM      6  O   UNL     1      17.474  18.817  23.064  1.00  0.00    -0.396 OA
ATOM      7  H   UNL     1      16.680  18.270  22.827  1.00  0.00     0.210 HD
ENDBRANCH   5   6
ENDBRANCH   3   5
ENDBRANCH   2   3
ENDBRANCH   1   2
BRANCH   1   8
ATOM      8  C   UNL     1      19.240  15.265  27.320  1.00  0.00     0.136 C 
ATOM      9  O   UNL     1      18.278  14.510  27.355  1.00  0.00    -0.299 OA
BRANCH   8  10
ATOM     10  C   UNL     1      20.418  15.045  28.259  1.00  0.00     0.064 C 
ATOM     11  C   UNL     1      20.699  16.357  29.007  1.00  0.00     0.017 C 
BRANCH  10  12
ATOM     12  C   UNL     1      20.268  13.845  29.252  1.00  0.00     0.072 C 
ATOM     13  C   UNL     1      21.237  13.889  30.408  1.00  0.00     0.137 C 
ATOM     14  C   UNL     1      18.901  13.692  30.005  1.00  0.00    -0.019 C 
ATOM     15  O   UNL     1      22.445  13.750  30.283  1.00  0.00    -0.299 OA
ATOM     16  C   UNL     1      20.581  14.084  31.738  1.00  0.00     0.080 C 
ATOM     17  C   UNL     1      19.155  14.445  31.326  1.00  0.00     0.007 C 
ATOM     18  C   UNL     1      17.642  14.312  29.349  1.00  0.00     0.008 C 
ATOM     19  C   UNL     1      18.668  12.158  30.220  1.00  0.00     0.012 C 
ATOM     20  C   UNL     1      18.017  14.264  32.352  1.00  0.00     0.001 C 
ATOM     21  C   UNL     1      16.419  14.226  30.293  1.00  0.00     0.005 C 
ATOM     22  C   UNL     1      16.688  14.791  31.731  1.00  0.00     0.003 C 
ATOM     23  C   UNL     1      18.315  15.072  33.620  1.00  0.00     0.031 C 
ATOM     24  C   UNL     1      15.467  14.641  32.732  1.00  0.00    -0.008 C 
ATOM     25  C   UNL     1      17.173  15.003  34.584  1.00  0.00    -0.027 C 
ATOM     26  C   UNL     1      15.888  14.862  34.199  1.00  0.00    -0.065 C 
ATOM     27  C   UNL     1      14.829  13.217  32.651  1.00  0.00     0.014 C 
ATOM     28  C   UNL     1      14.402  15.702  32.353  1.00  0.00     0.016 C 
ATOM     29  C   UNL     1      14.842  14.629  35.271  1.00  0.00     0.063 C 
ATOM     30  C   UNL     1      13.774  12.931  33.741  1.00  0.00     0.033 C 
ATOM     31  C   UNL     1      14.316  13.196  35.157  1.00  0.00     0.118 C 
BRANCH  31  32
ATOM     32  O   UNL     1      13.298  13.006  36.102  1.00  0.00    -0.393 OA
ATOM     33  H   UNL     1      13.733  12.993  36.995  1.00  0.00     0.210 HD
ENDBRANCH  31  32
ENDBRANCH  10  12
ENDBRANCH   8  10
ENDBRANCH   1   8
TORSDOF 8
ENDMDL
