MODEL 1
REMARK VINA RESULT:    -2.956      0.000      0.000
REMARK INTER + INTRA:          -3.600
REMARK INTER:                  -3.561
REMARK INTRA:                  -0.039
REMARK UNBOUND:                -0.039
REMARK SMILES CCCCCO
REMARK SMILES IDX 4 1 3 2 2 3 1 4 5 5 6 6
REMARK H PARENT 6 7
REMARK Flexibility Score: inf
ROOT
ATOM      1  C   UNL     1     163.249 177.797 186.790  1.00  0.00     0.028 C 
ENDROOT
BRANCH   1   2
ATOM      2  C   UNL     1     162.537 177.636 188.144  1.00  0.00     0.002 C 
BRANCH   2   3
ATOM      3  C   UNL     1     161.029 177.908 188.056  1.00  0.00    -0.003 C 
ATOM      4  C   UNL     1     160.618 178.261 186.629  1.00  0.00     0.004 C 
ENDBRANCH   2   3
ENDBRANCH   1   2
BRANCH   1   5
ATOM      5  C   UNL     1     164.317 178.900 186.784  1.00  0.00     0.156 C 
BRANCH   5   6
ATOM      6  O   UNL     1     165.080 178.858 185.608  1.00  0.00    -0.396 OA
ATOM      7  H   UNL     1     164.440 178.746 184.858  1.00  0.00     0.210 HD
ENDBRANCH   5   6
ENDBRANCH   1   5
TORSDOF 4
ENDMDL
MODEL 2
REMARK VINA RESULT:    -2.789     14.339     14.854
REMARK INTER + INTRA:          -3.399
REMARK INTER:                  -3.377
REMARK INTRA:                  -0.022
REMARK UNBOUND:                -0.039
REMARK SMILES CCCCCO
REMARK SMILES IDX 4 1 3 2 2 3 1 4 5 5 6 6
REMARK H PARENT 6 7
REMARK Flexibility Score: inf
ROOT
ATOM      1  C   UNL     1     162.197 177.714 172.248  1.00  0.00     0.028 C 
ENDROOT
BRANCH   1   2
ATOM      2  C   UNL     1     161.717 179.022 172.901  1.00  0.00     0.002 C 
BRANCH   2   3
ATOM      3  C   UNL     1     160.309 178.902 173.500  1.00  0.00    -0.003 C 
ATOM      4  C   UNL     1     160.050 177.488 174.013  1.00  0.00     0.004 C 
ENDBRANCH   2   3
ENDBRANCH   1   2
BRANCH   1   5
ATOM      5  C   UNL     1     163.188 177.930 171.095  1.00  0.00     0.156 C 
BRANCH   5   6
ATOM      6  O   UNL     1     162.514 178.111 169.878  1.00  0.00    -0.396 OA
ATOM      7  H   UNL     1     163.017 178.804 169.376  1.00  0.00     0.210 HD
ENDBRANCH   5   6
ENDBRANCH   1   5
TORSDOF 4
ENDMDL
MODEL 3
REMARK VINA RESULT:    -2.773     11.255     12.794
REMARK INTER + INTRA:          -3.379
REMARK INTER:                  -3.369
REMARK INTRA:                  -0.010
REMARK UNBOUND:                -0.039
REMARK SMILES CCCCCO
REMARK SMILES IDX 4 1 3 2 2 3 1 4 5 5 6 6
REMARK H PARENT 6 7
REMARK Flexibility Score: inf
ROOT
ATOM      1  C   UNL     1     175.578 177.771 187.002  1.00  0.00     0.028 C 
ENDROOT
BRANCH   1   2
ATOM      2  C   UNL     1     175.331 178.700 188.203  1.00  0.00     0.002 C 
BRANCH   2   3
ATOM      3  C   UNL     1     174.606 179.995 187.809  1.00  0.00    -0.003 C 
ATOM      4  C   UNL     1     173.132 179.730 187.512  1.00  0.00     0.004 C 
ENDBRANCH   2   3
ENDBRANCH   1   2
BRANCH   1   5
ATOM      5  C   UNL     1     177.063 177.479 186.746  1.00  0.00     0.156 C 
BRANCH   5   6
ATOM      6  O   UNL     1     177.230 176.669 185.613  1.00  0.00    -0.396 OA
ATOM      7  H   UNL     1     178.172 176.356 185.624  1.00  0.00     0.210 HD
ENDBRANCH   5   6
ENDBRANCH   1   5
TORSDOF 4
ENDMDL
MODEL 4
REMARK VINA RESULT:    -2.730      0.833      1.378
REMARK INTER + INTRA:          -3.328
REMARK INTER:                  -3.308
REMARK INTRA:                  -0.019
REMARK UNBOUND:                -0.039
REMARK SMILES CCCCCO
REMARK SMILES IDX 4 1 3 2 2 3 1 4 5 5 6 6
REMARK H PARENT 6 7
REMARK Flexibility Score: inf
ROOT
ATOM      1  C   UNL     1     163.647 178.628 186.853  1.00  0.00     0.028 C 
ENDROOT
BRANCH   1   2
ATOM      2  C   UNL     1     162.519 177.901 186.101  1.00  0.00     0.002 C 
BRANCH   2   3
ATOM      3  C   UNL     1     161.132 178.191 186.692  1.00  0.00    -0.003 C 
ATOM      4  C   UNL     1     161.074 177.809 188.168  1.00  0.00     0.004 C 
ENDBRANCH   2   3
ENDBRANCH   1   2
BRANCH   1   5
ATOM      5  C   UNL     1     165.049 178.098 186.519  1.00  0.00     0.156 C 
BRANCH   5   6
ATOM      6  O   UNL     1     165.534 178.669 185.333  1.00  0.00    -0.396 OA
ATOM      7  H   UNL     1     166.178 178.020 184.948  1.00  0.00     0.210 HD
ENDBRANCH   5   6
ENDBRANCH   1   5
TORSDOF 4
ENDMDL
MODEL 5
REMARK VINA RESULT:    -2.723      2.891      3.456
REMARK INTER + INTRA:          -3.319
REMARK INTER:                  -3.273
REMARK INTRA:                  -0.046
REMARK UNBOUND:                -0.039
REMARK SMILES CCCCCO
REMARK SMILES IDX 4 1 3 2 2 3 1 4 5 5 6 6
REMARK H PARENT 6 7
REMARK Flexibility Score: inf
ROOT
ATOM      1  C   UNL     1     160.779 178.248 186.809  1.00  0.00     0.028 C 
ENDROOT
BRANCH   1   2
ATOM      2  C   UNL     1     160.998 177.162 187.876  1.00  0.00     0.002 C 
BRANCH   2   3
ATOM      3  C   UNL     1     161.157 175.761 187.269  1.00  0.00    -0.003 C 
ATOM      4  C   UNL     1     160.002 174.852 187.679  1.00  0.00     0.004 C 
ENDBRANCH   2   3
ENDBRANCH   1   2
BRANCH   1   5
ATOM      5  C   UNL     1     160.667 177.694 185.382  1.00  0.00     0.156 C 
BRANCH   5   6
ATOM      6  O   UNL     1     159.942 178.567 184.557  1.00  0.00    -0.396 OA
ATOM      7  H   UNL     1     160.609 179.113 184.065  1.00  0.00     0.210 HD
ENDBRANCH   5   6
ENDBRANCH   1   5
TORSDOF 4
ENDMDL
MODEL 6
REMARK VINA RESULT:    -2.668      2.865      3.733
REMARK INTER + INTRA:          -3.253
REMARK INTER:                  -3.241
REMARK INTRA:                  -0.011
REMARK UNBOUND:                -0.039
REMARK SMILES CCCCCO
REMARK SMILES IDX 4 1 3 2 2 3 1 4 5 5 6 6
REMARK H PARENT 6 7
REMARK Flexibility Score: inf
ROOT
ATOM      1  C   UNL     1     160.690 177.085 185.665  1.00  0.00     0.028 C 
ENDROOT
BRANCH   1   2
ATOM      2  C   UNL     1     160.762 178.258 186.658  1.00  0.00     0.002 C 
BRANCH   2   3
ATOM      3  C   UNL     1     161.031 177.798 188.097  1.00  0.00    -0.003 C 
ATOM      4  C   UNL     1     162.450 177.255 188.244  1.00  0.00     0.004 C 
ENDBRANCH   2   3
ENDBRANCH   1   2
BRANCH   1   5
ATOM      5  C   UNL     1     160.256 177.501 184.252  1.00  0.00     0.156 C 
BRANCH   5   6
ATOM      6  O   UNL     1     159.875 176.385 183.492  1.00  0.00    -0.396 OA
ATOM      7  H   UNL     1     158.911 176.496 183.288  1.00  0.00     0.210 HD
ENDBRANCH   5   6
ENDBRANCH   1   5
TORSDOF 4
ENDMDL
MODEL 7
REMARK VINA RESULT:    -2.596      1.072      1.656
REMARK INTER + INTRA:          -3.167
REMARK INTER:                  -3.111
REMARK INTRA:                  -0.056
REMARK UNBOUND:                -0.039
REMARK SMILES CCCCCO
REMARK SMILES IDX 4 1 3 2 2 3 1 4 5 5 6 6
REMARK H PARENT 6 7
REMARK Flexibility Score: inf
ROOT
ATOM      1  C   UNL     1     162.919 177.409 185.976  1.00  0.00     0.028 C 
ENDROOT
BRANCH   1   2
ATOM      2  C   UNL     1     161.453 177.841 185.802  1.00  0.00     0.002 C 
BRANCH   2   3
ATOM      3  C   UNL     1     160.778 178.192 187.135  1.00  0.00    -0.003 C 
ATOM      4  C   UNL     1     161.540 177.588 188.312  1.00  0.00     0.004 C 
ENDBRANCH   2   3
ENDBRANCH   1   2
BRANCH   1   5
ATOM      5  C   UNL     1     163.909 178.247 185.154  1.00  0.00     0.156 C 
BRANCH   5   6
ATOM      6  O   UNL     1     164.596 179.158 185.969  1.00  0.00    -0.396 OA
ATOM      7  H   UNL     1     164.932 178.645 186.749  1.00  0.00     0.210 HD
ENDBRANCH   5   6
ENDBRANCH   1   5
TORSDOF 4
ENDMDL
MODEL 8
REMARK VINA RESULT:    -2.594      2.946      3.598
REMARK INTER + INTRA:          -3.164
REMARK INTER:                  -3.072
REMARK INTRA:                  -0.092
REMARK UNBOUND:                -0.039
REMARK SMILES CCCCCO
REMARK SMILES IDX 4 1 3 2 2 3 1 4 5 5 6 6
REMARK H PARENT 6 7
REMARK Flexibility Score: inf
ROOT
ATOM      1  C   UNL     1     160.805 175.579 187.458  1.00  0.00     0.028 C 
ENDROOT
BRANCH   1   2
ATOM      2  C   UNL     1     162.173 176.222 187.746  1.00  0.00     0.002 C 
BRANCH   2   3
ATOM      3  C   UNL     1     162.061 177.704 188.128  1.00  0.00    -0.003 C 
ATOM      4  C   UNL     1     160.650 178.230 187.880  1.00  0.00     0.004 C 
ENDBRANCH   2   3
ENDBRANCH   1   2
BRANCH   1   5
ATOM      5  C   UNL     1     160.699 174.960 186.057  1.00  0.00     0.156 C 
BRANCH   5   6
ATOM      6  O   UNL     1     160.258 175.906 185.119  1.00  0.00    -0.396 OA
ATOM      7  H   UNL     1     159.347 176.181 185.401  1.00  0.00     0.210 HD
ENDBRANCH   5   6
ENDBRANCH   1   5
TORSDOF 4
ENDMDL
MODEL 9
REMARK VINA RESULT:    -2.544     16.234     16.584
REMARK INTER + INTRA:          -3.103
REMARK INTER:                  -3.022
REMARK INTRA:                  -0.081
REMARK UNBOUND:                -0.039
REMARK SMILES CCCCCO
REMARK SMILES IDX 4 1 3 2 2 3 1 4 5 5 6 6
REMARK H PARENT 6 7
REMARK Flexibility Score: inf
ROOT
ATOM      1  C   UNL     1     162.557 162.496 184.956  1.00  0.00     0.028 C 
ENDROOT
BRANCH   1   2
ATOM      2  C   UNL     1     162.719 162.984 186.406  1.00  0.00     0.002 C 
BRANCH   2   3
ATOM      3  C   UNL     1     161.617 162.455 187.334  1.00  0.00    -0.003 C 
ATOM      4  C   UNL     1     161.988 161.088 187.903  1.00  0.00     0.004 C 
ENDBRANCH   2   3
ENDBRANCH   1   2
BRANCH   1   5
ATOM      5  C   UNL     1     163.698 161.585 184.482  1.00  0.00     0.156 C 
BRANCH   5   6
ATOM      6  O   UNL     1     163.267 160.255 184.369  1.00  0.00    -0.396 OA
ATOM      7  H   UNL     1     163.844 159.717 184.971  1.00  0.00     0.210 HD
ENDBRANCH   5   6
ENDBRANCH   1   5
TORSDOF 4
ENDMDL
