MODEL 1
REMARK VINA RESULT:    -4.853      0.000      0.000
REMARK INTER + INTRA:          -6.255
REMARK INTER:                  -5.846
REMARK INTRA:                  -0.410
REMARK UNBOUND:                -0.410
REMARK SMILES O=c1c(O)c(-c2ccc(O)cc2O)oc2cc(O)cc(O)c12
REMARK SMILES IDX 5 1 3 2 2 3 1 4 22 5 20 6 19 7 17 8 16 9 15 10 14 11 6 12
REMARK SMILES IDX 8 13 7 14 9 15 11 16 12 17 10 18 13 20 4 22 21 24 18 26
REMARK H PARENT 10 19 13 21 4 23 21 25 18 27
REMARK Flexibility Score: inf
ROOT
ATOM      1  C   UNL     1      -5.943  -5.956  -1.421  1.00  0.00     0.184 A 
ATOM      2  C   UNL     1      -5.016  -4.927  -1.647  1.00  0.00     0.208 A 
ATOM      3  C   UNL     1      -5.472  -3.699  -2.153  1.00  0.00     0.238 A 
ATOM      4  O   UNL     1      -4.645  -2.762  -2.302  1.00  0.00    -0.285 OA
ATOM      5  C   UNL     1      -6.848  -3.526  -2.440  1.00  0.00     0.111 A 
ATOM      6  C   UNL     1      -7.416  -2.339  -2.995  1.00  0.00     0.134 A 
ATOM      7  C   UNL     1      -8.807  -2.231  -3.117  1.00  0.00     0.093 A 
ATOM      8  C   UNL     1      -9.644  -3.288  -2.768  1.00  0.00     0.123 A 
ATOM      9  C   UNL     1      -9.096  -4.476  -2.281  1.00  0.00     0.094 A 
ATOM     10  C   UNL     1      -7.715  -4.601  -2.114  1.00  0.00     0.146 A 
ATOM     11  O   UNL     1      -7.234  -5.743  -1.637  1.00  0.00    -0.451 OA
ENDROOT
BRANCH   1  12
ATOM     12  C   UNL     1      -5.525  -7.277  -0.905  1.00  0.00     0.063 A 
ATOM     13  C   UNL     1      -5.256  -8.777   0.990  1.00  0.00     0.047 A 
ATOM     14  C   UNL     1      -5.635  -7.538   0.470  1.00  0.00     0.020 A 
ATOM     15  C   UNL     1      -4.775  -9.777   0.142  1.00  0.00     0.119 A 
ATOM     16  C   UNL     1      -4.683  -9.538  -1.235  1.00  0.00     0.093 A 
ATOM     17  C   UNL     1      -5.067  -8.297  -1.766  1.00  0.00     0.130 A 
BRANCH  15  18
ATOM     18  O   UNL     1      -4.396 -11.007   0.675  1.00  0.00    -0.508 OA
ATOM     19  H   UNL     1      -4.574 -11.240   1.645  1.00  0.00     0.293 HD
ENDBRANCH  15  18
BRANCH  17  20
ATOM     20  O   UNL     1      -5.018  -8.086  -3.145  1.00  0.00    -0.507 OA
ATOM     21  H   UNL     1      -5.791  -7.664  -3.646  1.00  0.00     0.293 HD
ENDBRANCH  17  20
ENDBRANCH   1  12
BRANCH   2  22
ATOM     22  O   UNL     1      -3.666  -5.120  -1.337  1.00  0.00    -0.502 OA
ATOM     23  H   UNL     1      -3.331  -5.956  -0.874  1.00  0.00     0.293 HD
ENDBRANCH   2  22
BRANCH   6  24
ATOM     24  O   UNL     1      -6.662  -1.257  -3.460  1.00  0.00    -0.507 OA
ATOM     25  H   UNL     1      -6.777  -0.822  -4.363  1.00  0.00     0.293 HD
ENDBRANCH   6  24
BRANCH   8  26
ATOM     26  O   UNL     1     -11.023  -3.152  -2.918  1.00  0.00    -0.508 OA
ATOM     27  H   UNL     1     -11.462  -3.181  -3.832  1.00  0.00     0.293 HD
ENDBRANCH   8  26
TORSDOF 6
ENDMDL
MODEL 2
REMARK VINA RESULT:    -4.753      6.259      9.042
REMARK INTER + INTRA:          -6.135
REMARK INTER:                  -5.844
REMARK INTRA:                  -0.291
REMARK UNBOUND:                -0.410
REMARK SMILES O=c1c(O)c(-c2ccc(O)cc2O)oc2cc(O)cc(O)c12
REMARK SMILES IDX 5 1 3 2 2 3 1 4 22 5 20 6 19 7 17 8 16 9 15 10 14 11 6 12
REMARK SMILES IDX 8 13 7 14 9 15 11 16 12 17 10 18 13 20 4 22 21 24 18 26
REMARK H PARENT 10 19 13 21 4 23 21 25 18 27
REMARK Flexibility Score: inf
ROOT
ATOM      1  C   UNL     1      -5.501   2.299  -2.942  1.00  0.00     0.184 A 
ATOM      2  C   UNL     1      -4.342   2.586  -2.205  1.00  0.00     0.208 A 
ATOM      3  C   UNL     1      -3.883   3.912  -2.145  1.00  0.00     0.238 A 
ATOM      4  O   UNL     1      -2.875   4.172  -1.439  1.00  0.00    -0.285 OA
ATOM      5  C   UNL     1      -4.584   4.929  -2.839  1.00  0.00     0.111 A 
ATOM      6  C   UNL     1      -4.187   6.300  -2.883  1.00  0.00     0.134 A 
ATOM      7  C   UNL     1      -5.026   7.242  -3.491  1.00  0.00     0.093 A 
ATOM      8  C   UNL     1      -6.211   6.855  -4.113  1.00  0.00     0.123 A 
ATOM      9  C   UNL     1      -6.579   5.508  -4.129  1.00  0.00     0.094 A 
ATOM     10  C   UNL     1      -5.782   4.551  -3.499  1.00  0.00     0.146 A 
ATOM     11  O   UNL     1      -6.173   3.282  -3.527  1.00  0.00    -0.451 OA
ENDROOT
BRANCH   1  12
ATOM     12  C   UNL     1      -6.026   0.922  -3.058  1.00  0.00     0.063 A 
ATOM     13  C   UNL     1      -7.814  -0.663  -2.609  1.00  0.00     0.047 A 
ATOM     14  C   UNL     1      -7.285   0.626  -2.512  1.00  0.00     0.020 A 
ATOM     15  C   UNL     1      -7.100  -1.669  -3.264  1.00  0.00     0.119 A 
ATOM     16  C   UNL     1      -5.853  -1.379  -3.833  1.00  0.00     0.093 A 
ATOM     17  C   UNL     1      -5.317  -0.085  -3.745  1.00  0.00     0.130 A 
BRANCH  15  18
ATOM     18  O   UNL     1      -7.638  -2.951  -3.349  1.00  0.00    -0.508 OA
ATOM     19  H   UNL     1      -7.192  -3.677  -3.897  1.00  0.00     0.293 HD
ENDBRANCH  15  18
BRANCH  17  20
ATOM     20  O   UNL     1      -4.097   0.204  -4.358  1.00  0.00    -0.507 OA
ATOM     21  H   UNL     1      -3.267  -0.347  -4.176  1.00  0.00     0.293 HD
ENDBRANCH  17  20
ENDBRANCH   1  12
BRANCH   2  22
ATOM     22  O   UNL     1      -3.681   1.565  -1.515  1.00  0.00    -0.502 OA
ATOM     23  H   UNL     1      -3.474   0.669  -1.940  1.00  0.00     0.293 HD
ENDBRANCH   2  22
BRANCH   6  24
ATOM     24  O   UNL     1      -2.978   6.779  -2.370  1.00  0.00    -0.507 OA
ATOM     25  H   UNL     1      -2.588   6.519  -1.477  1.00  0.00     0.293 HD
ENDBRANCH   6  24
BRANCH   8  26
ATOM     26  O   UNL     1      -7.013   7.818  -4.723  1.00  0.00    -0.508 OA
ATOM     27  H   UNL     1      -6.662   8.746  -4.930  1.00  0.00     0.293 HD
ENDBRANCH   8  26
TORSDOF 6
ENDMDL
MODEL 3
REMARK VINA RESULT:    -4.687     11.244     12.993
REMARK INTER + INTRA:          -6.056
REMARK INTER:                  -5.638
REMARK INTRA:                  -0.418
REMARK UNBOUND:                -0.410
REMARK SMILES O=c1c(O)c(-c2ccc(O)cc2O)oc2cc(O)cc(O)c12
REMARK SMILES IDX 5 1 3 2 2 3 1 4 22 5 20 6 19 7 17 8 16 9 15 10 14 11 6 12
REMARK SMILES IDX 8 13 7 14 9 15 11 16 12 17 10 18 13 20 4 22 21 24 18 26
REMARK H PARENT 10 19 13 21 4 23 21 25 18 27
REMARK Flexibility Score: inf
ROOT
ATOM      1  C   UNL     1      -9.762   5.472  -4.759  1.00  0.00     0.184 A 
ATOM      2  C   UNL     1     -10.153   6.748  -4.323  1.00  0.00     0.208 A 
ATOM      3  C   UNL     1      -9.191   7.596  -3.752  1.00  0.00     0.238 A 
ATOM      4  O   UNL     1      -9.534   8.758  -3.412  1.00  0.00    -0.285 OA
ATOM      5  C   UNL     1      -7.854   7.148  -3.611  1.00  0.00     0.111 A 
ATOM      6  C   UNL     1      -6.805   7.907  -3.009  1.00  0.00     0.134 A 
ATOM      7  C   UNL     1      -5.493   7.417  -3.040  1.00  0.00     0.093 A 
ATOM      8  C   UNL     1      -5.203   6.170  -3.590  1.00  0.00     0.123 A 
ATOM      9  C   UNL     1      -6.231   5.393  -4.128  1.00  0.00     0.094 A 
ATOM     10  C   UNL     1      -7.543   5.870  -4.144  1.00  0.00     0.146 A 
ATOM     11  O   UNL     1      -8.490   5.105  -4.675  1.00  0.00    -0.451 OA
ENDROOT
BRANCH   1  12
ATOM     12  C   UNL     1     -10.729   4.526  -5.354  1.00  0.00     0.063 A 
ATOM     13  C   UNL     1     -11.772   3.600  -7.345  1.00  0.00     0.047 A 
ATOM     14  C   UNL     1     -10.872   4.486  -6.750  1.00  0.00     0.020 A 
ATOM     15  C   UNL     1     -12.530   2.731  -6.556  1.00  0.00     0.119 A 
ATOM     16  C   UNL     1     -12.378   2.745  -5.164  1.00  0.00     0.093 A 
ATOM     17  C   UNL     1     -11.473   3.629  -4.558  1.00  0.00     0.130 A 
BRANCH  15  18
ATOM     18  O   UNL     1     -13.427   1.855  -7.164  1.00  0.00    -0.508 OA
ATOM     19  H   UNL     1     -13.750   1.018  -6.693  1.00  0.00     0.293 HD
ENDBRANCH  15  18
BRANCH  17  20
ATOM     20  O   UNL     1     -11.293   3.600  -3.174  1.00  0.00    -0.507 OA
ATOM     21  H   UNL     1     -10.523   3.098  -2.749  1.00  0.00     0.293 HD
ENDBRANCH  17  20
ENDBRANCH   1  12
BRANCH   2  22
ATOM     22  O   UNL     1     -11.474   7.170  -4.491  1.00  0.00    -0.502 OA
ATOM     23  H   UNL     1     -11.742   8.146  -4.445  1.00  0.00     0.293 HD
ENDBRANCH   2  22
BRANCH   6  24
ATOM     24  O   UNL     1      -7.002   9.125  -2.351  1.00  0.00    -0.507 OA
ATOM     25  H   UNL     1      -7.013  10.027  -2.802  1.00  0.00     0.293 HD
ENDBRANCH   6  24
BRANCH   8  26
ATOM     26  O   UNL     1      -3.889   5.707  -3.589  1.00  0.00    -0.508 OA
ATOM     27  H   UNL     1      -3.365   5.603  -2.728  1.00  0.00     0.293 HD
ENDBRANCH   8  26
TORSDOF 6
ENDMDL
MODEL 4
REMARK VINA RESULT:    -4.582      5.778     10.164
REMARK INTER + INTRA:          -5.929
REMARK INTER:                  -5.510
REMARK INTRA:                  -0.419
REMARK UNBOUND:                -0.410
REMARK SMILES O=c1c(O)c(-c2ccc(O)cc2O)oc2cc(O)cc(O)c12
REMARK SMILES IDX 5 1 3 2 2 3 1 4 22 5 20 6 19 7 17 8 16 9 15 10 14 11 6 12
REMARK SMILES IDX 8 13 7 14 9 15 11 16 12 17 10 18 13 20 4 22 21 24 18 26
REMARK H PARENT 10 19 13 21 4 23 21 25 18 27
REMARK Flexibility Score: inf
ROOT
ATOM      1  C   UNL     1      -5.425   2.827  -3.344  1.00  0.00     0.184 A 
ATOM      2  C   UNL     1      -4.269   2.330  -3.967  1.00  0.00     0.208 A 
ATOM      3  C   UNL     1      -4.132   0.944  -4.140  1.00  0.00     0.238 A 
ATOM      4  O   UNL     1      -3.119   0.508  -4.747  1.00  0.00    -0.285 OA
ATOM      5  C   UNL     1      -5.146   0.074  -3.672  1.00  0.00     0.111 A 
ATOM      6  C   UNL     1      -5.094  -1.351  -3.757  1.00  0.00     0.134 A 
ATOM      7  C   UNL     1      -6.212  -2.107  -3.380  1.00  0.00     0.093 A 
ATOM      8  C   UNL     1      -7.352  -1.496  -2.861  1.00  0.00     0.123 A 
ATOM      9  C   UNL     1      -7.391  -0.108  -2.717  1.00  0.00     0.094 A 
ATOM     10  C   UNL     1      -6.307   0.675  -3.118  1.00  0.00     0.146 A 
ATOM     11  O   UNL     1      -6.388   1.993  -2.976  1.00  0.00    -0.451 OA
ENDROOT
BRANCH   1  12
ATOM     12  C   UNL     1      -5.624   4.274  -3.117  1.00  0.00     0.063 A 
ATOM     13  C   UNL     1      -6.232   6.452  -4.010  1.00  0.00     0.047 A 
ATOM     14  C   UNL     1      -6.029   5.083  -4.191  1.00  0.00     0.020 A 
ATOM     15  C   UNL     1      -6.047   7.030  -2.751  1.00  0.00     0.119 A 
ATOM     16  C   UNL     1      -5.665   6.230  -1.667  1.00  0.00     0.093 A 
ATOM     17  C   UNL     1      -5.464   4.852  -1.840  1.00  0.00     0.130 A 
BRANCH  15  18
ATOM     18  O   UNL     1      -6.249   8.399  -2.587  1.00  0.00    -0.508 OA
ATOM     19  H   UNL     1      -6.398   9.011  -3.381  1.00  0.00     0.293 HD
ENDBRANCH  15  18
BRANCH  17  20
ATOM     20  O   UNL     1      -5.133   4.056  -0.742  1.00  0.00    -0.507 OA
ATOM     21  H   UNL     1      -5.845   3.616  -0.170  1.00  0.00     0.293 HD
ENDBRANCH  17  20
ENDBRANCH   1  12
BRANCH   2  22
ATOM     22  O   UNL     1      -3.293   3.214  -4.435  1.00  0.00    -0.502 OA
ATOM     23  H   UNL     1      -2.601   2.943  -5.123  1.00  0.00     0.293 HD
ENDBRANCH   2  22
BRANCH   6  24
ATOM     24  O   UNL     1      -3.969  -2.066  -4.176  1.00  0.00    -0.507 OA
ATOM     25  H   UNL     1      -3.560  -2.008  -5.096  1.00  0.00     0.293 HD
ENDBRANCH   6  24
BRANCH   8  26
ATOM     26  O   UNL     1      -8.439  -2.281  -2.481  1.00  0.00    -0.508 OA
ATOM     27  H   UNL     1      -8.319  -3.112  -1.912  1.00  0.00     0.293 HD
ENDBRANCH   8  26
TORSDOF 6
ENDMDL
MODEL 5
REMARK VINA RESULT:    -4.540     10.365     12.989
REMARK INTER + INTRA:          -5.878
REMARK INTER:                  -5.510
REMARK INTRA:                  -0.368
REMARK UNBOUND:                -0.410
REMARK SMILES O=c1c(O)c(-c2ccc(O)cc2O)oc2cc(O)cc(O)c12
REMARK SMILES IDX 5 1 3 2 2 3 1 4 22 5 20 6 19 7 17 8 16 9 15 10 14 11 6 12
REMARK SMILES IDX 8 13 7 14 9 15 11 16 12 17 10 18 13 20 4 22 21 24 18 26
REMARK H PARENT 10 19 13 21 4 23 21 25 18 27
REMARK Flexibility Score: inf
ROOT
ATOM      1  C   UNL     1      -8.021   5.835  -4.346  1.00  0.00     0.184 A 
ATOM      2  C   UNL     1      -7.566   7.044  -3.797  1.00  0.00     0.208 A 
ATOM      3  C   UNL     1      -6.212   7.164  -3.445  1.00  0.00     0.238 A 
ATOM      4  O   UNL     1      -5.797   8.267  -3.004  1.00  0.00    -0.285 OA
ATOM      5  C   UNL     1      -5.338   6.066  -3.631  1.00  0.00     0.111 A 
ATOM      6  C   UNL     1      -3.956   6.060  -3.271  1.00  0.00     0.134 A 
ATOM      7  C   UNL     1      -3.155   4.965  -3.621  1.00  0.00     0.093 A 
ATOM      8  C   UNL     1      -3.699   3.850  -4.256  1.00  0.00     0.123 A 
ATOM      9  C   UNL     1      -5.061   3.819  -4.559  1.00  0.00     0.094 A 
ATOM     10  C   UNL     1      -5.877   4.911  -4.256  1.00  0.00     0.146 A 
ATOM     11  O   UNL     1      -7.166   4.847  -4.570  1.00  0.00    -0.451 OA
ENDROOT
BRANCH   1  12
ATOM     12  C   UNL     1      -9.437   5.639  -4.723  1.00  0.00     0.063 A 
ATOM     13  C   UNL     1     -11.769   5.512  -4.047  1.00  0.00     0.047 A 
ATOM     14  C   UNL     1     -10.422   5.687  -3.724  1.00  0.00     0.020 A 
ATOM     15  C   UNL     1     -12.152   5.300  -5.374  1.00  0.00     0.119 A 
ATOM     16  C   UNL     1     -11.181   5.274  -6.383  1.00  0.00     0.093 A 
ATOM     17  C   UNL     1      -9.826   5.454  -6.067  1.00  0.00     0.130 A 
BRANCH  15  18
ATOM     18  O   UNL     1     -13.500   5.123  -5.680  1.00  0.00    -0.508 OA
ATOM     19  H   UNL     1     -14.202   5.789  -5.381  1.00  0.00     0.293 HD
ENDBRANCH  15  18
BRANCH  17  20
ATOM     20  O   UNL     1      -8.872   5.476  -7.086  1.00  0.00    -0.507 OA
ATOM     21  H   UNL     1      -8.713   4.671  -7.682  1.00  0.00     0.293 HD
ENDBRANCH  17  20
ENDBRANCH   1  12
BRANCH   2  22
ATOM     22  O   UNL     1      -8.447   8.118  -3.641  1.00  0.00    -0.502 OA
ATOM     23  H   UNL     1      -8.959   8.517  -4.419  1.00  0.00     0.293 HD
ENDBRANCH   2  22
BRANCH   6  24
ATOM     24  O   UNL     1      -3.333   7.086  -2.554  1.00  0.00    -0.507 OA
ATOM     25  H   UNL     1      -2.390   7.407  -2.712  1.00  0.00     0.293 HD
ENDBRANCH   6  24
BRANCH   8  26
ATOM     26  O   UNL     1      -2.876   2.772  -4.574  1.00  0.00    -0.508 OA
ATOM     27  H   UNL     1      -3.173   1.814  -4.419  1.00  0.00     0.293 HD
ENDBRANCH   8  26
TORSDOF 6
ENDMDL
MODEL 6
REMARK VINA RESULT:    -4.475     12.092     13.745
REMARK INTER + INTRA:          -5.800
REMARK INTER:                  -5.505
REMARK INTRA:                  -0.295
REMARK UNBOUND:                -0.410
REMARK SMILES O=c1c(O)c(-c2ccc(O)cc2O)oc2cc(O)cc(O)c12
REMARK SMILES IDX 5 1 3 2 2 3 1 4 22 5 20 6 19 7 17 8 16 9 15 10 14 11 6 12
REMARK SMILES IDX 8 13 7 14 9 15 11 16 12 17 10 18 13 20 4 22 21 24 18 26
REMARK H PARENT 10 19 13 21 4 23 21 25 18 27
REMARK Flexibility Score: inf
ROOT
ATOM      1  C   UNL     1     -10.826   5.474  -5.766  1.00  0.00     0.184 A 
ATOM      2  C   UNL     1     -11.553   6.297  -4.892  1.00  0.00     0.208 A 
ATOM      3  C   UNL     1     -10.859   7.046  -3.928  1.00  0.00     0.238 A 
ATOM      4  O   UNL     1     -11.510   7.823  -3.182  1.00  0.00    -0.285 OA
ATOM      5  C   UNL     1      -9.449   6.947  -3.844  1.00  0.00     0.111 A 
ATOM      6  C   UNL     1      -8.646   7.629  -2.879  1.00  0.00     0.134 A 
ATOM      7  C   UNL     1      -7.249   7.560  -2.971  1.00  0.00     0.093 A 
ATOM      8  C   UNL     1      -6.630   6.783  -3.948  1.00  0.00     0.123 A 
ATOM      9  C   UNL     1      -7.406   6.064  -4.859  1.00  0.00     0.094 A 
ATOM     10  C   UNL     1      -8.799   6.142  -4.816  1.00  0.00     0.146 A 
ATOM     11  O   UNL     1      -9.501   5.452  -5.707  1.00  0.00    -0.451 OA
ENDROOT
BRANCH   1  12
ATOM     12  C   UNL     1     -11.497   4.648  -6.792  1.00  0.00     0.063 A 
ATOM     13  C   UNL     1     -12.127   2.442  -7.598  1.00  0.00     0.047 A 
ATOM     14  C   UNL     1     -11.497   3.252  -6.651  1.00  0.00     0.020 A 
ATOM     15  C   UNL     1     -12.778   3.018  -8.693  1.00  0.00     0.119 A 
ATOM     16  C   UNL     1     -12.805   4.411  -8.832  1.00  0.00     0.093 A 
ATOM     17  C   UNL     1     -12.179   5.231  -7.882  1.00  0.00     0.130 A 
BRANCH  15  18
ATOM     18  O   UNL     1     -13.398   2.197  -9.632  1.00  0.00    -0.508 OA
ATOM     19  H   UNL     1     -13.949   2.583 -10.391  1.00  0.00     0.293 HD
ENDBRANCH  15  18
BRANCH  17  20
ATOM     20  O   UNL     1     -12.255   6.619  -8.005  1.00  0.00    -0.507 OA
ATOM     21  H   UNL     1     -11.524   7.225  -7.649  1.00  0.00     0.293 HD
ENDBRANCH  17  20
ENDBRANCH   1  12
BRANCH   2  22
ATOM     22  O   UNL     1     -12.943   6.388  -5.010  1.00  0.00    -0.502 OA
ATOM     23  H   UNL     1     -13.443   7.258  -4.873  1.00  0.00     0.293 HD
ENDBRANCH   2  22
BRANCH   6  24
ATOM     24  O   UNL     1      -9.166   8.359  -1.807  1.00  0.00    -0.507 OA
ATOM     25  H   UNL     1      -8.638   9.008  -1.243  1.00  0.00     0.293 HD
ENDBRANCH   6  24
BRANCH   8  26
ATOM     26  O   UNL     1      -5.238   6.724  -3.999  1.00  0.00    -0.508 OA
ATOM     27  H   UNL     1      -4.669   7.560  -3.917  1.00  0.00     0.293 HD
ENDBRANCH   8  26
TORSDOF 6
ENDMDL
MODEL 7
REMARK VINA RESULT:    -4.471     10.923     12.844
REMARK INTER + INTRA:          -5.796
REMARK INTER:                  -5.390
REMARK INTRA:                  -0.406
REMARK UNBOUND:                -0.410
REMARK SMILES O=c1c(O)c(-c2ccc(O)cc2O)oc2cc(O)cc(O)c12
REMARK SMILES IDX 5 1 3 2 2 3 1 4 22 5 20 6 19 7 17 8 16 9 15 10 14 11 6 12
REMARK SMILES IDX 8 13 7 14 9 15 11 16 12 17 10 18 13 20 4 22 21 24 18 26
REMARK H PARENT 10 19 13 21 4 23 21 25 18 27
REMARK Flexibility Score: inf
ROOT
ATOM      1  C   UNL     1      -8.608   6.210  -4.305  1.00  0.00     0.184 A 
ATOM      2  C   UNL     1      -9.504   7.071  -3.651  1.00  0.00     0.208 A 
ATOM      3  C   UNL     1     -10.841   7.113  -4.078  1.00  0.00     0.238 A 
ATOM      4  O   UNL     1     -11.652   7.846  -3.454  1.00  0.00    -0.285 OA
ATOM      5  C   UNL     1     -11.258   6.303  -5.163  1.00  0.00     0.111 A 
ATOM      6  C   UNL     1     -12.578   6.295  -5.706  1.00  0.00     0.134 A 
ATOM      7  C   UNL     1     -12.912   5.360  -6.695  1.00  0.00     0.093 A 
ATOM      8  C   UNL     1     -11.959   4.481  -7.205  1.00  0.00     0.123 A 
ATOM      9  C   UNL     1     -10.649   4.521  -6.724  1.00  0.00     0.094 A 
ATOM     10  C   UNL     1     -10.295   5.417  -5.712  1.00  0.00     0.146 A 
ATOM     11  O   UNL     1      -9.042   5.415  -5.274  1.00  0.00    -0.451 OA
ENDROOT
BRANCH   1  12
ATOM     12  C   UNL     1      -7.184   6.130  -3.915  1.00  0.00     0.063 A 
ATOM     13  C   UNL     1      -5.002   7.195  -3.790  1.00  0.00     0.047 A 
ATOM     14  C   UNL     1      -6.350   7.234  -4.151  1.00  0.00     0.020 A 
ATOM     15  C   UNL     1      -4.472   6.058  -3.175  1.00  0.00     0.119 A 
ATOM     16  C   UNL     1      -5.300   4.959  -2.913  1.00  0.00     0.093 A 
ATOM     17  C   UNL     1      -6.657   4.992  -3.268  1.00  0.00     0.130 A 
BRANCH  15  18
ATOM     18  O   UNL     1      -3.124   6.031  -2.824  1.00  0.00    -0.508 OA
ATOM     19  H   UNL     1      -2.825   5.772  -1.891  1.00  0.00     0.293 HD
ENDBRANCH  15  18
BRANCH  17  20
ATOM     20  O   UNL     1      -7.483   3.912  -2.957  1.00  0.00    -0.507 OA
ATOM     21  H   UNL     1      -7.122   3.080  -2.504  1.00  0.00     0.293 HD
ENDBRANCH  17  20
ENDBRANCH   1  12
BRANCH   2  22
ATOM     22  O   UNL     1      -9.068   7.844  -2.572  1.00  0.00    -0.502 OA
ATOM     23  H   UNL     1      -8.284   7.573  -1.991  1.00  0.00     0.293 HD
ENDBRANCH   2  22
BRANCH   6  24
ATOM     24  O   UNL     1     -13.582   7.193  -5.331  1.00  0.00    -0.507 OA
ATOM     25  H   UNL     1     -13.469   8.194  -5.281  1.00  0.00     0.293 HD
ENDBRANCH   6  24
BRANCH   8  26
ATOM     26  O   UNL     1     -12.323   3.575  -8.200  1.00  0.00    -0.508 OA
ATOM     27  H   UNL     1     -11.753   2.764  -8.412  1.00  0.00     0.293 HD
ENDBRANCH   8  26
TORSDOF 6
ENDMDL
MODEL 8
REMARK VINA RESULT:    -4.429      3.590      7.976
REMARK INTER + INTRA:          -5.744
REMARK INTER:                  -5.400
REMARK INTRA:                  -0.344
REMARK UNBOUND:                -0.410
REMARK SMILES O=c1c(O)c(-c2ccc(O)cc2O)oc2cc(O)cc(O)c12
REMARK SMILES IDX 5 1 3 2 2 3 1 4 22 5 20 6 19 7 17 8 16 9 15 10 14 11 6 12
REMARK SMILES IDX 8 13 7 14 9 15 11 16 12 17 10 18 13 20 4 22 21 24 18 26
REMARK H PARENT 10 19 13 21 4 23 21 25 18 27
REMARK Flexibility Score: inf
ROOT
ATOM      1  C   UNL     1      -5.892  -0.110  -3.051  1.00  0.00     0.184 A 
ATOM      2  C   UNL     1      -4.925  -1.111  -2.873  1.00  0.00     0.208 A 
ATOM      3  C   UNL     1      -5.345  -2.430  -2.636  1.00  0.00     0.238 A 
ATOM      4  O   UNL     1      -4.475  -3.333  -2.531  1.00  0.00    -0.285 OA
ATOM      5  C   UNL     1      -6.729  -2.724  -2.564  1.00  0.00     0.111 A 
ATOM      6  C   UNL     1      -7.269  -4.016  -2.288  1.00  0.00     0.134 A 
ATOM      7  C   UNL     1      -8.653  -4.218  -2.370  1.00  0.00     0.093 A 
ATOM      8  C   UNL     1      -9.519  -3.163  -2.652  1.00  0.00     0.123 A 
ATOM      9  C   UNL     1      -9.006  -1.882  -2.864  1.00  0.00     0.094 A 
ATOM     10  C   UNL     1      -7.629  -1.657  -2.826  1.00  0.00     0.146 A 
ATOM     11  O   UNL     1      -7.180  -0.427  -3.045  1.00  0.00    -0.451 OA
ENDROOT
BRANCH   1  12
ATOM     12  C   UNL     1      -5.516   1.299  -3.289  1.00  0.00     0.063 A 
ATOM     13  C   UNL     1      -4.437   2.950  -4.710  1.00  0.00     0.047 A 
ATOM     14  C   UNL     1      -4.803   1.628  -4.452  1.00  0.00     0.020 A 
ATOM     15  C   UNL     1      -4.790   3.965  -3.817  1.00  0.00     0.119 A 
ATOM     16  C   UNL     1      -5.522   3.653  -2.664  1.00  0.00     0.093 A 
ATOM     17  C   UNL     1      -5.898   2.327  -2.400  1.00  0.00     0.130 A 
BRANCH  15  18
ATOM     18  O   UNL     1      -4.415   5.279  -4.086  1.00  0.00    -0.508 OA
ATOM     19  H   UNL     1      -3.854   5.514  -4.897  1.00  0.00     0.293 HD
ENDBRANCH  15  18
BRANCH  17  20
ATOM     20  O   UNL     1      -6.670   2.035  -1.275  1.00  0.00    -0.507 OA
ATOM     21  H   UNL     1      -7.499   1.455  -1.334  1.00  0.00     0.293 HD
ENDBRANCH  17  20
ENDBRANCH   1  12
BRANCH   2  22
ATOM     22  O   UNL     1      -3.566  -0.796  -2.967  1.00  0.00    -0.502 OA
ATOM     23  H   UNL     1      -3.182   0.063  -2.593  1.00  0.00     0.293 HD
ENDBRANCH   2  22
BRANCH   6  24
ATOM     24  O   UNL     1      -6.498  -5.118  -1.907  1.00  0.00    -0.507 OA
ATOM     25  H   UNL     1      -6.868  -5.973  -1.519  1.00  0.00     0.293 HD
ENDBRANCH   6  24
BRANCH   8  26
ATOM     26  O   UNL     1     -10.891  -3.398  -2.709  1.00  0.00    -0.508 OA
ATOM     27  H   UNL     1     -11.317  -4.176  -2.217  1.00  0.00     0.293 HD
ENDBRANCH   8  26
TORSDOF 6
ENDMDL
MODEL 9
REMARK VINA RESULT:    -4.300     11.509     12.797
REMARK INTER + INTRA:          -5.590
REMARK INTER:                  -5.300
REMARK INTRA:                  -0.290
REMARK UNBOUND:                -0.410
REMARK SMILES O=c1c(O)c(-c2ccc(O)cc2O)oc2cc(O)cc(O)c12
REMARK SMILES IDX 5 1 3 2 2 3 1 4 22 5 20 6 19 7 17 8 16 9 15 10 14 11 6 12
REMARK SMILES IDX 8 13 7 14 9 15 11 16 12 17 10 18 13 20 4 22 21 24 18 26
REMARK H PARENT 10 19 13 21 4 23 21 25 18 27
REMARK Flexibility Score: inf
ROOT
ATOM      1  C   UNL     1      -8.503   5.876  -4.042  1.00  0.00     0.184 A 
ATOM      2  C   UNL     1      -9.414   6.141  -3.007  1.00  0.00     0.208 A 
ATOM      3  C   UNL     1     -10.790   6.056  -3.274  1.00  0.00     0.238 A 
ATOM      4  O   UNL     1     -11.601   6.242  -2.330  1.00  0.00    -0.285 OA
ATOM      5  C   UNL     1     -11.234   5.723  -4.576  1.00  0.00     0.111 A 
ATOM      6  C   UNL     1     -12.604   5.649  -4.971  1.00  0.00     0.134 A 
ATOM      7  C   UNL     1     -12.931   5.183  -6.251  1.00  0.00     0.093 A 
ATOM      8  C   UNL     1     -11.938   4.853  -7.171  1.00  0.00     0.123 A 
ATOM      9  C   UNL     1     -10.593   4.979  -6.817  1.00  0.00     0.094 A 
ATOM     10  C   UNL     1     -10.237   5.406  -5.536  1.00  0.00     0.146 A 
ATOM     11  O   UNL     1      -8.948   5.502  -5.235  1.00  0.00    -0.451 OA
ENDROOT
BRANCH   1  12
ATOM     12  C   UNL     1      -7.043   5.963  -3.832  1.00  0.00     0.063 A 
ATOM     13  C   UNL     1      -4.882   4.850  -3.777  1.00  0.00     0.047 A 
ATOM     14  C   UNL     1      -6.265   4.802  -3.963  1.00  0.00     0.020 A 
ATOM     15  C   UNL     1      -4.255   6.061  -3.471  1.00  0.00     0.119 A 
ATOM     16  C   UNL     1      -5.018   7.231  -3.361  1.00  0.00     0.093 A 
ATOM     17  C   UNL     1      -6.408   7.192  -3.551  1.00  0.00     0.130 A 
BRANCH  15  18
ATOM     18  O   UNL     1      -2.875   6.093  -3.285  1.00  0.00    -0.508 OA
ATOM     19  H   UNL     1      -2.468   6.345  -2.391  1.00  0.00     0.293 HD
ENDBRANCH  15  18
BRANCH  17  20
ATOM     20  O   UNL     1      -7.151   8.371  -3.488  1.00  0.00    -0.507 OA
ATOM     21  H   UNL     1      -7.980   8.508  -4.054  1.00  0.00     0.293 HD
ENDBRANCH  17  20
ENDBRANCH   1  12
BRANCH   2  22
ATOM     22  O   UNL     1      -8.947   6.450  -1.727  1.00  0.00    -0.502 OA
ATOM     23  H   UNL     1      -9.562   6.763  -0.986  1.00  0.00     0.293 HD
ENDBRANCH   2  22
BRANCH   6  24
ATOM     24  O   UNL     1     -13.672   6.042  -4.158  1.00  0.00    -0.507 OA
ATOM     25  H   UNL     1     -13.612   6.196  -3.163  1.00  0.00     0.293 HD
ENDBRANCH   6  24
BRANCH   8  26
ATOM     26  O   UNL     1     -12.299   4.409  -8.442  1.00  0.00    -0.508 OA
ATOM     27  H   UNL     1     -13.030   4.866  -8.975  1.00  0.00     0.293 HD
ENDBRANCH   8  26
TORSDOF 6
ENDMDL
