MODEL 1
REMARK VINA RESULT:    -5.100      0.000      0.000
REMARK INTER + INTRA:          -5.701
REMARK INTER:                  -5.548
REMARK INTRA:                  -0.153
REMARK UNBOUND:                -0.153
REMARK SMILES Cc1ccc(C(C)C)c(O)c1
REMARK SMILES IDX 1 1 2 2 11 3 9 4 5 5 4 6 3 7 10 8 6 10 7 11 8 12
REMARK H PARENT 10 9
REMARK Flexibility Score: inf
ROOT
ATOM      1  C   UNL     1      25.739  49.331  36.027  1.00  0.00     0.044 C 
ATOM      2  C   UNL     1      25.647  48.521  34.768  1.00  0.00    -0.047 A 
ATOM      3  C   UNL     1      24.397  48.190  34.230  1.00  0.00     0.049 A 
ATOM      4  C   UNL     1      24.297  47.477  33.030  1.00  0.00     0.119 A 
ATOM      5  C   UNL     1      25.473  47.039  32.363  1.00  0.00    -0.004 A 
ATOM      6  C   UNL     1      26.723  47.441  32.883  1.00  0.00     0.008 A 
ATOM      7  C   UNL     1      26.807  48.169  34.071  1.00  0.00     0.004 A 
ENDROOT
BRANCH   4   8
ATOM      8  O   UNL     1      23.013  47.244  32.530  1.00  0.00    -0.508 OA
ATOM      9  H   UNL     1      22.480  47.919  31.998  1.00  0.00     0.293 HD
ENDBRANCH   4   8
BRANCH   5  10
ATOM     10  C   UNL     1      25.406  46.223  31.075  1.00  0.00     0.017 C 
ATOM     11  C   UNL     1      25.142  47.142  29.880  1.00  0.00     0.012 C 
ATOM     12  C   UNL     1      26.657  45.362  30.834  1.00  0.00     0.012 C 
ENDBRANCH   5  10
TORSDOF 2
ENDMDL
MODEL 2
REMARK VINA RESULT:    -4.883     11.861     13.403
REMARK INTER + INTRA:          -5.464
REMARK INTER:                  -5.282
REMARK INTRA:                  -0.182
REMARK UNBOUND:                -0.153
REMARK SMILES Cc1ccc(C(C)C)c(O)c1
REMARK SMILES IDX 1 1 2 2 11 3 9 4 5 5 4 6 3 7 10 8 6 10 7 11 8 12
REMARK H PARENT 10 9
REMARK Flexibility Score: inf
ROOT
ATOM      1  C   UNL     1      20.898  50.634  47.220  1.00  0.00     0.044 C 
ATOM      2  C   UNL     1      20.807  49.357  46.437  1.00  0.00    -0.047 A 
ATOM      3  C   UNL     1      19.879  48.373  46.796  1.00  0.00     0.049 A 
ATOM      4  C   UNL     1      19.750  47.198  46.046  1.00  0.00     0.119 A 
ATOM      5  C   UNL     1      20.598  46.972  44.929  1.00  0.00    -0.004 A 
ATOM      6  C   UNL     1      21.480  48.005  44.541  1.00  0.00     0.008 A 
ATOM      7  C   UNL     1      21.584  49.179  45.288  1.00  0.00     0.004 A 
ENDROOT
BRANCH   4   8
ATOM      8  O   UNL     1      18.755  46.297  46.436  1.00  0.00    -0.508 OA
ATOM      9  H   UNL     1      17.772  46.525  46.487  1.00  0.00     0.293 HD
ENDBRANCH   4   8
BRANCH   5  10
ATOM     10  C   UNL     1      20.518  45.686  44.111  1.00  0.00     0.017 C 
ATOM     11  C   UNL     1      20.081  45.998  42.676  1.00  0.00     0.012 C 
ATOM     12  C   UNL     1      21.825  44.877  44.117  1.00  0.00     0.012 C 
ENDBRANCH   5  10
TORSDOF 2
ENDMDL
MODEL 3
REMARK VINA RESULT:    -4.851     11.493     12.944
REMARK INTER + INTRA:          -5.430
REMARK INTER:                  -5.247
REMARK INTRA:                  -0.183
REMARK UNBOUND:                -0.153
REMARK SMILES Cc1ccc(C(C)C)c(O)c1
REMARK SMILES IDX 1 1 2 2 11 3 9 4 5 5 4 6 3 7 10 8 6 10 7 11 8 12
REMARK H PARENT 10 9
REMARK Flexibility Score: inf
ROOT
ATOM      1  C   UNL     1      20.430  50.614  47.319  1.00  0.00     0.044 C 
ATOM      2  C   UNL     1      20.611  49.523  46.305  1.00  0.00    -0.047 A 
ATOM      3  C   UNL     1      21.412  49.732  45.177  1.00  0.00     0.049 A 
ATOM      4  C   UNL     1      21.629  48.708  44.248  1.00  0.00     0.119 A 
ATOM      5  C   UNL     1      20.996  47.447  44.421  1.00  0.00    -0.004 A 
ATOM      6  C   UNL     1      20.248  47.233  45.599  1.00  0.00     0.008 A 
ATOM      7  C   UNL     1      20.056  48.258  46.526  1.00  0.00     0.004 A 
ENDROOT
BRANCH   4   8
ATOM      8  O   UNL     1      22.494  48.981  43.185  1.00  0.00    -0.508 OA
ATOM      9  H   UNL     1      22.300  49.651  42.454  1.00  0.00     0.293 HD
ENDBRANCH   4   8
BRANCH   5  10
ATOM     10  C   UNL     1      21.173  46.318  43.409  1.00  0.00     0.017 C 
ATOM     11  C   UNL     1      21.708  45.064  44.105  1.00  0.00     0.012 C 
ATOM     12  C   UNL     1      19.891  45.999  42.623  1.00  0.00     0.012 C 
ENDBRANCH   5  10
TORSDOF 2
ENDMDL
MODEL 4
REMARK VINA RESULT:    -4.619     11.916     12.749
REMARK INTER + INTRA:          -5.177
REMARK INTER:                  -4.987
REMARK INTRA:                  -0.191
REMARK UNBOUND:                -0.153
REMARK SMILES Cc1ccc(C(C)C)c(O)c1
REMARK SMILES IDX 1 1 2 2 11 3 9 4 5 5 4 6 3 7 10 8 6 10 7 11 8 12
REMARK H PARENT 10 9
REMARK Flexibility Score: inf
ROOT
ATOM      1  C   UNL     1      21.647  45.280  43.766  1.00  0.00     0.044 C 
ATOM      2  C   UNL     1      20.832  46.536  43.678  1.00  0.00    -0.047 A 
ATOM      3  C   UNL     1      21.415  47.778  43.959  1.00  0.00     0.049 A 
ATOM      4  C   UNL     1      20.680  48.962  43.834  1.00  0.00     0.119 A 
ATOM      5  C   UNL     1      19.310  48.912  43.460  1.00  0.00    -0.004 A 
ATOM      6  C   UNL     1      18.759  47.658  43.114  1.00  0.00     0.008 A 
ATOM      7  C   UNL     1      19.510  46.488  43.226  1.00  0.00     0.004 A 
ENDROOT
BRANCH   4   8
ATOM      8  O   UNL     1      21.356  50.163  44.071  1.00  0.00    -0.508 OA
ATOM      9  H   UNL     1      22.282  50.370  43.724  1.00  0.00     0.293 HD
ENDBRANCH   4   8
BRANCH   5  10
ATOM     10  C   UNL     1      18.462  50.177  43.354  1.00  0.00     0.017 C 
ATOM     11  C   UNL     1      17.345  49.980  42.325  1.00  0.00     0.012 C 
ATOM     12  C   UNL     1      17.885  50.638  44.702  1.00  0.00     0.012 C 
ENDBRANCH   5  10
TORSDOF 2
ENDMDL
MODEL 5
REMARK VINA RESULT:    -4.599     11.499     12.642
REMARK INTER + INTRA:          -5.156
REMARK INTER:                  -4.965
REMARK INTRA:                  -0.191
REMARK UNBOUND:                -0.153
REMARK SMILES Cc1ccc(C(C)C)c(O)c1
REMARK SMILES IDX 1 1 2 2 11 3 9 4 5 5 4 6 3 7 10 8 6 10 7 11 8 12
REMARK H PARENT 10 9
REMARK Flexibility Score: inf
ROOT
ATOM      1  C   UNL     1      22.023  44.456  44.196  1.00  0.00     0.044 C 
ATOM      2  C   UNL     1      21.096  45.611  43.956  1.00  0.00    -0.047 A 
ATOM      3  C   UNL     1      20.279  45.637  42.820  1.00  0.00     0.049 A 
ATOM      4  C   UNL     1      19.374  46.683  42.607  1.00  0.00     0.119 A 
ATOM      5  C   UNL     1      19.308  47.763  43.530  1.00  0.00    -0.004 A 
ATOM      6  C   UNL     1      20.090  47.685  44.704  1.00  0.00     0.008 A 
ATOM      7  C   UNL     1      20.973  46.625  44.910  1.00  0.00     0.004 A 
ENDROOT
BRANCH   4   8
ATOM      8  O   UNL     1      18.550  46.599  41.482  1.00  0.00    -0.508 OA
ATOM      9  H   UNL     1      18.269  47.393  40.924  1.00  0.00     0.293 HD
ENDBRANCH   4   8
BRANCH   5  10
ATOM     10  C   UNL     1      18.366  48.944  43.313  1.00  0.00     0.017 C 
ATOM     11  C   UNL     1      17.040  48.703  44.039  1.00  0.00     0.012 C 
ATOM     12  C   UNL     1      18.976  50.293  43.728  1.00  0.00     0.012 C 
ENDBRANCH   5  10
TORSDOF 2
ENDMDL
MODEL 6
REMARK VINA RESULT:    -4.573     12.366     14.533
REMARK INTER + INTRA:          -5.128
REMARK INTER:                  -4.948
REMARK INTRA:                  -0.180
REMARK UNBOUND:                -0.153
REMARK SMILES Cc1ccc(C(C)C)c(O)c1
REMARK SMILES IDX 1 1 2 2 11 3 9 4 5 5 4 6 3 7 10 8 6 10 7 11 8 12
REMARK H PARENT 10 9
REMARK Flexibility Score: inf
ROOT
ATOM      1  C   UNL     1      21.655  45.093  43.772  1.00  0.00     0.044 C 
ATOM      2  C   UNL     1      21.108  46.235  44.578  1.00  0.00    -0.047 A 
ATOM      3  C   UNL     1      20.188  45.999  45.605  1.00  0.00     0.049 A 
ATOM      4  C   UNL     1      19.707  47.049  46.396  1.00  0.00     0.119 A 
ATOM      5  C   UNL     1      20.119  48.383  46.131  1.00  0.00    -0.004 A 
ATOM      6  C   UNL     1      21.099  48.593  45.136  1.00  0.00     0.008 A 
ATOM      7  C   UNL     1      21.583  47.533  44.369  1.00  0.00     0.004 A 
ENDROOT
BRANCH   4   8
ATOM      8  O   UNL     1      18.841  46.717  47.442  1.00  0.00    -0.508 OA
ATOM      9  H   UNL     1      17.843  46.875  47.423  1.00  0.00     0.293 HD
ENDBRANCH   4   8
BRANCH   5  10
ATOM     10  C   UNL     1      19.585  49.561  46.942  1.00  0.00     0.017 C 
ATOM     11  C   UNL     1      20.411  49.740  48.219  1.00  0.00     0.012 C 
ATOM     12  C   UNL     1      19.525  50.873  46.144  1.00  0.00     0.012 C 
ENDBRANCH   5  10
TORSDOF 2
ENDMDL
MODEL 7
REMARK VINA RESULT:    -4.491     11.979     14.316
REMARK INTER + INTRA:          -5.038
REMARK INTER:                  -4.848
REMARK INTRA:                  -0.191
REMARK UNBOUND:                -0.153
REMARK SMILES Cc1ccc(C(C)C)c(O)c1
REMARK SMILES IDX 1 1 2 2 11 3 9 4 5 5 4 6 3 7 10 8 6 10 7 11 8 12
REMARK H PARENT 10 9
REMARK Flexibility Score: inf
ROOT
ATOM      1  C   UNL     1      21.518  45.254  43.719  1.00  0.00     0.044 C 
ATOM      2  C   UNL     1      21.067  46.441  44.518  1.00  0.00    -0.047 A 
ATOM      3  C   UNL     1      21.373  47.738  44.091  1.00  0.00     0.049 A 
ATOM      4  C   UNL     1      20.916  48.855  44.800  1.00  0.00     0.119 A 
ATOM      5  C   UNL     1      20.169  48.680  45.997  1.00  0.00    -0.004 A 
ATOM      6  C   UNL     1      19.812  47.367  46.374  1.00  0.00     0.008 A 
ATOM      7  C   UNL     1      20.259  46.264  45.646  1.00  0.00     0.004 A 
ENDROOT
BRANCH   4   8
ATOM      8  O   UNL     1      21.211  50.114  44.270  1.00  0.00    -0.508 OA
ATOM      9  H   UNL     1      20.797  50.977  44.593  1.00  0.00     0.293 HD
ENDBRANCH   4   8
BRANCH   5  10
ATOM     10  C   UNL     1      19.689  49.872  46.822  1.00  0.00     0.017 C 
ATOM     11  C   UNL     1      18.408  49.510  47.577  1.00  0.00     0.012 C 
ATOM     12  C   UNL     1      20.756  50.412  47.788  1.00  0.00     0.012 C 
ENDBRANCH   5  10
TORSDOF 2
ENDMDL
MODEL 8
REMARK VINA RESULT:    -4.457     11.950     13.691
REMARK INTER + INTRA:          -5.002
REMARK INTER:                  -4.850
REMARK INTRA:                  -0.152
REMARK UNBOUND:                -0.153
REMARK SMILES Cc1ccc(C(C)C)c(O)c1
REMARK SMILES IDX 1 1 2 2 11 3 9 4 5 5 4 6 3 7 10 8 6 10 7 11 8 12
REMARK H PARENT 10 9
REMARK Flexibility Score: inf
ROOT
ATOM      1  C   UNL     1      23.684  51.241  48.051  1.00  0.00     0.044 C 
ATOM      2  C   UNL     1      22.809  50.478  47.100  1.00  0.00    -0.047 A 
ATOM      3  C   UNL     1      21.476  50.205  47.431  1.00  0.00     0.049 A 
ATOM      4  C   UNL     1      20.634  49.537  46.534  1.00  0.00     0.119 A 
ATOM      5  C   UNL     1      21.142  49.086  45.286  1.00  0.00    -0.004 A 
ATOM      6  C   UNL     1      22.468  49.430  44.941  1.00  0.00     0.008 A 
ATOM      7  C   UNL     1      23.289  50.114  45.839  1.00  0.00     0.004 A 
ENDROOT
BRANCH   4   8
ATOM      8  O   UNL     1      19.301  49.363  46.916  1.00  0.00    -0.508 OA
ATOM      9  H   UNL     1      19.010  49.065  47.837  1.00  0.00     0.293 HD
ENDBRANCH   4   8
BRANCH   5  10
ATOM     10  C   UNL     1      20.269  48.317  44.298  1.00  0.00     0.017 C 
ATOM     11  C   UNL     1      19.373  49.285  43.520  1.00  0.00     0.012 C 
ATOM     12  C   UNL     1      21.075  47.429  43.335  1.00  0.00     0.012 C 
ENDBRANCH   5  10
TORSDOF 2
ENDMDL
MODEL 9
REMARK VINA RESULT:    -4.355     11.495     12.943
REMARK INTER + INTRA:          -4.890
REMARK INTER:                  -4.707
REMARK INTRA:                  -0.183
REMARK UNBOUND:                -0.153
REMARK SMILES Cc1ccc(C(C)C)c(O)c1
REMARK SMILES IDX 1 1 2 2 11 3 9 4 5 5 4 6 3 7 10 8 6 10 7 11 8 12
REMARK H PARENT 10 9
REMARK Flexibility Score: inf
ROOT
ATOM      1  C   UNL     1      15.531  49.769  41.460  1.00  0.00     0.044 C 
ATOM      2  C   UNL     1      16.796  49.336  42.142  1.00  0.00    -0.047 A 
ATOM      3  C   UNL     1      17.618  50.278  42.770  1.00  0.00     0.049 A 
ATOM      4  C   UNL     1      18.775  49.882  43.452  1.00  0.00     0.119 A 
ATOM      5  C   UNL     1      19.153  48.512  43.473  1.00  0.00    -0.004 A 
ATOM      6  C   UNL     1      18.276  47.569  42.893  1.00  0.00     0.008 A 
ATOM      7  C   UNL     1      17.116  47.977  42.234  1.00  0.00     0.004 A 
ENDROOT
BRANCH   4   8
ATOM      8  O   UNL     1      19.504  50.879  44.106  1.00  0.00    -0.508 OA
ATOM      9  H   UNL     1      20.483  50.801  44.345  1.00  0.00     0.293 HD
ENDBRANCH   4   8
BRANCH   5  10
ATOM     10  C   UNL     1      20.429  48.046  44.169  1.00  0.00     0.017 C 
ATOM     11  C   UNL     1      20.084  47.161  45.370  1.00  0.00     0.012 C 
ATOM     12  C   UNL     1      21.408  47.325  43.227  1.00  0.00     0.012 C 
ENDBRANCH   5  10
TORSDOF 2
ENDMDL
