MODEL 1
REMARK VINA RESULT:    -3.494      0.000      0.000
REMARK INTER + INTRA:          -4.432
REMARK INTER:                  -4.209
REMARK INTRA:                  -0.223
REMARK UNBOUND:                -0.223
REMARK SMILES OCC(O)CO
REMARK SMILES IDX 3 1 5 2 6 3 2 5 1 6 4 8
REMARK H PARENT 6 4 1 7 4 9
REMARK Flexibility Score: inf
ROOT
ATOM      1  C   UNL     1     108.885  50.802   5.547  1.00  0.00     0.165 C 
ENDROOT
BRANCH   1   2
ATOM      2  C   UNL     1     109.457  51.633   4.392  1.00  0.00     0.190 C 
BRANCH   2   3
ATOM      3  O   UNL     1     110.058  50.787   3.451  1.00  0.00    -0.394 OA
ATOM      4  H   UNL     1     110.772  51.322   3.016  1.00  0.00     0.210 HD
ENDBRANCH   2   3
ENDBRANCH   1   2
BRANCH   1   5
ATOM      5  C   UNL     1     109.295  49.334   5.408  1.00  0.00     0.190 C 
BRANCH   5   6
ATOM      6  O   UNL     1     110.632  49.178   5.795  1.00  0.00    -0.394 OA
ATOM      7  H   UNL     1     110.773  48.203   5.913  1.00  0.00     0.210 HD
ENDBRANCH   5   6
ENDBRANCH   1   5
BRANCH   1   8
ATOM      8  O   UNL     1     107.483  50.889   5.551  1.00  0.00    -0.388 OA
ATOM      9  H   UNL     1     107.156  50.251   6.238  1.00  0.00     0.211 HD
ENDBRANCH   1   8
TORSDOF 5
ENDMDL
MODEL 2
REMARK VINA RESULT:    -3.459      7.302      8.534
REMARK INTER + INTRA:          -4.390
REMARK INTER:                  -4.167
REMARK INTRA:                  -0.223
REMARK UNBOUND:                -0.223
REMARK SMILES OCC(O)CO
REMARK SMILES IDX 3 1 5 2 6 3 2 5 1 6 4 8
REMARK H PARENT 6 4 1 7 4 9
REMARK Flexibility Score: inf
ROOT
ATOM      1  C   UNL     1     106.970  57.672   5.032  1.00  0.00     0.165 C 
ENDROOT
BRANCH   1   2
ATOM      2  C   UNL     1     106.154  56.718   4.150  1.00  0.00     0.190 C 
BRANCH   2   3
ATOM      3  O   UNL     1     105.261  57.452   3.360  1.00  0.00    -0.394 OA
ATOM      4  H   UNL     1     104.838  56.798   2.744  1.00  0.00     0.210 HD
ENDBRANCH   2   3
ENDBRANCH   1   2
BRANCH   1   5
ATOM      5  C   UNL     1     106.584  59.127   4.752  1.00  0.00     0.190 C 
BRANCH   5   6
ATOM      6  O   UNL     1     105.421  59.453   5.462  1.00  0.00    -0.394 OA
ATOM      7  H   UNL     1     105.377  58.818   6.223  1.00  0.00     0.210 HD
ENDBRANCH   5   6
ENDBRANCH   1   5
BRANCH   1   8
ATOM      8  O   UNL     1     108.341  57.503   4.779  1.00  0.00    -0.388 OA
ATOM      9  H   UNL     1     108.522  56.528   4.805  1.00  0.00     0.211 HD
ENDBRANCH   1   8
TORSDOF 5
ENDMDL
MODEL 3
REMARK VINA RESULT:    -3.397      1.164      3.201
REMARK INTER + INTRA:          -4.315
REMARK INTER:                  -4.291
REMARK INTRA:                  -0.024
REMARK UNBOUND:                -0.223
REMARK SMILES OCC(O)CO
REMARK SMILES IDX 3 1 5 2 6 3 2 5 1 6 4 8
REMARK H PARENT 6 4 1 7 4 9
REMARK Flexibility Score: inf
ROOT
ATOM      1  C   UNL     1     109.784  49.653   5.406  1.00  0.00     0.165 C 
ENDROOT
BRANCH   1   2
ATOM      2  C   UNL     1     109.051  48.404   5.912  1.00  0.00     0.190 C 
BRANCH   2   3
ATOM      3  O   UNL     1     109.743  47.857   7.000  1.00  0.00    -0.394 OA
ATOM      4  H   UNL     1     109.088  47.291   7.485  1.00  0.00     0.210 HD
ENDBRANCH   2   3
ENDBRANCH   1   2
BRANCH   1   5
ATOM      5  C   UNL     1     108.898  50.893   5.552  1.00  0.00     0.190 C 
BRANCH   5   6
ATOM      6  O   UNL     1     107.550  50.512   5.558  1.00  0.00    -0.394 OA
ATOM      7  H   UNL     1     107.045  51.292   5.907  1.00  0.00     0.210 HD
ENDBRANCH   5   6
ENDBRANCH   1   5
BRANCH   1   8
ATOM      8  O   UNL     1     110.128  49.491   4.054  1.00  0.00    -0.388 OA
ATOM      9  H   UNL     1     110.691  50.270   3.803  1.00  0.00     0.211 HD
ENDBRANCH   1   8
TORSDOF 5
ENDMDL
MODEL 4
REMARK VINA RESULT:    -3.373      2.889      4.085
REMARK INTER + INTRA:          -4.287
REMARK INTER:                  -4.092
REMARK INTRA:                  -0.195
REMARK UNBOUND:                -0.223
REMARK SMILES OCC(O)CO
REMARK SMILES IDX 3 1 5 2 6 3 2 5 1 6 4 8
REMARK H PARENT 6 4 1 7 4 9
REMARK Flexibility Score: inf
ROOT
ATOM      1  C   UNL     1     108.418  53.621   3.605  1.00  0.00     0.165 C 
ENDROOT
BRANCH   1   2
ATOM      2  C   UNL     1     109.179  52.397   4.130  1.00  0.00     0.190 C 
BRANCH   2   3
ATOM      3  O   UNL     1     110.559  52.628   4.053  1.00  0.00    -0.394 OA
ATOM      4  H   UNL     1     110.673  53.418   3.462  1.00  0.00     0.210 HD
ENDBRANCH   2   3
ENDBRANCH   1   2
BRANCH   1   5
ATOM      5  C   UNL     1     108.344  53.593   2.076  1.00  0.00     0.190 C 
BRANCH   5   6
ATOM      6  O   UNL     1     109.447  52.898   1.562  1.00  0.00    -0.394 OA
ATOM      7  H   UNL     1     110.066  52.761   2.325  1.00  0.00     0.210 HD
ENDBRANCH   5   6
ENDBRANCH   1   5
BRANCH   1   8
ATOM      8  O   UNL     1     109.066  54.799   4.011  1.00  0.00    -0.388 OA
ATOM      9  H   UNL     1     109.531  55.163   3.213  1.00  0.00     0.211 HD
ENDBRANCH   1   8
TORSDOF 5
ENDMDL
MODEL 5
REMARK VINA RESULT:    -3.343      7.878      9.017
REMARK INTER + INTRA:          -4.250
REMARK INTER:                  -4.248
REMARK INTRA:                  -0.003
REMARK UNBOUND:                -0.223
REMARK SMILES OCC(O)CO
REMARK SMILES IDX 3 1 5 2 6 3 2 5 1 6 4 8
REMARK H PARENT 6 4 1 7 4 9
REMARK Flexibility Score: inf
ROOT
ATOM      1  C   UNL     1     106.515  58.680   4.887  1.00  0.00     0.165 C 
ENDROOT
BRANCH   1   2
ATOM      2  C   UNL     1     107.824  57.880   4.891  1.00  0.00     0.190 C 
BRANCH   2   3
ATOM      3  O   UNL     1     107.566  56.547   4.545  1.00  0.00    -0.394 OA
ATOM      4  H   UNL     1     106.695  56.551   4.067  1.00  0.00     0.210 HD
ENDBRANCH   2   3
ENDBRANCH   1   2
BRANCH   1   5
ATOM      5  C   UNL     1     106.805  60.184   4.894  1.00  0.00     0.190 C 
BRANCH   5   6
ATOM      6  O   UNL     1     106.215  60.773   6.020  1.00  0.00    -0.394 OA
ATOM      7  H   UNL     1     106.949  61.226   6.510  1.00  0.00     0.210 HD
ENDBRANCH   5   6
ENDBRANCH   1   5
BRANCH   1   8
ATOM      8  O   UNL     1     105.751  58.355   6.019  1.00  0.00    -0.388 OA
ATOM      9  H   UNL     1     105.738  59.160   6.600  1.00  0.00     0.211 HD
ENDBRANCH   1   8
TORSDOF 5
ENDMDL
MODEL 6
REMARK VINA RESULT:    -3.307      5.677      6.889
REMARK INTER + INTRA:          -4.207
REMARK INTER:                  -3.983
REMARK INTRA:                  -0.224
REMARK UNBOUND:                -0.223
REMARK SMILES OCC(O)CO
REMARK SMILES IDX 3 1 5 2 6 3 2 5 1 6 4 8
REMARK H PARENT 6 4 1 7 4 9
REMARK Flexibility Score: inf
ROOT
ATOM      1  C   UNL     1     105.661  56.106   3.851  1.00  0.00     0.165 C 
ENDROOT
BRANCH   1   2
ATOM      2  C   UNL     1     106.858  55.149   3.785  1.00  0.00     0.190 C 
BRANCH   2   3
ATOM      3  O   UNL     1     106.449  53.853   4.126  1.00  0.00    -0.394 OA
ATOM      4  H   UNL     1     105.654  53.659   3.563  1.00  0.00     0.210 HD
ENDBRANCH   2   3
ENDBRANCH   1   2
BRANCH   1   5
ATOM      5  C   UNL     1     104.999  56.234   2.475  1.00  0.00     0.190 C 
BRANCH   5   6
ATOM      6  O   UNL     1     105.135  55.030   1.772  1.00  0.00    -0.394 OA
ATOM      7  H   UNL     1     104.575  55.123   0.958  1.00  0.00     0.210 HD
ENDBRANCH   5   6
ENDBRANCH   1   5
BRANCH   1   8
ATOM      8  O   UNL     1     106.085  57.375   4.276  1.00  0.00    -0.388 OA
ATOM      9  H   UNL     1     105.906  57.427   5.251  1.00  0.00     0.211 HD
ENDBRANCH   1   8
TORSDOF 5
ENDMDL
MODEL 7
REMARK VINA RESULT:    -3.298      7.773      8.739
REMARK INTER + INTRA:          -4.196
REMARK INTER:                  -4.194
REMARK INTRA:                  -0.002
REMARK UNBOUND:                -0.223
REMARK SMILES OCC(O)CO
REMARK SMILES IDX 3 1 5 2 6 3 2 5 1 6 4 8
REMARK H PARENT 6 4 1 7 4 9
REMARK Flexibility Score: inf
ROOT
ATOM      1  C   UNL     1     106.413  58.506   4.973  1.00  0.00     0.165 C 
ENDROOT
BRANCH   1   2
ATOM      2  C   UNL     1     106.661  60.018   4.906  1.00  0.00     0.190 C 
BRANCH   2   3
ATOM      3  O   UNL     1     106.205  60.626   6.082  1.00  0.00    -0.394 OA
ATOM      4  H   UNL     1     105.845  61.511   5.813  1.00  0.00     0.210 HD
ENDBRANCH   2   3
ENDBRANCH   1   2
BRANCH   1   5
ATOM      5  C   UNL     1     107.741  57.743   4.952  1.00  0.00     0.190 C 
BRANCH   5   6
ATOM      6  O   UNL     1     107.525  56.432   4.506  1.00  0.00    -0.394 OA
ATOM      7  H   UNL     1     108.370  55.941   4.675  1.00  0.00     0.210 HD
ENDBRANCH   5   6
ENDBRANCH   1   5
BRANCH   1   8
ATOM      8  O   UNL     1     105.633  58.100   3.878  1.00  0.00    -0.388 OA
ATOM      9  H   UNL     1     104.683  58.187   4.152  1.00  0.00     0.211 HD
ENDBRANCH   1   8
TORSDOF 5
ENDMDL
MODEL 8
REMARK VINA RESULT:    -3.257      5.590      6.787
REMARK INTER + INTRA:          -4.147
REMARK INTER:                  -3.927
REMARK INTRA:                  -0.219
REMARK UNBOUND:                -0.223
REMARK SMILES OCC(O)CO
REMARK SMILES IDX 3 1 5 2 6 3 2 5 1 6 4 8
REMARK H PARENT 6 4 1 7 4 9
REMARK Flexibility Score: inf
ROOT
ATOM      1  C   UNL     1     108.934  51.742  -0.246  1.00  0.00     0.165 C 
ENDROOT
BRANCH   1   2
ATOM      2  C   UNL     1     108.730  50.840  -1.470  1.00  0.00     0.190 C 
BRANCH   2   3
ATOM      3  O   UNL     1     107.475  51.089  -2.039  1.00  0.00    -0.394 OA
ATOM      4  H   UNL     1     107.073  50.199  -2.220  1.00  0.00     0.210 HD
ENDBRANCH   2   3
ENDBRANCH   1   2
BRANCH   1   5
ATOM      5  C   UNL     1     108.328  53.127  -0.492  1.00  0.00     0.190 C 
BRANCH   5   6
ATOM      6  O   UNL     1     108.767  53.623  -1.727  1.00  0.00    -0.394 OA
ATOM      7  H   UNL     1     107.948  53.836  -2.245  1.00  0.00     0.210 HD
ENDBRANCH   5   6
ENDBRANCH   1   5
BRANCH   1   8
ATOM      8  O   UNL     1     110.305  51.882   0.021  1.00  0.00    -0.388 OA
ATOM      9  H   UNL     1     110.385  52.465   0.822  1.00  0.00     0.211 HD
ENDBRANCH   1   8
TORSDOF 5
ENDMDL
MODEL 9
REMARK VINA RESULT:    -3.233      1.870      3.735
REMARK INTER + INTRA:          -4.118
REMARK INTER:                  -3.894
REMARK INTRA:                  -0.223
REMARK UNBOUND:                -0.223
REMARK SMILES OCC(O)CO
REMARK SMILES IDX 3 1 5 2 6 3 2 5 1 6 4 8
REMARK H PARENT 6 4 1 7 4 9
REMARK Flexibility Score: inf
ROOT
ATOM      1  C   UNL     1     109.514  52.519   4.100  1.00  0.00     0.165 C 
ENDROOT
BRANCH   1   2
ATOM      2  C   UNL     1     109.138  51.329   4.992  1.00  0.00     0.190 C 
BRANCH   2   3
ATOM      3  O   UNL     1     107.779  51.395   5.323  1.00  0.00    -0.394 OA
ATOM      4  H   UNL     1     107.420  52.193   4.853  1.00  0.00     0.210 HD
ENDBRANCH   2   3
ENDBRANCH   1   2
BRANCH   1   5
ATOM      5  C   UNL     1     108.275  53.354   3.767  1.00  0.00     0.190 C 
BRANCH   5   6
ATOM      6  O   UNL     1     108.015  54.252   4.811  1.00  0.00    -0.394 OA
ATOM      7  H   UNL     1     107.138  54.667   4.605  1.00  0.00     0.210 HD
ENDBRANCH   5   6
ENDBRANCH   1   5
BRANCH   1   8
ATOM      8  O   UNL     1     110.092  52.058   2.906  1.00  0.00    -0.388 OA
ATOM      9  H   UNL     1     109.355  51.956   2.249  1.00  0.00     0.211 HD
ENDBRANCH   1   8
TORSDOF 5
ENDMDL
