MODEL 1
REMARK VINA RESULT:    -3.033      0.000      0.000
REMARK INTER + INTRA:          -7.326
REMARK INTER:                  -5.694
REMARK INTRA:                  -1.633
REMARK UNBOUND:                -1.633
REMARK SMILES O=C([O-])CCCCCCCCCCCCCCC(=O)[O-]
REMARK SMILES IDX 10 1 9 2 8 3 7 4 6 5 5 6 4 7 2 8 1 9 3 10 11 11 12 12 13 13
REMARK SMILES IDX 14 14 15 15 16 16 17 17 18 18 19 19 20 20
REMARK H PARENT
REMARK Flexibility Score: inf
ROOT
ATOM      1  C   UNL     1      15.465  16.817   8.584  1.00  0.00     0.000 C 
ENDROOT
BRANCH   1   2
ATOM      2  C   UNL     1      16.041  18.192   8.958  1.00  0.00     0.000 C 
BRANCH   2   3
ATOM      3  C   UNL     1      17.008  18.078  10.141  1.00  0.00     0.000 C 
BRANCH   3   4
ATOM      4  C   UNL     1      16.653  16.876  11.029  1.00  0.00     0.000 C 
BRANCH   4   5
ATOM      5  C   UNL     1      16.078  17.294  12.392  1.00  0.00     0.000 C 
BRANCH   5   6
ATOM      6  C   UNL     1      15.945  18.820  12.536  1.00  0.00     0.006 C 
BRANCH   6   7
ATOM      7  C   UNL     1      14.482  19.280  12.504  1.00  0.00     0.053 C 
BRANCH   7   8
ATOM      8  C   UNL     1      14.301  20.502  11.658  1.00  0.00     0.041 C 
ATOM      9  O   UNL     1      15.247  20.922  10.940  1.00  0.00    -0.550 OA
ATOM     10  O   UNL     1      13.097  21.194  11.684  1.00  0.00    -0.550 OA
ENDBRANCH   7   8
ENDBRANCH   6   7
ENDBRANCH   5   6
ENDBRANCH   4   5
ENDBRANCH   3   4
ENDBRANCH   2   3
ENDBRANCH   1   2
BRANCH   1  11
ATOM     11  C   UNL     1      15.956  16.318   7.216  1.00  0.00     0.000 C 
BRANCH  11  12
ATOM     12  C   UNL     1      17.124  15.323   7.334  1.00  0.00     0.000 C 
BRANCH  12  13
ATOM     13  C   UNL     1      16.714  14.001   8.006  1.00  0.00     0.000 C 
BRANCH  13  14
ATOM     14  C   UNL     1      15.646  13.192   7.244  1.00  0.00     0.000 C 
BRANCH  14  15
ATOM     15  C   UNL     1      14.307  13.062   8.005  1.00  0.00     0.000 C 
BRANCH  15  16
ATOM     16  C   UNL     1      14.444  13.275   9.526  1.00  0.00     0.006 C 
BRANCH  16  17
ATOM     17  C   UNL     1      14.005  12.059  10.358  1.00  0.00     0.053 C 
BRANCH  17  18
ATOM     18  C   UNL     1      14.994  11.731  11.435  1.00  0.00     0.041 C 
ATOM     19  O   UNL     1      14.731  11.995  12.637  1.00  0.00    -0.550 OA
ATOM     20  O   UNL     1      16.194  11.111  11.113  1.00  0.00    -0.550 OA
ENDBRANCH  17  18
ENDBRANCH  16  17
ENDBRANCH  15  16
ENDBRANCH  14  15
ENDBRANCH  13  14
ENDBRANCH  12  13
ENDBRANCH  11  12
ENDBRANCH   1  11
TORSDOF 15
ENDMDL
MODEL 2
REMARK VINA RESULT:    -2.654      1.584      6.440
REMARK INTER + INTRA:          -6.614
REMARK INTER:                  -5.268
REMARK INTRA:                  -1.346
REMARK UNBOUND:                -1.633
REMARK SMILES O=C([O-])CCCCCCCCCCCCCCC(=O)[O-]
REMARK SMILES IDX 10 1 9 2 8 3 7 4 6 5 5 6 4 7 2 8 1 9 3 10 11 11 12 12 13 13
REMARK SMILES IDX 14 14 15 15 16 16 17 17 18 18 19 19 20 20
REMARK H PARENT
REMARK Flexibility Score: inf
ROOT
ATOM      1  C   UNL     1      15.257  13.837   7.312  1.00  0.00     0.000 C 
ENDROOT
BRANCH   1   2
ATOM      2  C   UNL     1      14.183  13.491   8.354  1.00  0.00     0.000 C 
BRANCH   2   3
ATOM      3  C   UNL     1      14.804  12.800   9.574  1.00  0.00     0.000 C 
BRANCH   3   4
ATOM      4  C   UNL     1      16.328  12.993   9.598  1.00  0.00     0.000 C 
BRANCH   4   5
ATOM      5  C   UNL     1      16.841  13.491  10.959  1.00  0.00     0.000 C 
BRANCH   5   6
ATOM      6  C   UNL     1      15.868  14.470  11.636  1.00  0.00     0.006 C 
BRANCH   6   7
ATOM      7  C   UNL     1      15.532  14.051  13.074  1.00  0.00     0.053 C 
BRANCH   7   8
ATOM      8  C   UNL     1      14.504  12.962  13.109  1.00  0.00     0.041 C 
ATOM      9  O   UNL     1      14.860  11.753  13.125  1.00  0.00    -0.550 OA
ATOM     10  O   UNL     1      13.152  13.280  13.095  1.00  0.00    -0.550 OA
ENDBRANCH   7   8
ENDBRANCH   6   7
ENDBRANCH   5   6
ENDBRANCH   4   5
ENDBRANCH   3   4
ENDBRANCH   2   3
ENDBRANCH   1   2
BRANCH   1  11
ATOM     11  C   UNL     1      15.494  15.351   7.181  1.00  0.00     0.000 C 
BRANCH  11  12
ATOM     12  C   UNL     1      16.869  15.783   7.719  1.00  0.00     0.000 C 
BRANCH  12  13
ATOM     13  C   UNL     1      16.880  17.236   8.224  1.00  0.00     0.000 C 
BRANCH  13  14
ATOM     14  C   UNL     1      15.610  17.667   8.984  1.00  0.00     0.000 C 
BRANCH  14  15
ATOM     15  C   UNL     1      15.901  18.413  10.306  1.00  0.00     0.000 C 
BRANCH  15  16
ATOM     16  C   UNL     1      15.633  19.929  10.225  1.00  0.00     0.006 C 
BRANCH  16  17
ATOM     17  C   UNL     1      15.355  20.577  11.591  1.00  0.00     0.053 C 
BRANCH  17  18
ATOM     18  C   UNL     1      13.886  20.708  11.858  1.00  0.00     0.041 C 
ATOM     19  O   UNL     1      13.179  19.679  12.021  1.00  0.00    -0.550 OA
ATOM     20  O   UNL     1      13.305  21.966  11.955  1.00  0.00    -0.550 OA
ENDBRANCH  17  18
ENDBRANCH  16  17
ENDBRANCH  15  16
ENDBRANCH  14  15
ENDBRANCH  13  14
ENDBRANCH  12  13
ENDBRANCH  11  12
ENDBRANCH   1  11
TORSDOF 15
ENDMDL
MODEL 3
REMARK VINA RESULT:    -2.624      2.295      3.394
REMARK INTER + INTRA:          -6.559
REMARK INTER:                  -5.377
REMARK INTRA:                  -1.182
REMARK UNBOUND:                -1.633
REMARK SMILES O=C([O-])CCCCCCCCCCCCCCC(=O)[O-]
REMARK SMILES IDX 10 1 9 2 8 3 7 4 6 5 5 6 4 7 2 8 1 9 3 10 11 11 12 12 13 13
REMARK SMILES IDX 14 14 15 15 16 16 17 17 18 18 19 19 20 20
REMARK H PARENT
REMARK Flexibility Score: inf
ROOT
ATOM      1  C   UNL     1      16.233  16.836   9.114  1.00  0.00     0.000 C 
ENDROOT
BRANCH   1   2
ATOM      2  C   UNL     1      17.125  18.046   8.800  1.00  0.00     0.000 C 
BRANCH   2   3
ATOM      3  C   UNL     1      16.402  19.359   9.122  1.00  0.00     0.000 C 
BRANCH   3   4
ATOM      4  C   UNL     1      17.010  20.032  10.362  1.00  0.00     0.000 C 
BRANCH   4   5
ATOM      5  C   UNL     1      16.246  21.296  10.786  1.00  0.00     0.000 C 
BRANCH   5   6
ATOM      6  C   UNL     1      15.860  21.283  12.275  1.00  0.00     0.006 C 
BRANCH   6   7
ATOM      7  C   UNL     1      14.341  21.342  12.480  1.00  0.00     0.053 C 
BRANCH   7   8
ATOM      8  C   UNL     1      13.772  19.998  12.815  1.00  0.00     0.041 C 
ATOM      9  O   UNL     1      12.552  19.879  13.105  1.00  0.00    -0.550 OA
ATOM     10  O   UNL     1      14.596  18.880  12.835  1.00  0.00    -0.550 OA
ENDBRANCH   7   8
ENDBRANCH   6   7
ENDBRANCH   5   6
ENDBRANCH   4   5
ENDBRANCH   3   4
ENDBRANCH   2   3
ENDBRANCH   1   2
BRANCH   1  11
ATOM     11  C   UNL     1      16.101  16.569  10.622  1.00  0.00     0.000 C 
BRANCH  11  12
ATOM     12  C   UNL     1      17.029  15.440  11.107  1.00  0.00     0.000 C 
BRANCH  12  13
ATOM     13  C   UNL     1      16.385  14.569  12.199  1.00  0.00     0.000 C 
BRANCH  13  14
ATOM     14  C   UNL     1      15.952  13.165  11.735  1.00  0.00     0.000 C 
BRANCH  14  15
ATOM     15  C   UNL     1      14.444  13.054  11.415  1.00  0.00     0.000 C 
BRANCH  15  16
ATOM     16  C   UNL     1      14.156  12.575   9.979  1.00  0.00     0.006 C 
BRANCH  16  17
ATOM     17  C   UNL     1      14.695  13.524   8.896  1.00  0.00     0.053 C 
BRANCH  17  18
ATOM     18  C   UNL     1      14.465  12.986   7.516  1.00  0.00     0.041 C 
ATOM     19  O   UNL     1      15.406  12.970   6.679  1.00  0.00    -0.550 OA
ATOM     20  O   UNL     1      13.221  12.480   7.164  1.00  0.00    -0.550 OA
ENDBRANCH  17  18
ENDBRANCH  16  17
ENDBRANCH  15  16
ENDBRANCH  14  15
ENDBRANCH  13  14
ENDBRANCH  12  13
ENDBRANCH  11  12
ENDBRANCH   1  11
TORSDOF 15
ENDMDL
MODEL 4
REMARK VINA RESULT:    -2.565      0.974      7.247
REMARK INTER + INTRA:          -6.448
REMARK INTER:                  -5.388
REMARK INTRA:                  -1.060
REMARK UNBOUND:                -1.633
REMARK SMILES O=C([O-])CCCCCCCCCCCCCCC(=O)[O-]
REMARK SMILES IDX 10 1 9 2 8 3 7 4 6 5 5 6 4 7 2 8 1 9 3 10 11 11 12 12 13 13
REMARK SMILES IDX 14 14 15 15 16 16 17 17 18 18 19 19 20 20
REMARK H PARENT
REMARK Flexibility Score: inf
ROOT
ATOM      1  C   UNL     1      15.730  16.563   8.511  1.00  0.00     0.000 C 
ENDROOT
BRANCH   1   2
ATOM      2  C   UNL     1      16.391  15.758   7.382  1.00  0.00     0.000 C 
BRANCH   2   3
ATOM      3  C   UNL     1      16.208  14.252   7.603  1.00  0.00     0.000 C 
BRANCH   3   4
ATOM      4  C   UNL     1      14.858  13.775   7.047  1.00  0.00     0.000 C 
BRANCH   4   5
ATOM      5  C   UNL     1      14.103  12.861   8.027  1.00  0.00     0.000 C 
BRANCH   5   6
ATOM      6  C   UNL     1      14.533  13.076   9.488  1.00  0.00     0.006 C 
BRANCH   6   7
ATOM      7  C   UNL     1      14.042  11.950  10.407  1.00  0.00     0.053 C 
BRANCH   7   8
ATOM      8  C   UNL     1      15.004  11.684  11.523  1.00  0.00     0.041 C 
ATOM      9  O   UNL     1      15.020  12.427  12.539  1.00  0.00    -0.550 OA
ATOM     10  O   UNL     1      15.904  10.630  11.428  1.00  0.00    -0.550 OA
ENDBRANCH   7   8
ENDBRANCH   6   7
ENDBRANCH   5   6
ENDBRANCH   4   5
ENDBRANCH   3   4
ENDBRANCH   2   3
ENDBRANCH   1   2
BRANCH   1  11
ATOM     11  C   UNL     1      16.684  16.837   9.685  1.00  0.00     0.000 C 
BRANCH  11  12
ATOM     12  C   UNL     1      15.959  16.863  11.043  1.00  0.00     0.000 C 
BRANCH  12  13
ATOM     13  C   UNL     1      16.925  16.758  12.234  1.00  0.00     0.000 C 
BRANCH  13  14
ATOM     14  C   UNL     1      17.123  18.067  13.024  1.00  0.00     0.000 C 
BRANCH  14  15
ATOM     15  C   UNL     1      15.881  18.987  13.023  1.00  0.00     0.000 C 
BRANCH  15  16
ATOM     16  C   UNL     1      16.072  20.272  12.194  1.00  0.00     0.006 C 
BRANCH  16  17
ATOM     17  C   UNL     1      15.034  20.440  11.072  1.00  0.00     0.053 C 
BRANCH  17  18
ATOM     18  C   UNL     1      13.670  20.741  11.614  1.00  0.00     0.041 C 
ATOM     19  O   UNL     1      13.227  21.920  11.593  1.00  0.00    -0.550 OA
ATOM     20  O   UNL     1      12.878  19.717  12.117  1.00  0.00    -0.550 OA
ENDBRANCH  17  18
ENDBRANCH  16  17
ENDBRANCH  15  16
ENDBRANCH  14  15
ENDBRANCH  13  14
ENDBRANCH  12  13
ENDBRANCH  11  12
ENDBRANCH   1  11
TORSDOF 15
ENDMDL
MODEL 5
REMARK VINA RESULT:    -2.550      2.218      7.156
REMARK INTER + INTRA:          -6.420
REMARK INTER:                  -5.577
REMARK INTRA:                  -0.843
REMARK UNBOUND:                -1.633
REMARK SMILES O=C([O-])CCCCCCCCCCCCCCC(=O)[O-]
REMARK SMILES IDX 10 1 9 2 8 3 7 4 6 5 5 6 4 7 2 8 1 9 3 10 11 11 12 12 13 13
REMARK SMILES IDX 14 14 15 15 16 16 17 17 18 18 19 19 20 20
REMARK H PARENT
REMARK Flexibility Score: inf
ROOT
ATOM      1  C   UNL     1      16.776  15.704  10.051  1.00  0.00     0.000 C 
ENDROOT
BRANCH   1   2
ATOM      2  C   UNL     1      17.110  14.206  10.131  1.00  0.00     0.000 C 
BRANCH   2   3
ATOM      3  C   UNL     1      16.671  13.617  11.477  1.00  0.00     0.000 C 
BRANCH   3   4
ATOM      4  C   UNL     1      15.190  13.919  11.753  1.00  0.00     0.000 C 
BRANCH   4   5
ATOM      5  C   UNL     1      14.274  12.727  11.436  1.00  0.00     0.000 C 
BRANCH   5   6
ATOM      6  C   UNL     1      14.329  12.313   9.956  1.00  0.00     0.006 C 
BRANCH   6   7
ATOM      7  C   UNL     1      14.106  13.504   9.014  1.00  0.00     0.053 C 
BRANCH   7   8
ATOM      8  C   UNL     1      14.355  13.135   7.584  1.00  0.00     0.041 C 
ATOM      9  O   UNL     1      15.510  13.244   7.092  1.00  0.00    -0.550 OA
ATOM     10  O   UNL     1      13.306  12.698   6.785  1.00  0.00    -0.550 OA
ENDBRANCH   7   8
ENDBRANCH   6   7
ENDBRANCH   5   6
ENDBRANCH   4   5
ENDBRANCH   3   4
ENDBRANCH   2   3
ENDBRANCH   1   2
BRANCH   1  11
ATOM     11  C   UNL     1      17.084  16.309   8.672  1.00  0.00     0.000 C 
BRANCH  11  12
ATOM     12  C   UNL     1      16.229  17.553   8.368  1.00  0.00     0.000 C 
BRANCH  12  13
ATOM     13  C   UNL     1      16.073  18.479   9.586  1.00  0.00     0.000 C 
BRANCH  13  14
ATOM     14  C   UNL     1      16.329  19.972   9.301  1.00  0.00     0.000 C 
BRANCH  14  15
ATOM     15  C   UNL     1      17.114  20.692  10.420  1.00  0.00     0.000 C 
BRANCH  15  16
ATOM     16  C   UNL     1      16.324  20.819  11.737  1.00  0.00     0.006 C 
BRANCH  16  17
ATOM     17  C   UNL     1      15.229  21.898  11.695  1.00  0.00     0.053 C 
BRANCH  17  18
ATOM     18  C   UNL     1      13.855  21.302  11.755  1.00  0.00     0.041 C 
ATOM     19  O   UNL     1      12.841  22.042  11.658  1.00  0.00    -0.550 OA
ATOM     20  O   UNL     1      13.696  19.929  11.889  1.00  0.00    -0.550 OA
ENDBRANCH  17  18
ENDBRANCH  16  17
ENDBRANCH  15  16
ENDBRANCH  14  15
ENDBRANCH  13  14
ENDBRANCH  12  13
ENDBRANCH  11  12
ENDBRANCH   1  11
TORSDOF 15
ENDMDL
MODEL 6
REMARK VINA RESULT:    -2.539      1.514      2.065
REMARK INTER + INTRA:          -6.398
REMARK INTER:                  -5.027
REMARK INTRA:                  -1.371
REMARK UNBOUND:                -1.633
REMARK SMILES O=C([O-])CCCCCCCCCCCCCCC(=O)[O-]
REMARK SMILES IDX 10 1 9 2 8 3 7 4 6 5 5 6 4 7 2 8 1 9 3 10 11 11 12 12 13 13
REMARK SMILES IDX 14 14 15 15 16 16 17 17 18 18 19 19 20 20
REMARK H PARENT
REMARK Flexibility Score: inf
ROOT
ATOM      1  C   UNL     1      15.062  16.317   8.419  1.00  0.00     0.000 C 
ENDROOT
BRANCH   1   2
ATOM      2  C   UNL     1      15.850  17.613   8.664  1.00  0.00     0.000 C 
BRANCH   2   3
ATOM      3  C   UNL     1      17.005  17.375   9.644  1.00  0.00     0.000 C 
BRANCH   3   4
ATOM      4  C   UNL     1      16.651  17.894  11.046  1.00  0.00     0.000 C 
BRANCH   4   5
ATOM      5  C   UNL     1      15.499  18.912  11.029  1.00  0.00     0.000 C 
BRANCH   5   6
ATOM      6  C   UNL     1      14.830  19.072  12.404  1.00  0.00     0.006 C 
BRANCH   6   7
ATOM      7  C   UNL     1      13.508  19.847  12.318  1.00  0.00     0.053 C 
BRANCH   7   8
ATOM      8  C   UNL     1      13.735  21.322  12.202  1.00  0.00     0.041 C 
ATOM      9  O   UNL     1      14.766  21.847  12.701  1.00  0.00    -0.550 OA
ATOM     10  O   UNL     1      12.794  22.123  11.568  1.00  0.00    -0.550 OA
ENDBRANCH   7   8
ENDBRANCH   6   7
ENDBRANCH   5   6
ENDBRANCH   4   5
ENDBRANCH   3   4
ENDBRANCH   2   3
ENDBRANCH   1   2
BRANCH   1  11
ATOM     11  C   UNL     1      15.644  15.473   7.274  1.00  0.00     0.000 C 
BRANCH  11  12
ATOM     12  C   UNL     1      15.265  13.985   7.385  1.00  0.00     0.000 C 
BRANCH  12  13
ATOM     13  C   UNL     1      15.277  13.475   8.836  1.00  0.00     0.000 C 
BRANCH  13  14
ATOM     14  C   UNL     1      16.680  13.320   9.456  1.00  0.00     0.000 C 
BRANCH  14  15
ATOM     15  C   UNL     1      16.668  13.204  10.997  1.00  0.00     0.000 C 
BRANCH  15  16
ATOM     16  C   UNL     1      15.899  14.346  11.691  1.00  0.00     0.006 C 
BRANCH  16  17
ATOM     17  C   UNL     1      15.271  13.937  13.033  1.00  0.00     0.053 C 
BRANCH  17  18
ATOM     18  C   UNL     1      14.412  12.717  12.901  1.00  0.00     0.041 C 
ATOM     19  O   UNL     1      14.903  11.573  13.093  1.00  0.00    -0.550 OA
ATOM     20  O   UNL     1      13.064  12.844  12.592  1.00  0.00    -0.550 OA
ENDBRANCH  17  18
ENDBRANCH  16  17
ENDBRANCH  15  16
ENDBRANCH  14  15
ENDBRANCH  13  14
ENDBRANCH  12  13
ENDBRANCH  11  12
ENDBRANCH   1  11
TORSDOF 15
ENDMDL
MODEL 7
REMARK VINA RESULT:    -2.472      1.591      2.753
REMARK INTER + INTRA:          -6.273
REMARK INTER:                  -5.028
REMARK INTRA:                  -1.245
REMARK UNBOUND:                -1.633
REMARK SMILES O=C([O-])CCCCCCCCCCCCCCC(=O)[O-]
REMARK SMILES IDX 10 1 9 2 8 3 7 4 6 5 5 6 4 7 2 8 1 9 3 10 11 11 12 12 13 13
REMARK SMILES IDX 14 14 15 15 16 16 17 17 18 18 19 19 20 20
REMARK H PARENT
REMARK Flexibility Score: inf
ROOT
ATOM      1  C   UNL     1      15.017  15.811   8.422  1.00  0.00     0.000 C 
ENDROOT
BRANCH   1   2
ATOM      2  C   UNL     1      15.849  16.112   7.166  1.00  0.00     0.000 C 
BRANCH   2   3
ATOM      3  C   UNL     1      17.125  16.882   7.524  1.00  0.00     0.000 C 
BRANCH   3   4
ATOM      4  C   UNL     1      16.948  17.661   8.837  1.00  0.00     0.000 C 
BRANCH   4   5
ATOM      5  C   UNL     1      16.651  19.151   8.607  1.00  0.00     0.000 C 
BRANCH   5   6
ATOM      6  C   UNL     1      16.514  19.937   9.922  1.00  0.00     0.006 C 
BRANCH   6   7
ATOM      7  C   UNL     1      15.342  19.436  10.776  1.00  0.00     0.053 C 
BRANCH   7   8
ATOM      8  C   UNL     1      14.644  20.560  11.477  1.00  0.00     0.041 C 
ATOM      9  O   UNL     1      13.400  20.713  11.349  1.00  0.00    -0.550 OA
ATOM     10  O   UNL     1      15.371  21.457  12.249  1.00  0.00    -0.550 OA
ENDBRANCH   7   8
ENDBRANCH   6   7
ENDBRANCH   5   6
ENDBRANCH   4   5
ENDBRANCH   3   4
ENDBRANCH   2   3
ENDBRANCH   1   2
BRANCH   1  11
ATOM     11  C   UNL     1      14.920  14.307   8.725  1.00  0.00     0.000 C 
BRANCH  11  12
ATOM     12  C   UNL     1      16.296  13.660   8.959  1.00  0.00     0.000 C 
BRANCH  12  13
ATOM     13  C   UNL     1      17.048  14.275  10.152  1.00  0.00     0.000 C 
BRANCH  13  14
ATOM     14  C   UNL     1      16.146  14.936  11.213  1.00  0.00     0.000 C 
BRANCH  14  15
ATOM     15  C   UNL     1      16.134  14.192  12.568  1.00  0.00     0.000 C 
BRANCH  15  16
ATOM     16  C   UNL     1      14.716  13.957  13.125  1.00  0.00     0.006 C 
BRANCH  16  17
ATOM     17  C   UNL     1      13.954  12.830  12.409  1.00  0.00     0.053 C 
BRANCH  17  18
ATOM     18  C   UNL     1      14.842  11.664  12.098  1.00  0.00     0.041 C 
ATOM     19  O   UNL     1      14.922  11.228  10.919  1.00  0.00    -0.550 OA
ATOM     20  O   UNL     1      15.600  11.078  13.102  1.00  0.00    -0.550 OA
ENDBRANCH  17  18
ENDBRANCH  16  17
ENDBRANCH  15  16
ENDBRANCH  14  15
ENDBRANCH  13  14
ENDBRANCH  12  13
ENDBRANCH  11  12
ENDBRANCH   1  11
TORSDOF 15
ENDMDL
MODEL 8
REMARK VINA RESULT:    -2.364      1.358      1.998
REMARK INTER + INTRA:          -6.070
REMARK INTER:                  -5.012
REMARK INTRA:                  -1.057
REMARK UNBOUND:                -1.633
REMARK SMILES O=C([O-])CCCCCCCCCCCCCCC(=O)[O-]
REMARK SMILES IDX 10 1 9 2 8 3 7 4 6 5 5 6 4 7 2 8 1 9 3 10 11 11 12 12 13 13
REMARK SMILES IDX 14 14 15 15 16 16 17 17 18 18 19 19 20 20
REMARK H PARENT
REMARK Flexibility Score: inf
ROOT
ATOM      1  C   UNL     1      15.802  16.334   9.251  1.00  0.00     0.000 C 
ENDROOT
BRANCH   1   2
ATOM      2  C   UNL     1      16.410  16.649  10.626  1.00  0.00     0.000 C 
BRANCH   2   3
ATOM      3  C   UNL     1      16.222  18.128  10.983  1.00  0.00     0.000 C 
BRANCH   3   4
ATOM      4  C   UNL     1      16.262  19.008   9.725  1.00  0.00     0.000 C 
BRANCH   4   5
ATOM      5  C   UNL     1      16.362  20.506  10.051  1.00  0.00     0.000 C 
BRANCH   5   6
ATOM      6  C   UNL     1      16.110  20.806  11.539  1.00  0.00     0.006 C 
BRANCH   6   7
ATOM      7  C   UNL     1      15.066  21.912  11.737  1.00  0.00     0.053 C 
BRANCH   7   8
ATOM      8  C   UNL     1      13.683  21.353  11.873  1.00  0.00     0.041 C 
ATOM      9  O   UNL     1      12.690  22.125  11.938  1.00  0.00    -0.550 OA
ATOM     10  O   UNL     1      13.494  19.980  11.958  1.00  0.00    -0.550 OA
ENDBRANCH   7   8
ENDBRANCH   6   7
ENDBRANCH   5   6
ENDBRANCH   4   5
ENDBRANCH   3   4
ENDBRANCH   2   3
ENDBRANCH   1   2
BRANCH   1  11
ATOM     11  C   UNL     1      16.852  15.879   8.225  1.00  0.00     0.000 C 
BRANCH  11  12
ATOM     12  C   UNL     1      16.218  15.290   6.951  1.00  0.00     0.000 C 
BRANCH  12  13
ATOM     13  C   UNL     1      15.089  14.292   7.256  1.00  0.00     0.000 C 
BRANCH  13  14
ATOM     14  C   UNL     1      15.398  13.290   8.386  1.00  0.00     0.000 C 
BRANCH  14  15
ATOM     15  C   UNL     1      14.136  12.717   9.070  1.00  0.00     0.000 C 
BRANCH  15  16
ATOM     16  C   UNL     1      14.192  12.777  10.609  1.00  0.00     0.006 C 
BRANCH  16  17
ATOM     17  C   UNL     1      15.611  12.986  11.164  1.00  0.00     0.053 C 
BRANCH  17  18
ATOM     18  C   UNL     1      16.107  11.778  11.899  1.00  0.00     0.041 C 
ATOM     19  O   UNL     1      15.875  10.625  11.449  1.00  0.00    -0.550 OA
ATOM     20  O   UNL     1      16.847  11.927  13.064  1.00  0.00    -0.550 OA
ENDBRANCH  17  18
ENDBRANCH  16  17
ENDBRANCH  15  16
ENDBRANCH  14  15
ENDBRANCH  13  14
ENDBRANCH  12  13
ENDBRANCH  11  12
ENDBRANCH   1  11
TORSDOF 15
ENDMDL
