MODEL 1
REMARK VINA RESULT:    -6.729      0.000      0.000
REMARK INTER + INTRA:          -8.682
REMARK INTER:                  -8.302
REMARK INTRA:                  -0.380
REMARK UNBOUND:                -0.380
REMARK SMILES Oc1cc(O)c2cc(O)c(-c3cc(O)c(O)c(O)c3)[o+]c2c1
REMARK SMILES IDX 10 1 20 2 21 3 22 4 2 5 3 6 4 7 6 8 7 9 8 10 11 11 12 12
REMARK SMILES IDX 13 13 19 14 15 15 17 16 14 17 16 19 18 21 9 23 1 25 5 27
REMARK H PARENT 14 18 16 20 18 22 9 24 1 26 5 28
REMARK Flexibility Score: inf
ROOT
ATOM      1  C   UNL     1      11.099 -17.486 -33.316  1.00  0.00     0.402 A 
ATOM      2  O   UNL     1      11.596 -16.321 -33.723  1.00  0.00    -0.202 OA
ATOM      3  C   UNL     1      11.333 -15.792 -34.913  1.00  0.00     0.368 A 
ATOM      4  C   UNL     1      11.900 -14.560 -35.250  1.00  0.00     0.162 A 
ATOM      5  C   UNL     1      11.638 -13.980 -36.495  1.00  0.00     0.128 A 
ATOM      6  C   UNL     1      10.804 -14.633 -37.405  1.00  0.00     0.093 A 
ATOM      7  C   UNL     1      10.224 -15.868 -37.092  1.00  0.00     0.136 A 
ATOM      8  C   UNL     1      10.488 -16.463 -35.831  1.00  0.00     0.125 A 
ATOM      9  C   UNL     1       9.962 -17.704 -35.435  1.00  0.00     0.078 A 
ATOM     10  C   UNL     1      10.272 -18.229 -34.178  1.00  0.00     0.223 A 
ENDROOT
BRANCH   1  11
ATOM     11  C   UNL     1      11.459 -17.965 -31.960  1.00  0.00     0.091 A 
ATOM     12  C   UNL     1      12.579 -18.786 -31.749  1.00  0.00     0.068 A 
ATOM     13  C   UNL     1      12.892 -19.249 -30.466  1.00  0.00     0.162 A 
ATOM     14  C   UNL     1      10.635 -17.639 -30.872  1.00  0.00     0.068 A 
ATOM     15  C   UNL     1      12.075 -18.900 -29.376  1.00  0.00     0.200 A 
ATOM     16  C   UNL     1      10.942 -18.097 -29.583  1.00  0.00     0.162 A 
BRANCH  13  17
ATOM     17  O   UNL     1      14.015 -20.057 -30.295  1.00  0.00    -0.504 OA
ATOM     18  H   UNL     1      14.356 -20.667 -31.028  1.00  0.00     0.293 HD
ENDBRANCH  13  17
BRANCH  15  19
ATOM     19  O   UNL     1      12.397 -19.362 -28.099  1.00  0.00    -0.502 OA
ATOM     20  H   UNL     1      12.895 -20.232 -27.950  1.00  0.00     0.293 HD
ENDBRANCH  15  19
BRANCH  16  21
ATOM     21  O   UNL     1      10.123 -17.754 -28.508  1.00  0.00    -0.504 OA
ATOM     22  H   UNL     1      10.324 -18.066 -27.565  1.00  0.00     0.293 HD
ENDBRANCH  16  21
ENDBRANCH   1  11
BRANCH  10  23
ATOM     23  O   UNL     1       9.790 -19.483 -33.804  1.00  0.00    -0.500 OA
ATOM     24  H   UNL     1      10.414 -20.264 -33.632  1.00  0.00     0.294 HD
ENDBRANCH  10  23
BRANCH   5  25
ATOM     25  O   UNL     1      12.199 -12.752 -36.838  1.00  0.00    -0.507 OA
ATOM     26  H   UNL     1      13.199 -12.594 -36.786  1.00  0.00     0.293 HD
ENDBRANCH   5  25
BRANCH   7  27
ATOM     27  O   UNL     1       9.399 -16.456 -38.055  1.00  0.00    -0.507 OA
ATOM     28  H   UNL     1       8.635 -17.083 -37.848  1.00  0.00     0.293 HD
ENDBRANCH   7  27
TORSDOF 7
ENDMDL
MODEL 2
REMARK VINA RESULT:    -6.677      2.076      6.942
REMARK INTER + INTRA:          -8.618
REMARK INTER:                  -8.350
REMARK INTRA:                  -0.267
REMARK UNBOUND:                -0.380
REMARK SMILES Oc1cc(O)c2cc(O)c(-c3cc(O)c(O)c(O)c3)[o+]c2c1
REMARK SMILES IDX 10 1 20 2 21 3 22 4 2 5 3 6 4 7 6 8 7 9 8 10 11 11 12 12
REMARK SMILES IDX 13 13 19 14 15 15 17 16 14 17 16 19 18 21 9 23 1 25 5 27
REMARK H PARENT 14 18 16 20 18 22 9 24 1 26 5 28
REMARK Flexibility Score: inf
ROOT
ATOM      1  C   UNL     1      11.722 -17.352 -32.261  1.00  0.00     0.402 A 
ATOM      2  O   UNL     1      12.278 -16.640 -31.286  1.00  0.00    -0.202 OA
ATOM      3  C   UNL     1      12.709 -17.174 -30.148  1.00  0.00     0.368 A 
ATOM      4  C   UNL     1      13.284 -16.344 -29.181  1.00  0.00     0.162 A 
ATOM      5  C   UNL     1      13.748 -16.880 -27.976  1.00  0.00     0.128 A 
ATOM      6  C   UNL     1      13.639 -18.251 -27.738  1.00  0.00     0.093 A 
ATOM      7  C   UNL     1      13.066 -19.105 -28.689  1.00  0.00     0.136 A 
ATOM      8  C   UNL     1      12.591 -18.566 -29.913  1.00  0.00     0.125 A 
ATOM      9  C   UNL     1      11.992 -19.342 -30.919  1.00  0.00     0.078 A 
ATOM     10  C   UNL     1      11.543 -18.738 -32.097  1.00  0.00     0.223 A 
ENDROOT
BRANCH   1  11
ATOM     11  C   UNL     1      11.290 -16.641 -33.488  1.00  0.00     0.091 A 
ATOM     12  C   UNL     1      11.899 -16.889 -34.729  1.00  0.00     0.068 A 
ATOM     13  C   UNL     1      11.496 -16.193 -35.873  1.00  0.00     0.162 A 
ATOM     14  C   UNL     1      10.291 -15.660 -33.401  1.00  0.00     0.068 A 
ATOM     15  C   UNL     1      10.478 -15.227 -35.784  1.00  0.00     0.200 A 
ATOM     16  C   UNL     1       9.879 -14.959 -34.543  1.00  0.00     0.162 A 
BRANCH  13  17
ATOM     17  O   UNL     1      12.121 -16.471 -37.088  1.00  0.00    -0.504 OA
ATOM     18  H   UNL     1      12.955 -17.042 -37.147  1.00  0.00     0.293 HD
ENDBRANCH  13  17
BRANCH  15  19
ATOM     19  O   UNL     1      10.078 -14.540 -36.932  1.00  0.00    -0.502 OA
ATOM     20  H   UNL     1       9.450 -13.746 -36.893  1.00  0.00     0.293 HD
ENDBRANCH  15  19
BRANCH  16  21
ATOM     21  O   UNL     1       8.875 -13.996 -34.446  1.00  0.00    -0.504 OA
ATOM     22  H   UNL     1       8.423 -13.786 -33.563  1.00  0.00     0.293 HD
ENDBRANCH  16  21
ENDBRANCH   1  11
BRANCH  10  23
ATOM     23  O   UNL     1      10.903 -19.500 -33.075  1.00  0.00    -0.500 OA
ATOM     24  H   UNL     1      10.606 -20.453 -32.897  1.00  0.00     0.294 HD
ENDBRANCH  10  23
BRANCH   5  25
ATOM     25  O   UNL     1      14.323 -16.059 -27.009  1.00  0.00    -0.507 OA
ATOM     26  H   UNL     1      14.441 -15.064 -27.161  1.00  0.00     0.293 HD
ENDBRANCH   5  25
BRANCH   7  27
ATOM     27  O   UNL     1      12.996 -20.465 -28.375  1.00  0.00    -0.507 OA
ATOM     28  H   UNL     1      13.648 -21.162 -28.705  1.00  0.00     0.293 HD
ENDBRANCH   7  27
TORSDOF 7
ENDMDL
MODEL 3
REMARK VINA RESULT:    -6.650      1.723      7.164
REMARK INTER + INTRA:          -8.585
REMARK INTER:                  -8.228
REMARK INTRA:                  -0.357
REMARK UNBOUND:                -0.380
REMARK SMILES Oc1cc(O)c2cc(O)c(-c3cc(O)c(O)c(O)c3)[o+]c2c1
REMARK SMILES IDX 10 1 20 2 21 3 22 4 2 5 3 6 4 7 6 8 7 9 8 10 11 11 12 12
REMARK SMILES IDX 13 13 19 14 15 15 17 16 14 17 16 19 18 21 9 23 1 25 5 27
REMARK H PARENT 14 18 16 20 18 22 9 24 1 26 5 28
REMARK Flexibility Score: inf
ROOT
ATOM      1  C   UNL     1      11.086 -17.467 -32.502  1.00  0.00     0.402 A 
ATOM      2  O   UNL     1      11.995 -18.288 -31.985  1.00  0.00    -0.202 OA
ATOM      3  C   UNL     1      12.258 -18.360 -30.684  1.00  0.00     0.368 A 
ATOM      4  C   UNL     1      13.230 -19.258 -30.235  1.00  0.00     0.162 A 
ATOM      5  C   UNL     1      13.525 -19.355 -28.872  1.00  0.00     0.128 A 
ATOM      6  C   UNL     1      12.844 -18.553 -27.955  1.00  0.00     0.093 A 
ATOM      7  C   UNL     1      11.865 -17.644 -28.379  1.00  0.00     0.136 A 
ATOM      8  C   UNL     1      11.564 -17.540 -29.761  1.00  0.00     0.125 A 
ATOM      9  C   UNL     1      10.609 -16.650 -30.280  1.00  0.00     0.078 A 
ATOM     10  C   UNL     1      10.371 -16.600 -31.656  1.00  0.00     0.223 A 
ENDROOT
BRANCH   1  11
ATOM     11  C   UNL     1      10.877 -17.488 -33.969  1.00  0.00     0.091 A 
ATOM     12  C   UNL     1      11.485 -16.538 -34.807  1.00  0.00     0.068 A 
ATOM     13  C   UNL     1      11.259 -16.557 -36.188  1.00  0.00     0.162 A 
ATOM     14  C   UNL     1      10.012 -18.439 -34.529  1.00  0.00     0.068 A 
ATOM     15  C   UNL     1      10.408 -17.528 -36.746  1.00  0.00     0.200 A 
ATOM     16  C   UNL     1       9.781 -18.468 -35.912  1.00  0.00     0.162 A 
BRANCH  13  17
ATOM     17  O   UNL     1      11.884 -15.601 -36.988  1.00  0.00    -0.504 OA
ATOM     18  H   UNL     1      12.700 -15.817 -37.547  1.00  0.00     0.293 HD
ENDBRANCH  13  17
BRANCH  15  19
ATOM     19  O   UNL     1      10.192 -17.543 -38.125  1.00  0.00    -0.502 OA
ATOM     20  H   UNL     1      10.861 -17.155 -38.780  1.00  0.00     0.293 HD
ENDBRANCH  15  19
BRANCH  16  21
ATOM     21  O   UNL     1       8.930 -19.427 -36.457  1.00  0.00    -0.504 OA
ATOM     22  H   UNL     1       8.832 -19.544 -37.459  1.00  0.00     0.293 HD
ENDBRANCH  16  21
ENDBRANCH   1  11
BRANCH  10  23
ATOM     23  O   UNL     1       9.458 -15.681 -32.176  1.00  0.00    -0.500 OA
ATOM     24  H   UNL     1       8.864 -15.122 -31.573  1.00  0.00     0.294 HD
ENDBRANCH  10  23
BRANCH   5  25
ATOM     25  O   UNL     1      14.493 -20.248 -28.417  1.00  0.00    -0.507 OA
ATOM     26  H   UNL     1      14.626 -21.152 -28.855  1.00  0.00     0.293 HD
ENDBRANCH   5  25
BRANCH   7  27
ATOM     27  O   UNL     1      11.227 -16.880 -27.398  1.00  0.00    -0.507 OA
ATOM     28  H   UNL     1      10.237 -16.914 -27.201  1.00  0.00     0.293 HD
ENDBRANCH   7  27
TORSDOF 7
ENDMDL
MODEL 4
REMARK VINA RESULT:    -6.645      2.181      7.035
REMARK INTER + INTRA:          -8.579
REMARK INTER:                  -8.894
REMARK INTRA:                   0.315
REMARK UNBOUND:                -0.380
REMARK SMILES Oc1cc(O)c2cc(O)c(-c3cc(O)c(O)c(O)c3)[o+]c2c1
REMARK SMILES IDX 10 1 20 2 21 3 22 4 2 5 3 6 4 7 6 8 7 9 8 10 11 11 12 12
REMARK SMILES IDX 13 13 19 14 15 15 17 16 14 17 16 19 18 21 9 23 1 25 5 27
REMARK H PARENT 14 18 16 20 18 22 9 24 1 26 5 28
REMARK Flexibility Score: inf
ROOT
ATOM      1  C   UNL     1      11.013 -17.572 -31.415  1.00  0.00     0.402 A 
ATOM      2  O   UNL     1      11.983 -16.884 -30.819  1.00  0.00    -0.202 OA
ATOM      3  C   UNL     1      12.176 -16.886 -29.504  1.00  0.00     0.368 A 
ATOM      4  C   UNL     1      13.226 -16.134 -28.970  1.00  0.00     0.162 A 
ATOM      5  C   UNL     1      13.453 -16.119 -27.591  1.00  0.00     0.128 A 
ATOM      6  C   UNL     1      12.628 -16.861 -26.743  1.00  0.00     0.093 A 
ATOM      7  C   UNL     1      11.569 -17.623 -27.253  1.00  0.00     0.136 A 
ATOM      8  C   UNL     1      11.333 -17.639 -28.652  1.00  0.00     0.125 A 
ATOM      9  C   UNL     1      10.289 -18.362 -29.251  1.00  0.00     0.078 A 
ATOM     10  C   UNL     1      10.115 -18.325 -30.638  1.00  0.00     0.223 A 
ENDROOT
BRANCH   1  11
ATOM     11  C   UNL     1      10.907 -17.497 -32.892  1.00  0.00     0.091 A 
ATOM     12  C   UNL     1      10.147 -18.428 -33.618  1.00  0.00     0.068 A 
ATOM     13  C   UNL     1      10.076 -18.357 -35.014  1.00  0.00     0.162 A 
ATOM     14  C   UNL     1      11.625 -16.510 -33.585  1.00  0.00     0.068 A 
ATOM     15  C   UNL     1      10.779 -17.352 -35.701  1.00  0.00     0.200 A 
ATOM     16  C   UNL     1      11.558 -16.430 -34.983  1.00  0.00     0.162 A 
BRANCH  13  17
ATOM     17  O   UNL     1       9.307 -19.296 -35.699  1.00  0.00    -0.504 OA
ATOM     18  H   UNL     1       8.335 -19.131 -35.930  1.00  0.00     0.293 HD
ENDBRANCH  13  17
BRANCH  15  19
ATOM     19  O   UNL     1      10.699 -17.286 -37.094  1.00  0.00    -0.502 OA
ATOM     20  H   UNL     1      10.620 -18.116 -37.669  1.00  0.00     0.293 HD
ENDBRANCH  15  19
BRANCH  16  21
ATOM     21  O   UNL     1      12.265 -15.437 -35.659  1.00  0.00    -0.504 OA
ATOM     22  H   UNL     1      12.378 -14.507 -35.272  1.00  0.00     0.293 HD
ENDBRANCH  16  21
ENDBRANCH   1  11
BRANCH  10  23
ATOM     23  O   UNL     1       9.048 -19.003 -31.228  1.00  0.00    -0.500 OA
ATOM     24  H   UNL     1       8.143 -18.564 -31.355  1.00  0.00     0.294 HD
ENDBRANCH  10  23
BRANCH   5  25
ATOM     25  O   UNL     1      14.498 -15.372 -27.051  1.00  0.00    -0.507 OA
ATOM     26  H   UNL     1      14.925 -15.620 -26.166  1.00  0.00     0.293 HD
ENDBRANCH   5  25
BRANCH   7  27
ATOM     27  O   UNL     1      10.792 -18.340 -26.338  1.00  0.00    -0.507 OA
ATOM     28  H   UNL     1      10.541 -18.008 -25.418  1.00  0.00     0.293 HD
ENDBRANCH   7  27
TORSDOF 7
ENDMDL
MODEL 5
REMARK VINA RESULT:    -6.643      1.934      2.742
REMARK INTER + INTRA:          -8.576
REMARK INTER:                  -8.522
REMARK INTRA:                  -0.054
REMARK UNBOUND:                -0.380
REMARK SMILES Oc1cc(O)c2cc(O)c(-c3cc(O)c(O)c(O)c3)[o+]c2c1
REMARK SMILES IDX 10 1 20 2 21 3 22 4 2 5 3 6 4 7 6 8 7 9 8 10 11 11 12 12
REMARK SMILES IDX 13 13 19 14 15 15 17 16 14 17 16 19 18 21 9 23 1 25 5 27
REMARK H PARENT 14 18 16 20 18 22 9 24 1 26 5 28
REMARK Flexibility Score: inf
ROOT
ATOM      1  C   UNL     1      11.735 -17.806 -31.872  1.00  0.00     0.402 A 
ATOM      2  O   UNL     1      12.106 -16.962 -32.830  1.00  0.00    -0.202 OA
ATOM      3  C   UNL     1      11.548 -16.937 -34.036  1.00  0.00     0.368 A 
ATOM      4  C   UNL     1      12.005 -16.010 -34.978  1.00  0.00     0.162 A 
ATOM      5  C   UNL     1      11.434 -15.960 -36.253  1.00  0.00     0.128 A 
ATOM      6  C   UNL     1      10.402 -16.838 -36.587  1.00  0.00     0.093 A 
ATOM      7  C   UNL     1       9.926 -17.777 -35.662  1.00  0.00     0.136 A 
ATOM      8  C   UNL     1      10.504 -17.833 -34.367  1.00  0.00     0.125 A 
ATOM      9  C   UNL     1      10.101 -18.748 -33.380  1.00  0.00     0.078 A 
ATOM     10  C   UNL     1      10.722 -18.748 -32.128  1.00  0.00     0.223 A 
ENDROOT
BRANCH   1  11
ATOM     11  C   UNL     1      12.428 -17.729 -30.564  1.00  0.00     0.091 A 
ATOM     12  C   UNL     1      12.565 -16.510 -29.880  1.00  0.00     0.068 A 
ATOM     13  C   UNL     1      13.242 -16.450 -28.658  1.00  0.00     0.162 A 
ATOM     14  C   UNL     1      13.008 -18.886 -30.023  1.00  0.00     0.068 A 
ATOM     15  C   UNL     1      13.802 -17.617 -28.108  1.00  0.00     0.200 A 
ATOM     16  C   UNL     1      13.687 -18.836 -28.796  1.00  0.00     0.162 A 
BRANCH  13  17
ATOM     17  O   UNL     1      13.353 -15.222 -28.006  1.00  0.00    -0.504 OA
ATOM     18  H   UNL     1      12.911 -15.045 -27.113  1.00  0.00     0.293 HD
ENDBRANCH  13  17
BRANCH  15  19
ATOM     19  O   UNL     1      14.472 -17.549 -26.885  1.00  0.00    -0.502 OA
ATOM     20  H   UNL     1      13.987 -17.634 -26.000  1.00  0.00     0.293 HD
ENDBRANCH  15  19
BRANCH  16  21
ATOM     21  O   UNL     1      14.247 -19.995 -28.262  1.00  0.00    -0.504 OA
ATOM     22  H   UNL     1      14.129 -20.242 -27.286  1.00  0.00     0.293 HD
ENDBRANCH  16  21
ENDBRANCH   1  11
BRANCH  10  23
ATOM     23  O   UNL     1      10.356 -19.689 -31.165  1.00  0.00    -0.500 OA
ATOM     24  H   UNL     1      10.811 -19.727 -30.260  1.00  0.00     0.294 HD
ENDBRANCH  10  23
BRANCH   5  25
ATOM     25  O   UNL     1      11.884 -15.038 -37.196  1.00  0.00    -0.507 OA
ATOM     26  H   UNL     1      12.803 -15.117 -37.616  1.00  0.00     0.293 HD
ENDBRANCH   5  25
BRANCH   7  27
ATOM     27  O   UNL     1       8.889 -18.618 -36.074  1.00  0.00    -0.507 OA
ATOM     28  H   UNL     1       8.942 -19.247 -36.862  1.00  0.00     0.293 HD
ENDBRANCH   7  27
TORSDOF 7
ENDMDL
MODEL 6
REMARK VINA RESULT:    -6.635      2.124      2.998
REMARK INTER + INTRA:          -8.566
REMARK INTER:                  -8.923
REMARK INTRA:                   0.357
REMARK UNBOUND:                -0.380
REMARK SMILES Oc1cc(O)c2cc(O)c(-c3cc(O)c(O)c(O)c3)[o+]c2c1
REMARK SMILES IDX 10 1 20 2 21 3 22 4 2 5 3 6 4 7 6 8 7 9 8 10 11 11 12 12
REMARK SMILES IDX 13 13 19 14 15 15 17 16 14 17 16 19 18 21 9 23 1 25 5 27
REMARK H PARENT 14 18 16 20 18 22 9 24 1 26 5 28
REMARK Flexibility Score: inf
ROOT
ATOM      1  C   UNL     1      11.295 -17.643 -31.369  1.00  0.00     0.402 A 
ATOM      2  O   UNL     1      11.706 -16.847 -32.352  1.00  0.00    -0.202 OA
ATOM      3  C   UNL     1      11.326 -16.994 -33.617  1.00  0.00     0.368 A 
ATOM      4  C   UNL     1      11.810 -16.104 -34.580  1.00  0.00     0.162 A 
ATOM      5  C   UNL     1      11.424 -16.234 -35.918  1.00  0.00     0.128 A 
ATOM      6  C   UNL     1      10.550 -17.256 -36.293  1.00  0.00     0.093 A 
ATOM      7  C   UNL     1      10.051 -18.161 -35.347  1.00  0.00     0.136 A 
ATOM      8  C   UNL     1      10.442 -18.035 -33.989  1.00  0.00     0.125 A 
ATOM      9  C   UNL     1      10.003 -18.903 -32.975  1.00  0.00     0.078 A 
ATOM     10  C   UNL     1      10.436 -18.718 -31.659  1.00  0.00     0.223 A 
ENDROOT
BRANCH   1  11
ATOM     11  C   UNL     1      11.782 -17.370 -29.997  1.00  0.00     0.091 A 
ATOM     12  C   UNL     1      11.249 -18.041 -28.884  1.00  0.00     0.068 A 
ATOM     13  C   UNL     1      11.704 -17.755 -27.593  1.00  0.00     0.162 A 
ATOM     14  C   UNL     1      12.757 -16.381 -29.795  1.00  0.00     0.068 A 
ATOM     15  C   UNL     1      12.698 -16.780 -27.399  1.00  0.00     0.200 A 
ATOM     16  C   UNL     1      13.221 -16.089 -28.504  1.00  0.00     0.162 A 
BRANCH  13  17
ATOM     17  O   UNL     1      11.153 -18.447 -26.514  1.00  0.00    -0.504 OA
ATOM     18  H   UNL     1      10.913 -19.429 -26.570  1.00  0.00     0.293 HD
ENDBRANCH  13  17
BRANCH  15  19
ATOM     19  O   UNL     1      13.150 -16.504 -26.107  1.00  0.00    -0.502 OA
ATOM     20  H   UNL     1      13.371 -17.238 -25.446  1.00  0.00     0.293 HD
ENDBRANCH  15  19
BRANCH  16  21
ATOM     21  O   UNL     1      14.200 -15.115 -28.319  1.00  0.00    -0.504 OA
ATOM     22  H   UNL     1      14.685 -15.008 -27.436  1.00  0.00     0.293 HD
ENDBRANCH  16  21
ENDBRANCH   1  11
BRANCH  10  23
ATOM     23  O   UNL     1      10.040 -19.609 -30.660  1.00  0.00    -0.500 OA
ATOM     24  H   UNL     1       9.716 -20.544 -30.880  1.00  0.00     0.294 HD
ENDBRANCH  10  23
BRANCH   5  25
ATOM     25  O   UNL     1      11.902 -15.350 -36.883  1.00  0.00    -0.507 OA
ATOM     26  H   UNL     1      12.803 -14.897 -36.786  1.00  0.00     0.293 HD
ENDBRANCH   5  25
BRANCH   7  27
ATOM     27  O   UNL     1       9.179 -19.154 -35.803  1.00  0.00    -0.507 OA
ATOM     28  H   UNL     1       9.271 -20.137 -35.589  1.00  0.00     0.293 HD
ENDBRANCH   7  27
TORSDOF 7
ENDMDL
MODEL 7
REMARK VINA RESULT:    -6.632      2.169      7.022
REMARK INTER + INTRA:          -8.563
REMARK INTER:                  -8.931
REMARK INTRA:                   0.369
REMARK UNBOUND:                -0.380
REMARK SMILES Oc1cc(O)c2cc(O)c(-c3cc(O)c(O)c(O)c3)[o+]c2c1
REMARK SMILES IDX 10 1 20 2 21 3 22 4 2 5 3 6 4 7 6 8 7 9 8 10 11 11 12 12
REMARK SMILES IDX 13 13 19 14 15 15 17 16 14 17 16 19 18 21 9 23 1 25 5 27
REMARK H PARENT 14 18 16 20 18 22 9 24 1 26 5 28
REMARK Flexibility Score: inf
ROOT
ATOM      1  C   UNL     1      11.092 -17.572 -31.443  1.00  0.00     0.402 A 
ATOM      2  O   UNL     1      12.056 -16.906 -30.814  1.00  0.00    -0.202 OA
ATOM      3  C   UNL     1      12.204 -16.911 -29.493  1.00  0.00     0.368 A 
ATOM      4  C   UNL     1      13.251 -16.182 -28.923  1.00  0.00     0.162 A 
ATOM      5  C   UNL     1      13.431 -16.173 -27.537  1.00  0.00     0.128 A 
ATOM      6  C   UNL     1      12.562 -16.896 -26.718  1.00  0.00     0.093 A 
ATOM      7  C   UNL     1      11.505 -17.634 -27.264  1.00  0.00     0.136 A 
ATOM      8  C   UNL     1      11.316 -17.646 -28.670  1.00  0.00     0.125 A 
ATOM      9  C   UNL     1      10.277 -18.346 -29.305  1.00  0.00     0.078 A 
ATOM     10  C   UNL     1      10.152 -18.305 -30.697  1.00  0.00     0.223 A 
ENDROOT
BRANCH   1  11
ATOM     11  C   UNL     1      11.038 -17.495 -32.922  1.00  0.00     0.091 A 
ATOM     12  C   UNL     1      11.681 -16.461 -33.624  1.00  0.00     0.068 A 
ATOM     13  C   UNL     1      11.601 -16.390 -35.019  1.00  0.00     0.162 A 
ATOM     14  C   UNL     1      10.285 -18.440 -33.635  1.00  0.00     0.068 A 
ATOM     15  C   UNL     1      10.864 -17.354 -35.730  1.00  0.00     0.200 A 
ATOM     16  C   UNL     1      10.202 -18.378 -35.033  1.00  0.00     0.162 A 
BRANCH  13  17
ATOM     17  O   UNL     1      12.257 -15.352 -35.680  1.00  0.00    -0.504 OA
ATOM     18  H   UNL     1      12.427 -15.372 -36.678  1.00  0.00     0.293 HD
ENDBRANCH  13  17
BRANCH  15  19
ATOM     19  O   UNL     1      10.794 -17.278 -37.122  1.00  0.00    -0.502 OA
ATOM     20  H   UNL     1      10.487 -16.440 -37.601  1.00  0.00     0.293 HD
ENDBRANCH  15  19
BRANCH  16  21
ATOM     21  O   UNL     1       9.462 -19.331 -35.731  1.00  0.00    -0.504 OA
ATOM     22  H   UNL     1       9.839 -20.248 -35.940  1.00  0.00     0.293 HD
ENDBRANCH  16  21
ENDBRANCH   1  11
BRANCH  10  23
ATOM     23  O   UNL     1       9.091 -18.960 -31.324  1.00  0.00    -0.500 OA
ATOM     24  H   UNL     1       8.129 -18.806 -31.042  1.00  0.00     0.294 HD
ENDBRANCH  10  23
BRANCH   5  25
ATOM     25  O   UNL     1      14.473 -15.448 -26.961  1.00  0.00    -0.507 OA
ATOM     26  H   UNL     1      14.743 -15.585 -25.994  1.00  0.00     0.293 HD
ENDBRANCH   5  25
BRANCH   7  27
ATOM     27  O   UNL     1      10.681 -18.334 -26.377  1.00  0.00    -0.507 OA
ATOM     28  H   UNL     1      10.645 -19.340 -26.304  1.00  0.00     0.293 HD
ENDBRANCH   7  27
TORSDOF 7
ENDMDL
MODEL 8
REMARK VINA RESULT:    -6.618      1.719      7.196
REMARK INTER + INTRA:          -8.546
REMARK INTER:                  -8.185
REMARK INTRA:                  -0.361
REMARK UNBOUND:                -0.380
REMARK SMILES Oc1cc(O)c2cc(O)c(-c3cc(O)c(O)c(O)c3)[o+]c2c1
REMARK SMILES IDX 10 1 20 2 21 3 22 4 2 5 3 6 4 7 6 8 7 9 8 10 11 11 12 12
REMARK SMILES IDX 13 13 19 14 15 15 17 16 14 17 16 19 18 21 9 23 1 25 5 27
REMARK H PARENT 14 18 16 20 18 22 9 24 1 26 5 28
REMARK Flexibility Score: inf
ROOT
ATOM      1  C   UNL     1      11.013 -17.443 -32.492  1.00  0.00     0.402 A 
ATOM      2  O   UNL     1      11.927 -18.273 -31.999  1.00  0.00    -0.202 OA
ATOM      3  C   UNL     1      12.218 -18.351 -30.704  1.00  0.00     0.368 A 
ATOM      4  C   UNL     1      13.194 -19.257 -30.280  1.00  0.00     0.162 A 
ATOM      5  C   UNL     1      13.517 -19.362 -28.924  1.00  0.00     0.128 A 
ATOM      6  C   UNL     1      12.861 -18.559 -27.989  1.00  0.00     0.093 A 
ATOM      7  C   UNL     1      11.880 -17.643 -28.388  1.00  0.00     0.136 A 
ATOM      8  C   UNL     1      11.550 -17.531 -29.763  1.00  0.00     0.125 A 
ATOM      9  C   UNL     1      10.590 -16.632 -30.257  1.00  0.00     0.078 A 
ATOM     10  C   UNL     1      10.322 -16.575 -31.628  1.00  0.00     0.223 A 
ENDROOT
BRANCH   1  11
ATOM     11  C   UNL     1      10.772 -17.457 -33.955  1.00  0.00     0.091 A 
ATOM     12  C   UNL     1       9.940 -18.419 -34.550  1.00  0.00     0.068 A 
ATOM     13  C   UNL     1       9.742 -18.432 -35.934  1.00  0.00     0.162 A 
ATOM     14  C   UNL     1      11.432 -16.525 -34.770  1.00  0.00     0.068 A 
ATOM     15  C   UNL     1      10.387 -17.481 -36.744  1.00  0.00     0.200 A 
ATOM     16  C   UNL     1      11.237 -16.529 -36.159  1.00  0.00     0.162 A 
BRANCH  13  17
ATOM     17  O   UNL     1       8.904 -19.400 -36.487  1.00  0.00    -0.504 OA
ATOM     18  H   UNL     1       8.156 -19.163 -37.127  1.00  0.00     0.293 HD
ENDBRANCH  13  17
BRANCH  15  19
ATOM     19  O   UNL     1      10.179 -17.498 -38.125  1.00  0.00    -0.502 OA
ATOM     20  H   UNL     1      10.919 -17.725 -38.778  1.00  0.00     0.293 HD
ENDBRANCH  15  19
BRANCH  16  21
ATOM     21  O   UNL     1      11.886 -15.588 -36.957  1.00  0.00    -0.504 OA
ATOM     22  H   UNL     1      12.862 -15.355 -36.817  1.00  0.00     0.293 HD
ENDBRANCH  16  21
ENDBRANCH   1  11
BRANCH  10  23
ATOM     23  O   UNL     1       9.405 -15.648 -32.124  1.00  0.00    -0.500 OA
ATOM     24  H   UNL     1       9.672 -14.949 -32.808  1.00  0.00     0.294 HD
ENDBRANCH  10  23
BRANCH   5  25
ATOM     25  O   UNL     1      14.489 -20.264 -28.493  1.00  0.00    -0.507 OA
ATOM     26  H   UNL     1      15.193 -19.999 -27.815  1.00  0.00     0.293 HD
ENDBRANCH   5  25
BRANCH   7  27
ATOM     27  O   UNL     1      11.269 -16.878 -27.390  1.00  0.00    -0.507 OA
ATOM     28  H   UNL     1      10.681 -16.076 -27.565  1.00  0.00     0.293 HD
ENDBRANCH   7  27
TORSDOF 7
ENDMDL
MODEL 9
REMARK VINA RESULT:    -6.579      2.173      7.310
REMARK INTER + INTRA:          -8.497
REMARK INTER:                  -8.762
REMARK INTRA:                   0.265
REMARK UNBOUND:                -0.380
REMARK SMILES Oc1cc(O)c2cc(O)c(-c3cc(O)c(O)c(O)c3)[o+]c2c1
REMARK SMILES IDX 10 1 20 2 21 3 22 4 2 5 3 6 4 7 6 8 7 9 8 10 11 11 12 12
REMARK SMILES IDX 13 13 19 14 15 15 17 16 14 17 16 19 18 21 9 23 1 25 5 27
REMARK H PARENT 14 18 16 20 18 22 9 24 1 26 5 28
REMARK Flexibility Score: inf
ROOT
ATOM      1  C   UNL     1      12.142 -17.188 -31.781  1.00  0.00     0.402 A 
ATOM      2  O   UNL     1      11.418 -17.620 -30.753  1.00  0.00    -0.202 OA
ATOM      3  C   UNL     1      11.792 -17.476 -29.486  1.00  0.00     0.368 A 
ATOM      4  C   UNL     1      10.960 -17.960 -28.472  1.00  0.00     0.162 A 
ATOM      5  C   UNL     1      11.328 -17.820 -27.131  1.00  0.00     0.128 A 
ATOM      6  C   UNL     1      12.531 -17.192 -26.802  1.00  0.00     0.093 A 
ATOM      7  C   UNL     1      13.382 -16.698 -27.798  1.00  0.00     0.136 A 
ATOM      8  C   UNL     1      13.014 -16.840 -29.162  1.00  0.00     0.125 A 
ATOM      9  C   UNL     1      13.810 -16.388 -30.228  1.00  0.00     0.078 A 
ATOM     10  C   UNL     1      13.383 -16.568 -31.546  1.00  0.00     0.223 A 
ENDROOT
BRANCH   1  11
ATOM     11  C   UNL     1      11.612 -17.399 -33.149  1.00  0.00     0.091 A 
ATOM     12  C   UNL     1      12.054 -16.622 -34.232  1.00  0.00     0.068 A 
ATOM     13  C   UNL     1      11.527 -16.818 -35.513  1.00  0.00     0.162 A 
ATOM     14  C   UNL     1      10.608 -18.356 -33.359  1.00  0.00     0.068 A 
ATOM     15  C   UNL     1      10.537 -17.794 -35.722  1.00  0.00     0.200 A 
ATOM     16  C   UNL     1      10.075 -18.561 -34.640  1.00  0.00     0.162 A 
BRANCH  13  17
ATOM     17  O   UNL     1      11.995 -16.030 -36.564  1.00  0.00    -0.504 OA
ATOM     18  H   UNL     1      11.382 -15.681 -37.290  1.00  0.00     0.293 HD
ENDBRANCH  13  17
BRANCH  15  19
ATOM     19  O   UNL     1      10.019 -17.987 -37.004  1.00  0.00    -0.502 OA
ATOM     20  H   UNL     1       9.430 -18.778 -37.234  1.00  0.00     0.293 HD
ENDBRANCH  15  19
BRANCH  16  21
ATOM     21  O   UNL     1       9.087 -19.524 -34.838  1.00  0.00    -0.504 OA
ATOM     22  H   UNL     1       8.124 -19.362 -34.570  1.00  0.00     0.293 HD
ENDBRANCH  16  21
ENDBRANCH   1  11
BRANCH  10  23
ATOM     23  O   UNL     1      14.195 -16.164 -32.607  1.00  0.00    -0.500 OA
ATOM     24  H   UNL     1      15.005 -16.704 -32.893  1.00  0.00     0.294 HD
ENDBRANCH  10  23
BRANCH   5  25
ATOM     25  O   UNL     1      10.504 -18.301 -26.115  1.00  0.00    -0.507 OA
ATOM     26  H   UNL     1       9.579 -18.663 -26.311  1.00  0.00     0.293 HD
ENDBRANCH   5  25
BRANCH   7  27
ATOM     27  O   UNL     1      14.566 -16.079 -27.386  1.00  0.00    -0.507 OA
ATOM     28  H   UNL     1      14.853 -15.980 -26.423  1.00  0.00     0.293 HD
ENDBRANCH   7  27
TORSDOF 7
ENDMDL
