MODEL 1
REMARK VINA RESULT:    -7.903      0.000      0.000
REMARK INTER + INTRA:          -9.605
REMARK INTER:                  -9.520
REMARK INTRA:                  -0.085
REMARK UNBOUND:                -0.085
REMARK SMILES O=c1c(O)c(-c2ccc(O)c(O)c2)oc2cc(O)cc(O)c12
REMARK SMILES IDX 5 1 3 2 2 3 1 4 22 5 20 6 19 7 17 8 16 9 15 10 14 11 6 12
REMARK SMILES IDX 7 13 8 14 9 15 13 16 11 17 10 18 12 20 4 22 21 24 18 26
REMARK H PARENT 10 19 12 21 4 23 21 25 18 27
REMARK Flexibility Score: inf
ROOT
ATOM      1  C   UNL     1      -6.441  -9.877  26.632  1.00  0.00     0.180 A 
ATOM      2  C   UNL     1      -7.570  -9.885  27.467  1.00  0.00     0.208 A 
ATOM      3  C   UNL     1      -8.815 -10.247  26.928  1.00  0.00     0.238 A 
ATOM      4  O   UNL     1      -9.812 -10.305  27.694  1.00  0.00    -0.285 OA
ATOM      5  C   UNL     1      -8.918 -10.581  25.556  1.00  0.00     0.111 A 
ATOM      6  C   UNL     1     -10.134 -10.924  24.895  1.00  0.00     0.134 A 
ATOM      7  C   UNL     1     -10.098 -11.362  23.566  1.00  0.00     0.093 A 
ATOM      8  C   UNL     1      -8.896 -11.409  22.854  1.00  0.00     0.123 A 
ATOM      9  C   UNL     1      -7.711 -11.019  23.474  1.00  0.00     0.094 A 
ATOM     10  C   UNL     1      -7.711 -10.611  24.810  1.00  0.00     0.146 A 
ATOM     11  O   UNL     1      -6.557 -10.258  25.365  1.00  0.00    -0.452 OA
ENDROOT
BRANCH   1  12
ATOM     12  C   UNL     1      -5.100  -9.482  27.122  1.00  0.00     0.025 A 
ATOM     13  C   UNL     1      -4.486 -10.151  28.194  1.00  0.00     0.016 A 
ATOM     14  C   UNL     1      -3.232  -9.745  28.654  1.00  0.00     0.051 A 
ATOM     15  C   UNL     1      -2.577  -8.658  28.062  1.00  0.00     0.157 A 
ATOM     16  C   UNL     1      -4.451  -8.379  26.544  1.00  0.00     0.062 A 
ATOM     17  C   UNL     1      -3.193  -7.970  27.002  1.00  0.00     0.158 A 
BRANCH  15  18
ATOM     18  O   UNL     1      -1.325  -8.256  28.522  1.00  0.00    -0.504 OA
ATOM     19  H   UNL     1      -1.183  -7.350  28.953  1.00  0.00     0.293 HD
ENDBRANCH  15  18
BRANCH  17  20
ATOM     20  O   UNL     1      -2.573  -6.879  26.394  1.00  0.00    -0.504 OA
ATOM     21  H   UNL     1      -2.074  -6.178  26.929  1.00  0.00     0.293 HD
ENDBRANCH  17  20
ENDBRANCH   1  12
BRANCH   2  22
ATOM     22  O   UNL     1      -7.443  -9.573  28.825  1.00  0.00    -0.502 OA
ATOM     23  H   UNL     1      -6.595  -9.181  29.215  1.00  0.00     0.293 HD
ENDBRANCH   2  22
BRANCH   6  24
ATOM     24  O   UNL     1     -11.399 -10.824  25.484  1.00  0.00    -0.507 OA
ATOM     25  H   UNL     1     -11.760  -9.996  25.933  1.00  0.00     0.293 HD
ENDBRANCH   6  24
BRANCH   8  26
ATOM     26  O   UNL     1      -8.871 -11.832  21.527  1.00  0.00    -0.508 OA
ATOM     27  H   UNL     1      -9.666 -12.296  21.103  1.00  0.00     0.293 HD
ENDBRANCH   8  26
TORSDOF 6
ENDMDL
MODEL 2
REMARK VINA RESULT:    -7.837      3.737      6.859
REMARK INTER + INTRA:          -9.525
REMARK INTER:                  -9.503
REMARK INTRA:                  -0.022
REMARK UNBOUND:                -0.085
REMARK SMILES O=c1c(O)c(-c2ccc(O)c(O)c2)oc2cc(O)cc(O)c12
REMARK SMILES IDX 5 1 3 2 2 3 1 4 22 5 20 6 19 7 17 8 16 9 15 10 14 11 6 12
REMARK SMILES IDX 7 13 8 14 9 15 13 16 11 17 10 18 12 20 4 22 21 24 18 26
REMARK H PARENT 10 19 12 21 4 23 21 25 18 27
REMARK Flexibility Score: inf
ROOT
ATOM      1  C   UNL     1      -0.826  -6.884  27.960  1.00  0.00     0.180 A 
ATOM      2  C   UNL     1      -0.668  -7.814  29.001  1.00  0.00     0.208 A 
ATOM      3  C   UNL     1      -1.632  -8.821  29.167  1.00  0.00     0.238 A 
ATOM      4  O   UNL     1      -1.456  -9.684  30.067  1.00  0.00    -0.285 OA
ATOM      5  C   UNL     1      -2.750  -8.876  28.301  1.00  0.00     0.111 A 
ATOM      6  C   UNL     1      -3.808  -9.829  28.401  1.00  0.00     0.134 A 
ATOM      7  C   UNL     1      -4.796  -9.870  27.411  1.00  0.00     0.093 A 
ATOM      8  C   UNL     1      -4.801  -8.952  26.358  1.00  0.00     0.123 A 
ATOM      9  C   UNL     1      -3.805  -7.980  26.284  1.00  0.00     0.094 A 
ATOM     10  C   UNL     1      -2.785  -7.936  27.238  1.00  0.00     0.146 A 
ATOM     11  O   UNL     1      -1.850  -7.001  27.123  1.00  0.00    -0.452 OA
ENDROOT
BRANCH   1  12
ATOM     12  C   UNL     1       0.134  -5.779  27.738  1.00  0.00     0.025 A 
ATOM     13  C   UNL     1       0.539  -4.938  28.789  1.00  0.00     0.016 A 
ATOM     14  C   UNL     1       1.428  -3.887  28.551  1.00  0.00     0.051 A 
ATOM     15  C   UNL     1       1.916  -3.651  27.259  1.00  0.00     0.157 A 
ATOM     16  C   UNL     1       0.609  -5.525  26.440  1.00  0.00     0.062 A 
ATOM     17  C   UNL     1       1.501  -4.474  26.198  1.00  0.00     0.158 A 
BRANCH  15  18
ATOM     18  O   UNL     1       2.804  -2.603  27.025  1.00  0.00    -0.504 OA
ATOM     19  H   UNL     1       2.597  -1.656  27.321  1.00  0.00     0.293 HD
ENDBRANCH  15  18
BRANCH  17  20
ATOM     20  O   UNL     1       1.960  -4.262  24.899  1.00  0.00    -0.504 OA
ATOM     21  H   UNL     1       1.413  -4.518  24.086  1.00  0.00     0.293 HD
ENDBRANCH  17  20
ENDBRANCH   1  12
BRANCH   2  22
ATOM     22  O   UNL     1       0.455  -7.755  29.833  1.00  0.00    -0.502 OA
ATOM     23  H   UNL     1       1.181  -7.060  29.716  1.00  0.00     0.293 HD
ENDBRANCH   2  22
BRANCH   6  24
ATOM     24  O   UNL     1      -3.948 -10.730  29.461  1.00  0.00    -0.507 OA
ATOM     25  H   UNL     1      -3.287 -11.458  29.688  1.00  0.00     0.293 HD
ENDBRANCH   6  24
BRANCH   8  26
ATOM     26  O   UNL     1      -5.797  -8.990  25.385  1.00  0.00    -0.508 OA
ATOM     27  H   UNL     1      -6.780  -9.007  25.633  1.00  0.00     0.293 HD
ENDBRANCH   8  26
TORSDOF 6
ENDMDL
MODEL 3
REMARK VINA RESULT:    -7.765      3.345      8.894
REMARK INTER + INTRA:          -9.438
REMARK INTER:                  -9.214
REMARK INTRA:                  -0.225
REMARK UNBOUND:                -0.085
REMARK SMILES O=c1c(O)c(-c2ccc(O)c(O)c2)oc2cc(O)cc(O)c12
REMARK SMILES IDX 5 1 3 2 2 3 1 4 22 5 20 6 19 7 17 8 16 9 15 10 14 11 6 12
REMARK SMILES IDX 7 13 8 14 9 15 13 16 11 17 10 18 12 20 4 22 21 24 18 26
REMARK H PARENT 10 19 12 21 4 23 21 25 18 27
REMARK Flexibility Score: inf
ROOT
ATOM      1  C   UNL     1      -1.902  -7.679  28.000  1.00  0.00     0.180 A 
ATOM      2  C   UNL     1      -0.950  -8.181  28.904  1.00  0.00     0.208 A 
ATOM      3  C   UNL     1       0.340  -7.629  28.912  1.00  0.00     0.238 A 
ATOM      4  O   UNL     1       1.171  -8.044  29.761  1.00  0.00    -0.285 OA
ATOM      5  C   UNL     1       0.669  -6.594  28.003  1.00  0.00     0.111 A 
ATOM      6  C   UNL     1       1.956  -5.988  27.895  1.00  0.00     0.134 A 
ATOM      7  C   UNL     1       2.132  -4.885  27.052  1.00  0.00     0.093 A 
ATOM      8  C   UNL     1       1.083  -4.404  26.264  1.00  0.00     0.123 A 
ATOM      9  C   UNL     1      -0.163  -5.027  26.319  1.00  0.00     0.094 A 
ATOM     10  C   UNL     1      -0.378  -6.107  27.177  1.00  0.00     0.146 A 
ATOM     11  O   UNL     1      -1.584  -6.664  27.206  1.00  0.00    -0.452 OA
ENDROOT
BRANCH   1  12
ATOM     12  C   UNL     1      -3.275  -8.228  27.916  1.00  0.00     0.025 A 
ATOM     13  C   UNL     1      -4.215  -8.008  28.937  1.00  0.00     0.016 A 
ATOM     14  C   UNL     1      -5.497  -8.556  28.847  1.00  0.00     0.051 A 
ATOM     15  C   UNL     1      -5.855  -9.341  27.744  1.00  0.00     0.157 A 
ATOM     16  C   UNL     1      -3.631  -9.034  26.822  1.00  0.00     0.062 A 
ATOM     17  C   UNL     1      -4.916  -9.583  26.728  1.00  0.00     0.158 A 
BRANCH  15  18
ATOM     18  O   UNL     1      -7.135  -9.885  27.656  1.00  0.00    -0.504 OA
ATOM     19  H   UNL     1      -7.559 -10.104  26.761  1.00  0.00     0.293 HD
ENDBRANCH  15  18
BRANCH  17  20
ATOM     20  O   UNL     1      -5.237 -10.366  25.620  1.00  0.00    -0.504 OA
ATOM     21  H   UNL     1      -5.533 -11.331  25.711  1.00  0.00     0.293 HD
ENDBRANCH  17  20
ENDBRANCH   1  12
BRANCH   2  22
ATOM     22  O   UNL     1      -1.302  -9.188  29.808  1.00  0.00    -0.502 OA
ATOM     23  H   UNL     1      -1.268 -10.171  29.566  1.00  0.00     0.293 HD
ENDBRANCH   2  22
BRANCH   6  24
ATOM     24  O   UNL     1       3.094  -6.447  28.567  1.00  0.00    -0.507 OA
ATOM     25  H   UNL     1       3.307  -6.253  29.534  1.00  0.00     0.293 HD
ENDBRANCH   6  24
BRANCH   8  26
ATOM     26  O   UNL     1       1.270  -3.315  25.416  1.00  0.00    -0.508 OA
ATOM     27  H   UNL     1       0.601  -3.088  24.689  1.00  0.00     0.293 HD
ENDBRANCH   8  26
TORSDOF 6
ENDMDL
MODEL 4
REMARK VINA RESULT:    -7.727     11.505     15.773
REMARK INTER + INTRA:          -9.393
REMARK INTER:                  -9.073
REMARK INTRA:                  -0.320
REMARK UNBOUND:                -0.085
REMARK SMILES O=c1c(O)c(-c2ccc(O)c(O)c2)oc2cc(O)cc(O)c12
REMARK SMILES IDX 5 1 3 2 2 3 1 4 22 5 20 6 19 7 17 8 16 9 15 10 14 11 6 12
REMARK SMILES IDX 7 13 8 14 9 15 13 16 11 17 10 18 12 20 4 22 21 24 18 26
REMARK H PARENT 10 19 12 21 4 23 21 25 18 27
REMARK Flexibility Score: inf
ROOT
ATOM      1  C   UNL     1       4.289   0.443  23.465  1.00  0.00     0.180 A 
ATOM      2  C   UNL     1       5.176   0.688  24.527  1.00  0.00     0.208 A 
ATOM      3  C   UNL     1       5.140  -0.151  25.652  1.00  0.00     0.238 A 
ATOM      4  O   UNL     1       5.975   0.040  26.575  1.00  0.00    -0.285 OA
ATOM      5  C   UNL     1       4.207  -1.213  25.709  1.00  0.00     0.111 A 
ATOM      6  C   UNL     1       4.055  -2.100  26.816  1.00  0.00     0.134 A 
ATOM      7  C   UNL     1       3.189  -3.196  26.710  1.00  0.00     0.093 A 
ATOM      8  C   UNL     1       2.421  -3.400  25.561  1.00  0.00     0.123 A 
ATOM      9  C   UNL     1       2.519  -2.505  24.497  1.00  0.00     0.094 A 
ATOM     10  C   UNL     1       3.401  -1.423  24.560  1.00  0.00     0.146 A 
ATOM     11  O   UNL     1       3.470  -0.601  23.519  1.00  0.00    -0.452 OA
ENDROOT
BRANCH   1  12
ATOM     12  C   UNL     1       4.250   1.299  22.257  1.00  0.00     0.025 A 
ATOM     13  C   UNL     1       5.018   0.996  21.120  1.00  0.00     0.016 A 
ATOM     14  C   UNL     1       4.983   1.832  20.001  1.00  0.00     0.051 A 
ATOM     15  C   UNL     1       4.194   2.989  20.005  1.00  0.00     0.157 A 
ATOM     16  C   UNL     1       3.476   2.471  22.266  1.00  0.00     0.062 A 
ATOM     17  C   UNL     1       3.438   3.310  21.146  1.00  0.00     0.158 A 
BRANCH  15  18
ATOM     18  O   UNL     1       4.160   3.819  18.887  1.00  0.00    -0.504 OA
ATOM     19  H   UNL     1       3.766   4.753  18.931  1.00  0.00     0.293 HD
ENDBRANCH  15  18
BRANCH  17  20
ATOM     20  O   UNL     1       2.648   4.458  21.186  1.00  0.00    -0.504 OA
ATOM     21  H   UNL     1       1.664   4.443  20.944  1.00  0.00     0.293 HD
ENDBRANCH  17  20
ENDBRANCH   1  12
BRANCH   2  22
ATOM     22  O   UNL     1       6.105   1.729  24.441  1.00  0.00    -0.502 OA
ATOM     23  H   UNL     1       7.035   1.662  24.836  1.00  0.00     0.293 HD
ENDBRANCH   2  22
BRANCH   6  24
ATOM     24  O   UNL     1       4.704  -1.935  28.044  1.00  0.00    -0.507 OA
ATOM     25  H   UNL     1       5.316  -1.166  28.271  1.00  0.00     0.293 HD
ENDBRANCH   6  24
BRANCH   8  26
ATOM     26  O   UNL     1       1.551  -4.483  25.469  1.00  0.00    -0.508 OA
ATOM     27  H   UNL     1       0.727  -4.453  24.879  1.00  0.00     0.293 HD
ENDBRANCH   8  26
TORSDOF 6
ENDMDL
MODEL 5
REMARK VINA RESULT:    -7.714      8.611     12.902
REMARK INTER + INTRA:          -9.377
REMARK INTER:                  -9.174
REMARK INTRA:                  -0.203
REMARK UNBOUND:                -0.085
REMARK SMILES O=c1c(O)c(-c2ccc(O)c(O)c2)oc2cc(O)cc(O)c12
REMARK SMILES IDX 5 1 3 2 2 3 1 4 22 5 20 6 19 7 17 8 16 9 15 10 14 11 6 12
REMARK SMILES IDX 7 13 8 14 9 15 13 16 11 17 10 18 12 20 4 22 21 24 18 26
REMARK H PARENT 10 19 12 21 4 23 21 25 18 27
REMARK Flexibility Score: inf
ROOT
ATOM      1  C   UNL     1       3.445  -2.330  25.724  1.00  0.00     0.180 A 
ATOM      2  C   UNL     1       4.399  -3.059  26.454  1.00  0.00     0.208 A 
ATOM      3  C   UNL     1       3.999  -4.224  27.126  1.00  0.00     0.238 A 
ATOM      4  O   UNL     1       4.869  -4.902  27.732  1.00  0.00    -0.285 OA
ATOM      5  C   UNL     1       2.645  -4.638  27.073  1.00  0.00     0.111 A 
ATOM      6  C   UNL     1       2.120  -5.780  27.748  1.00  0.00     0.134 A 
ATOM      7  C   UNL     1       0.794  -6.168  27.520  1.00  0.00     0.093 A 
ATOM      8  C   UNL     1      -0.044  -5.418  26.690  1.00  0.00     0.123 A 
ATOM      9  C   UNL     1       0.444  -4.268  26.073  1.00  0.00     0.094 A 
ATOM     10  C   UNL     1       1.772  -3.875  26.254  1.00  0.00     0.146 A 
ATOM     11  O   UNL     1       2.198  -2.779  25.639  1.00  0.00    -0.452 OA
ENDROOT
BRANCH   1  12
ATOM     12  C   UNL     1       3.786  -1.078  25.011  1.00  0.00     0.025 A 
ATOM     13  C   UNL     1       4.181   0.078  25.707  1.00  0.00     0.016 A 
ATOM     14  C   UNL     1       4.475   1.254  25.014  1.00  0.00     0.051 A 
ATOM     15  C   UNL     1       4.367   1.300  23.618  1.00  0.00     0.157 A 
ATOM     16  C   UNL     1       3.658  -1.021  23.613  1.00  0.00     0.062 A 
ATOM     17  C   UNL     1       3.954   0.156  22.915  1.00  0.00     0.158 A 
BRANCH  15  18
ATOM     18  O   UNL     1       4.663   2.475  22.930  1.00  0.00    -0.504 OA
ATOM     19  H   UNL     1       5.483   2.551  22.338  1.00  0.00     0.293 HD
ENDBRANCH  15  18
BRANCH  17  20
ATOM     20  O   UNL     1       3.828   0.169  21.527  1.00  0.00    -0.504 OA
ATOM     21  H   UNL     1       2.925   0.138  21.068  1.00  0.00     0.293 HD
ENDBRANCH  17  20
ENDBRANCH   1  12
BRANCH   2  22
ATOM     22  O   UNL     1       5.735  -2.645  26.475  1.00  0.00    -0.502 OA
ATOM     23  H   UNL     1       6.492  -3.238  26.161  1.00  0.00     0.293 HD
ENDBRANCH   2  22
BRANCH   6  24
ATOM     24  O   UNL     1       2.844  -6.545  28.668  1.00  0.00    -0.507 OA
ATOM     25  H   UNL     1       2.464  -7.309  29.205  1.00  0.00     0.293 HD
ENDBRANCH   6  24
BRANCH   8  26
ATOM     26  O   UNL     1      -1.366  -5.803  26.481  1.00  0.00    -0.508 OA
ATOM     27  H   UNL     1      -1.614  -6.485  25.773  1.00  0.00     0.293 HD
ENDBRANCH   8  26
TORSDOF 6
ENDMDL
MODEL 6
REMARK VINA RESULT:    -7.241      8.457     13.389
REMARK INTER + INTRA:          -8.808
REMARK INTER:                  -9.045
REMARK INTRA:                   0.237
REMARK UNBOUND:                -0.085
REMARK SMILES O=c1c(O)c(-c2ccc(O)c(O)c2)oc2cc(O)cc(O)c12
REMARK SMILES IDX 5 1 3 2 2 3 1 4 22 5 20 6 19 7 17 8 16 9 15 10 14 11 6 12
REMARK SMILES IDX 7 13 8 14 9 15 13 16 11 17 10 18 12 20 4 22 21 24 18 26
REMARK H PARENT 10 19 12 21 4 23 21 25 18 27
REMARK Flexibility Score: inf
ROOT
ATOM      1  C   UNL     1       2.775  -3.000  26.553  1.00  0.00     0.180 A 
ATOM      2  C   UNL     1       3.778  -2.536  27.421  1.00  0.00     0.208 A 
ATOM      3  C   UNL     1       4.520  -1.401  27.060  1.00  0.00     0.238 A 
ATOM      4  O   UNL     1       5.378  -0.958  27.867  1.00  0.00    -0.285 OA
ATOM      5  C   UNL     1       4.261  -0.753  25.828  1.00  0.00     0.111 A 
ATOM      6  C   UNL     1       4.978   0.381  25.342  1.00  0.00     0.134 A 
ATOM      7  C   UNL     1       4.551   1.019  24.171  1.00  0.00     0.093 A 
ATOM      8  C   UNL     1       3.472   0.525  23.433  1.00  0.00     0.123 A 
ATOM      9  C   UNL     1       2.803  -0.617  23.869  1.00  0.00     0.094 A 
ATOM     10  C   UNL     1       3.183  -1.254  25.052  1.00  0.00     0.146 A 
ATOM     11  O   UNL     1       2.511  -2.333  25.436  1.00  0.00    -0.452 OA
ENDROOT
BRANCH   1  12
ATOM     12  C   UNL     1       1.968  -4.205  26.853  1.00  0.00     0.025 A 
ATOM     13  C   UNL     1       2.493  -5.268  27.608  1.00  0.00     0.016 A 
ATOM     14  C   UNL     1       1.721  -6.405  27.859  1.00  0.00     0.051 A 
ATOM     15  C   UNL     1       0.421  -6.505  27.348  1.00  0.00     0.157 A 
ATOM     16  C   UNL     1       0.671  -4.319  26.325  1.00  0.00     0.062 A 
ATOM     17  C   UNL     1      -0.105  -5.456  26.575  1.00  0.00     0.158 A 
BRANCH  15  18
ATOM     18  O   UNL     1      -0.347  -7.640  27.601  1.00  0.00    -0.504 OA
ATOM     19  H   UNL     1      -0.443  -8.019  28.537  1.00  0.00     0.293 HD
ENDBRANCH  15  18
BRANCH  17  20
ATOM     20  O   UNL     1      -1.393  -5.526  26.045  1.00  0.00    -0.504 OA
ATOM     21  H   UNL     1      -2.218  -5.382  26.616  1.00  0.00     0.293 HD
ENDBRANCH  17  20
ENDBRANCH   1  12
BRANCH   2  22
ATOM     22  O   UNL     1       4.002  -3.178  28.643  1.00  0.00    -0.502 OA
ATOM     23  H   UNL     1       4.931  -3.400  28.977  1.00  0.00     0.293 HD
ENDBRANCH   2  22
BRANCH   6  24
ATOM     24  O   UNL     1       6.125   0.900  25.952  1.00  0.00    -0.507 OA
ATOM     25  H   UNL     1       6.946   1.214  25.458  1.00  0.00     0.293 HD
ENDBRANCH   6  24
BRANCH   8  26
ATOM     26  O   UNL     1       3.063   1.156  22.261  1.00  0.00    -0.508 OA
ATOM     27  H   UNL     1       3.030   2.167  22.187  1.00  0.00     0.293 HD
ENDBRANCH   8  26
TORSDOF 6
ENDMDL
MODEL 7
REMARK VINA RESULT:    -7.057     11.821     13.769
REMARK INTER + INTRA:          -8.586
REMARK INTER:                  -8.256
REMARK INTRA:                  -0.331
REMARK UNBOUND:                -0.085
REMARK SMILES O=c1c(O)c(-c2ccc(O)c(O)c2)oc2cc(O)cc(O)c12
REMARK SMILES IDX 5 1 3 2 2 3 1 4 22 5 20 6 19 7 17 8 16 9 15 10 14 11 6 12
REMARK SMILES IDX 7 13 8 14 9 15 13 16 11 17 10 18 12 20 4 22 21 24 18 26
REMARK H PARENT 10 19 12 21 4 23 21 25 18 27
REMARK Flexibility Score: inf
ROOT
ATOM      1  C   UNL     1      -3.191  -4.178  15.915  1.00  0.00     0.180 A 
ATOM      2  C   UNL     1      -3.381  -5.570  15.933  1.00  0.00     0.208 A 
ATOM      3  C   UNL     1      -2.272  -6.412  15.756  1.00  0.00     0.238 A 
ATOM      4  O   UNL     1      -2.440  -7.658  15.829  1.00  0.00    -0.285 OA
ATOM      5  C   UNL     1      -0.989  -5.852  15.546  1.00  0.00     0.111 A 
ATOM      6  C   UNL     1       0.198  -6.609  15.315  1.00  0.00     0.134 A 
ATOM      7  C   UNL     1       1.434  -5.954  15.249  1.00  0.00     0.093 A 
ATOM      8  C   UNL     1       1.518  -4.563  15.342  1.00  0.00     0.123 A 
ATOM      9  C   UNL     1       0.357  -3.810  15.508  1.00  0.00     0.094 A 
ATOM     10  C   UNL     1      -0.886  -4.438  15.613  1.00  0.00     0.146 A 
ATOM     11  O   UNL     1      -1.966  -3.683  15.781  1.00  0.00    -0.452 OA
ENDROOT
BRANCH   1  12
ATOM     12  C   UNL     1      -4.315  -3.227  16.069  1.00  0.00     0.025 A 
ATOM     13  C   UNL     1      -5.023  -2.742  14.956  1.00  0.00     0.016 A 
ATOM     14  C   UNL     1      -6.064  -1.827  15.125  1.00  0.00     0.051 A 
ATOM     15  C   UNL     1      -6.406  -1.371  16.404  1.00  0.00     0.157 A 
ATOM     16  C   UNL     1      -4.647  -2.751  17.349  1.00  0.00     0.062 A 
ATOM     17  C   UNL     1      -5.691  -1.835  17.522  1.00  0.00     0.158 A 
BRANCH  15  18
ATOM     18  O   UNL     1      -7.447  -0.460  16.570  1.00  0.00    -0.504 OA
ATOM     19  H   UNL     1      -7.742  -0.152  17.490  1.00  0.00     0.293 HD
ENDBRANCH  15  18
BRANCH  17  20
ATOM     20  O   UNL     1      -6.000  -1.396  18.808  1.00  0.00    -0.504 OA
ATOM     21  H   UNL     1      -5.525  -0.611  19.238  1.00  0.00     0.293 HD
ENDBRANCH  17  20
ENDBRANCH   1  12
BRANCH   2  22
ATOM     22  O   UNL     1      -4.653  -6.103  16.164  1.00  0.00    -0.502 OA
ATOM     23  H   UNL     1      -5.376  -5.591  16.654  1.00  0.00     0.293 HD
ENDBRANCH   2  22
BRANCH   6  24
ATOM     24  O   UNL     1       0.215  -7.994  15.116  1.00  0.00    -0.507 OA
ATOM     25  H   UNL     1      -0.330  -8.481  14.421  1.00  0.00     0.293 HD
ENDBRANCH   6  24
BRANCH   8  26
ATOM     26  O   UNL     1       2.750  -3.917  15.259  1.00  0.00    -0.508 OA
ATOM     27  H   UNL     1       3.479  -4.077  15.945  1.00  0.00     0.293 HD
ENDBRANCH   8  26
TORSDOF 6
ENDMDL
MODEL 8
REMARK VINA RESULT:    -7.044     11.866     13.462
REMARK INTER + INTRA:          -8.570
REMARK INTER:                  -8.243
REMARK INTRA:                  -0.328
REMARK UNBOUND:                -0.085
REMARK SMILES O=c1c(O)c(-c2ccc(O)c(O)c2)oc2cc(O)cc(O)c12
REMARK SMILES IDX 5 1 3 2 2 3 1 4 22 5 20 6 19 7 17 8 16 9 15 10 14 11 6 12
REMARK SMILES IDX 7 13 8 14 9 15 13 16 11 17 10 18 12 20 4 22 21 24 18 26
REMARK H PARENT 10 19 12 21 4 23 21 25 18 27
REMARK Flexibility Score: inf
ROOT
ATOM      1  C   UNL     1      -1.001  -6.759  16.038  1.00  0.00     0.180 A 
ATOM      2  C   UNL     1      -1.431  -8.092  15.932  1.00  0.00     0.208 A 
ATOM      3  C   UNL     1      -0.555  -9.123  16.306  1.00  0.00     0.238 A 
ATOM      4  O   UNL     1      -0.965 -10.312  16.261  1.00  0.00    -0.285 OA
ATOM      5  C   UNL     1       0.747  -8.809  16.767  1.00  0.00     0.111 A 
ATOM      6  C   UNL     1       1.731  -9.773  17.135  1.00  0.00     0.134 A 
ATOM      7  C   UNL     1       2.939  -9.346  17.701  1.00  0.00     0.093 A 
ATOM      8  C   UNL     1       3.224  -7.987  17.851  1.00  0.00     0.123 A 
ATOM      9  C   UNL     1       2.292  -7.036  17.440  1.00  0.00     0.094 A 
ATOM     10  C   UNL     1       1.064  -7.432  16.905  1.00  0.00     0.146 A 
ATOM     11  O   UNL     1       0.201  -6.493  16.536  1.00  0.00    -0.452 OA
ENDROOT
BRANCH   1  12
ATOM     12  C   UNL     1      -1.859  -5.620  15.638  1.00  0.00     0.025 A 
ATOM     13  C   UNL     1      -1.924  -5.184  14.304  1.00  0.00     0.016 A 
ATOM     14  C   UNL     1      -2.722  -4.093  13.955  1.00  0.00     0.051 A 
ATOM     15  C   UNL     1      -3.456  -3.410  14.933  1.00  0.00     0.157 A 
ATOM     16  C   UNL     1      -2.580  -4.920  16.620  1.00  0.00     0.062 A 
ATOM     17  C   UNL     1      -3.382  -3.826  16.274  1.00  0.00     0.158 A 
BRANCH  15  18
ATOM     18  O   UNL     1      -4.253  -2.323  14.582  1.00  0.00    -0.504 OA
ATOM     19  H   UNL     1      -3.851  -1.465  14.222  1.00  0.00     0.293 HD
ENDBRANCH  15  18
BRANCH  17  20
ATOM     20  O   UNL     1      -4.094  -3.165  17.274  1.00  0.00    -0.504 OA
ATOM     21  H   UNL     1      -4.779  -2.449  17.063  1.00  0.00     0.293 HD
ENDBRANCH  17  20
ENDBRANCH   1  12
BRANCH   2  22
ATOM     22  O   UNL     1      -2.728  -8.380  15.495  1.00  0.00    -0.502 OA
ATOM     23  H   UNL     1      -3.022  -8.241  14.536  1.00  0.00     0.293 HD
ENDBRANCH   2  22
BRANCH   6  24
ATOM     24  O   UNL     1       1.585 -11.150  16.942  1.00  0.00    -0.507 OA
ATOM     25  H   UNL     1       2.233 -11.849  17.275  1.00  0.00     0.293 HD
ENDBRANCH   6  24
BRANCH   8  26
ATOM     26  O   UNL     1       4.435  -7.570  18.400  1.00  0.00    -0.508 OA
ATOM     27  H   UNL     1       4.941  -8.144  19.064  1.00  0.00     0.293 HD
ENDBRANCH   8  26
TORSDOF 6
ENDMDL
MODEL 9
REMARK VINA RESULT:    -6.943     11.794     12.539
REMARK INTER + INTRA:          -8.448
REMARK INTER:                  -8.131
REMARK INTRA:                  -0.317
REMARK UNBOUND:                -0.085
REMARK SMILES O=c1c(O)c(-c2ccc(O)c(O)c2)oc2cc(O)cc(O)c12
REMARK SMILES IDX 5 1 3 2 2 3 1 4 22 5 20 6 19 7 17 8 16 9 15 10 14 11 6 12
REMARK SMILES IDX 7 13 8 14 9 15 13 16 11 17 10 18 12 20 4 22 21 24 18 26
REMARK H PARENT 10 19 12 21 4 23 21 25 18 27
REMARK Flexibility Score: inf
ROOT
ATOM      1  C   UNL     1      -1.763  -6.233  15.585  1.00  0.00     0.180 A 
ATOM      2  C   UNL     1      -2.605  -5.294  16.206  1.00  0.00     0.208 A 
ATOM      3  C   UNL     1      -3.861  -5.025  15.640  1.00  0.00     0.238 A 
ATOM      4  O   UNL     1      -4.632  -4.225  16.231  1.00  0.00    -0.285 OA
ATOM      5  C   UNL     1      -4.254  -5.687  14.452  1.00  0.00     0.111 A 
ATOM      6  C   UNL     1      -5.487  -5.463  13.769  1.00  0.00     0.134 A 
ATOM      7  C   UNL     1      -5.827  -6.268  12.675  1.00  0.00     0.093 A 
ATOM      8  C   UNL     1      -4.950  -7.246  12.199  1.00  0.00     0.123 A 
ATOM      9  C   UNL     1      -3.717  -7.431  12.823  1.00  0.00     0.094 A 
ATOM     10  C   UNL     1      -3.366  -6.668  13.939  1.00  0.00     0.146 A 
ATOM     11  O   UNL     1      -2.186  -6.885  14.509  1.00  0.00    -0.452 OA
ENDROOT
BRANCH   1  12
ATOM     12  C   UNL     1      -0.415  -6.549  16.108  1.00  0.00     0.025 A 
ATOM     13  C   UNL     1       0.691  -5.728  15.828  1.00  0.00     0.016 A 
ATOM     14  C   UNL     1       1.958  -6.060  16.313  1.00  0.00     0.051 A 
ATOM     15  C   UNL     1       2.144  -7.222  17.072  1.00  0.00     0.157 A 
ATOM     16  C   UNL     1      -0.220  -7.725  16.852  1.00  0.00     0.062 A 
ATOM     17  C   UNL     1       1.048  -8.060  17.341  1.00  0.00     0.158 A 
BRANCH  15  18
ATOM     18  O   UNL     1       3.409  -7.550  17.556  1.00  0.00    -0.504 OA
ATOM     19  H   UNL     1       3.558  -8.359  18.148  1.00  0.00     0.293 HD
ENDBRANCH  15  18
BRANCH  17  20
ATOM     20  O   UNL     1       1.200  -9.228  18.087  1.00  0.00    -0.504 OA
ATOM     21  H   UNL     1       1.394  -9.209  19.081  1.00  0.00     0.293 HD
ENDBRANCH  17  20
ENDBRANCH   1  12
BRANCH   2  22
ATOM     22  O   UNL     1      -2.206  -4.667  17.391  1.00  0.00    -0.502 OA
ATOM     23  H   UNL     1      -1.932  -5.188  18.215  1.00  0.00     0.293 HD
ENDBRANCH   2  22
BRANCH   6  24
ATOM     24  O   UNL     1      -6.393  -4.453  14.105  1.00  0.00    -0.507 OA
ATOM     25  H   UNL     1      -6.558  -4.117  15.042  1.00  0.00     0.293 HD
ENDBRANCH   6  24
BRANCH   8  26
ATOM     26  O   UNL     1      -5.289  -8.032  11.100  1.00  0.00    -0.508 OA
ATOM     27  H   UNL     1      -5.301  -9.044  11.156  1.00  0.00     0.293 HD
ENDBRANCH   8  26
TORSDOF 6
ENDMDL
