MODEL 1
REMARK VINA RESULT:    -3.749      0.000      0.000
REMARK INTER + INTRA:          -9.335
REMARK INTER:                  -7.036
REMARK INTRA:                  -2.299
REMARK UNBOUND:                -2.299
REMARK SMILES O=C([O-])CCCCCCCCCCCCCCC(=O)[O-]
REMARK SMILES IDX 10 1 9 2 8 3 7 4 6 5 5 6 4 7 2 8 1 9 3 10 11 11 12 12 13 13
REMARK SMILES IDX 14 14 15 15 16 16 17 17 18 18 19 19 20 20
REMARK H PARENT
REMARK Flexibility Score: inf
ROOT
ATOM      1  C   UNL     1     -12.086  -8.156  25.590  1.00  0.00     0.000 C 
ENDROOT
BRANCH   1   2
ATOM      2  C   UNL     1     -12.974  -9.178  24.865  1.00  0.00     0.000 C 
BRANCH   2   3
ATOM      3  C   UNL     1     -14.461  -8.826  25.030  1.00  0.00     0.000 C 
BRANCH   3   4
ATOM      4  C   UNL     1     -14.689  -7.656  26.001  1.00  0.00     0.000 C 
BRANCH   4   5
ATOM      5  C   UNL     1     -15.458  -6.493  25.356  1.00  0.00     0.000 C 
BRANCH   5   6
ATOM      6  C   UNL     1     -14.539  -5.667  24.444  1.00  0.00     0.006 C 
BRANCH   6   7
ATOM      7  C   UNL     1     -15.018  -5.663  22.986  1.00  0.00     0.053 C 
BRANCH   7   8
ATOM      8  C   UNL     1     -14.062  -6.386  22.087  1.00  0.00     0.041 C 
ATOM      9  O   UNL     1     -12.891  -6.636  22.476  1.00  0.00    -0.550 OA
ATOM     10  O   UNL     1     -14.455  -6.754  20.807  1.00  0.00    -0.550 OA
ENDBRANCH   7   8
ENDBRANCH   6   7
ENDBRANCH   5   6
ENDBRANCH   4   5
ENDBRANCH   3   4
ENDBRANCH   2   3
ENDBRANCH   1   2
BRANCH   1  11
ATOM     11  C   UNL     1     -11.204  -8.791  26.682  1.00  0.00     0.000 C 
BRANCH  11  12
ATOM     12  C   UNL     1     -11.523  -8.350  28.122  1.00  0.00     0.000 C 
BRANCH  12  13
ATOM     13  C   UNL     1     -12.005  -9.509  29.011  1.00  0.00     0.000 C 
BRANCH  13  14
ATOM     14  C   UNL     1     -12.324 -10.786  28.213  1.00  0.00     0.000 C 
BRANCH  14  15
ATOM     15  C   UNL     1     -13.823 -11.089  28.031  1.00  0.00     0.000 C 
BRANCH  15  16
ATOM     16  C   UNL     1     -14.095 -12.146  26.945  1.00  0.00     0.006 C 
BRANCH  16  17
ATOM     17  C   UNL     1     -12.827 -12.514  26.164  1.00  0.00     0.053 C 
BRANCH  17  18
ATOM     18  C   UNL     1     -12.536 -13.982  26.241  1.00  0.00     0.041 C 
ATOM     19  O   UNL     1     -12.394 -14.655  25.187  1.00  0.00    -0.550 OA
ATOM     20  O   UNL     1     -12.456 -14.613  27.476  1.00  0.00    -0.550 OA
ENDBRANCH  17  18
ENDBRANCH  16  17
ENDBRANCH  15  16
ENDBRANCH  14  15
ENDBRANCH  13  14
ENDBRANCH  12  13
ENDBRANCH  11  12
ENDBRANCH   1  11
TORSDOF 15
ENDMDL
MODEL 2
REMARK VINA RESULT:    -3.719      3.631      5.753
REMARK INTER + INTRA:          -9.280
REMARK INTER:                  -6.652
REMARK INTRA:                  -2.628
REMARK UNBOUND:                -2.299
REMARK SMILES O=C([O-])CCCCCCCCCCCCCCC(=O)[O-]
REMARK SMILES IDX 10 1 9 2 8 3 7 4 6 5 5 6 4 7 2 8 1 9 3 10 11 11 12 12 13 13
REMARK SMILES IDX 14 14 15 15 16 16 17 17 18 18 19 19 20 20
REMARK H PARENT
REMARK Flexibility Score: inf
ROOT
ATOM      1  C   UNL     1     -14.510  -9.330  26.704  1.00  0.00     0.000 C 
ENDROOT
BRANCH   1   2
ATOM      2  C   UNL     1     -14.336 -10.584  25.834  1.00  0.00     0.000 C 
BRANCH   2   3
ATOM      3  C   UNL     1     -14.226 -11.845  26.706  1.00  0.00     0.000 C 
BRANCH   3   4
ATOM      4  C   UNL     1     -13.874 -11.526  28.167  1.00  0.00     0.000 C 
BRANCH   4   5
ATOM      5  C   UNL     1     -12.893 -12.540  28.776  1.00  0.00     0.000 C 
BRANCH   5   6
ATOM      6  C   UNL     1     -12.193 -11.953  30.009  1.00  0.00     0.006 C 
BRANCH   6   7
ATOM      7  C   UNL     1     -12.589 -10.492  30.262  1.00  0.00     0.053 C 
BRANCH   7   8
ATOM      8  C   UNL     1     -11.503  -9.737  30.965  1.00  0.00     0.041 C 
ATOM      9  O   UNL     1     -11.371  -8.498  30.783  1.00  0.00    -0.550 OA
ATOM     10  O   UNL     1     -10.615 -10.408  31.796  1.00  0.00    -0.550 OA
ENDBRANCH   7   8
ENDBRANCH   6   7
ENDBRANCH   5   6
ENDBRANCH   4   5
ENDBRANCH   3   4
ENDBRANCH   2   3
ENDBRANCH   1   2
BRANCH   1  11
ATOM     11  C   UNL     1     -13.577  -8.176  26.292  1.00  0.00     0.000 C 
BRANCH  11  12
ATOM     12  C   UNL     1     -12.139  -8.591  25.931  1.00  0.00     0.000 C 
BRANCH  12  13
ATOM     13  C   UNL     1     -11.271  -8.881  27.168  1.00  0.00     0.000 C 
BRANCH  13  14
ATOM     14  C   UNL     1     -10.548 -10.238  27.090  1.00  0.00     0.000 C 
BRANCH  14  15
ATOM     15  C   UNL     1     -10.639 -10.953  25.729  1.00  0.00     0.000 C 
BRANCH  15  16
ATOM     16  C   UNL     1     -10.705 -12.485  25.858  1.00  0.00     0.006 C 
BRANCH  16  17
ATOM     17  C   UNL     1     -10.814 -13.178  24.494  1.00  0.00     0.053 C 
BRANCH  17  18
ATOM     18  C   UNL     1     -10.756 -14.669  24.623  1.00  0.00     0.041 C 
ATOM     19  O   UNL     1     -11.640 -15.283  25.278  1.00  0.00    -0.550 OA
ATOM     20  O   UNL     1      -9.707 -15.379  24.052  1.00  0.00    -0.550 OA
ENDBRANCH  17  18
ENDBRANCH  16  17
ENDBRANCH  15  16
ENDBRANCH  14  15
ENDBRANCH  13  14
ENDBRANCH  12  13
ENDBRANCH  11  12
ENDBRANCH   1  11
TORSDOF 15
ENDMDL
MODEL 3
REMARK VINA RESULT:    -3.702      3.372      7.006
REMARK INTER + INTRA:          -9.247
REMARK INTER:                  -7.046
REMARK INTRA:                  -2.201
REMARK UNBOUND:                -2.299
REMARK SMILES O=C([O-])CCCCCCCCCCCCCCC(=O)[O-]
REMARK SMILES IDX 10 1 9 2 8 3 7 4 6 5 5 6 4 7 2 8 1 9 3 10 11 11 12 12 13 13
REMARK SMILES IDX 14 14 15 15 16 16 17 17 18 18 19 19 20 20
REMARK H PARENT
REMARK Flexibility Score: inf
ROOT
ATOM      1  C   UNL     1     -13.876 -12.004  27.450  1.00  0.00     0.000 C 
ENDROOT
BRANCH   1   2
ATOM      2  C   UNL     1     -12.661 -12.942  27.399  1.00  0.00     0.000 C 
BRANCH   2   3
ATOM      3  C   UNL     1     -11.666 -12.493  26.317  1.00  0.00     0.000 C 
BRANCH   3   4
ATOM      4  C   UNL     1     -10.977 -13.676  25.618  1.00  0.00     0.000 C 
BRANCH   4   5
ATOM      5  C   UNL     1     -11.154 -14.998  26.380  1.00  0.00     0.000 C 
BRANCH   5   6
ATOM      6  C   UNL     1     -11.934 -16.017  25.536  1.00  0.00     0.006 C 
BRANCH   6   7
ATOM      7  C   UNL     1     -13.268 -16.410  26.186  1.00  0.00     0.053 C 
BRANCH   7   8
ATOM      8  C   UNL     1     -14.435 -15.818  25.459  1.00  0.00     0.041 C 
ATOM      9  O   UNL     1     -14.294 -14.764  24.782  1.00  0.00    -0.550 OA
ATOM     10  O   UNL     1     -15.688 -16.411  25.554  1.00  0.00    -0.550 OA
ENDBRANCH   7   8
ENDBRANCH   6   7
ENDBRANCH   5   6
ENDBRANCH   4   5
ENDBRANCH   3   4
ENDBRANCH   2   3
ENDBRANCH   1   2
BRANCH   1  11
ATOM     11  C   UNL     1     -14.272 -11.455  26.066  1.00  0.00     0.000 C 
BRANCH  11  12
ATOM     12  C   UNL     1     -15.081 -10.145  26.086  1.00  0.00     0.000 C 
BRANCH  12  13
ATOM     13  C   UNL     1     -14.407  -9.011  25.296  1.00  0.00     0.000 C 
BRANCH  13  14
ATOM     14  C   UNL     1     -12.904  -9.254  25.062  1.00  0.00     0.000 C 
BRANCH  14  15
ATOM     15  C   UNL     1     -11.964  -8.217  25.704  1.00  0.00     0.000 C 
BRANCH  15  16
ATOM     16  C   UNL     1     -11.238  -8.755  26.950  1.00  0.00     0.006 C 
BRANCH  16  17
ATOM     17  C   UNL     1     -12.174  -8.872  28.160  1.00  0.00     0.053 C 
BRANCH  17  18
ATOM     18  C   UNL     1     -11.468  -9.439  29.354  1.00  0.00     0.041 C 
ATOM     19  O   UNL     1     -11.442  -8.799  30.437  1.00  0.00    -0.550 OA
ATOM     20  O   UNL     1     -10.809 -10.659  29.259  1.00  0.00    -0.550 OA
ENDBRANCH  17  18
ENDBRANCH  16  17
ENDBRANCH  15  16
ENDBRANCH  14  15
ENDBRANCH  13  14
ENDBRANCH  12  13
ENDBRANCH  11  12
ENDBRANCH   1  11
TORSDOF 15
ENDMDL
MODEL 4
REMARK VINA RESULT:    -3.693      2.654      4.585
REMARK INTER + INTRA:          -9.230
REMARK INTER:                  -6.494
REMARK INTRA:                  -2.736
REMARK UNBOUND:                -2.299
REMARK SMILES O=C([O-])CCCCCCCCCCCCCCC(=O)[O-]
REMARK SMILES IDX 10 1 9 2 8 3 7 4 6 5 5 6 4 7 2 8 1 9 3 10 11 11 12 12 13 13
REMARK SMILES IDX 14 14 15 15 16 16 17 17 18 18 19 19 20 20
REMARK H PARENT
REMARK Flexibility Score: inf
ROOT
ATOM      1  C   UNL     1     -11.206  -8.400  26.890  1.00  0.00     0.000 C 
ENDROOT
BRANCH   1   2
ATOM      2  C   UNL     1     -12.186  -8.574  25.720  1.00  0.00     0.000 C 
BRANCH   2   3
ATOM      3  C   UNL     1     -13.615  -8.194  26.141  1.00  0.00     0.000 C 
BRANCH   3   4
ATOM      4  C   UNL     1     -14.681  -9.096  25.500  1.00  0.00     0.000 C 
BRANCH   4   5
ATOM      5  C   UNL     1     -14.743 -10.490  26.143  1.00  0.00     0.000 C 
BRANCH   5   6
ATOM      6  C   UNL     1     -14.301 -11.573  25.149  1.00  0.00     0.006 C 
BRANCH   6   7
ATOM      7  C   UNL     1     -14.647 -12.986  25.637  1.00  0.00     0.053 C 
BRANCH   7   8
ATOM      8  C   UNL     1     -13.732 -14.016  25.048  1.00  0.00     0.041 C 
ATOM      9  O   UNL     1     -13.013 -14.729  25.796  1.00  0.00    -0.550 OA
ATOM     10  O   UNL     1     -13.650 -14.165  23.669  1.00  0.00    -0.550 OA
ENDBRANCH   7   8
ENDBRANCH   6   7
ENDBRANCH   5   6
ENDBRANCH   4   5
ENDBRANCH   3   4
ENDBRANCH   2   3
ENDBRANCH   1   2
BRANCH   1  11
ATOM     11  C   UNL     1     -11.895  -8.445  28.267  1.00  0.00     0.000 C 
BRANCH  11  12
ATOM     12  C   UNL     1     -11.559  -9.675  29.130  1.00  0.00     0.000 C 
BRANCH  12  13
ATOM     13  C   UNL     1     -12.591 -10.806  28.991  1.00  0.00     0.000 C 
BRANCH  13  14
ATOM     14  C   UNL     1     -12.046 -12.025  28.223  1.00  0.00     0.000 C 
BRANCH  14  15
ATOM     15  C   UNL     1     -10.576 -11.916  27.778  1.00  0.00     0.000 C 
BRANCH  15  16
ATOM     16  C   UNL     1     -10.302 -12.614  26.434  1.00  0.00     0.006 C 
BRANCH  16  17
ATOM     17  C   UNL     1     -10.203 -11.617  25.272  1.00  0.00     0.053 C 
BRANCH  17  18
ATOM     18  C   UNL     1     -10.650 -12.226  23.979  1.00  0.00     0.041 C 
ATOM     19  O   UNL     1     -11.352 -11.559  23.174  1.00  0.00    -0.550 OA
ATOM     20  O   UNL     1     -10.322 -13.542  23.678  1.00  0.00    -0.550 OA
ENDBRANCH  17  18
ENDBRANCH  16  17
ENDBRANCH  15  16
ENDBRANCH  14  15
ENDBRANCH  13  14
ENDBRANCH  12  13
ENDBRANCH  11  12
ENDBRANCH   1  11
TORSDOF 15
ENDMDL
MODEL 5
REMARK VINA RESULT:    -3.656      3.492      5.372
REMARK INTER + INTRA:          -9.160
REMARK INTER:                  -6.690
REMARK INTRA:                  -2.470
REMARK UNBOUND:                -2.299
REMARK SMILES O=C([O-])CCCCCCCCCCCCCCC(=O)[O-]
REMARK SMILES IDX 10 1 9 2 8 3 7 4 6 5 5 6 4 7 2 8 1 9 3 10 11 11 12 12 13 13
REMARK SMILES IDX 14 14 15 15 16 16 17 17 18 18 19 19 20 20
REMARK H PARENT
REMARK Flexibility Score: inf
ROOT
ATOM      1  C   UNL     1     -14.308  -8.496  26.784  1.00  0.00     0.000 C 
ENDROOT
BRANCH   1   2
ATOM      2  C   UNL     1     -13.666  -7.747  25.607  1.00  0.00     0.000 C 
BRANCH   2   3
ATOM      3  C   UNL     1     -12.183  -8.124  25.461  1.00  0.00     0.000 C 
BRANCH   3   4
ATOM      4  C   UNL     1     -11.533  -8.503  26.802  1.00  0.00     0.000 C 
BRANCH   4   5
ATOM      5  C   UNL     1     -10.877  -9.892  26.770  1.00  0.00     0.000 C 
BRANCH   5   6
ATOM      6  C   UNL     1     -10.932 -10.556  28.154  1.00  0.00     0.006 C 
BRANCH   6   7
ATOM      7  C   UNL     1     -11.825  -9.784  29.134  1.00  0.00     0.053 C 
BRANCH   7   8
ATOM      8  C   UNL     1     -12.557 -10.705  30.061  1.00  0.00     0.041 C 
ATOM      9  O   UNL     1     -11.944 -11.280  30.999  1.00  0.00    -0.550 OA
ATOM     10  O   UNL     1     -13.909 -10.954  29.868  1.00  0.00    -0.550 OA
ENDBRANCH   7   8
ENDBRANCH   6   7
ENDBRANCH   5   6
ENDBRANCH   4   5
ENDBRANCH   3   4
ENDBRANCH   2   3
ENDBRANCH   1   2
BRANCH   1  11
ATOM     11  C   UNL     1     -15.112  -9.734  26.344  1.00  0.00     0.000 C 
BRANCH  11  12
ATOM     12  C   UNL     1     -14.358 -11.074  26.439  1.00  0.00     0.000 C 
BRANCH  12  13
ATOM     13  C   UNL     1     -13.759 -11.520  25.094  1.00  0.00     0.000 C 
BRANCH  13  14
ATOM     14  C   UNL     1     -12.764 -12.687  25.238  1.00  0.00     0.000 C 
BRANCH  14  15
ATOM     15  C   UNL     1     -12.942 -13.549  26.501  1.00  0.00     0.000 C 
BRANCH  15  16
ATOM     16  C   UNL     1     -11.605 -14.022  27.099  1.00  0.00     0.006 C 
BRANCH  16  17
ATOM     17  C   UNL     1     -10.533 -14.239  26.023  1.00  0.00     0.053 C 
BRANCH  17  18
ATOM     18  C   UNL     1     -10.537 -15.648  25.513  1.00  0.00     0.041 C 
ATOM     19  O   UNL     1     -11.231 -15.956  24.509  1.00  0.00    -0.550 OA
ATOM     20  O   UNL     1      -9.803 -16.629  26.169  1.00  0.00    -0.550 OA
ENDBRANCH  17  18
ENDBRANCH  16  17
ENDBRANCH  15  16
ENDBRANCH  14  15
ENDBRANCH  13  14
ENDBRANCH  12  13
ENDBRANCH  11  12
ENDBRANCH   1  11
TORSDOF 15
ENDMDL
MODEL 6
REMARK VINA RESULT:    -3.649      1.496      1.684
REMARK INTER + INTRA:          -9.148
REMARK INTER:                  -7.059
REMARK INTRA:                  -2.089
REMARK UNBOUND:                -2.299
REMARK SMILES O=C([O-])CCCCCCCCCCCCCCC(=O)[O-]
REMARK SMILES IDX 10 1 9 2 8 3 7 4 6 5 5 6 4 7 2 8 1 9 3 10 11 11 12 12 13 13
REMARK SMILES IDX 14 14 15 15 16 16 17 17 18 18 19 19 20 20
REMARK H PARENT
REMARK Flexibility Score: inf
ROOT
ATOM      1  C   UNL     1     -12.528  -8.234  25.839  1.00  0.00     0.000 C 
ENDROOT
BRANCH   1   2
ATOM      2  C   UNL     1     -13.917  -8.230  26.494  1.00  0.00     0.000 C 
BRANCH   2   3
ATOM      3  C   UNL     1     -15.011  -7.924  25.458  1.00  0.00     0.000 C 
BRANCH   3   4
ATOM      4  C   UNL     1     -15.772  -6.625  25.766  1.00  0.00     0.000 C 
BRANCH   4   5
ATOM      5  C   UNL     1     -15.765  -5.641  24.586  1.00  0.00     0.000 C 
BRANCH   5   6
ATOM      6  C   UNL     1     -14.373  -5.568  23.940  1.00  0.00     0.006 C 
BRANCH   6   7
ATOM      7  C   UNL     1     -14.445  -5.529  22.408  1.00  0.00     0.053 C 
BRANCH   7   8
ATOM      8  C   UNL     1     -13.883  -6.776  21.795  1.00  0.00     0.041 C 
ATOM      9  O   UNL     1     -13.086  -7.500  22.448  1.00  0.00    -0.550 OA
ATOM     10  O   UNL     1     -14.215  -7.119  20.491  1.00  0.00    -0.550 OA
ENDBRANCH   7   8
ENDBRANCH   6   7
ENDBRANCH   5   6
ENDBRANCH   4   5
ENDBRANCH   3   4
ENDBRANCH   2   3
ENDBRANCH   1   2
BRANCH   1  11
ATOM     11  C   UNL     1     -11.393  -8.543  26.834  1.00  0.00     0.000 C 
BRANCH  11  12
ATOM     12  C   UNL     1     -11.748  -8.336  28.319  1.00  0.00     0.000 C 
BRANCH  12  13
ATOM     13  C   UNL     1     -11.596  -9.618  29.155  1.00  0.00     0.000 C 
BRANCH  13  14
ATOM     14  C   UNL     1     -11.862 -10.899  28.344  1.00  0.00     0.000 C 
BRANCH  14  15
ATOM     15  C   UNL     1     -13.329 -11.367  28.318  1.00  0.00     0.000 C 
BRANCH  15  16
ATOM     16  C   UNL     1     -13.753 -11.939  26.954  1.00  0.00     0.006 C 
BRANCH  16  17
ATOM     17  C   UNL     1     -12.571 -12.062  25.984  1.00  0.00     0.053 C 
BRANCH  17  18
ATOM     18  C   UNL     1     -12.966 -11.711  24.582  1.00  0.00     0.041 C 
ATOM     19  O   UNL     1     -12.142 -11.846  23.639  1.00  0.00    -0.550 OA
ATOM     20  O   UNL     1     -14.232 -11.200  24.321  1.00  0.00    -0.550 OA
ENDBRANCH  17  18
ENDBRANCH  16  17
ENDBRANCH  15  16
ENDBRANCH  14  15
ENDBRANCH  13  14
ENDBRANCH  12  13
ENDBRANCH  11  12
ENDBRANCH   1  11
TORSDOF 15
ENDMDL
MODEL 7
REMARK VINA RESULT:    -3.641      1.575      3.645
REMARK INTER + INTRA:          -9.132
REMARK INTER:                  -6.410
REMARK INTRA:                  -2.722
REMARK UNBOUND:                -2.299
REMARK SMILES O=C([O-])CCCCCCCCCCCCCCC(=O)[O-]
REMARK SMILES IDX 10 1 9 2 8 3 7 4 6 5 5 6 4 7 2 8 1 9 3 10 11 11 12 12 13 13
REMARK SMILES IDX 14 14 15 15 16 16 17 17 18 18 19 19 20 20
REMARK H PARENT
REMARK Flexibility Score: inf
ROOT
ATOM      1  C   UNL     1     -13.401 -11.231  27.908  1.00  0.00     0.000 C 
ENDROOT
BRANCH   1   2
ATOM      2  C   UNL     1     -11.917 -11.547  28.143  1.00  0.00     0.000 C 
BRANCH   2   3
ATOM      3  C   UNL     1     -11.050 -10.295  27.935  1.00  0.00     0.000 C 
BRANCH   3   4
ATOM      4  C   UNL     1     -11.887  -9.018  27.754  1.00  0.00     0.000 C 
BRANCH   4   5
ATOM      5  C   UNL     1     -11.572  -8.285  26.440  1.00  0.00     0.000 C 
BRANCH   5   6
ATOM      6  C   UNL     1     -12.864  -7.897  25.707  1.00  0.00     0.006 C 
BRANCH   6   7
ATOM      7  C   UNL     1     -12.599  -7.443  24.265  1.00  0.00     0.053 C 
BRANCH   7   8
ATOM      8  C   UNL     1     -13.673  -6.526  23.766  1.00  0.00     0.041 C 
ATOM      9  O   UNL     1     -14.036  -6.569  22.561  1.00  0.00    -0.550 OA
ATOM     10  O   UNL     1     -14.251  -5.600  24.626  1.00  0.00    -0.550 OA
ENDBRANCH   7   8
ENDBRANCH   6   7
ENDBRANCH   5   6
ENDBRANCH   4   5
ENDBRANCH   3   4
ENDBRANCH   2   3
ENDBRANCH   1   2
BRANCH   1  11
ATOM     11  C   UNL     1     -14.021 -12.061  26.768  1.00  0.00     0.000 C 
BRANCH  11  12
ATOM     12  C   UNL     1     -14.120 -11.342  25.410  1.00  0.00     0.000 C 
BRANCH  12  13
ATOM     13  C   UNL     1     -13.169 -11.926  24.352  1.00  0.00     0.000 C 
BRANCH  13  14
ATOM     14  C   UNL     1     -11.810 -11.203  24.301  1.00  0.00     0.000 C 
BRANCH  14  15
ATOM     15  C   UNL     1     -10.598 -12.055  24.718  1.00  0.00     0.000 C 
BRANCH  15  16
ATOM     16  C   UNL     1     -10.851 -13.567  24.584  1.00  0.00     0.006 C 
BRANCH  16  17
ATOM     17  C   UNL     1     -10.752 -14.294  25.931  1.00  0.00     0.053 C 
BRANCH  17  18
ATOM     18  C   UNL     1     -12.014 -15.031  26.258  1.00  0.00     0.041 C 
ATOM     19  O   UNL     1     -12.749 -15.469  25.334  1.00  0.00    -0.550 OA
ATOM     20  O   UNL     1     -12.398 -15.204  27.582  1.00  0.00    -0.550 OA
ENDBRANCH  17  18
ENDBRANCH  16  17
ENDBRANCH  15  16
ENDBRANCH  14  15
ENDBRANCH  13  14
ENDBRANCH  12  13
ENDBRANCH  11  12
ENDBRANCH   1  11
TORSDOF 15
ENDMDL
MODEL 8
REMARK VINA RESULT:    -3.634      3.029      5.759
REMARK INTER + INTRA:          -9.120
REMARK INTER:                  -6.454
REMARK INTRA:                  -2.667
REMARK UNBOUND:                -2.299
REMARK SMILES O=C([O-])CCCCCCCCCCCCCCC(=O)[O-]
REMARK SMILES IDX 10 1 9 2 8 3 7 4 6 5 5 6 4 7 2 8 1 9 3 10 11 11 12 12 13 13
REMARK SMILES IDX 14 14 15 15 16 16 17 17 18 18 19 19 20 20
REMARK H PARENT
REMARK Flexibility Score: inf
ROOT
ATOM      1  C   UNL     1     -12.833 -12.617  27.242  1.00  0.00     0.000 C 
ENDROOT
BRANCH   1   2
ATOM      2  C   UNL     1     -12.685 -13.799  26.273  1.00  0.00     0.000 C 
BRANCH   2   3
ATOM      3  C   UNL     1     -11.235 -13.927  25.781  1.00  0.00     0.000 C 
BRANCH   3   4
ATOM      4  C   UNL     1     -10.411 -12.654  26.031  1.00  0.00     0.000 C 
BRANCH   4   5
ATOM      5  C   UNL     1     -10.193 -11.829  24.753  1.00  0.00     0.000 C 
BRANCH   5   6
ATOM      6  C   UNL     1     -10.542 -12.650  23.504  1.00  0.00     0.006 C 
BRANCH   6   7
ATOM      7  C   UNL     1     -11.729 -12.058  22.732  1.00  0.00     0.053 C 
BRANCH   7   8
ATOM      8  C   UNL     1     -12.783 -13.088  22.461  1.00  0.00     0.041 C 
ATOM      9  O   UNL     1     -12.479 -14.309  22.414  1.00  0.00    -0.550 OA
ATOM     10  O   UNL     1     -14.095 -12.695  22.229  1.00  0.00    -0.550 OA
ENDBRANCH   7   8
ENDBRANCH   6   7
ENDBRANCH   5   6
ENDBRANCH   4   5
ENDBRANCH   3   4
ENDBRANCH   2   3
ENDBRANCH   1   2
BRANCH   1  11
ATOM     11  C   UNL     1     -14.063 -11.740  26.940  1.00  0.00     0.000 C 
BRANCH  11  12
ATOM     12  C   UNL     1     -14.164 -11.228  25.491  1.00  0.00     0.000 C 
BRANCH  12  13
ATOM     13  C   UNL     1     -14.085  -9.695  25.390  1.00  0.00     0.000 C 
BRANCH  13  14
ATOM     14  C   UNL     1     -12.724  -9.197  24.869  1.00  0.00     0.000 C 
BRANCH  14  15
ATOM     15  C   UNL     1     -11.947  -8.282  25.834  1.00  0.00     0.000 C 
BRANCH  15  16
ATOM     16  C   UNL     1     -11.216  -9.060  26.942  1.00  0.00     0.006 C 
BRANCH  16  17
ATOM     17  C   UNL     1     -11.794  -8.769  28.333  1.00  0.00     0.053 C 
BRANCH  17  18
ATOM     18  C   UNL     1     -11.559  -9.905  29.280  1.00  0.00     0.041 C 
ATOM     19  O   UNL     1     -12.308 -10.061  30.281  1.00  0.00    -0.550 OA
ATOM     20  O   UNL     1     -10.491 -10.772  29.079  1.00  0.00    -0.550 OA
ENDBRANCH  17  18
ENDBRANCH  16  17
ENDBRANCH  15  16
ENDBRANCH  14  15
ENDBRANCH  13  14
ENDBRANCH  12  13
ENDBRANCH  11  12
ENDBRANCH   1  11
TORSDOF 15
ENDMDL
MODEL 9
REMARK VINA RESULT:    -3.628      2.575      4.476
REMARK INTER + INTRA:          -9.108
REMARK INTER:                  -7.001
REMARK INTRA:                  -2.107
REMARK UNBOUND:                -2.299
REMARK SMILES O=C([O-])CCCCCCCCCCCCCCC(=O)[O-]
REMARK SMILES IDX 10 1 9 2 8 3 7 4 6 5 5 6 4 7 2 8 1 9 3 10 11 11 12 12 13 13
REMARK SMILES IDX 14 14 15 15 16 16 17 17 18 18 19 19 20 20
REMARK H PARENT
REMARK Flexibility Score: inf
ROOT
ATOM      1  C   UNL     1     -15.576  -5.692  25.104  1.00  0.00     0.000 C 
ENDROOT
BRANCH   1   2
ATOM      2  C   UNL     1     -14.263  -5.587  24.313  1.00  0.00     0.000 C 
BRANCH   2   3
ATOM      3  C   UNL     1     -14.498  -5.868  22.820  1.00  0.00     0.000 C 
BRANCH   3   4
ATOM      4  C   UNL     1     -13.852  -7.183  22.357  1.00  0.00     0.000 C 
BRANCH   4   5
ATOM      5  C   UNL     1     -14.862  -8.338  22.264  1.00  0.00     0.000 C 
BRANCH   5   6
ATOM      6  C   UNL     1     -14.217  -9.581  21.633  1.00  0.00     0.006 C 
BRANCH   6   7
ATOM      7  C   UNL     1     -12.944  -9.239  20.847  1.00  0.00     0.053 C 
BRANCH   7   8
ATOM      8  C   UNL     1     -13.165  -9.326  19.368  1.00  0.00     0.041 C 
ATOM      9  O   UNL     1     -13.986  -8.557  18.802  1.00  0.00    -0.550 OA
ATOM     10  O   UNL     1     -12.489 -10.281  18.619  1.00  0.00    -0.550 OA
ENDBRANCH   7   8
ENDBRANCH   6   7
ENDBRANCH   5   6
ENDBRANCH   4   5
ENDBRANCH   3   4
ENDBRANCH   2   3
ENDBRANCH   1   2
BRANCH   1  11
ATOM     11  C   UNL     1     -15.951  -7.142  25.460  1.00  0.00     0.000 C 
BRANCH  11  12
ATOM     12  C   UNL     1     -15.032  -7.825  26.490  1.00  0.00     0.000 C 
BRANCH  12  13
ATOM     13  C   UNL     1     -14.664  -9.267  26.103  1.00  0.00     0.000 C 
BRANCH  13  14
ATOM     14  C   UNL     1     -13.290  -9.372  25.414  1.00  0.00     0.000 C 
BRANCH  14  15
ATOM     15  C   UNL     1     -12.304  -8.235  25.740  1.00  0.00     0.000 C 
BRANCH  15  16
ATOM     16  C   UNL     1     -11.234  -8.644  26.767  1.00  0.00     0.006 C 
BRANCH  16  17
ATOM     17  C   UNL     1     -11.624  -8.252  28.198  1.00  0.00     0.053 C 
BRANCH  17  18
ATOM     18  C   UNL     1     -11.660  -9.441  29.109  1.00  0.00     0.041 C 
ATOM     19  O   UNL     1     -11.732 -10.603  28.630  1.00  0.00    -0.550 OA
ATOM     20  O   UNL     1     -11.651  -9.265  30.487  1.00  0.00    -0.550 OA
ENDBRANCH  17  18
ENDBRANCH  16  17
ENDBRANCH  15  16
ENDBRANCH  14  15
ENDBRANCH  13  14
ENDBRANCH  12  13
ENDBRANCH  11  12
ENDBRANCH   1  11
TORSDOF 15
ENDMDL
