MODEL 1
REMARK VINA RESULT:    -4.445      0.000      0.000
REMARK INTER + INTRA:          -5.141
REMARK INTER:                  -5.095
REMARK INTRA:                  -0.047
REMARK UNBOUND:                -0.047
REMARK SMILES O=C([O-])c1cc(O)c(O)c(O)c1
REMARK SMILES IDX 4 1 5 2 12 3 6 4 10 5 8 6 2 7 1 8 3 9 7 10 11 12 9 14
REMARK H PARENT 7 11 11 13 9 15
REMARK Flexibility Score: inf
ROOT
ATOM      1  C   UNL     1      -6.884  -6.765  12.693  1.00  0.00     0.005 A 
ATOM      2  C   UNL     1      -7.981  -6.249  11.983  1.00  0.00     0.060 A 
ATOM      3  C   UNL     1      -5.596  -6.641  12.142  1.00  0.00     0.060 A 
ATOM      4  C   UNL     1      -7.798  -5.617  10.746  1.00  0.00     0.162 A 
ATOM      5  C   UNL     1      -5.407  -6.010  10.905  1.00  0.00     0.162 A 
ATOM      6  C   UNL     1      -6.511  -5.496  10.204  1.00  0.00     0.200 A 
ENDROOT
BRANCH   1   7
ATOM      7  C   UNL     1      -7.086  -7.431  13.999  1.00  0.00     0.072 C 
ATOM      8  O   UNL     1      -7.624  -6.814  14.956  1.00  0.00    -0.545 OA
ATOM      9  O   UNL     1      -6.686  -8.749  14.187  1.00  0.00    -0.545 OA
ENDBRANCH   1   7
BRANCH   4  10
ATOM     10  O   UNL     1      -8.890  -5.106  10.047  1.00  0.00    -0.504 OA
ATOM     11  H   UNL     1      -8.773  -4.604   9.174  1.00  0.00     0.293 HD
ENDBRANCH   4  10
BRANCH   5  12
ATOM     12  O   UNL     1      -4.125  -5.892  10.369  1.00  0.00    -0.504 OA
ATOM     13  H   UNL     1      -3.767  -6.560   9.697  1.00  0.00     0.293 HD
ENDBRANCH   5  12
BRANCH   6  14
ATOM     14  O   UNL     1      -6.348  -4.865   8.971  1.00  0.00    -0.502 OA
ATOM     15  H   UNL     1      -5.484  -4.925   8.446  1.00  0.00     0.293 HD
ENDBRANCH   6  14
TORSDOF 4
ENDMDL
MODEL 2
REMARK VINA RESULT:    -4.432      0.052      2.595
REMARK INTER + INTRA:          -5.127
REMARK INTER:                  -5.080
REMARK INTRA:                  -0.047
REMARK UNBOUND:                -0.047
REMARK SMILES O=C([O-])c1cc(O)c(O)c(O)c1
REMARK SMILES IDX 4 1 5 2 12 3 6 4 10 5 8 6 2 7 1 8 3 9 7 10 11 12 9 14
REMARK H PARENT 7 11 11 13 9 15
REMARK Flexibility Score: inf
ROOT
ATOM      1  C   UNL     1      -6.874  -6.790  12.699  1.00  0.00     0.005 A 
ATOM      2  C   UNL     1      -5.591  -6.667  12.141  1.00  0.00     0.060 A 
ATOM      3  C   UNL     1      -7.975  -6.263  12.001  1.00  0.00     0.060 A 
ATOM      4  C   UNL     1      -5.408  -6.029  10.906  1.00  0.00     0.162 A 
ATOM      5  C   UNL     1      -7.798  -5.625  10.766  1.00  0.00     0.162 A 
ATOM      6  C   UNL     1      -6.510  -5.508  10.216  1.00  0.00     0.200 A 
ENDROOT
BRANCH   1   7
ATOM      7  C   UNL     1      -7.059  -7.463  14.004  1.00  0.00     0.072 C 
ATOM      8  O   UNL     1      -6.703  -8.662  14.162  1.00  0.00    -0.545 OA
ATOM      9  O   UNL     1      -7.627  -6.783  15.075  1.00  0.00    -0.545 OA
ENDBRANCH   1   7
BRANCH   4  10
ATOM     10  O   UNL     1      -4.133  -5.910  10.356  1.00  0.00    -0.504 OA
ATOM     11  H   UNL     1      -3.849  -5.080   9.849  1.00  0.00     0.293 HD
ENDBRANCH   4  10
BRANCH   5  12
ATOM     12  O   UNL     1      -8.897  -5.106  10.083  1.00  0.00    -0.504 OA
ATOM     13  H   UNL     1      -8.802  -4.679   9.170  1.00  0.00     0.293 HD
ENDBRANCH   5  12
BRANCH   6  14
ATOM     14  O   UNL     1      -6.309  -4.876   8.989  1.00  0.00    -0.502 OA
ATOM     15  H   UNL     1      -6.319  -5.385   8.113  1.00  0.00     0.293 HD
ENDBRANCH   6  14
TORSDOF 4
ENDMDL
MODEL 3
REMARK VINA RESULT:    -4.319     14.713     15.723
REMARK INTER + INTRA:          -4.997
REMARK INTER:                  -4.945
REMARK INTRA:                  -0.052
REMARK UNBOUND:                -0.047
REMARK SMILES O=C([O-])c1cc(O)c(O)c(O)c1
REMARK SMILES IDX 4 1 5 2 12 3 6 4 10 5 8 6 2 7 1 8 3 9 7 10 11 12 9 14
REMARK H PARENT 7 11 11 13 9 15
REMARK Flexibility Score: inf
ROOT
ATOM      1  C   UNL     1       1.018   7.351   9.415  1.00  0.00     0.005 A 
ATOM      2  C   UNL     1      -0.044   8.165   9.844  1.00  0.00     0.060 A 
ATOM      3  C   UNL     1       0.805   6.456   8.352  1.00  0.00     0.060 A 
ATOM      4  C   UNL     1      -1.298   8.089   9.222  1.00  0.00     0.162 A 
ATOM      5  C   UNL     1      -0.447   6.377   7.726  1.00  0.00     0.162 A 
ATOM      6  C   UNL     1      -1.502   7.196   8.162  1.00  0.00     0.200 A 
ENDROOT
BRANCH   1   7
ATOM      7  C   UNL     1       2.338   7.436  10.078  1.00  0.00     0.072 C 
ATOM      8  O   UNL     1       2.634   8.432  10.791  1.00  0.00    -0.545 OA
ATOM      9  O   UNL     1       3.271   6.417   9.923  1.00  0.00    -0.545 OA
ENDBRANCH   1   7
BRANCH   4  10
ATOM     10  O   UNL     1      -2.347   8.900   9.651  1.00  0.00    -0.504 OA
ATOM     11  H   UNL     1      -2.629   9.723   9.131  1.00  0.00     0.293 HD
ENDBRANCH   4  10
BRANCH   5  12
ATOM     12  O   UNL     1      -0.647   5.486   6.672  1.00  0.00    -0.504 OA
ATOM     13  H   UNL     1      -0.090   4.645   6.575  1.00  0.00     0.293 HD
ENDBRANCH   5  12
BRANCH   6  14
ATOM     14  O   UNL     1      -2.756   7.134   7.555  1.00  0.00    -0.502 OA
ATOM     15  H   UNL     1      -2.903   7.411   6.593  1.00  0.00     0.293 HD
ENDBRANCH   6  14
TORSDOF 4
ENDMDL
MODEL 4
REMARK VINA RESULT:    -4.314     14.704     15.887
REMARK INTER + INTRA:          -4.991
REMARK INTER:                  -4.939
REMARK INTRA:                  -0.052
REMARK UNBOUND:                -0.047
REMARK SMILES O=C([O-])c1cc(O)c(O)c(O)c1
REMARK SMILES IDX 4 1 5 2 12 3 6 4 10 5 8 6 2 7 1 8 3 9 7 10 11 12 9 14
REMARK H PARENT 7 11 11 13 9 15
REMARK Flexibility Score: inf
ROOT
ATOM      1  C   UNL     1       1.004   7.442   9.479  1.00  0.00     0.005 A 
ATOM      2  C   UNL     1       0.781   6.529   8.435  1.00  0.00     0.060 A 
ATOM      3  C   UNL     1      -0.056   8.260   9.908  1.00  0.00     0.060 A 
ATOM      4  C   UNL     1      -0.479   6.432   7.829  1.00  0.00     0.162 A 
ATOM      5  C   UNL     1      -1.319   8.166   9.305  1.00  0.00     0.162 A 
ATOM      6  C   UNL     1      -1.531   7.249   8.263  1.00  0.00     0.200 A 
ENDROOT
BRANCH   1   7
ATOM      7  C   UNL     1       2.337   7.539  10.114  1.00  0.00     0.072 C 
ATOM      8  O   UNL     1       3.196   6.633   9.942  1.00  0.00    -0.545 OA
ATOM      9  O   UNL     1       2.662   8.633  10.907  1.00  0.00    -0.545 OA
ENDBRANCH   1   7
BRANCH   4  10
ATOM     10  O   UNL     1      -0.695   5.524   6.793  1.00  0.00    -0.504 OA
ATOM     11  H   UNL     1      -0.015   4.807   6.566  1.00  0.00     0.293 HD
ENDBRANCH   4  10
BRANCH   5  12
ATOM     12  O   UNL     1      -2.362   8.982   9.740  1.00  0.00    -0.504 OA
ATOM     13  H   UNL     1      -3.245   9.025   9.244  1.00  0.00     0.293 HD
ENDBRANCH   5  12
BRANCH   6  14
ATOM     14  O   UNL     1      -2.778   7.139   7.647  1.00  0.00    -0.502 OA
ATOM     15  H   UNL     1      -3.045   7.723   6.864  1.00  0.00     0.293 HD
ENDBRANCH   6  14
TORSDOF 4
ENDMDL
MODEL 5
REMARK VINA RESULT:    -4.303      1.432      3.208
REMARK INTER + INTRA:          -4.979
REMARK INTER:                  -4.926
REMARK INTRA:                  -0.053
REMARK UNBOUND:                -0.047
REMARK SMILES O=C([O-])c1cc(O)c(O)c(O)c1
REMARK SMILES IDX 4 1 5 2 12 3 6 4 10 5 8 6 2 7 1 8 3 9 7 10 11 12 9 14
REMARK H PARENT 7 11 11 13 9 15
REMARK Flexibility Score: inf
ROOT
ATOM      1  C   UNL     1      -5.231  -6.600  11.730  1.00  0.00     0.005 A 
ATOM      2  C   UNL     1      -5.293  -5.997  10.462  1.00  0.00     0.060 A 
ATOM      3  C   UNL     1      -6.412  -6.726  12.483  1.00  0.00     0.060 A 
ATOM      4  C   UNL     1      -6.512  -5.530   9.953  1.00  0.00     0.162 A 
ATOM      5  C   UNL     1      -7.634  -6.261  11.977  1.00  0.00     0.162 A 
ATOM      6  C   UNL     1      -7.685  -5.661  10.708  1.00  0.00     0.200 A 
ENDROOT
BRANCH   1   7
ATOM      7  C   UNL     1      -3.941  -7.090  12.262  1.00  0.00     0.072 C 
ATOM      8  O   UNL     1      -3.899  -7.752  13.333  1.00  0.00    -0.545 OA
ATOM      9  O   UNL     1      -2.755  -6.829  11.585  1.00  0.00    -0.545 OA
ENDBRANCH   1   7
BRANCH   4  10
ATOM     10  O   UNL     1      -6.567  -4.933   8.694  1.00  0.00    -0.504 OA
ATOM     11  H   UNL     1      -7.437  -4.579   8.312  1.00  0.00     0.293 HD
ENDBRANCH   4  10
BRANCH   5  12
ATOM     12  O   UNL     1      -8.799  -6.392  12.733  1.00  0.00    -0.504 OA
ATOM     13  H   UNL     1      -9.707  -6.496  12.296  1.00  0.00     0.293 HD
ENDBRANCH   5  12
BRANCH   6  14
ATOM     14  O   UNL     1      -8.889  -5.189  10.185  1.00  0.00    -0.502 OA
ATOM     15  H   UNL     1      -9.135  -4.207  10.202  1.00  0.00     0.293 HD
ENDBRANCH   6  14
TORSDOF 4
ENDMDL
MODEL 6
REMARK VINA RESULT:    -4.284     14.631     16.055
REMARK INTER + INTRA:          -4.957
REMARK INTER:                  -4.904
REMARK INTRA:                  -0.053
REMARK UNBOUND:                -0.047
REMARK SMILES O=C([O-])c1cc(O)c(O)c(O)c1
REMARK SMILES IDX 4 1 5 2 12 3 6 4 10 5 8 6 2 7 1 8 3 9 7 10 11 12 9 14
REMARK H PARENT 7 11 11 13 9 15
REMARK Flexibility Score: inf
ROOT
ATOM      1  C   UNL     1      -0.115   8.421   9.744  1.00  0.00     0.005 A 
ATOM      2  C   UNL     1       0.967   7.797   9.102  1.00  0.00     0.060 A 
ATOM      3  C   UNL     1      -1.425   8.071   9.370  1.00  0.00     0.060 A 
ATOM      4  C   UNL     1       0.748   6.839   8.104  1.00  0.00     0.162 A 
ATOM      5  C   UNL     1      -1.649   7.112   8.372  1.00  0.00     0.162 A 
ATOM      6  C   UNL     1      -0.559   6.493   7.737  1.00  0.00     0.200 A 
ENDROOT
BRANCH   1   7
ATOM      7  C   UNL     1       0.124   9.433  10.797  1.00  0.00     0.072 C 
ATOM      8  O   UNL     1      -0.843   9.975  11.396  1.00  0.00    -0.545 OA
ATOM      9  O   UNL     1       1.419   9.800  11.141  1.00  0.00    -0.545 OA
ENDBRANCH   1   7
BRANCH   4  10
ATOM     10  O   UNL     1       1.826   6.222   7.470  1.00  0.00    -0.504 OA
ATOM     11  H   UNL     1       1.723   5.767   6.570  1.00  0.00     0.293 HD
ENDBRANCH   4  10
BRANCH   5  12
ATOM     12  O   UNL     1      -2.952   6.772   8.010  1.00  0.00    -0.504 OA
ATOM     13  H   UNL     1      -3.424   5.973   8.414  1.00  0.00     0.293 HD
ENDBRANCH   5  12
BRANCH   6  14
ATOM     14  O   UNL     1      -0.758   5.538   6.741  1.00  0.00    -0.502 OA
ATOM     15  H   UNL     1      -0.024   4.905   6.447  1.00  0.00     0.293 HD
ENDBRANCH   6  14
TORSDOF 4
ENDMDL
MODEL 7
REMARK VINA RESULT:    -4.274     14.642     15.882
REMARK INTER + INTRA:          -4.945
REMARK INTER:                  -4.893
REMARK INTRA:                  -0.053
REMARK UNBOUND:                -0.047
REMARK SMILES O=C([O-])c1cc(O)c(O)c(O)c1
REMARK SMILES IDX 4 1 5 2 12 3 6 4 10 5 8 6 2 7 1 8 3 9 7 10 11 12 9 14
REMARK H PARENT 7 11 11 13 9 15
REMARK Flexibility Score: inf
ROOT
ATOM      1  C   UNL     1      -0.127   8.441   9.771  1.00  0.00     0.005 A 
ATOM      2  C   UNL     1      -1.423   8.089   9.360  1.00  0.00     0.060 A 
ATOM      3  C   UNL     1       0.975   7.803   9.174  1.00  0.00     0.060 A 
ATOM      4  C   UNL     1      -1.619   7.118   8.370  1.00  0.00     0.162 A 
ATOM      5  C   UNL     1       0.784   6.831   8.182  1.00  0.00     0.162 A 
ATOM      6  C   UNL     1      -0.516   6.487   7.778  1.00  0.00     0.200 A 
ENDROOT
BRANCH   1   7
ATOM      7  C   UNL     1       0.072   9.468  10.819  1.00  0.00     0.072 C 
ATOM      8  O   UNL     1      -0.913   9.948  11.440  1.00  0.00    -0.545 OA
ATOM      9  O   UNL     1       1.349   9.916  11.133  1.00  0.00    -0.545 OA
ENDBRANCH   1   7
BRANCH   4  10
ATOM     10  O   UNL     1      -2.907   6.773   7.966  1.00  0.00    -0.504 OA
ATOM     11  H   UNL     1      -3.216   6.901   7.008  1.00  0.00     0.293 HD
ENDBRANCH   4  10
BRANCH   5  12
ATOM     12  O   UNL     1       1.885   6.205   7.597  1.00  0.00    -0.504 OA
ATOM     13  H   UNL     1       1.996   5.198   7.617  1.00  0.00     0.293 HD
ENDBRANCH   5  12
BRANCH   6  14
ATOM     14  O   UNL     1      -0.730   5.522   6.794  1.00  0.00    -0.502 OA
ATOM     15  H   UNL     1      -1.659   5.216   6.533  1.00  0.00     0.293 HD
ENDBRANCH   6  14
TORSDOF 4
ENDMDL
MODEL 8
REMARK VINA RESULT:    -4.266     14.649     15.709
REMARK INTER + INTRA:          -4.936
REMARK INTER:                  -4.891
REMARK INTRA:                  -0.046
REMARK UNBOUND:                -0.047
REMARK SMILES O=C([O-])c1cc(O)c(O)c(O)c1
REMARK SMILES IDX 4 1 5 2 12 3 6 4 10 5 8 6 2 7 1 8 3 9 7 10 11 12 9 14
REMARK H PARENT 7 11 11 13 9 15
REMARK Flexibility Score: inf
ROOT
ATOM      1  C   UNL     1      -2.191   8.183   8.451  1.00  0.00     0.005 A 
ATOM      2  C   UNL     1      -1.979   7.124   7.552  1.00  0.00     0.060 A 
ATOM      3  C   UNL     1      -1.175   8.516   9.364  1.00  0.00     0.060 A 
ATOM      4  C   UNL     1      -0.774   6.410   7.563  1.00  0.00     0.162 A 
ATOM      5  C   UNL     1       0.033   7.805   9.378  1.00  0.00     0.162 A 
ATOM      6  C   UNL     1       0.235   6.748   8.475  1.00  0.00     0.200 A 
ENDROOT
BRANCH   1   7
ATOM      7  C   UNL     1      -3.467   8.932   8.434  1.00  0.00     0.072 C 
ATOM      8  O   UNL     1      -3.505  10.124   8.027  1.00  0.00    -0.545 OA
ATOM      9  O   UNL     1      -4.644   8.331   8.866  1.00  0.00    -0.545 OA
ENDBRANCH   1   7
BRANCH   4  10
ATOM     10  O   UNL     1      -0.569   5.360   6.669  1.00  0.00    -0.504 OA
ATOM     11  H   UNL     1       0.116   4.634   6.850  1.00  0.00     0.293 HD
ENDBRANCH   4  10
BRANCH   5  12
ATOM     12  O   UNL     1       1.033   8.145  10.289  1.00  0.00    -0.504 OA
ATOM     13  H   UNL     1       0.996   9.005  10.822  1.00  0.00     0.293 HD
ENDBRANCH   5  12
BRANCH   6  14
ATOM     14  O   UNL     1       1.428   6.026   8.472  1.00  0.00    -0.502 OA
ATOM     15  H   UNL     1       1.571   5.220   9.068  1.00  0.00     0.293 HD
ENDBRANCH   6  14
TORSDOF 4
ENDMDL
MODEL 9
REMARK VINA RESULT:    -4.259     14.636     15.807
REMARK INTER + INTRA:          -4.928
REMARK INTER:                  -4.883
REMARK INTRA:                  -0.045
REMARK UNBOUND:                -0.047
REMARK SMILES O=C([O-])c1cc(O)c(O)c(O)c1
REMARK SMILES IDX 4 1 5 2 12 3 6 4 10 5 8 6 2 7 1 8 3 9 7 10 11 12 9 14
REMARK H PARENT 7 11 11 13 9 15
REMARK Flexibility Score: inf
ROOT
ATOM      1  C   UNL     1      -2.268   8.188   8.337  1.00  0.00     0.005 A 
ATOM      2  C   UNL     1      -1.300   8.570   9.282  1.00  0.00     0.060 A 
ATOM      3  C   UNL     1      -1.997   7.103   7.485  1.00  0.00     0.060 A 
ATOM      4  C   UNL     1      -0.083   7.880   9.375  1.00  0.00     0.162 A 
ATOM      5  C   UNL     1      -0.782   6.410   7.575  1.00  0.00     0.162 A 
ATOM      6  C   UNL     1       0.178   6.799   8.523  1.00  0.00     0.200 A 
ENDROOT
BRANCH   1   7
ATOM      7  C   UNL     1      -3.550   8.921   8.244  1.00  0.00     0.072 C 
ATOM      8  O   UNL     1      -4.570   8.507   8.857  1.00  0.00    -0.545 OA
ATOM      9  O   UNL     1      -3.646  10.077   7.479  1.00  0.00    -0.545 OA
ENDBRANCH   1   7
BRANCH   4  10
ATOM     10  O   UNL     1       0.873   8.263  10.314  1.00  0.00    -0.504 OA
ATOM     11  H   UNL     1       0.766   8.048  11.299  1.00  0.00     0.293 HD
ENDBRANCH   4  10
BRANCH   5  12
ATOM     12  O   UNL     1      -0.526   5.335   6.724  1.00  0.00    -0.504 OA
ATOM     13  H   UNL     1       0.200   5.377   6.018  1.00  0.00     0.293 HD
ENDBRANCH   5  12
BRANCH   6  14
ATOM     14  O   UNL     1       1.395   6.126   8.630  1.00  0.00    -0.502 OA
ATOM     15  H   UNL     1       1.552   5.404   9.323  1.00  0.00     0.293 HD
ENDBRANCH   6  14
TORSDOF 4
ENDMDL
