MODEL 1
REMARK VINA RESULT:    -0.752      0.000      0.000
REMARK INTER + INTRA:          -1.568
REMARK INTER:                  -1.103
REMARK INTRA:                  -0.465
REMARK UNBOUND:                -0.465
REMARK SMILES O=C([O-])CCCCCCCC(=O)[O-]
REMARK SMILES IDX 7 1 6 2 5 3 4 4 2 5 1 6 3 7 8 8 9 9 10 10 11 11 12 12 13 13
REMARK H PARENT
REMARK Flexibility Score: inf
ROOT
ATOM      1  C   UNL     1      31.517  22.574  28.772  1.00  0.00     0.000 C 
ENDROOT
BRANCH   1   2
ATOM      2  C   UNL     1      31.866  22.285  27.304  1.00  0.00     0.000 C 
BRANCH   2   3
ATOM      3  C   UNL     1      33.215  22.892  26.880  1.00  0.00     0.006 C 
BRANCH   3   4
ATOM      4  C   UNL     1      33.741  23.986  27.823  1.00  0.00     0.053 C 
BRANCH   4   5
ATOM      5  C   UNL     1      35.190  23.794  28.151  1.00  0.00     0.041 C 
ATOM      6  O   UNL     1      35.604  23.978  29.326  1.00  0.00    -0.550 OA
ATOM      7  O   UNL     1      36.078  23.381  27.165  1.00  0.00    -0.550 OA
ENDBRANCH   4   5
ENDBRANCH   3   4
ENDBRANCH   2   3
ENDBRANCH   1   2
BRANCH   1   8
ATOM      8  C   UNL     1      30.140  23.244  28.886  1.00  0.00     0.000 C 
BRANCH   8   9
ATOM      9  C   UNL     1      30.006  24.123  30.144  1.00  0.00     0.006 C 
BRANCH   9  10
ATOM     10  C   UNL     1      31.178  23.998  31.131  1.00  0.00     0.053 C 
BRANCH  10  11
ATOM     11  C   UNL     1      30.727  24.086  32.555  1.00  0.00     0.041 C 
ATOM     12  O   UNL     1      31.573  24.125  33.487  1.00  0.00    -0.550 OA
ATOM     13  O   UNL     1      29.371  24.090  32.857  1.00  0.00    -0.550 OA
ENDBRANCH  10  11
ENDBRANCH   9  10
ENDBRANCH   8   9
ENDBRANCH   1   8
TORSDOF 8
ENDMDL
MODEL 2
REMARK VINA RESULT:     1.116     17.180     20.313
REMARK INTER + INTRA:           1.173
REMARK INTER:                   1.409
REMARK INTRA:                  -0.237
REMARK UNBOUND:                -0.465
REMARK SMILES O=C([O-])CCCCCCCC(=O)[O-]
REMARK SMILES IDX 7 1 6 2 5 3 4 4 2 5 1 6 3 7 8 8 9 9 10 10 11 11 12 12 13 13
REMARK H PARENT
REMARK Flexibility Score: inf
ROOT
ATOM      1  C   UNL     1      21.727  21.941  45.737  1.00  0.00     0.000 C 
ENDROOT
BRANCH   1   2
ATOM      2  C   UNL     1      20.628  21.462  46.697  1.00  0.00     0.000 C 
BRANCH   2   3
ATOM      3  C   UNL     1      19.594  22.557  47.017  1.00  0.00     0.006 C 
BRANCH   3   4
ATOM      4  C   UNL     1      19.264  23.480  45.832  1.00  0.00     0.053 C 
BRANCH   4   5
ATOM      5  C   UNL     1      17.796  23.760  45.733  1.00  0.00     0.041 C 
ATOM      6  O   UNL     1      17.109  23.919  46.776  1.00  0.00    -0.550 OA
ATOM      7  O   UNL     1      17.192  23.876  44.487  1.00  0.00    -0.550 OA
ENDBRANCH   4   5
ENDBRANCH   3   4
ENDBRANCH   2   3
ENDBRANCH   1   2
BRANCH   1   8
ATOM      8  C   UNL     1      22.809  22.727  46.492  1.00  0.00     0.000 C 
BRANCH   8   9
ATOM      9  C   UNL     1      24.072  22.970  45.643  1.00  0.00     0.006 C 
BRANCH   9  10
ATOM     10  C   UNL     1      25.383  22.969  46.446  1.00  0.00     0.053 C 
BRANCH  10  11
ATOM     11  C   UNL     1      26.485  23.681  45.725  1.00  0.00     0.041 C 
ATOM     12  O   UNL     1      26.298  24.125  44.562  1.00  0.00    -0.550 OA
ATOM     13  O   UNL     1      27.730  23.822  46.324  1.00  0.00    -0.550 OA
ENDBRANCH  10  11
ENDBRANCH   9  10
ENDBRANCH   8   9
ENDBRANCH   1   8
TORSDOF 8
ENDMDL
MODEL 3
REMARK VINA RESULT:     1.610     17.662     19.802
REMARK INTER + INTRA:           1.898
REMARK INTER:                   2.211
REMARK INTRA:                  -0.313
REMARK UNBOUND:                -0.465
REMARK SMILES O=C([O-])CCCCCCCC(=O)[O-]
REMARK SMILES IDX 7 1 6 2 5 3 4 4 2 5 1 6 3 7 8 8 9 9 10 10 11 11 12 12 13 13
REMARK H PARENT
REMARK Flexibility Score: inf
ROOT
ATOM      1  C   UNL     1      21.454  21.193  46.317  1.00  0.00     0.000 C 
ENDROOT
BRANCH   1   2
ATOM      2  C   UNL     1      22.043  22.414  45.594  1.00  0.00     0.000 C 
BRANCH   2   3
ATOM      3  C   UNL     1      23.276  22.994  46.309  1.00  0.00     0.006 C 
BRANCH   3   4
ATOM      4  C   UNL     1      24.361  23.533  45.363  1.00  0.00     0.053 C 
BRANCH   4   5
ATOM      5  C   UNL     1      25.740  23.188  45.838  1.00  0.00     0.041 C 
ATOM      6  O   UNL     1      25.978  22.046  46.314  1.00  0.00    -0.550 OA
ATOM      7  O   UNL     1      26.768  24.115  45.725  1.00  0.00    -0.550 OA
ENDBRANCH   4   5
ENDBRANCH   3   4
ENDBRANCH   2   3
ENDBRANCH   1   2
BRANCH   1   8
ATOM      8  C   UNL     1      20.152  21.561  47.042  1.00  0.00     0.000 C 
BRANCH   8   9
ATOM      9  C   UNL     1      19.923  23.082  47.125  1.00  0.00     0.006 C 
BRANCH   9  10
ATOM     10  C   UNL     1      18.452  23.507  46.987  1.00  0.00     0.053 C 
BRANCH  10  11
ATOM     11  C   UNL     1      18.082  23.803  45.566  1.00  0.00     0.041 C 
ATOM     12  O   UNL     1      16.876  23.772  45.206  1.00  0.00    -0.550 OA
ATOM     13  O   UNL     1      19.073  24.079  44.632  1.00  0.00    -0.550 OA
ENDBRANCH  10  11
ENDBRANCH   9  10
ENDBRANCH   8   9
ENDBRANCH   1   8
TORSDOF 8
ENDMDL
