MODEL 1
REMARK VINA RESULT:    -8.543      0.000      0.000
REMARK INTER + INTRA:         -12.891
REMARK INTER:                 -12.288
REMARK INTRA:                  -0.602
REMARK UNBOUND:                -0.602
REMARK SMILES CC(C)=CCCC(C)=CCCC(C)=CCO
REMARK SMILES IDX 10 1 9 2 7 3 8 4 6 5 5 6 4 7 1 8 2 9 3 10 11 11 12 12 14 13
REMARK SMILES IDX 13 14 15 15 16 16
REMARK H PARENT 16 17
REMARK Flexibility Score: inf
ROOT
ATOM      1  C   UNL     1      21.336  -1.312  10.067  1.00  0.00     0.032 C 
ENDROOT
BRANCH   1   2
ATOM      2  C   UNL     1      20.536  -0.863  11.266  1.00  0.00    -0.028 C 
ATOM      3  C   UNL     1      21.027  -0.117  12.282  1.00  0.00    -0.077 C 
ATOM      4  C   UNL     1      22.481   0.288  12.345  1.00  0.00     0.039 C 
BRANCH   3   5
ATOM      5  C   UNL     1      20.089   0.323  13.384  1.00  0.00     0.034 C 
BRANCH   5   6
ATOM      6  C   UNL     1      18.720   0.718  12.815  1.00  0.00     0.032 C 
BRANCH   6   7
ATOM      7  C   UNL     1      18.645   2.207  12.588  1.00  0.00    -0.028 C 
ATOM      8  C   UNL     1      16.180   2.307  13.026  1.00  0.00     0.039 C 
ATOM      9  C   UNL     1      17.505   2.931  12.655  1.00  0.00    -0.080 C 
ATOM     10  C   UNL     1      17.576   4.409  12.368  1.00  0.00     0.039 C 
ENDBRANCH   6   7
ENDBRANCH   5   6
ENDBRANCH   3   5
ENDBRANCH   1   2
BRANCH   1  11
ATOM     11  C   UNL     1      20.471  -1.401   8.802  1.00  0.00     0.034 C 
BRANCH  11  12
ATOM     12  C   UNL     1      21.308  -1.309   7.543  1.00  0.00    -0.075 C 
ATOM     13  C   UNL     1      22.118  -2.337   7.207  1.00  0.00    -0.000 C 
ATOM     14  C   UNL     1      21.260  -0.038   6.728  1.00  0.00     0.039 C 
BRANCH  13  15
ATOM     15  C   UNL     1      23.019  -2.337   6.003  1.00  0.00     0.183 C 
BRANCH  15  16
ATOM     16  O   UNL     1      24.227  -1.702   6.313  1.00  0.00    -0.392 OA
ATOM     17  H   UNL     1      24.669  -1.515   5.444  1.00  0.00     0.210 HD
ENDBRANCH  15  16
ENDBRANCH  13  15
ENDBRANCH  11  12
ENDBRANCH   1  11
TORSDOF 8
ENDMDL
MODEL 2
REMARK VINA RESULT:    -8.481      4.978      9.380
REMARK INTER + INTRA:         -12.802
REMARK INTER:                 -12.186
REMARK INTRA:                  -0.615
REMARK UNBOUND:                -0.602
REMARK SMILES CC(C)=CCCC(C)=CCCC(C)=CCO
REMARK SMILES IDX 10 1 9 2 7 3 8 4 6 5 5 6 4 7 1 8 2 9 3 10 11 11 12 12 14 13
REMARK SMILES IDX 13 14 15 15 16 16
REMARK H PARENT 16 17
REMARK Flexibility Score: inf
ROOT
ATOM      1  C   UNL     1      17.254   5.787  14.980  1.00  0.00     0.032 C 
ENDROOT
BRANCH   1   2
ATOM      2  C   UNL     1      17.165   4.522  14.160  1.00  0.00    -0.028 C 
ATOM      3  C   UNL     1      17.356   4.458  12.823  1.00  0.00    -0.077 C 
ATOM      4  C   UNL     1      17.616   5.694  11.993  1.00  0.00     0.039 C 
BRANCH   3   5
ATOM      5  C   UNL     1      17.309   3.108  12.142  1.00  0.00     0.034 C 
BRANCH   5   6
ATOM      6  C   UNL     1      17.838   2.007  13.070  1.00  0.00     0.032 C 
BRANCH   6   7
ATOM      7  C   UNL     1      19.264   1.656  12.726  1.00  0.00    -0.028 C 
ATOM      8  C   UNL     1      19.042  -0.706  13.532  1.00  0.00     0.039 C 
ATOM      9  C   UNL     1      19.827   0.448  12.950  1.00  0.00    -0.080 C 
ATOM     10  C   UNL     1      21.276   0.253  12.588  1.00  0.00     0.039 C 
ENDBRANCH   6   7
ENDBRANCH   5   6
ENDBRANCH   3   5
ENDBRANCH   1   2
BRANCH   1  11
ATOM     11  C   UNL     1      17.544   5.491  16.458  1.00  0.00     0.034 C 
BRANCH  11  12
ATOM     12  C   UNL     1      18.390   6.577  17.091  1.00  0.00    -0.075 C 
ATOM     13  C   UNL     1      19.723   6.390  17.220  1.00  0.00    -0.000 C 
ATOM     14  C   UNL     1      17.708   7.815  17.620  1.00  0.00     0.039 C 
BRANCH  13  15
ATOM     15  C   UNL     1      20.650   7.382  17.866  1.00  0.00     0.183 C 
BRANCH  15  16
ATOM     16  O   UNL     1      21.797   7.542  17.081  1.00  0.00    -0.392 OA
ATOM     17  H   UNL     1      22.004   6.644  16.711  1.00  0.00     0.210 HD
ENDBRANCH  15  16
ENDBRANCH  13  15
ENDBRANCH  11  12
ENDBRANCH   1  11
TORSDOF 8
ENDMDL
MODEL 3
REMARK VINA RESULT:    -8.347      3.077      8.540
REMARK INTER + INTRA:         -12.610
REMARK INTER:                 -12.177
REMARK INTRA:                  -0.433
REMARK UNBOUND:                -0.602
REMARK SMILES CC(C)=CCCC(C)=CCCC(C)=CCO
REMARK SMILES IDX 10 1 9 2 7 3 8 4 6 5 5 6 4 7 1 8 2 9 3 10 11 11 12 12 14 13
REMARK SMILES IDX 13 14 15 15 16 16
REMARK H PARENT 16 17
REMARK Flexibility Score: inf
ROOT
ATOM      1  C   UNL     1      21.051  -1.254   9.369  1.00  0.00     0.032 C 
ENDROOT
BRANCH   1   2
ATOM      2  C   UNL     1      21.869  -1.898   8.276  1.00  0.00    -0.028 C 
ATOM      3  C   UNL     1      21.508  -1.950   6.974  1.00  0.00    -0.077 C 
ATOM      4  C   UNL     1      20.181  -1.412   6.491  1.00  0.00     0.039 C 
BRANCH   3   5
ATOM      5  C   UNL     1      22.463  -2.562   5.974  1.00  0.00     0.034 C 
BRANCH   5   6
ATOM      6  C   UNL     1      23.100  -1.482   5.091  1.00  0.00     0.032 C 
BRANCH   6   7
ATOM      7  C   UNL     1      24.167  -2.075   4.205  1.00  0.00    -0.028 C 
ATOM      8  C   UNL     1      23.298  -0.952   2.141  1.00  0.00     0.039 C 
ATOM      9  C   UNL     1      24.254  -1.866   2.872  1.00  0.00    -0.080 C 
ATOM     10  C   UNL     1      25.354  -2.555   2.107  1.00  0.00     0.039 C 
ENDBRANCH   6   7
ENDBRANCH   5   6
ENDBRANCH   3   5
ENDBRANCH   1   2
BRANCH   1  11
ATOM     11  C   UNL     1      21.542  -1.658  10.766  1.00  0.00     0.034 C 
BRANCH  11  12
ATOM     12  C   UNL     1      21.241  -0.589  11.797  1.00  0.00    -0.075 C 
ATOM     13  C   UNL     1      19.970  -0.418  12.223  1.00  0.00    -0.000 C 
ATOM     14  C   UNL     1      22.364   0.300  12.273  1.00  0.00     0.039 C 
BRANCH  13  15
ATOM     15  C   UNL     1      19.552   0.635  13.213  1.00  0.00     0.183 C 
BRANCH  15  16
ATOM     16  O   UNL     1      18.208   0.968  13.013  1.00  0.00    -0.392 OA
ATOM     17  H   UNL     1      17.871   0.345  12.317  1.00  0.00     0.210 HD
ENDBRANCH  15  16
ENDBRANCH  13  15
ENDBRANCH  11  12
ENDBRANCH   1  11
TORSDOF 8
ENDMDL
MODEL 4
REMARK VINA RESULT:    -8.345      2.914      5.348
REMARK INTER + INTRA:         -12.607
REMARK INTER:                 -12.012
REMARK INTRA:                  -0.595
REMARK UNBOUND:                -0.602
REMARK SMILES CC(C)=CCCC(C)=CCCC(C)=CCO
REMARK SMILES IDX 10 1 9 2 7 3 8 4 6 5 5 6 4 7 1 8 2 9 3 10 11 11 12 12 14 13
REMARK SMILES IDX 13 14 15 15 16 16
REMARK H PARENT 16 17
REMARK Flexibility Score: inf
ROOT
ATOM      1  C   UNL     1      22.475   0.246   5.865  1.00  0.00     0.032 C 
ENDROOT
BRANCH   1   2
ATOM      2  C   UNL     1      21.579  -0.080   7.036  1.00  0.00    -0.028 C 
ATOM      3  C   UNL     1      21.401  -1.319   7.546  1.00  0.00    -0.077 C 
ATOM      4  C   UNL     1      22.049  -2.537   6.929  1.00  0.00     0.039 C 
BRANCH   3   5
ATOM      5  C   UNL     1      20.529  -1.487   8.771  1.00  0.00     0.034 C 
BRANCH   5   6
ATOM      6  C   UNL     1      21.351  -1.325  10.056  1.00  0.00     0.032 C 
BRANCH   6   7
ATOM      7  C   UNL     1      20.484  -0.833  11.187  1.00  0.00    -0.028 C 
ATOM      8  C   UNL     1      22.406   0.198  12.421  1.00  0.00     0.039 C 
ATOM      9  C   UNL     1      20.947  -0.169  12.270  1.00  0.00    -0.080 C 
ATOM     10  C   UNL     1      19.966   0.230  13.342  1.00  0.00     0.039 C 
ENDBRANCH   6   7
ENDBRANCH   5   6
ENDBRANCH   3   5
ENDBRANCH   1   2
BRANCH   1  11
ATOM     11  C   UNL     1      22.205   1.652   5.311  1.00  0.00     0.034 C 
BRANCH  11  12
ATOM     12  C   UNL     1      21.205   1.624   4.173  1.00  0.00    -0.075 C 
ATOM     13  C   UNL     1      20.169   2.492   4.178  1.00  0.00    -0.000 C 
ATOM     14  C   UNL     1      21.360   0.579   3.094  1.00  0.00     0.039 C 
BRANCH  13  15
ATOM     15  C   UNL     1      19.099   2.526   3.121  1.00  0.00     0.183 C 
BRANCH  15  16
ATOM     16  O   UNL     1      17.839   2.612   3.724  1.00  0.00    -0.392 OA
ATOM     17  H   UNL     1      17.934   2.192   4.619  1.00  0.00     0.210 HD
ENDBRANCH  15  16
ENDBRANCH  13  15
ENDBRANCH  11  12
ENDBRANCH   1  11
TORSDOF 8
ENDMDL
MODEL 5
REMARK VINA RESULT:    -8.265      7.342     10.375
REMARK INTER + INTRA:         -12.492
REMARK INTER:                 -11.982
REMARK INTRA:                  -0.510
REMARK UNBOUND:                -0.602
REMARK SMILES CC(C)=CCCC(C)=CCCC(C)=CCO
REMARK SMILES IDX 10 1 9 2 7 3 8 4 6 5 5 6 4 7 1 8 2 9 3 10 11 11 12 12 14 13
REMARK SMILES IDX 13 14 15 15 16 16
REMARK H PARENT 16 17
REMARK Flexibility Score: inf
ROOT
ATOM      1  C   UNL     1      17.733   5.474  16.131  1.00  0.00     0.032 C 
ENDROOT
BRANCH   1   2
ATOM      2  C   UNL     1      17.718   6.494  17.245  1.00  0.00    -0.028 C 
ATOM      3  C   UNL     1      18.817   7.108  17.740  1.00  0.00    -0.077 C 
ATOM      4  C   UNL     1      20.208   6.768  17.255  1.00  0.00     0.039 C 
BRANCH   3   5
ATOM      5  C   UNL     1      18.645   8.165  18.807  1.00  0.00     0.034 C 
BRANCH   5   6
ATOM      6  C   UNL     1      19.961   8.912  19.057  1.00  0.00     0.032 C 
BRANCH   6   7
ATOM      7  C   UNL     1      19.708  10.382  19.282  1.00  0.00    -0.028 C 
ATOM      8  C   UNL     1      20.841  10.395  21.516  1.00  0.00     0.039 C 
ATOM      9  C   UNL     1      20.076  11.057  20.393  1.00  0.00    -0.080 C 
ATOM     10  C   UNL     1      19.724  12.519  20.495  1.00  0.00     0.039 C 
ENDBRANCH   6   7
ENDBRANCH   5   6
ENDBRANCH   3   5
ENDBRANCH   1   2
BRANCH   1  11
ATOM     11  C   UNL     1      17.133   6.035  14.835  1.00  0.00     0.034 C 
BRANCH  11  12
ATOM     12  C   UNL     1      17.137   5.005  13.724  1.00  0.00    -0.075 C 
ATOM     13  C   UNL     1      16.775   3.731  13.997  1.00  0.00    -0.000 C 
ATOM     14  C   UNL     1      17.611   5.417  12.350  1.00  0.00     0.039 C 
BRANCH  13  15
ATOM     15  C   UNL     1      16.780   2.622  12.982  1.00  0.00     0.183 C 
BRANCH  15  16
ATOM     16  O   UNL     1      15.717   1.747  13.229  1.00  0.00    -0.392 OA
ATOM     17  H   UNL     1      15.511   1.313  12.360  1.00  0.00     0.210 HD
ENDBRANCH  15  16
ENDBRANCH  13  15
ENDBRANCH  11  12
ENDBRANCH   1  11
TORSDOF 8
ENDMDL
MODEL 6
REMARK VINA RESULT:    -8.166      3.014      7.355
REMARK INTER + INTRA:         -12.348
REMARK INTER:                 -11.344
REMARK INTRA:                  -1.004
REMARK UNBOUND:                -0.602
REMARK SMILES CC(C)=CCCC(C)=CCCC(C)=CCO
REMARK SMILES IDX 10 1 9 2 7 3 8 4 6 5 5 6 4 7 1 8 2 9 3 10 11 11 12 12 14 13
REMARK SMILES IDX 13 14 15 15 16 16
REMARK H PARENT 16 17
REMARK Flexibility Score: inf
ROOT
ATOM      1  C   UNL     1      21.159  -1.175   9.399  1.00  0.00     0.032 C 
ENDROOT
BRANCH   1   2
ATOM      2  C   UNL     1      22.009  -1.800   8.319  1.00  0.00    -0.028 C 
ATOM      3  C   UNL     1      21.541  -2.237   7.129  1.00  0.00    -0.077 C 
ATOM      4  C   UNL     1      20.069  -2.202   6.788  1.00  0.00     0.039 C 
BRANCH   3   5
ATOM      5  C   UNL     1      22.522  -2.775   6.111  1.00  0.00     0.034 C 
BRANCH   5   6
ATOM      6  C   UNL     1      23.378  -1.645   5.524  1.00  0.00     0.032 C 
BRANCH   6   7
ATOM      7  C   UNL     1      22.614  -0.890   4.466  1.00  0.00    -0.028 C 
ATOM      8  C   UNL     1      22.295   1.129   5.915  1.00  0.00     0.039 C 
ATOM      9  C   UNL     1      22.099   0.349   4.635  1.00  0.00    -0.080 C 
ATOM     10  C   UNL     1      21.326   0.967   3.500  1.00  0.00     0.039 C 
ENDBRANCH   6   7
ENDBRANCH   5   6
ENDBRANCH   3   5
ENDBRANCH   1   2
BRANCH   1  11
ATOM     11  C   UNL     1      21.582  -1.636  10.800  1.00  0.00     0.034 C 
BRANCH  11  12
ATOM     12  C   UNL     1      21.299  -0.579  11.848  1.00  0.00    -0.075 C 
ATOM     13  C   UNL     1      20.030  -0.388  12.273  1.00  0.00    -0.000 C 
ATOM     14  C   UNL     1      22.439   0.280  12.342  1.00  0.00     0.039 C 
BRANCH  13  15
ATOM     15  C   UNL     1      19.631   0.656  13.279  1.00  0.00     0.183 C 
BRANCH  15  16
ATOM     16  O   UNL     1      18.296   1.024  13.076  1.00  0.00    -0.392 OA
ATOM     17  H   UNL     1      18.059   0.708  12.166  1.00  0.00     0.210 HD
ENDBRANCH  15  16
ENDBRANCH  13  15
ENDBRANCH  11  12
ENDBRANCH   1  11
TORSDOF 8
ENDMDL
MODEL 7
REMARK VINA RESULT:    -8.155      3.494      7.673
REMARK INTER + INTRA:         -12.333
REMARK INTER:                 -11.808
REMARK INTRA:                  -0.526
REMARK UNBOUND:                -0.602
REMARK SMILES CC(C)=CCCC(C)=CCCC(C)=CCO
REMARK SMILES IDX 10 1 9 2 7 3 8 4 6 5 5 6 4 7 1 8 2 9 3 10 11 11 12 12 14 13
REMARK SMILES IDX 13 14 15 15 16 16
REMARK H PARENT 16 17
REMARK Flexibility Score: inf
ROOT
ATOM      1  C   UNL     1      18.612   1.397  13.176  1.00  0.00     0.032 C 
ENDROOT
BRANCH   1   2
ATOM      2  C   UNL     1      19.948   1.008  12.591  1.00  0.00    -0.028 C 
ATOM      3  C   UNL     1      20.297  -0.250  12.240  1.00  0.00    -0.077 C 
ATOM      4  C   UNL     1      19.379  -1.428  12.472  1.00  0.00     0.039 C 
BRANCH   3   5
ATOM      5  C   UNL     1      21.646  -0.481  11.595  1.00  0.00     0.034 C 
BRANCH   5   6
ATOM      6  C   UNL     1      21.554  -1.555  10.503  1.00  0.00     0.032 C 
BRANCH   6   7
ATOM      7  C   UNL     1      20.832  -1.024   9.290  1.00  0.00    -0.028 C 
ATOM      8  C   UNL     1      22.253  -2.320   7.683  1.00  0.00     0.039 C 
ATOM      9  C   UNL     1      21.150  -1.340   8.014  1.00  0.00    -0.080 C 
ATOM     10  C   UNL     1      20.362  -0.704   6.899  1.00  0.00     0.039 C 
ENDBRANCH   6   7
ENDBRANCH   5   6
ENDBRANCH   3   5
ENDBRANCH   1   2
BRANCH   1  11
ATOM     11  C   UNL     1      17.856   2.380  12.272  1.00  0.00     0.034 C 
BRANCH  11  12
ATOM     12  C   UNL     1      17.051   3.379  13.079  1.00  0.00    -0.075 C 
ATOM     13  C   UNL     1      17.432   4.675  13.102  1.00  0.00    -0.000 C 
ATOM     14  C   UNL     1      15.878   2.883  13.891  1.00  0.00     0.039 C 
BRANCH  13  15
ATOM     15  C   UNL     1      16.732   5.742  13.898  1.00  0.00     0.183 C 
BRANCH  15  16
ATOM     16  O   UNL     1      16.601   6.902  13.127  1.00  0.00    -0.392 OA
ATOM     17  H   UNL     1      16.795   7.661  13.738  1.00  0.00     0.210 HD
ENDBRANCH  15  16
ENDBRANCH  13  15
ENDBRANCH  11  12
ENDBRANCH   1  11
TORSDOF 8
ENDMDL
MODEL 8
REMARK VINA RESULT:    -8.060      2.569      5.097
REMARK INTER + INTRA:         -12.196
REMARK INTER:                 -11.549
REMARK INTRA:                  -0.647
REMARK UNBOUND:                -0.602
REMARK SMILES CC(C)=CCCC(C)=CCCC(C)=CCO
REMARK SMILES IDX 10 1 9 2 7 3 8 4 6 5 5 6 4 7 1 8 2 9 3 10 11 11 12 12 14 13
REMARK SMILES IDX 13 14 15 15 16 16
REMARK H PARENT 16 17
REMARK Flexibility Score: inf
ROOT
ATOM      1  C   UNL     1      18.631   0.942  12.899  1.00  0.00     0.032 C 
ENDROOT
BRANCH   1   2
ATOM      2  C   UNL     1      18.531   2.442  12.758  1.00  0.00    -0.028 C 
ATOM      3  C   UNL     1      17.403   3.160  12.960  1.00  0.00    -0.077 C 
ATOM      4  C   UNL     1      16.084   2.500  13.288  1.00  0.00     0.039 C 
BRANCH   3   5
ATOM      5  C   UNL     1      17.468   4.668  12.856  1.00  0.00     0.034 C 
BRANCH   5   6
ATOM      6  C   UNL     1      16.770   5.331  14.050  1.00  0.00     0.032 C 
BRANCH   6   7
ATOM      7  C   UNL     1      17.513   5.047  15.330  1.00  0.00    -0.028 C 
ATOM      8  C   UNL     1      17.308   7.403  16.156  1.00  0.00     0.039 C 
ATOM      9  C   UNL     1      17.785   5.974  16.276  1.00  0.00    -0.080 C 
ATOM     10  C   UNL     1      18.571   5.552  17.490  1.00  0.00     0.039 C 
ENDBRANCH   6   7
ENDBRANCH   5   6
ENDBRANCH   3   5
ENDBRANCH   1   2
BRANCH   1  11
ATOM     11  C   UNL     1      20.004   0.507  13.430  1.00  0.00     0.034 C 
BRANCH  11  12
ATOM     12  C   UNL     1      20.876  -0.060  12.329  1.00  0.00    -0.075 C 
ATOM     13  C   UNL     1      20.335  -0.901  11.419  1.00  0.00    -0.000 C 
ATOM     14  C   UNL     1      22.348   0.281  12.317  1.00  0.00     0.039 C 
BRANCH  13  15
ATOM     15  C   UNL     1      21.115  -1.551  10.310  1.00  0.00     0.183 C 
BRANCH  15  16
ATOM     16  O   UNL     1      20.562  -1.203   9.073  1.00  0.00    -0.392 OA
ATOM     17  H   UNL     1      21.292  -1.307   8.407  1.00  0.00     0.210 HD
ENDBRANCH  15  16
ENDBRANCH  13  15
ENDBRANCH  11  12
ENDBRANCH   1  11
TORSDOF 8
ENDMDL
MODEL 9
REMARK VINA RESULT:    -7.964      5.703      8.949
REMARK INTER + INTRA:         -12.059
REMARK INTER:                 -11.216
REMARK INTRA:                  -0.843
REMARK UNBOUND:                -0.602
REMARK SMILES CC(C)=CCCC(C)=CCCC(C)=CCO
REMARK SMILES IDX 10 1 9 2 7 3 8 4 6 5 5 6 4 7 1 8 2 9 3 10 11 11 12 12 14 13
REMARK SMILES IDX 13 14 15 15 16 16
REMARK H PARENT 16 17
REMARK Flexibility Score: inf
ROOT
ATOM      1  C   UNL     1      17.175   6.261  15.016  1.00  0.00     0.032 C 
ENDROOT
BRANCH   1   2
ATOM      2  C   UNL     1      17.922   5.812  16.248  1.00  0.00    -0.028 C 
ATOM      3  C   UNL     1      18.038   6.536  17.384  1.00  0.00    -0.077 C 
ATOM      4  C   UNL     1      17.473   7.933  17.502  1.00  0.00     0.039 C 
BRANCH   3   5
ATOM      5  C   UNL     1      18.754   5.927  18.569  1.00  0.00     0.034 C 
BRANCH   5   6
ATOM      6  C   UNL     1      19.746   6.924  19.182  1.00  0.00     0.032 C 
BRANCH   6   7
ATOM      7  C   UNL     1      21.136   6.340  19.222  1.00  0.00    -0.028 C 
ATOM      8  C   UNL     1      21.651   7.003  16.861  1.00  0.00     0.039 C 
ATOM      9  C   UNL     1      21.995   6.346  18.178  1.00  0.00    -0.080 C 
ATOM     10  C   UNL     1      23.341   5.692  18.353  1.00  0.00     0.039 C 
ENDBRANCH   6   7
ENDBRANCH   5   6
ENDBRANCH   3   5
ENDBRANCH   1   2
BRANCH   1  11
ATOM     11  C   UNL     1      16.351   5.123  14.399  1.00  0.00     0.034 C 
BRANCH  11  12
ATOM     12  C   UNL     1      17.141   4.362  13.353  1.00  0.00    -0.075 C 
ATOM     13  C   UNL     1      17.150   3.011  13.382  1.00  0.00    -0.000 C 
ATOM     14  C   UNL     1      17.950   5.140  12.343  1.00  0.00     0.039 C 
BRANCH  13  15
ATOM     15  C   UNL     1      17.929   2.157  12.419  1.00  0.00     0.183 C 
BRANCH  15  16
ATOM     16  O   UNL     1      18.368   0.995  13.063  1.00  0.00    -0.392 OA
ATOM     17  H   UNL     1      19.354   1.081  13.142  1.00  0.00     0.210 HD
ENDBRANCH  15  16
ENDBRANCH  13  15
ENDBRANCH  11  12
ENDBRANCH   1  11
TORSDOF 8
ENDMDL
