MODEL 1
REMARK VINA RESULT:    -4.553      0.000      0.000
REMARK INTER + INTRA:          -5.601
REMARK INTER:                  -5.484
REMARK INTRA:                  -0.117
REMARK UNBOUND:                -0.117
REMARK SMILES CC[C@@H](C)[C@@H]([NH3+])C(=O)[O-]
REMARK SMILES IDX 3 1 4 2 5 3 6 4 7 8 8 9 9 10 2 11 1 12
REMARK H PARENT 6 5 6 6 6 7
REMARK Flexibility Score: inf
ROOT
ATOM      1  C   UNL     1     -20.209  27.880 -10.895  1.00  0.00     0.050 C 
ATOM      2  C   UNL     1     -19.110  28.778 -11.505  1.00  0.00     0.014 C 
ENDROOT
BRANCH   1   3
ATOM      3  C   UNL     1     -19.634  27.055  -9.697  1.00  0.00     0.230 C 
BRANCH   3   4
ATOM      4  N   UNL     1     -19.143  27.919  -8.612  1.00  0.00    -0.350 N 
ATOM      5  H   UNL     1     -19.787  28.732  -8.477  1.00  0.00     0.345 HD
ATOM      6  H   UNL     1     -18.206  28.315  -8.861  1.00  0.00     0.345 HD
ATOM      7  H   UNL     1     -19.057  27.381  -7.720  1.00  0.00     0.345 HD
ENDBRANCH   3   4
BRANCH   3   8
ATOM      8  C   UNL     1     -20.678  26.116  -9.145  1.00  0.00     0.099 C 
ATOM      9  O   UNL     1     -21.070  25.133  -9.827  1.00  0.00    -0.544 OA
ATOM     10  O   UNL     1     -21.208  26.326  -7.878  1.00  0.00    -0.544 OA
ENDBRANCH   3   8
ENDBRANCH   1   3
BRANCH   1  11
ATOM     11  C   UNL     1     -21.433  28.732 -10.465  1.00  0.00     0.006 C 
ATOM     12  C   UNL     1     -22.543  28.785 -11.518  1.00  0.00     0.004 C 
ENDBRANCH   1  11
TORSDOF 4
ENDMDL
MODEL 2
REMARK VINA RESULT:    -4.471      0.765      2.055
REMARK INTER + INTRA:          -5.502
REMARK INTER:                  -5.597
REMARK INTRA:                   0.095
REMARK UNBOUND:                -0.117
REMARK SMILES CC[C@@H](C)[C@@H]([NH3+])C(=O)[O-]
REMARK SMILES IDX 3 1 4 2 5 3 6 4 7 8 8 9 9 10 2 11 1 12
REMARK H PARENT 6 5 6 6 6 7
REMARK Flexibility Score: inf
ROOT
ATOM      1  C   UNL     1     -20.335  28.370 -10.586  1.00  0.00     0.050 C 
ATOM      2  C   UNL     1     -21.783  28.674 -10.141  1.00  0.00     0.014 C 
ENDROOT
BRANCH   1   3
ATOM      3  C   UNL     1     -19.714  27.251  -9.688  1.00  0.00     0.230 C 
BRANCH   3   4
ATOM      4  N   UNL     1     -19.071  27.797  -8.482  1.00  0.00    -0.350 N 
ATOM      5  H   UNL     1     -19.324  27.223  -7.645  1.00  0.00     0.345 HD
ATOM      6  H   UNL     1     -19.417  28.768  -8.297  1.00  0.00     0.345 HD
ATOM      7  H   UNL     1     -18.032  27.824  -8.595  1.00  0.00     0.345 HD
ENDBRANCH   3   4
BRANCH   3   8
ATOM      8  C   UNL     1     -20.766  26.251  -9.274  1.00  0.00     0.099 C 
ATOM      9  O   UNL     1     -21.252  26.285  -8.113  1.00  0.00    -0.544 OA
ATOM     10  O   UNL     1     -21.212  25.291 -10.175  1.00  0.00    -0.544 OA
ENDBRANCH   3   8
ENDBRANCH   1   3
BRANCH   1  11
ATOM     11  C   UNL     1     -20.295  27.984 -12.088  1.00  0.00     0.006 C 
ATOM     12  C   UNL     1     -19.142  28.633 -12.858  1.00  0.00     0.004 C 
ENDBRANCH   1  11
TORSDOF 4
ENDMDL
MODEL 3
REMARK VINA RESULT:    -4.398      1.963      2.506
REMARK INTER + INTRA:          -5.415
REMARK INTER:                  -5.445
REMARK INTRA:                   0.030
REMARK UNBOUND:                -0.117
REMARK SMILES CC[C@@H](C)[C@@H]([NH3+])C(=O)[O-]
REMARK SMILES IDX 3 1 4 2 5 3 6 4 7 8 8 9 9 10 2 11 1 12
REMARK H PARENT 6 5 6 6 6 7
REMARK Flexibility Score: inf
ROOT
ATOM      1  C   UNL     1     -19.543  27.356 -10.255  1.00  0.00     0.050 C 
ATOM      2  C   UNL     1     -19.126  27.997  -8.912  1.00  0.00     0.014 C 
ENDROOT
BRANCH   1   3
ATOM      3  C   UNL     1     -21.006  26.810 -10.166  1.00  0.00     0.230 C 
BRANCH   3   4
ATOM      4  N   UNL     1     -21.047  25.395  -9.763  1.00  0.00    -0.350 N 
ATOM      5  H   UNL     1     -20.567  25.267  -8.843  1.00  0.00     0.345 HD
ATOM      6  H   UNL     1     -20.529  24.806 -10.458  1.00  0.00     0.345 HD
ATOM      7  H   UNL     1     -22.034  25.055  -9.702  1.00  0.00     0.345 HD
ENDBRANCH   3   4
BRANCH   3   8
ATOM      8  C   UNL     1     -21.822  27.623  -9.192  1.00  0.00     0.099 C 
ATOM      9  O   UNL     1     -22.145  27.138  -8.075  1.00  0.00    -0.544 OA
ATOM     10  O   UNL     1     -22.218  28.914  -9.517  1.00  0.00    -0.544 OA
ENDBRANCH   3   8
ENDBRANCH   1   3
BRANCH   1  11
ATOM     11  C   UNL     1     -19.384  28.373 -11.416  1.00  0.00     0.006 C 
ATOM     12  C   UNL     1     -20.241  28.044 -12.641  1.00  0.00     0.004 C 
ENDBRANCH   1  11
TORSDOF 4
ENDMDL
MODEL 4
REMARK VINA RESULT:    -4.394      1.959      2.496
REMARK INTER + INTRA:          -5.410
REMARK INTER:                  -5.487
REMARK INTRA:                   0.078
REMARK UNBOUND:                -0.117
REMARK SMILES CC[C@@H](C)[C@@H]([NH3+])C(=O)[O-]
REMARK SMILES IDX 3 1 4 2 5 3 6 4 7 8 8 9 9 10 2 11 1 12
REMARK H PARENT 6 5 6 6 6 7
REMARK Flexibility Score: inf
ROOT
ATOM      1  C   UNL     1     -22.020  27.281 -10.587  1.00  0.00     0.050 C 
ATOM      2  C   UNL     1     -21.509  25.825 -10.659  1.00  0.00     0.014 C 
ENDROOT
BRANCH   1   3
ATOM      3  C   UNL     1     -21.456  27.993  -9.314  1.00  0.00     0.230 C 
BRANCH   3   4
ATOM      4  N   UNL     1     -22.370  27.886  -8.166  1.00  0.00    -0.350 N 
ATOM      5  H   UNL     1     -22.719  26.905  -8.072  1.00  0.00     0.345 HD
ATOM      6  H   UNL     1     -23.211  28.492  -8.315  1.00  0.00     0.345 HD
ATOM      7  H   UNL     1     -21.893  28.181  -7.283  1.00  0.00     0.345 HD
ENDBRANCH   3   4
BRANCH   3   8
ATOM      8  C   UNL     1     -20.114  27.419  -8.930  1.00  0.00     0.099 C 
ATOM      9  O   UNL     1     -20.034  26.543  -8.029  1.00  0.00    -0.544 OA
ATOM     10  O   UNL     1     -18.959  27.849  -9.573  1.00  0.00    -0.544 OA
ENDBRANCH   3   8
ENDBRANCH   1   3
BRANCH   1  11
ATOM     11  C   UNL     1     -21.651  28.053 -11.883  1.00  0.00     0.006 C 
ATOM     12  C   UNL     1     -21.915  29.558 -11.795  1.00  0.00     0.004 C 
ENDBRANCH   1  11
TORSDOF 4
ENDMDL
MODEL 5
REMARK VINA RESULT:    -4.342      2.739      3.759
REMARK INTER + INTRA:          -5.347
REMARK INTER:                  -5.261
REMARK INTRA:                  -0.086
REMARK UNBOUND:                -0.117
REMARK SMILES CC[C@@H](C)[C@@H]([NH3+])C(=O)[O-]
REMARK SMILES IDX 3 1 4 2 5 3 6 4 7 8 8 9 9 10 2 11 1 12
REMARK H PARENT 6 5 6 6 6 7
REMARK Flexibility Score: inf
ROOT
ATOM      1  C   UNL     1     -20.884  26.872 -10.308  1.00  0.00     0.050 C 
ATOM      2  C   UNL     1     -21.339  25.396 -10.347  1.00  0.00     0.014 C 
ENDROOT
BRANCH   1   3
ATOM      3  C   UNL     1     -22.125  27.824 -10.305  1.00  0.00     0.230 C 
BRANCH   3   4
ATOM      4  N   UNL     1     -22.212  28.621  -9.071  1.00  0.00    -0.350 N 
ATOM      5  H   UNL     1     -21.837  28.076  -8.261  1.00  0.00     0.345 HD
ATOM      6  H   UNL     1     -23.212  28.838  -8.850  1.00  0.00     0.345 HD
ATOM      7  H   UNL     1     -21.685  29.519  -9.171  1.00  0.00     0.345 HD
ENDBRANCH   3   4
BRANCH   3   8
ATOM      8  C   UNL     1     -22.088  28.756 -11.491  1.00  0.00     0.099 C 
ATOM      9  O   UNL     1     -23.153  29.073 -12.082  1.00  0.00    -0.544 OA
ATOM     10  O   UNL     1     -20.877  29.275 -11.935  1.00  0.00    -0.544 OA
ENDBRANCH   3   8
ENDBRANCH   1   3
BRANCH   1  11
ATOM     11  C   UNL     1     -19.967  27.127  -9.082  1.00  0.00     0.006 C 
ATOM     12  C   UNL     1     -18.818  28.098  -9.368  1.00  0.00     0.004 C 
ENDBRANCH   1  11
TORSDOF 4
ENDMDL
MODEL 6
REMARK VINA RESULT:    -4.256      2.167      2.722
REMARK INTER + INTRA:          -5.244
REMARK INTER:                  -5.165
REMARK INTRA:                  -0.079
REMARK UNBOUND:                -0.117
REMARK SMILES CC[C@@H](C)[C@@H]([NH3+])C(=O)[O-]
REMARK SMILES IDX 3 1 4 2 5 3 6 4 7 8 8 9 9 10 2 11 1 12
REMARK H PARENT 6 5 6 6 6 7
REMARK Flexibility Score: inf
ROOT
ATOM      1  C   UNL     1     -21.337  27.410 -11.260  1.00  0.00     0.050 C 
ATOM      2  C   UNL     1     -22.355  28.568 -11.349  1.00  0.00     0.014 C 
ENDROOT
BRANCH   1   3
ATOM      3  C   UNL     1     -21.357  26.777  -9.830  1.00  0.00     0.230 C 
BRANCH   3   4
ATOM      4  N   UNL     1     -21.184  25.316  -9.866  1.00  0.00    -0.350 N 
ATOM      5  H   UNL     1     -21.138  24.982 -10.856  1.00  0.00     0.345 HD
ATOM      6  H   UNL     1     -22.007  24.843  -9.426  1.00  0.00     0.345 HD
ATOM      7  H   UNL     1     -20.317  25.032  -9.353  1.00  0.00     0.345 HD
ENDBRANCH   3   4
BRANCH   3   8
ATOM      8  C   UNL     1     -20.278  27.379  -8.963  1.00  0.00     0.099 C 
ATOM      9  O   UNL     1     -20.511  27.643  -7.753  1.00  0.00    -0.544 OA
ATOM     10  O   UNL     1     -19.020  27.641  -9.491  1.00  0.00    -0.544 OA
ENDBRANCH   3   8
ENDBRANCH   1   3
BRANCH   1  11
ATOM     11  C   UNL     1     -21.619  26.349 -12.357  1.00  0.00     0.006 C 
ATOM     12  C   UNL     1     -22.378  26.905 -13.565  1.00  0.00     0.004 C 
ENDBRANCH   1  11
TORSDOF 4
ENDMDL
MODEL 7
REMARK VINA RESULT:    -4.200      2.422      3.542
REMARK INTER + INTRA:          -5.176
REMARK INTER:                  -5.045
REMARK INTRA:                  -0.131
REMARK UNBOUND:                -0.117
REMARK SMILES CC[C@@H](C)[C@@H]([NH3+])C(=O)[O-]
REMARK SMILES IDX 3 1 4 2 5 3 6 4 7 8 8 9 9 10 2 11 1 12
REMARK H PARENT 6 5 6 6 6 7
REMARK Flexibility Score: inf
ROOT
ATOM      1  C   UNL     1     -21.320  27.692 -10.056  1.00  0.00     0.050 C 
ATOM      2  C   UNL     1     -22.194  28.607  -9.170  1.00  0.00     0.014 C 
ENDROOT
BRANCH   1   3
ATOM      3  C   UNL     1     -19.958  28.390 -10.381  1.00  0.00     0.230 C 
BRANCH   3   4
ATOM      4  N   UNL     1     -18.815  27.685  -9.778  1.00  0.00    -0.350 N 
ATOM      5  H   UNL     1     -18.023  28.350  -9.621  1.00  0.00     0.345 HD
ATOM      6  H   UNL     1     -18.463  26.945 -10.429  1.00  0.00     0.345 HD
ATOM      7  H   UNL     1     -19.090  27.238  -8.874  1.00  0.00     0.345 HD
ENDBRANCH   3   4
BRANCH   3   8
ATOM      8  C   UNL     1     -19.748  28.485 -11.872  1.00  0.00     0.099 C 
ATOM      9  O   UNL     1     -18.987  29.367 -12.350  1.00  0.00    -0.544 OA
ATOM     10  O   UNL     1     -20.386  27.595 -12.727  1.00  0.00    -0.544 OA
ENDBRANCH   3   8
ENDBRANCH   1   3
BRANCH   1  11
ATOM     11  C   UNL     1     -21.106  26.314  -9.374  1.00  0.00     0.006 C 
ATOM     12  C   UNL     1     -21.197  25.131 -10.342  1.00  0.00     0.004 C 
ENDBRANCH   1  11
TORSDOF 4
ENDMDL
MODEL 8
REMARK VINA RESULT:    -4.090      2.719      3.176
REMARK INTER + INTRA:          -5.043
REMARK INTER:                  -4.951
REMARK INTRA:                  -0.092
REMARK UNBOUND:                -0.117
REMARK SMILES CC[C@@H](C)[C@@H]([NH3+])C(=O)[O-]
REMARK SMILES IDX 3 1 4 2 5 3 6 4 7 8 8 9 9 10 2 11 1 12
REMARK H PARENT 6 5 6 6 6 7
REMARK Flexibility Score: inf
ROOT
ATOM      1  C   UNL     1     -20.438  27.697 -10.099  1.00  0.00     0.050 C 
ATOM      2  C   UNL     1     -18.922  27.839  -9.839  1.00  0.00     0.014 C 
ENDROOT
BRANCH   1   3
ATOM      3  C   UNL     1     -20.718  26.471 -11.028  1.00  0.00     0.230 C 
BRANCH   3   4
ATOM      4  N   UNL     1     -21.447  25.400 -10.330  1.00  0.00    -0.350 N 
ATOM      5  H   UNL     1     -22.102  25.808  -9.625  1.00  0.00     0.345 HD
ATOM      6  H   UNL     1     -20.778  24.791  -9.803  1.00  0.00     0.345 HD
ATOM      7  H   UNL     1     -21.978  24.808 -11.010  1.00  0.00     0.345 HD
ENDBRANCH   3   4
BRANCH   3   8
ATOM      8  C   UNL     1     -21.506  26.890 -12.245  1.00  0.00     0.099 C 
ATOM      9  O   UNL     1     -22.255  27.902 -12.197  1.00  0.00    -0.544 OA
ATOM     10  O   UNL     1     -21.406  26.167 -13.427  1.00  0.00    -0.544 OA
ENDBRANCH   3   8
ENDBRANCH   1   3
BRANCH   1  11
ATOM     11  C   UNL     1     -21.213  27.586  -8.758  1.00  0.00     0.006 C 
ATOM     12  C   UNL     1     -22.576  28.283  -8.778  1.00  0.00     0.004 C 
ENDBRANCH   1  11
TORSDOF 4
ENDMDL
MODEL 9
REMARK VINA RESULT:    -4.027      2.120      2.992
REMARK INTER + INTRA:          -4.968
REMARK INTER:                  -5.015
REMARK INTRA:                   0.047
REMARK UNBOUND:                -0.117
REMARK SMILES CC[C@@H](C)[C@@H]([NH3+])C(=O)[O-]
REMARK SMILES IDX 3 1 4 2 5 3 6 4 7 8 8 9 9 10 2 11 1 12
REMARK H PARENT 6 5 6 6 6 7
REMARK Flexibility Score: inf
ROOT
ATOM      1  C   UNL     1     -20.274  28.343 -10.192  1.00  0.00     0.050 C 
ATOM      2  C   UNL     1     -19.272  28.233 -11.363  1.00  0.00     0.014 C 
ENDROOT
BRANCH   1   3
ATOM      3  C   UNL     1     -21.642  27.694 -10.584  1.00  0.00     0.230 C 
BRANCH   3   4
ATOM      4  N   UNL     1     -22.467  28.591 -11.409  1.00  0.00    -0.350 N 
ATOM      5  H   UNL     1     -23.459  28.577 -11.079  1.00  0.00     0.345 HD
ATOM      6  H   UNL     1     -22.475  28.262 -12.403  1.00  0.00     0.345 HD
ATOM      7  H   UNL     1     -22.095  29.569 -11.380  1.00  0.00     0.345 HD
ENDBRANCH   3   4
BRANCH   3   8
ATOM      8  C   UNL     1     -21.427  26.400 -11.329  1.00  0.00     0.099 C 
ATOM      9  O   UNL     1     -21.153  25.344 -10.699  1.00  0.00    -0.544 OA
ATOM     10  O   UNL     1     -21.535  26.362 -12.713  1.00  0.00    -0.544 OA
ENDBRANCH   3   8
ENDBRANCH   1   3
BRANCH   1  11
ATOM     11  C   UNL     1     -19.685  27.700  -8.908  1.00  0.00     0.006 C 
ATOM     12  C   UNL     1     -20.743  27.340  -7.862  1.00  0.00     0.004 C 
ENDBRANCH   1  11
TORSDOF 4
ENDMDL
