MODEL 1
REMARK VINA RESULT:    -4.178      0.000      0.000
REMARK INTER + INTRA:          -5.838
REMARK INTER:                  -5.644
REMARK INTRA:                  -0.194
REMARK UNBOUND:                -0.194
REMARK SMILES [NH3+]CCCC[C@H]([NH3+])C(=O)[O-]
REMARK SMILES IDX 4 1 3 2 2 3 1 4 5 8 6 9 7 10 8 14 9 15 10 16
REMARK H PARENT 1 5 1 6 1 7 7 11 7 12 7 13
REMARK Flexibility Score: inf
ROOT
ATOM      1  C   UNL     1     112.807 108.649 123.807  1.00  0.00     0.012 C 
ENDROOT
BRANCH   1   2
ATOM      2  C   UNL     1     113.730 109.805 123.381  1.00  0.00     0.061 C 
BRANCH   2   3
ATOM      3  C   UNL     1     113.245 111.204 123.806  1.00  0.00     0.258 C 
BRANCH   3   4
ATOM      4  N   UNL     1     113.554 111.499 125.207  1.00  0.00    -0.358 N 
ATOM      5  H   UNL     1     113.513 110.612 125.758  1.00  0.00     0.344 HD
ATOM      6  H   UNL     1     112.857 112.172 125.600  1.00  0.00     0.344 HD
ATOM      7  H   UNL     1     114.519 111.891 125.290  1.00  0.00     0.344 HD
ENDBRANCH   3   4
ENDBRANCH   2   3
ENDBRANCH   1   2
BRANCH   1   8
ATOM      8  C   UNL     1     111.313 108.983 123.640  1.00  0.00     0.072 C 
BRANCH   8   9
ATOM      9  C   UNL     1     110.714 108.350 122.366  1.00  0.00     0.227 C 
BRANCH   9  10
ATOM     10  N   UNL     1     109.314 108.758 122.199  1.00  0.00    -0.350 N 
ATOM     11  H   UNL     1     108.701 108.178 122.817  1.00  0.00     0.345 HD
ATOM     12  H   UNL     1     109.201 109.761 122.475  1.00  0.00     0.345 HD
ATOM     13  H   UNL     1     109.008 108.637 121.206  1.00  0.00     0.345 HD
ENDBRANCH   9  10
BRANCH   9  14
ATOM     14  C   UNL     1     110.816 106.847 122.406  1.00  0.00     0.099 C 
ATOM     15  O   UNL     1     111.489 106.228 121.539  1.00  0.00    -0.544 OA
ATOM     16  O   UNL     1     110.156 106.132 123.399  1.00  0.00    -0.544 OA
ENDBRANCH   9  14
ENDBRANCH   8   9
ENDBRANCH   1   8
TORSDOF 7
ENDMDL
MODEL 2
REMARK VINA RESULT:    -4.020      1.906      2.279
REMARK INTER + INTRA:          -5.623
REMARK INTER:                  -5.099
REMARK INTRA:                  -0.525
REMARK UNBOUND:                -0.194
REMARK SMILES [NH3+]CCCC[C@H]([NH3+])C(=O)[O-]
REMARK SMILES IDX 4 1 3 2 2 3 1 4 5 8 6 9 7 10 8 14 9 15 10 16
REMARK H PARENT 1 5 1 6 1 7 7 11 7 12 7 13
REMARK Flexibility Score: inf
ROOT
ATOM      1  C   UNL     1     113.031 109.370 122.655  1.00  0.00     0.012 C 
ENDROOT
BRANCH   1   2
ATOM      2  C   UNL     1     114.048 108.912 123.715  1.00  0.00     0.061 C 
BRANCH   2   3
ATOM      3  C   UNL     1     114.260 107.388 123.785  1.00  0.00     0.258 C 
BRANCH   3   4
ATOM      4  N   UNL     1     113.838 106.826 125.070  1.00  0.00    -0.358 N 
ATOM      5  H   UNL     1     112.820 107.021 125.209  1.00  0.00     0.344 HD
ATOM      6  H   UNL     1     114.373 107.264 125.854  1.00  0.00     0.344 HD
ATOM      7  H   UNL     1     113.976 105.791 125.076  1.00  0.00     0.344 HD
ENDBRANCH   3   4
ENDBRANCH   2   3
ENDBRANCH   1   2
BRANCH   1   8
ATOM      8  C   UNL     1     111.589 109.425 123.193  1.00  0.00     0.072 C 
BRANCH   8   9
ATOM      9  C   UNL     1     110.711 108.290 122.621  1.00  0.00     0.227 C 
BRANCH   9  10
ATOM     10  N   UNL     1     109.396 108.808 122.226  1.00  0.00    -0.350 N 
ATOM     11  H   UNL     1     108.651 108.125 122.495  1.00  0.00     0.345 HD
ATOM     12  H   UNL     1     109.206 109.710 122.721  1.00  0.00     0.345 HD
ATOM     13  H   UNL     1     109.355 108.968 121.193  1.00  0.00     0.345 HD
ENDBRANCH   9  10
BRANCH   9  14
ATOM     14  C   UNL     1     110.551 107.172 123.617  1.00  0.00     0.099 C 
ATOM     15  O   UNL     1     110.129 106.042 123.249  1.00  0.00    -0.544 OA
ATOM     16  O   UNL     1     110.861 107.384 124.955  1.00  0.00    -0.544 OA
ENDBRANCH   9  14
ENDBRANCH   8   9
ENDBRANCH   1   8
TORSDOF 7
ENDMDL
MODEL 3
REMARK VINA RESULT:    -4.005      3.392      4.332
REMARK INTER + INTRA:          -5.604
REMARK INTER:                  -5.430
REMARK INTRA:                  -0.174
REMARK UNBOUND:                -0.194
REMARK SMILES [NH3+]CCCC[C@H]([NH3+])C(=O)[O-]
REMARK SMILES IDX 4 1 3 2 2 3 1 4 5 8 6 9 7 10 8 14 9 15 10 16
REMARK H PARENT 1 5 1 6 1 7 7 11 7 12 7 13
REMARK Flexibility Score: inf
ROOT
ATOM      1  C   UNL     1     111.950 106.216 122.891  1.00  0.00     0.012 C 
ENDROOT
BRANCH   1   2
ATOM      2  C   UNL     1     110.734 107.013 123.394  1.00  0.00     0.061 C 
BRANCH   2   3
ATOM      3  C   UNL     1     110.634 108.449 122.846  1.00  0.00     0.258 C 
BRANCH   3   4
ATOM      4  N   UNL     1     109.338 108.716 122.217  1.00  0.00    -0.358 N 
ATOM      5  H   UNL     1     108.701 107.907 122.396  1.00  0.00     0.344 HD
ATOM      6  H   UNL     1     109.451 108.833 121.184  1.00  0.00     0.344 HD
ATOM      7  H   UNL     1     108.905 109.572 122.630  1.00  0.00     0.344 HD
ENDBRANCH   3   4
ENDBRANCH   2   3
ENDBRANCH   1   2
BRANCH   1   8
ATOM      8  C   UNL     1     112.932 107.074 122.072  1.00  0.00     0.072 C 
BRANCH   8   9
ATOM      9  C   UNL     1     112.931 106.692 120.576  1.00  0.00     0.227 C 
BRANCH   9  10
ATOM     10  N   UNL     1     112.007 105.578 120.332  1.00  0.00    -0.350 N 
ATOM     11  H   UNL     1     112.540 104.680 120.282  1.00  0.00     0.345 HD
ATOM     12  H   UNL     1     111.320 105.507 121.118  1.00  0.00     0.345 HD
ATOM     13  H   UNL     1     111.488 105.717 119.433  1.00  0.00     0.345 HD
ENDBRANCH   9  10
BRANCH   9  14
ATOM     14  C   UNL     1     114.316 106.330 120.106  1.00  0.00     0.099 C 
ATOM     15  O   UNL     1     115.285 106.328 120.912  1.00  0.00    -0.544 OA
ATOM     16  O   UNL     1     114.535 106.003 118.773  1.00  0.00    -0.544 OA
ENDBRANCH   9  14
ENDBRANCH   8   9
ENDBRANCH   1   8
TORSDOF 7
ENDMDL
MODEL 4
REMARK VINA RESULT:    -3.996      2.983      4.156
REMARK INTER + INTRA:          -5.591
REMARK INTER:                  -5.336
REMARK INTRA:                  -0.255
REMARK UNBOUND:                -0.194
REMARK SMILES [NH3+]CCCC[C@H]([NH3+])C(=O)[O-]
REMARK SMILES IDX 4 1 3 2 2 3 1 4 5 8 6 9 7 10 8 14 9 15 10 16
REMARK H PARENT 1 5 1 6 1 7 7 11 7 12 7 13
REMARK Flexibility Score: inf
ROOT
ATOM      1  C   UNL     1     111.318 107.377 124.458  1.00  0.00     0.012 C 
ENDROOT
BRANCH   1   2
ATOM      2  C   UNL     1     111.229 108.800 123.878  1.00  0.00     0.061 C 
BRANCH   2   3
ATOM      3  C   UNL     1     110.821 108.865 122.395  1.00  0.00     0.258 C 
BRANCH   3   4
ATOM      4  N   UNL     1     109.394 108.595 122.197  1.00  0.00    -0.358 N 
ATOM      5  H   UNL     1     109.178 107.636 122.551  1.00  0.00     0.344 HD
ATOM      6  H   UNL     1     109.151 108.641 121.181  1.00  0.00     0.344 HD
ATOM      7  H   UNL     1     108.819 109.280 122.736  1.00  0.00     0.344 HD
ENDBRANCH   3   4
ENDBRANCH   2   3
ENDBRANCH   1   2
BRANCH   1   8
ATOM      8  C   UNL     1     112.090 106.406 123.547  1.00  0.00     0.072 C 
BRANCH   8   9
ATOM      9  C   UNL     1     113.505 106.103 124.085  1.00  0.00     0.227 C 
BRANCH   9  10
ATOM     10  N   UNL     1     113.615 106.504 125.493  1.00  0.00    -0.350 N 
ATOM     11  H   UNL     1     112.731 106.268 125.999  1.00  0.00     0.345 HD
ATOM     12  H   UNL     1     114.401 105.986 125.950  1.00  0.00     0.345 HD
ATOM     13  H   UNL     1     113.790 107.532 125.573  1.00  0.00     0.345 HD
ENDBRANCH   9  10
BRANCH   9  14
ATOM     14  C   UNL     1     114.561 106.797 123.264  1.00  0.00     0.099 C 
ATOM     15  O   UNL     1     115.343 106.131 122.533  1.00  0.00    -0.544 OA
ATOM     16  O   UNL     1     114.683 108.180 123.315  1.00  0.00    -0.544 OA
ENDBRANCH   9  14
ENDBRANCH   8   9
ENDBRANCH   1   8
TORSDOF 7
ENDMDL
MODEL 5
REMARK VINA RESULT:    -3.994      3.601      4.669
REMARK INTER + INTRA:          -5.589
REMARK INTER:                  -5.441
REMARK INTRA:                  -0.149
REMARK UNBOUND:                -0.194
REMARK SMILES [NH3+]CCCC[C@H]([NH3+])C(=O)[O-]
REMARK SMILES IDX 4 1 3 2 2 3 1 4 5 8 6 9 7 10 8 14 9 15 10 16
REMARK H PARENT 1 5 1 6 1 7 7 11 7 12 7 13
REMARK Flexibility Score: inf
ROOT
ATOM      1  C   UNL     1     112.034 107.042 124.482  1.00  0.00     0.012 C 
ENDROOT
BRANCH   1   2
ATOM      2  C   UNL     1     110.942 108.074 124.151  1.00  0.00     0.061 C 
BRANCH   2   3
ATOM      3  C   UNL     1     110.800 108.403 122.653  1.00  0.00     0.258 C 
BRANCH   3   4
ATOM      4  N   UNL     1     109.406 108.617 122.259  1.00  0.00    -0.358 N 
ATOM      5  H   UNL     1     109.282 108.311 121.267  1.00  0.00     0.344 HD
ATOM      6  H   UNL     1     109.157 109.630 122.331  1.00  0.00     0.344 HD
ATOM      7  H   UNL     1     108.768 108.047 122.859  1.00  0.00     0.344 HD
ENDBRANCH   3   4
ENDBRANCH   2   3
ENDBRANCH   1   2
BRANCH   1   8
ATOM      8  C   UNL     1     112.943 106.726 123.280  1.00  0.00     0.072 C 
BRANCH   8   9
ATOM      9  C   UNL     1     114.262 106.047 123.710  1.00  0.00     0.227 C 
BRANCH   9  10
ATOM     10  N   UNL     1     113.987 104.762 124.367  1.00  0.00    -0.350 N 
ATOM     11  H   UNL     1     114.166 103.978 123.698  1.00  0.00     0.345 HD
ATOM     12  H   UNL     1     114.621 104.642 125.190  1.00  0.00     0.345 HD
ATOM     13  H   UNL     1     112.992 104.717 124.689  1.00  0.00     0.345 HD
ENDBRANCH   9  10
BRANCH   9  14
ATOM     14  C   UNL     1     115.059 106.938 124.627  1.00  0.00     0.099 C 
ATOM     15  O   UNL     1     115.347 108.116 124.283  1.00  0.00    -0.544 OA
ATOM     16  O   UNL     1     115.490 106.460 125.859  1.00  0.00    -0.544 OA
ENDBRANCH   9  14
ENDBRANCH   8   9
ENDBRANCH   1   8
TORSDOF 7
ENDMDL
MODEL 6
REMARK VINA RESULT:    -3.974      2.382      3.590
REMARK INTER + INTRA:          -5.562
REMARK INTER:                  -5.038
REMARK INTRA:                  -0.524
REMARK UNBOUND:                -0.194
REMARK SMILES [NH3+]CCCC[C@H]([NH3+])C(=O)[O-]
REMARK SMILES IDX 4 1 3 2 2 3 1 4 5 8 6 9 7 10 8 14 9 15 10 16
REMARK H PARENT 1 5 1 6 1 7 7 11 7 12 7 13
REMARK Flexibility Score: inf
ROOT
ATOM      1  C   UNL     1     113.105 108.559 121.524  1.00  0.00     0.012 C 
ENDROOT
BRANCH   1   2
ATOM      2  C   UNL     1     112.700 107.936 120.176  1.00  0.00     0.061 C 
BRANCH   2   3
ATOM      3  C   UNL     1     113.275 106.531 119.918  1.00  0.00     0.258 C 
BRANCH   3   4
ATOM      4  N   UNL     1     112.266 105.480 120.065  1.00  0.00    -0.358 N 
ATOM      5  H   UNL     1     112.158 104.983 119.153  1.00  0.00     0.344 HD
ATOM      6  H   UNL     1     111.344 105.895 120.333  1.00  0.00     0.344 HD
ATOM      7  H   UNL     1     112.569 104.785 120.783  1.00  0.00     0.344 HD
ENDBRANCH   3   4
ENDBRANCH   2   3
ENDBRANCH   1   2
BRANCH   1   8
ATOM      8  C   UNL     1     111.895 108.928 122.401  1.00  0.00     0.072 C 
BRANCH   8   9
ATOM      9  C   UNL     1     110.711 107.958 122.197  1.00  0.00     0.227 C 
BRANCH   9  10
ATOM     10  N   UNL     1     109.435 108.678 122.292  1.00  0.00    -0.350 N 
ATOM     11  H   UNL     1     109.363 109.149 123.222  1.00  0.00     0.345 HD
ATOM     12  H   UNL     1     109.386 109.413 121.549  1.00  0.00     0.345 HD
ATOM     13  H   UNL     1     108.629 108.021 122.178  1.00  0.00     0.345 HD
ENDBRANCH   9  10
BRANCH   9  14
ATOM     14  C   UNL     1     110.749 106.835 123.201  1.00  0.00     0.099 C 
ATOM     15  O   UNL     1     110.943 105.648 122.826  1.00  0.00    -0.544 OA
ATOM     16  O   UNL     1     110.559 107.103 124.551  1.00  0.00    -0.544 OA
ENDBRANCH   9  14
ENDBRANCH   8   9
ENDBRANCH   1   8
TORSDOF 7
ENDMDL
MODEL 7
REMARK VINA RESULT:    -3.938      2.203      2.980
REMARK INTER + INTRA:          -5.513
REMARK INTER:                  -5.086
REMARK INTRA:                  -0.427
REMARK UNBOUND:                -0.194
REMARK SMILES [NH3+]CCCC[C@H]([NH3+])C(=O)[O-]
REMARK SMILES IDX 4 1 3 2 2 3 1 4 5 8 6 9 7 10 8 14 9 15 10 16
REMARK H PARENT 1 5 1 6 1 7 7 11 7 12 7 13
REMARK Flexibility Score: inf
ROOT
ATOM      1  C   UNL     1     113.058 108.201 123.680  1.00  0.00     0.012 C 
ENDROOT
BRANCH   1   2
ATOM      2  C   UNL     1     113.470 106.957 124.486  1.00  0.00     0.061 C 
BRANCH   2   3
ATOM      3  C   UNL     1     114.571 106.103 123.832  1.00  0.00     0.258 C 
BRANCH   3   4
ATOM      4  N   UNL     1     114.367 105.937 122.391  1.00  0.00    -0.358 N 
ATOM      5  H   UNL     1     114.724 106.787 121.898  1.00  0.00     0.344 HD
ATOM      6  H   UNL     1     113.349 105.828 122.177  1.00  0.00     0.344 HD
ATOM      7  H   UNL     1     114.898 105.109 122.043  1.00  0.00     0.344 HD
ENDBRANCH   3   4
ENDBRANCH   2   3
ENDBRANCH   1   2
BRANCH   1   8
ATOM      8  C   UNL     1     111.538 108.447 123.692  1.00  0.00     0.072 C 
BRANCH   8   9
ATOM      9  C   UNL     1     110.881 108.097 122.339  1.00  0.00     0.227 C 
BRANCH   9  10
ATOM     10  N   UNL     1     109.504 108.601 122.291  1.00  0.00    -0.350 N 
ATOM     11  H   UNL     1     109.307 109.004 121.346  1.00  0.00     0.345 HD
ATOM     12  H   UNL     1     108.832 107.817 122.459  1.00  0.00     0.345 HD
ATOM     13  H   UNL     1     109.355 109.342 123.015  1.00  0.00     0.345 HD
ENDBRANCH   9  10
BRANCH   9  14
ATOM     14  C   UNL     1     110.898 106.610 122.095  1.00  0.00     0.099 C 
ATOM     15  O   UNL     1     110.327 105.823 122.897  1.00  0.00    -0.544 OA
ATOM     16  O   UNL     1     111.554 106.096 120.983  1.00  0.00    -0.544 OA
ENDBRANCH   9  14
ENDBRANCH   8   9
ENDBRANCH   1   8
TORSDOF 7
ENDMDL
MODEL 8
REMARK VINA RESULT:    -3.843      2.898      3.477
REMARK INTER + INTRA:          -5.384
REMARK INTER:                  -4.915
REMARK INTRA:                  -0.470
REMARK UNBOUND:                -0.194
REMARK SMILES [NH3+]CCCC[C@H]([NH3+])C(=O)[O-]
REMARK SMILES IDX 4 1 3 2 2 3 1 4 5 8 6 9 7 10 8 14 9 15 10 16
REMARK H PARENT 1 5 1 6 1 7 7 11 7 12 7 13
REMARK Flexibility Score: inf
ROOT
ATOM      1  C   UNL     1     112.329 107.517 121.255  1.00  0.00     0.012 C 
ENDROOT
BRANCH   1   2
ATOM      2  C   UNL     1     113.631 106.716 121.073  1.00  0.00     0.061 C 
BRANCH   2   3
ATOM      3  C   UNL     1     114.561 106.713 122.300  1.00  0.00     0.258 C 
BRANCH   3   4
ATOM      4  N   UNL     1     114.235 105.640 123.243  1.00  0.00    -0.358 N 
ATOM      5  H   UNL     1     114.099 104.750 122.711  1.00  0.00     0.344 HD
ATOM      6  H   UNL     1     113.352 105.862 123.757  1.00  0.00     0.344 HD
ATOM      7  H   UNL     1     115.020 105.501 123.918  1.00  0.00     0.344 HD
ENDBRANCH   3   4
ENDBRANCH   2   3
ENDBRANCH   1   2
BRANCH   1   8
ATOM      8  C   UNL     1     111.151 106.644 121.725  1.00  0.00     0.072 C 
BRANCH   8   9
ATOM      9  C   UNL     1     110.292 107.353 122.795  1.00  0.00     0.227 C 
BRANCH   9  10
ATOM     10  N   UNL     1     109.458 108.392 122.179  1.00  0.00    -0.350 N 
ATOM     11  H   UNL     1     108.529 108.428 122.657  1.00  0.00     0.345 HD
ATOM     12  H   UNL     1     109.917 109.325 122.286  1.00  0.00     0.345 HD
ATOM     13  H   UNL     1     109.311 108.194 121.162  1.00  0.00     0.345 HD
ENDBRANCH   9  10
BRANCH   9  14
ATOM     14  C   UNL     1     111.156 107.953 123.875  1.00  0.00     0.099 C 
ATOM     15  O   UNL     1     111.186 109.200 124.050  1.00  0.00    -0.544 OA
ATOM     16  O   UNL     1     111.933 107.129 124.680  1.00  0.00    -0.544 OA
ENDBRANCH   9  14
ENDBRANCH   8   9
ENDBRANCH   1   8
TORSDOF 7
ENDMDL
MODEL 9
REMARK VINA RESULT:    -3.811      3.158      3.602
REMARK INTER + INTRA:          -5.342
REMARK INTER:                  -5.176
REMARK INTRA:                  -0.166
REMARK UNBOUND:                -0.194
REMARK SMILES [NH3+]CCCC[C@H]([NH3+])C(=O)[O-]
REMARK SMILES IDX 4 1 3 2 2 3 1 4 5 8 6 9 7 10 8 14 9 15 10 16
REMARK H PARENT 1 5 1 6 1 7 7 11 7 12 7 13
REMARK Flexibility Score: inf
ROOT
ATOM      1  C   UNL     1     114.086 107.305 123.661  1.00  0.00     0.012 C 
ENDROOT
BRANCH   1   2
ATOM      2  C   UNL     1     114.666 106.235 124.603  1.00  0.00     0.061 C 
BRANCH   2   3
ATOM      3  C   UNL     1     115.796 106.732 125.523  1.00  0.00     0.258 C 
BRANCH   3   4
ATOM      4  N   UNL     1     115.870 105.974 126.774  1.00  0.00    -0.358 N 
ATOM      5  H   UNL     1     114.916 105.928 127.200  1.00  0.00     0.344 HD
ATOM      6  H   UNL     1     116.516 106.444 127.448  1.00  0.00     0.344 HD
ATOM      7  H   UNL     1     116.192 104.998 126.588  1.00  0.00     0.344 HD
ENDBRANCH   3   4
ENDBRANCH   2   3
ENDBRANCH   1   2
BRANCH   1   8
ATOM      8  C   UNL     1     113.261 106.705 122.508  1.00  0.00     0.072 C 
BRANCH   8   9
ATOM      9  C   UNL     1     111.917 106.122 122.997  1.00  0.00     0.227 C 
BRANCH   9  10
ATOM     10  N   UNL     1     111.243 105.403 121.908  1.00  0.00    -0.350 N 
ATOM     11  H   UNL     1     110.394 104.918 122.278  1.00  0.00     0.345 HD
ATOM     12  H   UNL     1     110.937 106.081 121.172  1.00  0.00     0.345 HD
ATOM     13  H   UNL     1     111.883 104.695 121.480  1.00  0.00     0.345 HD
ENDBRANCH   9  10
BRANCH   9  14
ATOM     14  C   UNL     1     111.019 107.204 123.539  1.00  0.00     0.099 C 
ATOM     15  O   UNL     1     110.485 108.040 122.763  1.00  0.00    -0.544 OA
ATOM     16  O   UNL     1     110.784 107.291 124.906  1.00  0.00    -0.544 OA
ENDBRANCH   9  14
ENDBRANCH   8   9
ENDBRANCH   1   8
TORSDOF 7
ENDMDL
