MODEL 1
REMARK VINA RESULT:    -3.657      0.000      0.000
REMARK INTER + INTRA:          -7.507
REMARK INTER:                  -5.688
REMARK INTRA:                  -1.819
REMARK UNBOUND:                -1.819
REMARK SMILES COc1cc(CNC(=O)CCCCC=CC(C)C)ccc1O
REMARK SMILES IDX 11 1 12 2 13 3 14 4 15 5 16 6 17 7 18 8 10 9 8 10 9 11 7 12
REMARK SMILES IDX 6 14 5 15 4 16 19 17 3 18 20 19 21 20 2 21 1 22 22 23
REMARK H PARENT 7 13 22 24
REMARK Flexibility Score: inf
ROOT
ATOM      1  C   UNL     1     -17.682  51.438  36.109  1.00  0.00     0.010 C 
ENDROOT
BRANCH   1   2
ATOM      2  C   UNL     1     -18.583  51.193  34.885  1.00  0.00     0.005 C 
BRANCH   2   3
ATOM      3  C   UNL     1     -20.015  51.702  35.109  1.00  0.00     0.027 C 
BRANCH   3   4
ATOM      4  C   UNL     1     -20.043  53.084  35.706  1.00  0.00    -0.031 C 
ATOM      5  C   UNL     1     -20.420  54.153  34.988  1.00  0.00    -0.028 C 
BRANCH   5   6
ATOM      6  C   UNL     1     -20.441  55.537  35.594  1.00  0.00     0.005 C 
ATOM      7  C   UNL     1     -20.518  55.451  37.123  1.00  0.00     0.012 C 
ATOM      8  C   UNL     1     -21.622  56.346  35.046  1.00  0.00     0.012 C 
ENDBRANCH   5   6
ENDBRANCH   3   4
ENDBRANCH   2   3
ENDBRANCH   1   2
BRANCH   1   9
ATOM      9  C   UNL     1     -16.416  52.224  35.749  1.00  0.00     0.100 C 
BRANCH   9  10
ATOM     10  C   UNL     1     -16.390  53.572  36.407  1.00  0.00     0.220 C 
ATOM     11  O   UNL     1     -16.474  53.650  37.663  1.00  0.00    -0.275 OA
ATOM     12  N   UNL     1     -16.233  54.759  35.617  1.00  0.00    -0.352 N 
ATOM     13  H   UNL     1     -16.117  54.670  34.582  1.00  0.00     0.163 HD
BRANCH  12  14
ATOM     14  C   UNL     1     -16.201  56.096  36.206  1.00  0.00     0.151 C 
BRANCH  14  15
ATOM     15  C   UNL     1     -17.134  57.014  35.463  1.00  0.00    -0.025 A 
ATOM     16  C   UNL     1     -17.800  58.041  36.149  1.00  0.00     0.056 A 
ATOM     17  C   UNL     1     -17.323  56.871  34.081  1.00  0.00     0.009 A 
ATOM     18  C   UNL     1     -18.660  58.922  35.462  1.00  0.00     0.160 A 
ATOM     19  C   UNL     1     -18.174  57.739  33.395  1.00  0.00     0.050 A 
ATOM     20  C   UNL     1     -18.842  58.761  34.075  1.00  0.00     0.157 A 
BRANCH  18  21
ATOM     21  O   UNL     1     -19.341  59.959  36.120  1.00  0.00    -0.493 OA
ATOM     22  C   UNL     1     -18.823  61.270  36.313  1.00  0.00     0.278 C 
ENDBRANCH  18  21
BRANCH  20  23
ATOM     23  O   UNL     1     -19.684  59.610  33.356  1.00  0.00    -0.504 OA
ATOM     24  H   UNL     1     -19.804  60.585  33.601  1.00  0.00     0.293 HD
ENDBRANCH  20  23
ENDBRANCH  14  15
ENDBRANCH  12  14
ENDBRANCH   9  10
ENDBRANCH   1   9
TORSDOF 10
ENDMDL
MODEL 2
REMARK VINA RESULT:    -3.515     14.045     16.817
REMARK INTER + INTRA:          -7.286
REMARK INTER:                  -6.360
REMARK INTRA:                  -0.927
REMARK UNBOUND:                -1.819
REMARK SMILES COc1cc(CNC(=O)CCCCC=CC(C)C)ccc1O
REMARK SMILES IDX 11 1 12 2 13 3 14 4 15 5 16 6 17 7 18 8 10 9 8 10 9 11 7 12
REMARK SMILES IDX 6 14 5 15 4 16 19 17 3 18 20 19 21 20 2 21 1 22 22 23
REMARK H PARENT 7 13 22 24
REMARK Flexibility Score: inf
ROOT
ATOM      1  C   UNL     1     -29.162  46.829  35.540  1.00  0.00     0.010 C 
ENDROOT
BRANCH   1   2
ATOM      2  C   UNL     1     -28.009  47.681  34.981  1.00  0.00     0.005 C 
BRANCH   2   3
ATOM      3  C   UNL     1     -27.880  49.028  35.709  1.00  0.00     0.027 C 
BRANCH   3   4
ATOM      4  C   UNL     1     -29.163  49.816  35.686  1.00  0.00    -0.031 C 
ATOM      5  C   UNL     1     -29.204  51.081  35.242  1.00  0.00    -0.028 C 
BRANCH   5   6
ATOM      6  C   UNL     1     -30.495  51.866  35.227  1.00  0.00     0.005 C 
ATOM      7  C   UNL     1     -31.565  51.152  36.061  1.00  0.00     0.012 C 
ATOM      8  C   UNL     1     -30.986  52.065  33.789  1.00  0.00     0.012 C 
ENDBRANCH   5   6
ENDBRANCH   3   4
ENDBRANCH   2   3
ENDBRANCH   1   2
BRANCH   1   9
ATOM      9  C   UNL     1     -29.465  45.612  34.658  1.00  0.00     0.100 C 
BRANCH   9  10
ATOM     10  C   UNL     1     -30.479  44.703  35.289  1.00  0.00     0.220 C 
ATOM     11  O   UNL     1     -30.088  43.761  36.030  1.00  0.00    -0.275 OA
ATOM     12  N   UNL     1     -31.880  44.929  35.081  1.00  0.00    -0.352 N 
ATOM     13  H   UNL     1     -32.184  45.745  34.503  1.00  0.00     0.163 HD
BRANCH  12  14
ATOM     14  C   UNL     1     -32.909  44.076  35.672  1.00  0.00     0.151 C 
BRANCH  14  15
ATOM     15  C   UNL     1     -33.309  44.604  37.023  1.00  0.00    -0.025 A 
ATOM     16  C   UNL     1     -33.832  45.901  37.142  1.00  0.00     0.056 A 
ATOM     17  C   UNL     1     -33.191  43.800  38.166  1.00  0.00     0.009 A 
ATOM     18  C   UNL     1     -34.231  46.402  38.398  1.00  0.00     0.160 A 
ATOM     19  C   UNL     1     -33.583  44.291  39.413  1.00  0.00     0.050 A 
ATOM     20  C   UNL     1     -34.101  45.583  39.535  1.00  0.00     0.157 A 
BRANCH  18  21
ATOM     21  O   UNL     1     -34.757  47.695  38.549  1.00  0.00    -0.493 OA
ATOM     22  C   UNL     1     -34.241  48.857  37.910  1.00  0.00     0.278 C 
ENDBRANCH  18  21
BRANCH  20  23
ATOM     23  O   UNL     1     -34.483  46.038  40.798  1.00  0.00    -0.504 OA
ATOM     24  H   UNL     1     -34.011  46.805  41.260  1.00  0.00     0.293 HD
ENDBRANCH  20  23
ENDBRANCH  14  15
ENDBRANCH  12  14
ENDBRANCH   9  10
ENDBRANCH   1   9
TORSDOF 10
ENDMDL
MODEL 3
REMARK VINA RESULT:    -3.514     14.389     17.214
REMARK INTER + INTRA:          -7.284
REMARK INTER:                  -5.142
REMARK INTRA:                  -2.142
REMARK UNBOUND:                -1.819
REMARK SMILES COc1cc(CNC(=O)CCCCC=CC(C)C)ccc1O
REMARK SMILES IDX 11 1 12 2 13 3 14 4 15 5 16 6 17 7 18 8 10 9 8 10 9 11 7 12
REMARK SMILES IDX 6 14 5 15 4 16 19 17 3 18 20 19 21 20 2 21 1 22 22 23
REMARK H PARENT 7 13 22 24
REMARK Flexibility Score: inf
ROOT
ATOM      1  C   UNL     1     -28.433  46.659  35.474  1.00  0.00     0.010 C 
ENDROOT
BRANCH   1   2
ATOM      2  C   UNL     1     -28.617  48.185  35.398  1.00  0.00     0.005 C 
BRANCH   2   3
ATOM      3  C   UNL     1     -29.377  48.737  36.614  1.00  0.00     0.027 C 
BRANCH   3   4
ATOM      4  C   UNL     1     -29.469  47.735  37.733  1.00  0.00    -0.031 C 
ATOM      5  C   UNL     1     -30.650  47.261  38.159  1.00  0.00    -0.028 C 
BRANCH   5   6
ATOM      6  C   UNL     1     -30.733  46.259  39.287  1.00  0.00     0.005 C 
ATOM      7  C   UNL     1     -31.101  46.960  40.599  1.00  0.00     0.012 C 
ATOM      8  C   UNL     1     -29.405  45.508  39.437  1.00  0.00     0.012 C 
ENDBRANCH   5   6
ENDBRANCH   3   4
ENDBRANCH   2   3
ENDBRANCH   1   2
BRANCH   1   9
ATOM      9  C   UNL     1     -29.396  45.911  34.543  1.00  0.00     0.100 C 
BRANCH   9  10
ATOM     10  C   UNL     1     -30.229  44.910  35.289  1.00  0.00     0.220 C 
ATOM     11  O   UNL     1     -29.684  44.179  36.161  1.00  0.00    -0.275 OA
ATOM     12  N   UNL     1     -31.638  44.813  35.040  1.00  0.00    -0.352 N 
ATOM     13  H   UNL     1     -32.078  45.462  34.349  1.00  0.00     0.163 HD
BRANCH  12  14
ATOM     14  C   UNL     1     -32.494  43.857  35.739  1.00  0.00     0.151 C 
BRANCH  14  15
ATOM     15  C   UNL     1     -33.149  44.515  36.924  1.00  0.00    -0.025 A 
ATOM     16  C   UNL     1     -33.628  45.830  36.820  1.00  0.00     0.056 A 
ATOM     17  C   UNL     1     -33.312  43.814  38.127  1.00  0.00     0.009 A 
ATOM     18  C   UNL     1     -34.262  46.451  37.914  1.00  0.00     0.160 A 
ATOM     19  C   UNL     1     -33.938  44.425  39.216  1.00  0.00     0.050 A 
ATOM     20  C   UNL     1     -34.413  45.735  39.117  1.00  0.00     0.157 A 
BRANCH  18  21
ATOM     21  O   UNL     1     -34.751  47.766  37.841  1.00  0.00    -0.493 OA
ATOM     22  C   UNL     1     -33.951  48.934  37.983  1.00  0.00     0.278 C 
ENDBRANCH  18  21
BRANCH  20  23
ATOM     23  O   UNL     1     -35.034  46.312  40.225  1.00  0.00    -0.504 OA
ATOM     24  H   UNL     1     -34.567  46.403  41.119  1.00  0.00     0.293 HD
ENDBRANCH  20  23
ENDBRANCH  14  15
ENDBRANCH  12  14
ENDBRANCH   9  10
ENDBRANCH   1   9
TORSDOF 10
ENDMDL
MODEL 4
REMARK VINA RESULT:    -3.507      2.360      3.719
REMARK INTER + INTRA:          -7.273
REMARK INTER:                  -6.690
REMARK INTRA:                  -0.583
REMARK UNBOUND:                -1.819
REMARK SMILES COc1cc(CNC(=O)CCCCC=CC(C)C)ccc1O
REMARK SMILES IDX 11 1 12 2 13 3 14 4 15 5 16 6 17 7 18 8 10 9 8 10 9 11 7 12
REMARK SMILES IDX 6 14 5 15 4 16 19 17 3 18 20 19 21 20 2 21 1 22 22 23
REMARK H PARENT 7 13 22 24
REMARK Flexibility Score: inf
ROOT
ATOM      1  C   UNL     1     -18.057  51.651  35.754  1.00  0.00     0.010 C 
ENDROOT
BRANCH   1   2
ATOM      2  C   UNL     1     -18.196  50.622  34.618  1.00  0.00     0.005 C 
BRANCH   2   3
ATOM      3  C   UNL     1     -19.516  50.783  33.850  1.00  0.00     0.027 C 
BRANCH   3   4
ATOM      4  C   UNL     1     -19.439  50.221  32.455  1.00  0.00    -0.031 C 
ATOM      5  C   UNL     1     -20.294  49.281  32.026  1.00  0.00    -0.028 C 
BRANCH   5   6
ATOM      6  C   UNL     1     -20.206  48.719  30.627  1.00  0.00     0.005 C 
ATOM      7  C   UNL     1     -19.049  49.370  29.861  1.00  0.00     0.012 C 
ATOM      8  C   UNL     1     -21.527  48.930  29.879  1.00  0.00     0.012 C 
ENDBRANCH   5   6
ENDBRANCH   3   4
ENDBRANCH   2   3
ENDBRANCH   1   2
BRANCH   1   9
ATOM      9  C   UNL     1     -16.723  52.406  35.693  1.00  0.00     0.100 C 
BRANCH   9  10
ATOM     10  C   UNL     1     -16.822  53.765  36.323  1.00  0.00     0.220 C 
ATOM     11  O   UNL     1     -17.508  53.912  37.371  1.00  0.00    -0.275 OA
ATOM     12  N   UNL     1     -16.112  54.876  35.759  1.00  0.00    -0.352 N 
ATOM     13  H   UNL     1     -15.511  54.722  34.919  1.00  0.00     0.163 HD
BRANCH  12  14
ATOM     14  C   UNL     1     -16.173  56.219  36.333  1.00  0.00     0.151 C 
BRANCH  14  15
ATOM     15  C   UNL     1     -17.131  57.076  35.550  1.00  0.00    -0.025 A 
ATOM     16  C   UNL     1     -17.729  58.192  36.154  1.00  0.00     0.056 A 
ATOM     17  C   UNL     1     -17.412  56.785  34.207  1.00  0.00     0.009 A 
ATOM     18  C   UNL     1     -18.611  59.016  35.426  1.00  0.00     0.160 A 
ATOM     19  C   UNL     1     -18.286  57.596  33.481  1.00  0.00     0.050 A 
ATOM     20  C   UNL     1     -18.885  58.707  34.081  1.00  0.00     0.157 A 
BRANCH  18  21
ATOM     21  O   UNL     1     -19.224  60.139  36.003  1.00  0.00    -0.493 OA
ATOM     22  C   UNL     1     -19.393  60.339  37.402  1.00  0.00     0.278 C 
ENDBRANCH  18  21
BRANCH  20  23
ATOM     23  O   UNL     1     -19.753  59.494  33.323  1.00  0.00    -0.504 OA
ATOM     24  H   UNL     1     -19.445  59.997  32.500  1.00  0.00     0.293 HD
ENDBRANCH  20  23
ENDBRANCH  14  15
ENDBRANCH  12  14
ENDBRANCH   9  10
ENDBRANCH   1   9
TORSDOF 10
ENDMDL
MODEL 5
REMARK VINA RESULT:    -3.493     14.797     17.459
REMARK INTER + INTRA:          -7.253
REMARK INTER:                  -5.136
REMARK INTRA:                  -2.116
REMARK UNBOUND:                -1.819
REMARK SMILES COc1cc(CNC(=O)CCCCC=CC(C)C)ccc1O
REMARK SMILES IDX 11 1 12 2 13 3 14 4 15 5 16 6 17 7 18 8 10 9 8 10 9 11 7 12
REMARK SMILES IDX 6 14 5 15 4 16 19 17 3 18 20 19 21 20 2 21 1 22 22 23
REMARK H PARENT 7 13 22 24
REMARK Flexibility Score: inf
ROOT
ATOM      1  C   UNL     1     -27.277  44.688  34.849  1.00  0.00     0.010 C 
ENDROOT
BRANCH   1   2
ATOM      2  C   UNL     1     -27.966  45.900  34.195  1.00  0.00     0.005 C 
BRANCH   2   3
ATOM      3  C   UNL     1     -29.369  46.147  34.770  1.00  0.00     0.027 C 
BRANCH   3   4
ATOM      4  C   UNL     1     -29.326  46.658  36.185  1.00  0.00    -0.031 C 
ATOM      5  C   UNL     1     -30.170  46.204  37.124  1.00  0.00    -0.028 C 
BRANCH   5   6
ATOM      6  C   UNL     1     -30.122  46.727  38.540  1.00  0.00     0.005 C 
ATOM      7  C   UNL     1     -29.950  45.571  39.532  1.00  0.00     0.012 C 
ATOM      8  C   UNL     1     -31.393  47.521  38.863  1.00  0.00     0.012 C 
ENDBRANCH   5   6
ENDBRANCH   3   4
ENDBRANCH   2   3
ENDBRANCH   1   2
BRANCH   1   9
ATOM      9  C   UNL     1     -27.954  43.364  34.475  1.00  0.00     0.100 C 
BRANCH   9  10
ATOM     10  C   UNL     1     -28.896  42.897  35.545  1.00  0.00     0.220 C 
ATOM     11  O   UNL     1     -28.567  43.020  36.756  1.00  0.00    -0.275 OA
ATOM     12  N   UNL     1     -30.175  42.349  35.194  1.00  0.00    -0.352 N 
ATOM     13  H   UNL     1     -30.448  42.301  34.186  1.00  0.00     0.163 HD
BRANCH  12  14
ATOM     14  C   UNL     1     -31.129  41.880  36.196  1.00  0.00     0.151 C 
BRANCH  14  15
ATOM     15  C   UNL     1     -32.054  42.998  36.596  1.00  0.00    -0.025 A 
ATOM     16  C   UNL     1     -32.356  43.208  37.950  1.00  0.00     0.056 A 
ATOM     17  C   UNL     1     -32.598  43.853  35.627  1.00  0.00     0.009 A 
ATOM     18  C   UNL     1     -33.203  44.264  38.341  1.00  0.00     0.160 A 
ATOM     19  C   UNL     1     -33.440  44.900  36.008  1.00  0.00     0.050 A 
ATOM     20  C   UNL     1     -33.744  45.110  37.355  1.00  0.00     0.157 A 
BRANCH  18  21
ATOM     21  O   UNL     1     -33.524  44.499  39.688  1.00  0.00    -0.493 OA
ATOM     22  C   UNL     1     -34.375  43.672  40.472  1.00  0.00     0.278 C 
ENDBRANCH  18  21
BRANCH  20  23
ATOM     23  O   UNL     1     -34.589  46.167  37.698  1.00  0.00    -0.504 OA
ATOM     24  H   UNL     1     -34.764  46.428  38.661  1.00  0.00     0.293 HD
ENDBRANCH  20  23
ENDBRANCH  14  15
ENDBRANCH  12  14
ENDBRANCH   9  10
ENDBRANCH   1   9
TORSDOF 10
ENDMDL
MODEL 6
REMARK VINA RESULT:    -3.313      2.061      3.859
REMARK INTER + INTRA:          -6.972
REMARK INTER:                  -4.843
REMARK INTRA:                  -2.129
REMARK UNBOUND:                -1.819
REMARK SMILES COc1cc(CNC(=O)CCCCC=CC(C)C)ccc1O
REMARK SMILES IDX 11 1 12 2 13 3 14 4 15 5 16 6 17 7 18 8 10 9 8 10 9 11 7 12
REMARK SMILES IDX 6 14 5 15 4 16 19 17 3 18 20 19 21 20 2 21 1 22 22 23
REMARK H PARENT 7 13 22 24
REMARK Flexibility Score: inf
ROOT
ATOM      1  C   UNL     1     -16.614  54.063  35.799  1.00  0.00     0.010 C 
ENDROOT
BRANCH   1   2
ATOM      2  C   UNL     1     -16.244  55.042  36.928  1.00  0.00     0.005 C 
BRANCH   2   3
ATOM      3  C   UNL     1     -15.909  56.442  36.391  1.00  0.00     0.027 C 
BRANCH   3   4
ATOM      4  C   UNL     1     -16.979  57.450  36.716  1.00  0.00    -0.031 C 
ATOM      5  C   UNL     1     -17.794  57.298  37.771  1.00  0.00    -0.028 C 
BRANCH   5   6
ATOM      6  C   UNL     1     -18.868  58.312  38.086  1.00  0.00     0.005 C 
ATOM      7  C   UNL     1     -20.252  57.749  37.745  1.00  0.00     0.012 C 
ATOM      8  C   UNL     1     -18.618  59.615  37.319  1.00  0.00     0.012 C 
ENDBRANCH   5   6
ENDBRANCH   3   4
ENDBRANCH   2   3
ENDBRANCH   1   2
BRANCH   1   9
ATOM      9  C   UNL     1     -17.839  53.209  36.150  1.00  0.00     0.100 C 
BRANCH   9  10
ATOM     10  C   UNL     1     -19.110  54.003  36.082  1.00  0.00     0.220 C 
ATOM     11  O   UNL     1     -19.751  54.238  37.143  1.00  0.00    -0.275 OA
ATOM     12  N   UNL     1     -19.572  54.522  34.827  1.00  0.00    -0.352 N 
ATOM     13  H   UNL     1     -19.001  54.357  33.967  1.00  0.00     0.163 HD
BRANCH  12  14
ATOM     14  C   UNL     1     -20.803  55.301  34.705  1.00  0.00     0.151 C 
BRANCH  14  15
ATOM     15  C   UNL     1     -20.483  56.718  34.310  1.00  0.00    -0.025 A 
ATOM     16  C   UNL     1     -21.518  57.654  34.162  1.00  0.00     0.056 A 
ATOM     17  C   UNL     1     -19.154  57.120  34.114  1.00  0.00     0.009 A 
ATOM     18  C   UNL     1     -21.232  58.990  33.813  1.00  0.00     0.160 A 
ATOM     19  C   UNL     1     -18.865  58.441  33.767  1.00  0.00     0.050 A 
ATOM     20  C   UNL     1     -19.893  59.376  33.617  1.00  0.00     0.157 A 
BRANCH  18  21
ATOM     21  O   UNL     1     -22.245  59.950  33.658  1.00  0.00    -0.493 OA
ATOM     22  C   UNL     1     -22.947  60.194  32.445  1.00  0.00     0.278 C 
ENDBRANCH  18  21
BRANCH  20  23
ATOM     23  O   UNL     1     -19.565  60.687  33.270  1.00  0.00    -0.504 OA
ATOM     24  H   UNL     1     -19.991  61.487  33.722  1.00  0.00     0.293 HD
ENDBRANCH  20  23
ENDBRANCH  14  15
ENDBRANCH  12  14
ENDBRANCH   9  10
ENDBRANCH   1   9
TORSDOF 10
ENDMDL
MODEL 7
REMARK VINA RESULT:    -3.297      2.319      5.231
REMARK INTER + INTRA:          -6.947
REMARK INTER:                  -4.773
REMARK INTRA:                  -2.173
REMARK UNBOUND:                -1.819
REMARK SMILES COc1cc(CNC(=O)CCCCC=CC(C)C)ccc1O
REMARK SMILES IDX 11 1 12 2 13 3 14 4 15 5 16 6 17 7 18 8 10 9 8 10 9 11 7 12
REMARK SMILES IDX 6 14 5 15 4 16 19 17 3 18 20 19 21 20 2 21 1 22 22 23
REMARK H PARENT 7 13 22 24
REMARK Flexibility Score: inf
ROOT
ATOM      1  C   UNL     1     -23.395  57.753  34.637  1.00  0.00     0.010 C 
ENDROOT
BRANCH   1   2
ATOM      2  C   UNL     1     -23.033  57.258  33.225  1.00  0.00     0.005 C 
BRANCH   2   3
ATOM      3  C   UNL     1     -21.685  56.521  33.199  1.00  0.00     0.027 C 
BRANCH   3   4
ATOM      4  C   UNL     1     -21.264  56.050  34.565  1.00  0.00    -0.031 C 
ATOM      5  C   UNL     1     -20.638  54.877  34.744  1.00  0.00    -0.028 C 
BRANCH   5   6
ATOM      6  C   UNL     1     -20.224  54.410  36.120  1.00  0.00     0.005 C 
ATOM      7  C   UNL     1     -19.210  53.266  36.015  1.00  0.00     0.012 C 
ATOM      8  C   UNL     1     -21.448  53.965  36.928  1.00  0.00     0.012 C 
ENDBRANCH   5   6
ENDBRANCH   3   4
ENDBRANCH   2   3
ENDBRANCH   1   2
BRANCH   1   9
ATOM      9  C   UNL     1     -23.072  59.239  34.831  1.00  0.00     0.100 C 
BRANCH   9  10
ATOM     10  C   UNL     1     -21.719  59.440  35.449  1.00  0.00     0.220 C 
ATOM     11  O   UNL     1     -21.589  59.337  36.700  1.00  0.00    -0.275 OA
ATOM     12  N   UNL     1     -20.579  59.709  34.622  1.00  0.00    -0.352 N 
ATOM     13  H   UNL     1     -20.700  59.742  33.584  1.00  0.00     0.163 HD
BRANCH  12  14
ATOM     14  C   UNL     1     -19.240  59.911  35.172  1.00  0.00     0.151 C 
BRANCH  14  15
ATOM     15  C   UNL     1     -18.457  58.627  35.121  1.00  0.00    -0.025 A 
ATOM     16  C   UNL     1     -17.960  58.061  36.305  1.00  0.00     0.056 A 
ATOM     17  C   UNL     1     -18.242  57.972  33.900  1.00  0.00     0.009 A 
ATOM     18  C   UNL     1     -17.244  56.848  36.275  1.00  0.00     0.160 A 
ATOM     19  C   UNL     1     -17.532  56.771  33.863  1.00  0.00     0.050 A 
ATOM     20  C   UNL     1     -17.033  56.206  35.040  1.00  0.00     0.157 A 
BRANCH  18  21
ATOM     21  O   UNL     1     -16.734  56.257  37.442  1.00  0.00    -0.493 OA
ATOM     22  C   UNL     1     -17.531  55.673  38.466  1.00  0.00     0.278 C 
ENDBRANCH  18  21
BRANCH  20  23
ATOM     23  O   UNL     1     -16.329  55.004  34.964  1.00  0.00    -0.504 OA
ATOM     24  H   UNL     1     -16.400  54.387  34.164  1.00  0.00     0.293 HD
ENDBRANCH  20  23
ENDBRANCH  14  15
ENDBRANCH  12  14
ENDBRANCH   9  10
ENDBRANCH   1   9
TORSDOF 10
ENDMDL
MODEL 8
REMARK VINA RESULT:    -3.246     14.577     17.752
REMARK INTER + INTRA:          -6.868
REMARK INTER:                  -4.464
REMARK INTRA:                  -2.404
REMARK UNBOUND:                -1.819
REMARK SMILES COc1cc(CNC(=O)CCCCC=CC(C)C)ccc1O
REMARK SMILES IDX 11 1 12 2 13 3 14 4 15 5 16 6 17 7 18 8 10 9 8 10 9 11 7 12
REMARK SMILES IDX 6 14 5 15 4 16 19 17 3 18 20 19 21 20 2 21 1 22 22 23
REMARK H PARENT 7 13 22 24
REMARK Flexibility Score: inf
ROOT
ATOM      1  C   UNL     1     -32.908  48.493  38.176  1.00  0.00     0.010 C 
ENDROOT
BRANCH   1   2
ATOM      2  C   UNL     1     -31.990  47.982  39.301  1.00  0.00     0.005 C 
BRANCH   2   3
ATOM      3  C   UNL     1     -30.667  47.421  38.757  1.00  0.00     0.027 C 
BRANCH   3   4
ATOM      4  C   UNL     1     -30.480  45.966  39.098  1.00  0.00    -0.031 C 
ATOM      5  C   UNL     1     -31.419  45.271  39.758  1.00  0.00    -0.028 C 
BRANCH   5   6
ATOM      6  C   UNL     1     -31.221  43.813  40.100  1.00  0.00     0.005 C 
ATOM      7  C   UNL     1     -29.997  43.253  39.366  1.00  0.00     0.012 C 
ATOM      8  C   UNL     1     -32.472  43.003  39.745  1.00  0.00     0.012 C 
ENDBRANCH   5   6
ENDBRANCH   3   4
ENDBRANCH   2   3
ENDBRANCH   1   2
BRANCH   1   9
ATOM      9  C   UNL     1     -34.311  47.876  38.246  1.00  0.00     0.100 C 
BRANCH   9  10
ATOM     10  C   UNL     1     -34.289  46.406  37.943  1.00  0.00     0.220 C 
ATOM     11  O   UNL     1     -34.964  45.617  38.660  1.00  0.00    -0.275 OA
ATOM     12  N   UNL     1     -33.539  45.909  36.826  1.00  0.00    -0.352 N 
ATOM     13  H   UNL     1     -33.027  46.585  36.216  1.00  0.00     0.163 HD
BRANCH  12  14
ATOM     14  C   UNL     1     -33.485  44.489  36.487  1.00  0.00     0.151 C 
BRANCH  14  15
ATOM     15  C   UNL     1     -32.089  44.105  36.077  1.00  0.00    -0.025 A 
ATOM     16  C   UNL     1     -31.183  45.094  35.665  1.00  0.00     0.056 A 
ATOM     17  C   UNL     1     -31.675  42.766  36.128  1.00  0.00     0.009 A 
ATOM     18  C   UNL     1     -29.865  44.751  35.299  1.00  0.00     0.160 A 
ATOM     19  C   UNL     1     -30.372  42.420  35.764  1.00  0.00     0.050 A 
ATOM     20  C   UNL     1     -29.467  43.402  35.352  1.00  0.00     0.157 A 
BRANCH  18  21
ATOM     21  O   UNL     1     -28.935  45.718  34.883  1.00  0.00    -0.493 OA
ATOM     22  C   UNL     1     -28.994  47.097  35.228  1.00  0.00     0.278 C 
ENDBRANCH  18  21
BRANCH  20  23
ATOM     23  O   UNL     1     -28.173  43.019  34.997  1.00  0.00    -0.504 OA
ATOM     24  H   UNL     1     -27.803  43.165  34.065  1.00  0.00     0.293 HD
ENDBRANCH  20  23
ENDBRANCH  14  15
ENDBRANCH  12  14
ENDBRANCH   9  10
ENDBRANCH   1   9
TORSDOF 10
ENDMDL
MODEL 9
REMARK VINA RESULT:    -3.227     15.123     18.007
REMARK INTER + INTRA:          -6.839
REMARK INTER:                  -4.861
REMARK INTRA:                  -1.978
REMARK UNBOUND:                -1.819
REMARK SMILES COc1cc(CNC(=O)CCCCC=CC(C)C)ccc1O
REMARK SMILES IDX 11 1 12 2 13 3 14 4 15 5 16 6 17 7 18 8 10 9 8 10 9 11 7 12
REMARK SMILES IDX 6 14 5 15 4 16 19 17 3 18 20 19 21 20 2 21 1 22 22 23
REMARK H PARENT 7 13 22 24
REMARK Flexibility Score: inf
ROOT
ATOM      1  C   UNL     1     -33.756  50.015  38.612  1.00  0.00     0.010 C 
ENDROOT
BRANCH   1   2
ATOM      2  C   UNL     1     -32.685  50.527  37.632  1.00  0.00     0.005 C 
BRANCH   2   3
ATOM      3  C   UNL     1     -31.266  50.401  38.209  1.00  0.00     0.027 C 
BRANCH   3   4
ATOM      4  C   UNL     1     -31.000  49.032  38.777  1.00  0.00    -0.031 C 
ATOM      5  C   UNL     1     -30.814  47.965  37.986  1.00  0.00    -0.028 C 
BRANCH   5   6
ATOM      6  C   UNL     1     -30.553  46.595  38.566  1.00  0.00     0.005 C 
ATOM      7  C   UNL     1     -31.197  46.467  39.951  1.00  0.00     0.012 C 
ATOM      8  C   UNL     1     -29.046  46.327  38.652  1.00  0.00     0.012 C 
ENDBRANCH   5   6
ENDBRANCH   3   4
ENDBRANCH   2   3
ENDBRANCH   1   2
BRANCH   1   9
ATOM      9  C   UNL     1     -34.726  49.030  37.948  1.00  0.00     0.100 C 
BRANCH   9  10
ATOM     10  C   UNL     1     -34.656  47.669  38.577  1.00  0.00     0.220 C 
ATOM     11  O   UNL     1     -34.504  47.571  39.825  1.00  0.00    -0.275 OA
ATOM     12  N   UNL     1     -34.799  46.492  37.770  1.00  0.00    -0.352 N 
ATOM     13  H   UNL     1     -34.973  46.596  36.745  1.00  0.00     0.163 HD
BRANCH  12  14
ATOM     14  C   UNL     1     -34.740  45.144  38.331  1.00  0.00     0.151 C 
BRANCH  14  15
ATOM     15  C   UNL     1     -33.533  44.415  37.806  1.00  0.00    -0.025 A 
ATOM     16  C   UNL     1     -32.902  44.857  36.634  1.00  0.00     0.056 A 
ATOM     17  C   UNL     1     -33.013  43.309  38.495  1.00  0.00     0.009 A 
ATOM     18  C   UNL     1     -31.757  44.197  36.142  1.00  0.00     0.160 A 
ATOM     19  C   UNL     1     -31.881  42.650  38.012  1.00  0.00     0.050 A 
ATOM     20  C   UNL     1     -31.252  43.086  36.844  1.00  0.00     0.157 A 
BRANCH  18  21
ATOM     21  O   UNL     1     -31.104  44.615  34.972  1.00  0.00    -0.493 OA
ATOM     22  C   UNL     1     -29.972  45.477  34.943  1.00  0.00     0.278 C 
ENDBRANCH  18  21
BRANCH  20  23
ATOM     23  O   UNL     1     -30.122  42.403  36.392  1.00  0.00    -0.504 OA
ATOM     24  H   UNL     1     -29.517  42.777  35.671  1.00  0.00     0.293 HD
ENDBRANCH  20  23
ENDBRANCH  14  15
ENDBRANCH  12  14
ENDBRANCH   9  10
ENDBRANCH   1   9
TORSDOF 10
ENDMDL
