MODEL 1
REMARK VINA RESULT:    -5.567      0.000      0.000
REMARK INTER + INTRA:         -17.406
REMARK INTER:                 -14.029
REMARK INTRA:                  -3.377
REMARK UNBOUND:                -3.377
REMARK SMILES CCCCCCCCCCCCCCCCCCCCCCCCCCCC(=O)[O-]
REMARK SMILES IDX 15 1 16 2 17 3 18 4 19 5 20 6 21 7 22 8 23 9 24 10 25 11
REMARK SMILES IDX 26 12 27 13 28 14 29 15 30 16 14 17 13 18 12 19 11 20 10 21
REMARK SMILES IDX 9 22 8 23 7 24 6 25 5 26 4 27 3 28 2 29 1 30
REMARK H PARENT
REMARK Flexibility Score: inf
ROOT
ATOM      1  C   UNL     1      14.113  38.888  45.468  1.00  0.00     0.000 C 
ENDROOT
BRANCH   1   2
ATOM      2  C   UNL     1      13.324  39.809  46.416  1.00  0.00     0.000 C 
BRANCH   2   3
ATOM      3  C   UNL     1      13.379  39.335  47.879  1.00  0.00     0.000 C 
BRANCH   3   4
ATOM      4  C   UNL     1      11.993  39.157  48.540  1.00  0.00     0.000 C 
BRANCH   4   5
ATOM      5  C   UNL     1      11.362  40.473  49.035  1.00  0.00     0.000 C 
BRANCH   5   6
ATOM      6  C   UNL     1       9.888  40.370  49.472  1.00  0.00     0.000 C 
BRANCH   6   7
ATOM      7  C   UNL     1       8.866  40.315  48.320  1.00  0.00     0.000 C 
BRANCH   7   8
ATOM      8  C   UNL     1       8.020  39.034  48.326  1.00  0.00     0.000 C 
BRANCH   8   9
ATOM      9  C   UNL     1       6.526  39.368  48.192  1.00  0.00     0.000 C 
BRANCH   9  10
ATOM     10  C   UNL     1       6.240  40.873  48.313  1.00  0.00     0.000 C 
BRANCH  10  11
ATOM     11  C   UNL     1       5.342  41.397  47.183  1.00  0.00     0.000 C 
BRANCH  11  12
ATOM     12  C   UNL     1       6.165  41.695  45.919  1.00  0.00     0.006 C 
BRANCH  12  13
ATOM     13  C   UNL     1       5.406  42.587  44.928  1.00  0.00     0.053 C 
BRANCH  13  14
ATOM     14  C   UNL     1       6.301  43.096  43.838  1.00  0.00     0.041 C 
ATOM     15  O   UNL     1       6.734  44.278  43.876  1.00  0.00    -0.550 OA
ATOM     16  O   UNL     1       6.681  42.255  42.799  1.00  0.00    -0.550 OA
ENDBRANCH  13  14
ENDBRANCH  12  13
ENDBRANCH  11  12
ENDBRANCH  10  11
ENDBRANCH   9  10
ENDBRANCH   8   9
ENDBRANCH   7   8
ENDBRANCH   6   7
ENDBRANCH   5   6
ENDBRANCH   4   5
ENDBRANCH   3   4
ENDBRANCH   2   3
ENDBRANCH   1   2
BRANCH   1  17
ATOM     17  C   UNL     1      13.815  39.175  43.986  1.00  0.00     0.000 C 
BRANCH  17  18
ATOM     18  C   UNL     1      13.040  40.484  43.785  1.00  0.00     0.000 C 
BRANCH  18  19
ATOM     19  C   UNL     1      12.010  40.346  42.654  1.00  0.00     0.000 C 
BRANCH  19  20
ATOM     20  C   UNL     1      10.563  40.585  43.123  1.00  0.00     0.000 C 
BRANCH  20  21
ATOM     21  C   UNL     1       9.832  39.333  43.641  1.00  0.00     0.000 C 
BRANCH  21  22
ATOM     22  C   UNL     1       9.985  39.132  45.159  1.00  0.00    -0.000 C 
BRANCH  22  23
ATOM     23  C   UNL     1      10.319  37.673  45.536  1.00  0.00    -0.000 C 
BRANCH  23  24
ATOM     24  C   UNL     1      11.110  36.911  44.454  1.00  0.00    -0.000 C 
BRANCH  24  25
ATOM     25  C   UNL     1      10.714  35.435  44.266  1.00  0.00    -0.000 C 
BRANCH  25  26
ATOM     26  C   UNL     1      10.513  34.997  42.802  1.00  0.00    -0.000 C 
BRANCH  26  27
ATOM     27  C   UNL     1      10.736  33.489  42.594  1.00  0.00    -0.000 C 
BRANCH  27  28
ATOM     28  C   UNL     1      10.255  32.999  41.215  1.00  0.00    -0.000 C 
BRANCH  28  29
ATOM     29  C   UNL     1       8.864  32.340  41.212  1.00  0.00    -0.003 C 
ATOM     30  C   UNL     1       7.726  33.334  40.984  1.00  0.00     0.004 C 
ENDBRANCH  28  29
ENDBRANCH  27  28
ENDBRANCH  26  27
ENDBRANCH  25  26
ENDBRANCH  24  25
ENDBRANCH  23  24
ENDBRANCH  22  23
ENDBRANCH  21  22
ENDBRANCH  20  21
ENDBRANCH  19  20
ENDBRANCH  18  19
ENDBRANCH  17  18
ENDBRANCH   1  17
TORSDOF 26
ENDMDL
MODEL 2
REMARK VINA RESULT:    -5.540      2.988      5.138
REMARK INTER + INTRA:         -17.338
REMARK INTER:                 -13.097
REMARK INTRA:                  -4.241
REMARK UNBOUND:                -3.377
REMARK SMILES CCCCCCCCCCCCCCCCCCCCCCCCCCCC(=O)[O-]
REMARK SMILES IDX 15 1 16 2 17 3 18 4 19 5 20 6 21 7 22 8 23 9 24 10 25 11
REMARK SMILES IDX 26 12 27 13 28 14 29 15 30 16 14 17 13 18 12 19 11 20 10 21
REMARK SMILES IDX 9 22 8 23 7 24 6 25 5 26 4 27 3 28 2 29 1 30
REMARK H PARENT
REMARK Flexibility Score: inf
ROOT
ATOM      1  C   UNL     1      11.707  40.443  49.076  1.00  0.00     0.000 C 
ENDROOT
BRANCH   1   2
ATOM      2  C   UNL     1      10.234  40.603  49.497  1.00  0.00     0.000 C 
BRANCH   2   3
ATOM      3  C   UNL     1       9.310  39.588  48.802  1.00  0.00     0.000 C 
BRANCH   3   4
ATOM      4  C   UNL     1       8.229  40.227  47.901  1.00  0.00     0.000 C 
BRANCH   4   5
ATOM      5  C   UNL     1       7.124  40.968  48.678  1.00  0.00     0.000 C 
BRANCH   5   6
ATOM      6  C   UNL     1       5.817  41.202  47.895  1.00  0.00     0.000 C 
BRANCH   6   7
ATOM      7  C   UNL     1       5.960  41.179  46.361  1.00  0.00     0.000 C 
BRANCH   7   8
ATOM      8  C   UNL     1       5.474  42.474  45.693  1.00  0.00     0.000 C 
BRANCH   8   9
ATOM      9  C   UNL     1       5.894  42.513  44.215  1.00  0.00     0.000 C 
BRANCH   9  10
ATOM     10  C   UNL     1       6.625  43.811  43.840  1.00  0.00     0.000 C 
BRANCH  10  11
ATOM     11  C   UNL     1       7.314  43.728  42.469  1.00  0.00     0.000 C 
BRANCH  11  12
ATOM     12  C   UNL     1       7.552  45.131  41.888  1.00  0.00     0.006 C 
BRANCH  12  13
ATOM     13  C   UNL     1       8.798  45.186  40.994  1.00  0.00     0.053 C 
BRANCH  13  14
ATOM     14  C   UNL     1       9.834  46.121  41.537  1.00  0.00     0.041 C 
ATOM     15  O   UNL     1      10.940  45.674  41.944  1.00  0.00    -0.550 OA
ATOM     16  O   UNL     1       9.592  47.490  41.567  1.00  0.00    -0.550 OA
ENDBRANCH  13  14
ENDBRANCH  12  13
ENDBRANCH  11  12
ENDBRANCH  10  11
ENDBRANCH   9  10
ENDBRANCH   8   9
ENDBRANCH   7   8
ENDBRANCH   6   7
ENDBRANCH   5   6
ENDBRANCH   4   5
ENDBRANCH   3   4
ENDBRANCH   2   3
ENDBRANCH   1   2
BRANCH   1  17
ATOM     17  C   UNL     1      11.864  40.215  47.563  1.00  0.00     0.000 C 
BRANCH  17  18
ATOM     18  C   UNL     1      13.106  40.911  46.989  1.00  0.00     0.000 C 
BRANCH  18  19
ATOM     19  C   UNL     1      12.707  42.043  46.029  1.00  0.00     0.000 C 
BRANCH  19  20
ATOM     20  C   UNL     1      13.576  42.088  44.758  1.00  0.00     0.000 C 
BRANCH  20  21
ATOM     21  C   UNL     1      12.964  42.867  43.579  1.00  0.00     0.000 C 
BRANCH  21  22
ATOM     22  C   UNL     1      12.292  41.953  42.539  1.00  0.00    -0.000 C 
BRANCH  22  23
ATOM     23  C   UNL     1      10.772  42.194  42.428  1.00  0.00    -0.000 C 
BRANCH  23  24
ATOM     24  C   UNL     1       9.945  40.908  42.230  1.00  0.00    -0.000 C 
BRANCH  24  25
ATOM     25  C   UNL     1       8.998  40.548  43.389  1.00  0.00    -0.000 C 
BRANCH  25  26
ATOM     26  C   UNL     1       9.684  39.923  44.619  1.00  0.00    -0.000 C 
BRANCH  26  27
ATOM     27  C   UNL     1      10.134  38.472  44.379  1.00  0.00    -0.000 C 
BRANCH  27  28
ATOM     28  C   UNL     1      11.656  38.287  44.526  1.00  0.00    -0.000 C 
BRANCH  28  29
ATOM     29  C   UNL     1      12.436  38.257  43.199  1.00  0.00    -0.003 C 
ATOM     30  C   UNL     1      13.884  38.724  43.340  1.00  0.00     0.004 C 
ENDBRANCH  28  29
ENDBRANCH  27  28
ENDBRANCH  26  27
ENDBRANCH  25  26
ENDBRANCH  24  25
ENDBRANCH  23  24
ENDBRANCH  22  23
ENDBRANCH  21  22
ENDBRANCH  20  21
ENDBRANCH  19  20
ENDBRANCH  18  19
ENDBRANCH  17  18
ENDBRANCH   1  17
TORSDOF 26
ENDMDL
MODEL 3
REMARK VINA RESULT:    -5.510      2.906      7.796
REMARK INTER + INTRA:         -17.263
REMARK INTER:                 -13.776
REMARK INTRA:                  -3.487
REMARK UNBOUND:                -3.377
REMARK SMILES CCCCCCCCCCCCCCCCCCCCCCCCCCCC(=O)[O-]
REMARK SMILES IDX 15 1 16 2 17 3 18 4 19 5 20 6 21 7 22 8 23 9 24 10 25 11
REMARK SMILES IDX 26 12 27 13 28 14 29 15 30 16 14 17 13 18 12 19 11 20 10 21
REMARK SMILES IDX 9 22 8 23 7 24 6 25 5 26 4 27 3 28 2 29 1 30
REMARK H PARENT
REMARK Flexibility Score: inf
ROOT
ATOM      1  C   UNL     1       7.979  41.295  42.059  1.00  0.00     0.000 C 
ENDROOT
BRANCH   1   2
ATOM      2  C   UNL     1       8.708  42.487  41.412  1.00  0.00     0.000 C 
BRANCH   2   3
ATOM      3  C   UNL     1      10.139  42.664  41.951  1.00  0.00     0.000 C 
BRANCH   3   4
ATOM      4  C   UNL     1      11.043  41.423  41.769  1.00  0.00     0.000 C 
BRANCH   4   5
ATOM      5  C   UNL     1      11.998  41.165  42.951  1.00  0.00     0.000 C 
BRANCH   5   6
ATOM      6  C   UNL     1      11.838  39.793  43.635  1.00  0.00     0.000 C 
BRANCH   6   7
ATOM      7  C   UNL     1      10.561  39.628  44.480  1.00  0.00     0.000 C 
BRANCH   7   8
ATOM      8  C   UNL     1       9.917  38.242  44.332  1.00  0.00     0.000 C 
BRANCH   8   9
ATOM      9  C   UNL     1      10.990  37.142  44.320  1.00  0.00     0.000 C 
BRANCH   9  10
ATOM     10  C   UNL     1      10.665  35.984  45.275  1.00  0.00     0.000 C 
BRANCH  10  11
ATOM     11  C   UNL     1      10.196  34.721  44.537  1.00  0.00     0.000 C 
BRANCH  11  12
ATOM     12  C   UNL     1      10.572  34.785  43.048  1.00  0.00     0.006 C 
BRANCH  12  13
ATOM     13  C   UNL     1      10.659  33.391  42.410  1.00  0.00     0.053 C 
BRANCH  13  14
ATOM     14  C   UNL     1       9.718  33.248  41.253  1.00  0.00     0.041 C 
ATOM     15  O   UNL     1       8.473  33.257  41.445  1.00  0.00    -0.550 OA
ATOM     16  O   UNL     1      10.215  33.136  39.960  1.00  0.00    -0.550 OA
ENDBRANCH  13  14
ENDBRANCH  12  13
ENDBRANCH  11  12
ENDBRANCH  10  11
ENDBRANCH   9  10
ENDBRANCH   8   9
ENDBRANCH   7   8
ENDBRANCH   6   7
ENDBRANCH   5   6
ENDBRANCH   4   5
ENDBRANCH   3   4
ENDBRANCH   2   3
ENDBRANCH   1   2
BRANCH   1  17
ATOM     17  C   UNL     1       7.477  41.613  43.478  1.00  0.00     0.000 C 
BRANCH  17  18
ATOM     18  C   UNL     1       6.515  42.809  43.507  1.00  0.00     0.000 C 
BRANCH  18  19
ATOM     19  C   UNL     1       5.444  42.627  44.593  1.00  0.00     0.000 C 
BRANCH  19  20
ATOM     20  C   UNL     1       5.963  41.871  45.830  1.00  0.00     0.000 C 
BRANCH  20  21
ATOM     21  C   UNL     1       5.196  42.154  47.135  1.00  0.00     0.000 C 
BRANCH  21  22
ATOM     22  C   UNL     1       5.543  41.167  48.263  1.00  0.00    -0.000 C 
BRANCH  22  23
ATOM     23  C   UNL     1       7.064  40.963  48.429  1.00  0.00    -0.000 C 
BRANCH  23  24
ATOM     24  C   UNL     1       7.520  39.498  48.285  1.00  0.00    -0.000 C 
BRANCH  24  25
ATOM     25  C   UNL     1       8.944  39.302  47.732  1.00  0.00    -0.000 C 
BRANCH  25  26
ATOM     26  C   UNL     1       9.652  38.017  48.201  1.00  0.00    -0.000 C 
BRANCH  26  27
ATOM     27  C   UNL     1      11.184  38.156  48.231  1.00  0.00    -0.000 C 
BRANCH  27  28
ATOM     28  C   UNL     1      11.657  39.385  49.028  1.00  0.00    -0.000 C 
BRANCH  28  29
ATOM     29  C   UNL     1      12.405  40.446  48.199  1.00  0.00    -0.003 C 
ATOM     30  C   UNL     1      13.316  39.842  47.131  1.00  0.00     0.004 C 
ENDBRANCH  28  29
ENDBRANCH  27  28
ENDBRANCH  26  27
ENDBRANCH  25  26
ENDBRANCH  24  25
ENDBRANCH  23  24
ENDBRANCH  22  23
ENDBRANCH  21  22
ENDBRANCH  20  21
ENDBRANCH  19  20
ENDBRANCH  18  19
ENDBRANCH  17  18
ENDBRANCH   1  17
TORSDOF 26
ENDMDL
MODEL 4
REMARK VINA RESULT:    -5.464      2.730      6.861
REMARK INTER + INTRA:         -17.146
REMARK INTER:                 -12.325
REMARK INTRA:                  -4.821
REMARK UNBOUND:                -3.377
REMARK SMILES CCCCCCCCCCCCCCCCCCCCCCCCCCCC(=O)[O-]
REMARK SMILES IDX 15 1 16 2 17 3 18 4 19 5 20 6 21 7 22 8 23 9 24 10 25 11
REMARK SMILES IDX 26 12 27 13 28 14 29 15 30 16 14 17 13 18 12 19 11 20 10 21
REMARK SMILES IDX 9 22 8 23 7 24 6 25 5 26 4 27 3 28 2 29 1 30
REMARK H PARENT
REMARK Flexibility Score: inf
ROOT
ATOM      1  C   UNL     1      12.299  40.792  46.703  1.00  0.00     0.000 C 
ENDROOT
BRANCH   1   2
ATOM      2  C   UNL     1      13.434  40.764  45.663  1.00  0.00     0.000 C 
BRANCH   2   3
ATOM      3  C   UNL     1      12.958  41.180  44.260  1.00  0.00     0.000 C 
BRANCH   3   4
ATOM      4  C   UNL     1      13.105  40.076  43.187  1.00  0.00     0.000 C 
BRANCH   4   5
ATOM      5  C   UNL     1      13.228  38.653  43.766  1.00  0.00     0.000 C 
BRANCH   5   6
ATOM      6  C   UNL     1      11.959  37.786  43.649  1.00  0.00     0.000 C 
BRANCH   6   7
ATOM      7  C   UNL     1      10.889  38.045  44.727  1.00  0.00     0.000 C 
BRANCH   7   8
ATOM      8  C   UNL     1       9.593  38.641  44.157  1.00  0.00     0.000 C 
BRANCH   8   9
ATOM      9  C   UNL     1       9.355  40.054  44.713  1.00  0.00     0.000 C 
BRANCH   9  10
ATOM     10  C   UNL     1       9.173  41.105  43.608  1.00  0.00     0.000 C 
BRANCH  10  11
ATOM     11  C   UNL     1       9.719  40.636  42.250  1.00  0.00     0.000 C 
BRANCH  11  12
ATOM     12  C   UNL     1       9.603  41.750  41.198  1.00  0.00     0.006 C 
BRANCH  12  13
ATOM     13  C   UNL     1      10.966  42.137  40.608  1.00  0.00     0.053 C 
BRANCH  13  14
ATOM     14  C   UNL     1      11.662  43.168  41.442  1.00  0.00     0.041 C 
ATOM     15  O   UNL     1      11.000  43.898  42.228  1.00  0.00    -0.550 OA
ATOM     16  O   UNL     1      13.044  43.301  41.377  1.00  0.00    -0.550 OA
ENDBRANCH  13  14
ENDBRANCH  12  13
ENDBRANCH  11  12
ENDBRANCH  10  11
ENDBRANCH   9  10
ENDBRANCH   8   9
ENDBRANCH   7   8
ENDBRANCH   6   7
ENDBRANCH   5   6
ENDBRANCH   4   5
ENDBRANCH   3   4
ENDBRANCH   2   3
ENDBRANCH   1   2
BRANCH   1  17
ATOM     17  C   UNL     1      12.724  40.190  48.053  1.00  0.00     0.000 C 
BRANCH  17  18
ATOM     18  C   UNL     1      11.670  39.233  48.628  1.00  0.00     0.000 C 
BRANCH  18  19
ATOM     19  C   UNL     1      10.252  39.781  48.408  1.00  0.00     0.000 C 
BRANCH  19  20
ATOM     20  C   UNL     1       9.198  38.673  48.229  1.00  0.00     0.000 C 
BRANCH  20  21
ATOM     21  C   UNL     1       7.737  39.157  48.230  1.00  0.00     0.000 C 
BRANCH  21  22
ATOM     22  C   UNL     1       7.594  40.639  48.621  1.00  0.00    -0.000 C 
BRANCH  22  23
ATOM     23  C   UNL     1       6.166  41.178  48.396  1.00  0.00    -0.000 C 
BRANCH  23  24
ATOM     24  C   UNL     1       5.535  40.747  47.057  1.00  0.00    -0.000 C 
BRANCH  24  25
ATOM     25  C   UNL     1       6.154  41.388  45.801  1.00  0.00    -0.000 C 
BRANCH  25  26
ATOM     26  C   UNL     1       5.322  42.523  45.174  1.00  0.00    -0.000 C 
BRANCH  26  27
ATOM     27  C   UNL     1       5.781  42.884  43.750  1.00  0.00    -0.000 C 
BRANCH  27  28
ATOM     28  C   UNL     1       6.794  44.043  43.725  1.00  0.00    -0.000 C 
BRANCH  28  29
ATOM     29  C   UNL     1       7.432  44.315  42.350  1.00  0.00    -0.003 C 
ATOM     30  C   UNL     1       7.434  45.795  41.970  1.00  0.00     0.004 C 
ENDBRANCH  28  29
ENDBRANCH  27  28
ENDBRANCH  26  27
ENDBRANCH  25  26
ENDBRANCH  24  25
ENDBRANCH  23  24
ENDBRANCH  22  23
ENDBRANCH  21  22
ENDBRANCH  20  21
ENDBRANCH  19  20
ENDBRANCH  18  19
ENDBRANCH  17  18
ENDBRANCH   1  17
TORSDOF 26
ENDMDL
MODEL 5
REMARK VINA RESULT:    -5.457      3.257      7.843
REMARK INTER + INTRA:         -17.127
REMARK INTER:                 -13.003
REMARK INTRA:                  -4.124
REMARK UNBOUND:                -3.377
REMARK SMILES CCCCCCCCCCCCCCCCCCCCCCCCCCCC(=O)[O-]
REMARK SMILES IDX 15 1 16 2 17 3 18 4 19 5 20 6 21 7 22 8 23 9 24 10 25 11
REMARK SMILES IDX 26 12 27 13 28 14 29 15 30 16 14 17 13 18 12 19 11 20 10 21
REMARK SMILES IDX 9 22 8 23 7 24 6 25 5 26 4 27 3 28 2 29 1 30
REMARK H PARENT
REMARK Flexibility Score: inf
ROOT
ATOM      1  C   UNL     1       6.252  41.889  44.438  1.00  0.00     0.000 C 
ENDROOT
BRANCH   1   2
ATOM      2  C   UNL     1       6.218  42.983  43.354  1.00  0.00     0.000 C 
BRANCH   2   3
ATOM      3  C   UNL     1       7.073  44.207  43.727  1.00  0.00     0.000 C 
BRANCH   3   4
ATOM      4  C   UNL     1       7.392  45.142  42.538  1.00  0.00     0.000 C 
BRANCH   4   5
ATOM      5  C   UNL     1       7.792  44.401  41.248  1.00  0.00     0.000 C 
BRANCH   5   6
ATOM      6  C   UNL     1       9.305  44.169  41.067  1.00  0.00     0.000 C 
BRANCH   6   7
ATOM      7  C   UNL     1       9.922  43.112  42.003  1.00  0.00     0.000 C 
BRANCH   7   8
ATOM      8  C   UNL     1       9.876  41.692  41.419  1.00  0.00     0.000 C 
BRANCH   8   9
ATOM      9  C   UNL     1       9.001  40.775  42.288  1.00  0.00     0.000 C 
BRANCH   9  10
ATOM     10  C   UNL     1       9.609  40.514  43.675  1.00  0.00     0.000 C 
BRANCH  10  11
ATOM     11  C   UNL     1       9.189  39.156  44.260  1.00  0.00     0.000 C 
BRANCH  11  12
ATOM     12  C   UNL     1      10.321  38.549  45.103  1.00  0.00     0.006 C 
BRANCH  12  13
ATOM     13  C   UNL     1      10.217  37.020  45.202  1.00  0.00     0.053 C 
BRANCH  13  14
ATOM     14  C   UNL     1      10.601  36.522  46.561  1.00  0.00     0.041 C 
ATOM     15  O   UNL     1       9.711  36.257  47.413  1.00  0.00    -0.550 OA
ATOM     16  O   UNL     1      11.939  36.318  46.877  1.00  0.00    -0.550 OA
ENDBRANCH  13  14
ENDBRANCH  12  13
ENDBRANCH  11  12
ENDBRANCH  10  11
ENDBRANCH   9  10
ENDBRANCH   8   9
ENDBRANCH   7   8
ENDBRANCH   6   7
ENDBRANCH   5   6
ENDBRANCH   4   5
ENDBRANCH   3   4
ENDBRANCH   2   3
ENDBRANCH   1   2
BRANCH   1  17
ATOM     17  C   UNL     1       5.602  42.346  45.755  1.00  0.00     0.000 C 
BRANCH  17  18
ATOM     18  C   UNL     1       5.492  41.211  46.782  1.00  0.00     0.000 C 
BRANCH  18  19
ATOM     19  C   UNL     1       5.817  41.715  48.196  1.00  0.00     0.000 C 
BRANCH  19  20
ATOM     20  C   UNL     1       7.001  40.972  48.843  1.00  0.00     0.000 C 
BRANCH  20  21
ATOM     21  C   UNL     1       7.960  40.286  47.852  1.00  0.00     0.000 C 
BRANCH  21  22
ATOM     22  C   UNL     1       9.154  39.606  48.543  1.00  0.00    -0.000 C 
BRANCH  22  23
ATOM     23  C   UNL     1      10.007  40.594  49.366  1.00  0.00    -0.000 C 
BRANCH  23  24
ATOM     24  C   UNL     1      11.455  40.123  49.609  1.00  0.00    -0.000 C 
BRANCH  24  25
ATOM     25  C   UNL     1      12.075  39.289  48.472  1.00  0.00    -0.000 C 
BRANCH  25  26
ATOM     26  C   UNL     1      13.255  39.959  47.743  1.00  0.00    -0.000 C 
BRANCH  26  27
ATOM     27  C   UNL     1      12.943  41.400  47.301  1.00  0.00    -0.000 C 
BRANCH  27  28
ATOM     28  C   UNL     1      12.647  41.510  45.794  1.00  0.00    -0.000 C 
BRANCH  28  29
ATOM     29  C   UNL     1      13.387  40.486  44.913  1.00  0.00    -0.003 C 
ATOM     30  C   UNL     1      13.138  40.687  43.418  1.00  0.00     0.004 C 
ENDBRANCH  28  29
ENDBRANCH  27  28
ENDBRANCH  26  27
ENDBRANCH  25  26
ENDBRANCH  24  25
ENDBRANCH  23  24
ENDBRANCH  22  23
ENDBRANCH  21  22
ENDBRANCH  20  21
ENDBRANCH  19  20
ENDBRANCH  18  19
ENDBRANCH  17  18
ENDBRANCH   1  17
TORSDOF 26
ENDMDL
MODEL 6
REMARK VINA RESULT:    -5.439      1.634      3.409
REMARK INTER + INTRA:         -17.082
REMARK INTER:                 -13.397
REMARK INTRA:                  -3.685
REMARK UNBOUND:                -3.377
REMARK SMILES CCCCCCCCCCCCCCCCCCCCCCCCCCCC(=O)[O-]
REMARK SMILES IDX 15 1 16 2 17 3 18 4 19 5 20 6 21 7 22 8 23 9 24 10 25 11
REMARK SMILES IDX 26 12 27 13 28 14 29 15 30 16 14 17 13 18 12 19 11 20 10 21
REMARK SMILES IDX 9 22 8 23 7 24 6 25 5 26 4 27 3 28 2 29 1 30
REMARK H PARENT
REMARK Flexibility Score: inf
ROOT
ATOM      1  C   UNL     1       9.488  39.415  44.756  1.00  0.00     0.000 C 
ENDROOT
BRANCH   1   2
ATOM      2  C   UNL     1       9.765  39.866  46.202  1.00  0.00     0.000 C 
BRANCH   2   3
ATOM      3  C   UNL     1       8.645  39.451  47.173  1.00  0.00     0.000 C 
BRANCH   3   4
ATOM      4  C   UNL     1       8.785  40.044  48.593  1.00  0.00     0.000 C 
BRANCH   4   5
ATOM      5  C   UNL     1       7.633  40.986  48.995  1.00  0.00     0.000 C 
BRANCH   5   6
ATOM      6  C   UNL     1       6.307  40.756  48.243  1.00  0.00     0.000 C 
BRANCH   6   7
ATOM      7  C   UNL     1       5.544  42.038  47.857  1.00  0.00     0.000 C 
BRANCH   7   8
ATOM      8  C   UNL     1       5.156  42.082  46.371  1.00  0.00     0.000 C 
BRANCH   8   9
ATOM      9  C   UNL     1       6.008  41.094  45.558  1.00  0.00     0.000 C 
BRANCH   9  10
ATOM     10  C   UNL     1       6.583  41.720  44.278  1.00  0.00     0.000 C 
BRANCH  10  11
ATOM     11  C   UNL     1       5.856  43.011  43.872  1.00  0.00     0.000 C 
BRANCH  11  12
ATOM     12  C   UNL     1       6.838  44.191  43.788  1.00  0.00     0.006 C 
BRANCH  12  13
ATOM     13  C   UNL     1       8.031  43.890  42.870  1.00  0.00     0.053 C 
BRANCH  13  14
ATOM     14  C   UNL     1       8.022  44.752  41.645  1.00  0.00     0.041 C 
ATOM     15  O   UNL     1       7.176  45.679  41.529  1.00  0.00    -0.550 OA
ATOM     16  O   UNL     1       8.967  44.552  40.645  1.00  0.00    -0.550 OA
ENDBRANCH  13  14
ENDBRANCH  12  13
ENDBRANCH  11  12
ENDBRANCH  10  11
ENDBRANCH   9  10
ENDBRANCH   8   9
ENDBRANCH   7   8
ENDBRANCH   6   7
ENDBRANCH   5   6
ENDBRANCH   4   5
ENDBRANCH   3   4
ENDBRANCH   2   3
ENDBRANCH   1   2
BRANCH   1  17
ATOM     17  C   UNL     1      10.698  39.631  43.832  1.00  0.00     0.000 C 
BRANCH  17  18
ATOM     18  C   UNL     1      11.627  38.410  43.782  1.00  0.00     0.000 C 
BRANCH  18  19
ATOM     19  C   UNL     1      13.101  38.838  43.847  1.00  0.00     0.000 C 
BRANCH  19  20
ATOM     20  C   UNL     1      13.472  39.520  45.177  1.00  0.00     0.000 C 
BRANCH  20  21
ATOM     21  C   UNL     1      13.910  38.562  46.300  1.00  0.00     0.000 C 
BRANCH  21  22
ATOM     22  C   UNL     1      12.763  38.193  47.258  1.00  0.00    -0.000 C 
BRANCH  22  23
ATOM     23  C   UNL     1      12.336  36.715  47.133  1.00  0.00    -0.000 C 
BRANCH  23  24
ATOM     24  C   UNL     1      10.844  36.466  47.433  1.00  0.00    -0.000 C 
BRANCH  24  25
ATOM     25  C   UNL     1       9.991  36.040  46.224  1.00  0.00    -0.000 C 
BRANCH  25  26
ATOM     26  C   UNL     1      10.532  34.830  45.439  1.00  0.00    -0.000 C 
BRANCH  26  27
ATOM     27  C   UNL     1      10.498  35.042  43.915  1.00  0.00    -0.000 C 
BRANCH  27  28
ATOM     28  C   UNL     1      10.023  33.793  43.150  1.00  0.00    -0.000 C 
BRANCH  28  29
ATOM     29  C   UNL     1      10.458  33.735  41.674  1.00  0.00    -0.003 C 
ATOM     30  C   UNL     1       9.425  33.068  40.767  1.00  0.00     0.004 C 
ENDBRANCH  28  29
ENDBRANCH  27  28
ENDBRANCH  26  27
ENDBRANCH  25  26
ENDBRANCH  24  25
ENDBRANCH  23  24
ENDBRANCH  22  23
ENDBRANCH  21  22
ENDBRANCH  20  21
ENDBRANCH  19  20
ENDBRANCH  18  19
ENDBRANCH  17  18
ENDBRANCH   1  17
TORSDOF 26
ENDMDL
MODEL 7
REMARK VINA RESULT:    -5.438      3.500      7.546
REMARK INTER + INTRA:         -17.080
REMARK INTER:                 -12.790
REMARK INTRA:                  -4.291
REMARK UNBOUND:                -3.377
REMARK SMILES CCCCCCCCCCCCCCCCCCCCCCCCCCCC(=O)[O-]
REMARK SMILES IDX 15 1 16 2 17 3 18 4 19 5 20 6 21 7 22 8 23 9 24 10 25 11
REMARK SMILES IDX 26 12 27 13 28 14 29 15 30 16 14 17 13 18 12 19 11 20 10 21
REMARK SMILES IDX 9 22 8 23 7 24 6 25 5 26 4 27 3 28 2 29 1 30
REMARK H PARENT
REMARK Flexibility Score: inf
ROOT
ATOM      1  C   UNL     1       9.377  40.030  43.343  1.00  0.00     0.000 C 
ENDROOT
BRANCH   1   2
ATOM      2  C   UNL     1       9.409  39.749  44.857  1.00  0.00     0.000 C 
BRANCH   2   3
ATOM      3  C   UNL     1      10.281  38.531  45.211  1.00  0.00     0.000 C 
BRANCH   3   4
ATOM      4  C   UNL     1      11.183  38.039  44.057  1.00  0.00     0.000 C 
BRANCH   4   5
ATOM      5  C   UNL     1      12.690  38.080  44.379  1.00  0.00     0.000 C 
BRANCH   5   6
ATOM      6  C   UNL     1      13.485  39.186  43.658  1.00  0.00     0.000 C 
BRANCH   6   7
ATOM      7  C   UNL     1      12.702  39.953  42.574  1.00  0.00     0.000 C 
BRANCH   7   8
ATOM      8  C   UNL     1      12.846  41.477  42.694  1.00  0.00     0.000 C 
BRANCH   8   9
ATOM      9  C   UNL     1      12.402  41.957  44.085  1.00  0.00     0.000 C 
BRANCH   9  10
ATOM     10  C   UNL     1      13.559  42.540  44.910  1.00  0.00     0.000 C 
BRANCH  10  11
ATOM     11  C   UNL     1      13.432  42.232  46.410  1.00  0.00     0.000 C 
BRANCH  11  12
ATOM     12  C   UNL     1      12.392  41.128  46.657  1.00  0.00     0.006 C 
BRANCH  12  13
ATOM     13  C   UNL     1      12.325  40.712  48.133  1.00  0.00     0.053 C 
BRANCH  13  14
ATOM     14  C   UNL     1      12.866  39.331  48.347  1.00  0.00     0.041 C 
ATOM     15  O   UNL     1      13.805  38.901  47.625  1.00  0.00    -0.550 OA
ATOM     16  O   UNL     1      12.357  38.532  49.364  1.00  0.00    -0.550 OA
ENDBRANCH  13  14
ENDBRANCH  12  13
ENDBRANCH  11  12
ENDBRANCH  10  11
ENDBRANCH   9  10
ENDBRANCH   8   9
ENDBRANCH   7   8
ENDBRANCH   6   7
ENDBRANCH   5   6
ENDBRANCH   4   5
ENDBRANCH   3   4
ENDBRANCH   2   3
ENDBRANCH   1   2
BRANCH   1  17
ATOM     17  C   UNL     1       8.326  41.086  42.964  1.00  0.00     0.000 C 
BRANCH  17  18
ATOM     18  C   UNL     1       8.468  41.563  41.511  1.00  0.00     0.000 C 
BRANCH  18  19
ATOM     19  C   UNL     1       8.969  43.014  41.455  1.00  0.00     0.000 C 
BRANCH  19  20
ATOM     20  C   UNL     1       8.702  43.794  42.756  1.00  0.00     0.000 C 
BRANCH  20  21
ATOM     21  C   UNL     1       7.334  44.500  42.823  1.00  0.00     0.000 C 
BRANCH  21  22
ATOM     22  C   UNL     1       6.600  44.264  44.154  1.00  0.00    -0.000 C 
BRANCH  22  23
ATOM     23  C   UNL     1       5.810  42.938  44.171  1.00  0.00    -0.000 C 
BRANCH  23  24
ATOM     24  C   UNL     1       5.968  42.130  45.475  1.00  0.00    -0.000 C 
BRANCH  24  25
ATOM     25  C   UNL     1       4.789  42.232  46.460  1.00  0.00    -0.000 C 
BRANCH  25  26
ATOM     26  C   UNL     1       5.180  42.183  47.950  1.00  0.00    -0.000 C 
BRANCH  26  27
ATOM     27  C   UNL     1       6.466  41.377  48.203  1.00  0.00    -0.000 C 
BRANCH  27  28
ATOM     28  C   UNL     1       6.245  39.856  48.114  1.00  0.00    -0.000 C 
BRANCH  28  29
ATOM     29  C   UNL     1       7.524  39.008  48.240  1.00  0.00    -0.003 C 
ATOM     30  C   UNL     1       8.760  39.833  48.598  1.00  0.00     0.004 C 
ENDBRANCH  28  29
ENDBRANCH  27  28
ENDBRANCH  26  27
ENDBRANCH  25  26
ENDBRANCH  24  25
ENDBRANCH  23  24
ENDBRANCH  22  23
ENDBRANCH  21  22
ENDBRANCH  20  21
ENDBRANCH  19  20
ENDBRANCH  18  19
ENDBRANCH  17  18
ENDBRANCH   1  17
TORSDOF 26
ENDMDL
MODEL 8
REMARK VINA RESULT:    -5.431      1.575      3.669
REMARK INTER + INTRA:         -17.063
REMARK INTER:                 -12.785
REMARK INTRA:                  -4.278
REMARK UNBOUND:                -3.377
REMARK SMILES CCCCCCCCCCCCCCCCCCCCCCCCCCCC(=O)[O-]
REMARK SMILES IDX 15 1 16 2 17 3 18 4 19 5 20 6 21 7 22 8 23 9 24 10 25 11
REMARK SMILES IDX 26 12 27 13 28 14 29 15 30 16 14 17 13 18 12 19 11 20 10 21
REMARK SMILES IDX 9 22 8 23 7 24 6 25 5 26 4 27 3 28 2 29 1 30
REMARK H PARENT
REMARK Flexibility Score: inf
ROOT
ATOM      1  C   UNL     1      12.030  40.286  48.534  1.00  0.00     0.000 C 
ENDROOT
BRANCH   1   2
ATOM      2  C   UNL     1      10.768  39.519  48.970  1.00  0.00     0.000 C 
BRANCH   2   3
ATOM      3  C   UNL     1       9.473  40.190  48.481  1.00  0.00     0.000 C 
BRANCH   3   4
ATOM      4  C   UNL     1       8.294  39.213  48.266  1.00  0.00     0.000 C 
BRANCH   4   5
ATOM      5  C   UNL     1       6.934  39.908  48.061  1.00  0.00     0.000 C 
BRANCH   5   6
ATOM      6  C   UNL     1       6.733  41.206  48.868  1.00  0.00     0.000 C 
BRANCH   6   7
ATOM      7  C   UNL     1       5.501  42.040  48.468  1.00  0.00     0.000 C 
BRANCH   7   8
ATOM      8  C   UNL     1       4.867  41.582  47.147  1.00  0.00     0.000 C 
BRANCH   8   9
ATOM      9  C   UNL     1       5.206  42.563  46.013  1.00  0.00     0.000 C 
BRANCH   9  10
ATOM     10  C   UNL     1       6.171  41.965  44.978  1.00  0.00     0.000 C 
BRANCH  10  11
ATOM     11  C   UNL     1       5.891  42.461  43.551  1.00  0.00     0.000 C 
BRANCH  11  12
ATOM     12  C   UNL     1       7.171  42.436  42.701  1.00  0.00     0.006 C 
BRANCH  12  13
ATOM     13  C   UNL     1       7.443  43.785  42.020  1.00  0.00     0.053 C 
BRANCH  13  14
ATOM     14  C   UNL     1       8.910  44.067  41.911  1.00  0.00     0.041 C 
ATOM     15  O   UNL     1       9.633  44.070  42.943  1.00  0.00    -0.550 OA
ATOM     16  O   UNL     1       9.486  44.296  40.667  1.00  0.00    -0.550 OA
ENDBRANCH  13  14
ENDBRANCH  12  13
ENDBRANCH  11  12
ENDBRANCH  10  11
ENDBRANCH   9  10
ENDBRANCH   8   9
ENDBRANCH   7   8
ENDBRANCH   6   7
ENDBRANCH   5   6
ENDBRANCH   4   5
ENDBRANCH   3   4
ENDBRANCH   2   3
ENDBRANCH   1   2
BRANCH   1  17
ATOM     17  C   UNL     1      12.018  40.634  47.036  1.00  0.00     0.000 C 
BRANCH  17  18
ATOM     18  C   UNL     1      13.371  40.373  46.359  1.00  0.00     0.000 C 
BRANCH  18  19
ATOM     19  C   UNL     1      13.364  39.028  45.618  1.00  0.00     0.000 C 
BRANCH  19  20
ATOM     20  C   UNL     1      13.630  39.170  44.108  1.00  0.00     0.000 C 
BRANCH  20  21
ATOM     21  C   UNL     1      12.926  40.360  43.432  1.00  0.00     0.000 C 
BRANCH  21  22
ATOM     22  C   UNL     1      11.493  40.032  42.976  1.00  0.00    -0.000 C 
BRANCH  22  23
ATOM     23  C   UNL     1      10.422  40.792  43.787  1.00  0.00    -0.000 C 
BRANCH  23  24
ATOM     24  C   UNL     1       9.380  39.878  44.461  1.00  0.00    -0.000 C 
BRANCH  24  25
ATOM     25  C   UNL     1       9.640  38.367  44.323  1.00  0.00    -0.000 C 
BRANCH  25  26
ATOM     26  C   UNL     1      10.159  37.678  45.599  1.00  0.00    -0.000 C 
BRANCH  26  27
ATOM     27  C   UNL     1      10.782  36.298  45.322  1.00  0.00    -0.000 C 
BRANCH  27  28
ATOM     28  C   UNL     1      10.956  36.013  43.819  1.00  0.00    -0.000 C 
BRANCH  28  29
ATOM     29  C   UNL     1      10.092  34.861  43.275  1.00  0.00    -0.003 C 
ATOM     30  C   UNL     1      10.194  33.585  44.110  1.00  0.00     0.004 C 
ENDBRANCH  28  29
ENDBRANCH  27  28
ENDBRANCH  26  27
ENDBRANCH  25  26
ENDBRANCH  24  25
ENDBRANCH  23  24
ENDBRANCH  22  23
ENDBRANCH  21  22
ENDBRANCH  20  21
ENDBRANCH  19  20
ENDBRANCH  18  19
ENDBRANCH  17  18
ENDBRANCH   1  17
TORSDOF 26
ENDMDL
MODEL 9
REMARK VINA RESULT:    -5.426      3.108      7.518
REMARK INTER + INTRA:         -17.050
REMARK INTER:                 -13.210
REMARK INTRA:                  -3.840
REMARK UNBOUND:                -3.377
REMARK SMILES CCCCCCCCCCCCCCCCCCCCCCCCCCCC(=O)[O-]
REMARK SMILES IDX 15 1 16 2 17 3 18 4 19 5 20 6 21 7 22 8 23 9 24 10 25 11
REMARK SMILES IDX 26 12 27 13 28 14 29 15 30 16 14 17 13 18 12 19 11 20 10 21
REMARK SMILES IDX 9 22 8 23 7 24 6 25 5 26 4 27 3 28 2 29 1 30
REMARK H PARENT
REMARK Flexibility Score: inf
ROOT
ATOM      1  C   UNL     1       7.028  44.369  43.899  1.00  0.00     0.000 C 
ENDROOT
BRANCH   1   2
ATOM      2  C   UNL     1       7.452  44.943  42.535  1.00  0.00     0.000 C 
BRANCH   2   3
ATOM      3  C   UNL     1       7.666  43.847  41.475  1.00  0.00     0.000 C 
BRANCH   3   4
ATOM      4  C   UNL     1       9.124  43.726  40.975  1.00  0.00     0.000 C 
BRANCH   4   5
ATOM      5  C   UNL     1       9.812  42.403  41.366  1.00  0.00     0.000 C 
BRANCH   5   6
ATOM      6  C   UNL     1       8.946  41.434  42.194  1.00  0.00     0.000 C 
BRANCH   6   7
ATOM      7  C   UNL     1       9.730  40.383  43.002  1.00  0.00     0.000 C 
BRANCH   7   8
ATOM      8  C   UNL     1       9.028  39.980  44.307  1.00  0.00     0.000 C 
BRANCH   8   9
ATOM      9  C   UNL     1       9.799  38.854  45.015  1.00  0.00     0.000 C 
BRANCH   9  10
ATOM     10  C   UNL     1      10.950  38.298  44.164  1.00  0.00     0.000 C 
BRANCH  10  11
ATOM     11  C   UNL     1      12.321  38.475  44.835  1.00  0.00     0.000 C 
BRANCH  11  12
ATOM     12  C   UNL     1      13.219  39.411  44.011  1.00  0.00     0.006 C 
BRANCH  12  13
ATOM     13  C   UNL     1      13.182  40.856  44.527  1.00  0.00     0.053 C 
BRANCH  13  14
ATOM     14  C   UNL     1      13.122  41.848  43.406  1.00  0.00     0.041 C 
ATOM     15  O   UNL     1      13.001  41.451  42.216  1.00  0.00    -0.550 OA
ATOM     16  O   UNL     1      13.167  43.210  43.677  1.00  0.00    -0.550 OA
ENDBRANCH  13  14
ENDBRANCH  12  13
ENDBRANCH  11  12
ENDBRANCH  10  11
ENDBRANCH   9  10
ENDBRANCH   8   9
ENDBRANCH   7   8
ENDBRANCH   6   7
ENDBRANCH   5   6
ENDBRANCH   4   5
ENDBRANCH   3   4
ENDBRANCH   2   3
ENDBRANCH   1   2
BRANCH   1  17
ATOM     17  C   UNL     1       6.332  43.003  43.771  1.00  0.00     0.000 C 
BRANCH  17  18
ATOM     18  C   UNL     1       5.273  42.778  44.859  1.00  0.00     0.000 C 
BRANCH  18  19
ATOM     19  C   UNL     1       5.803  41.842  45.956  1.00  0.00     0.000 C 
BRANCH  19  20
ATOM     20  C   UNL     1       5.231  42.163  47.350  1.00  0.00     0.000 C 
BRANCH  20  21
ATOM     21  C   UNL     1       5.994  41.530  48.528  1.00  0.00     0.000 C 
BRANCH  21  22
ATOM     22  C   UNL     1       7.143  40.612  48.077  1.00  0.00    -0.000 C 
BRANCH  22  23
ATOM     23  C   UNL     1       8.382  40.717  48.991  1.00  0.00    -0.000 C 
BRANCH  23  24
ATOM     24  C   UNL     1       9.608  39.935  48.479  1.00  0.00    -0.000 C 
BRANCH  24  25
ATOM     25  C   UNL     1      10.942  40.272  49.171  1.00  0.00    -0.000 C 
BRANCH  25  26
ATOM     26  C   UNL     1      12.134  40.481  48.218  1.00  0.00    -0.000 C 
BRANCH  26  27
ATOM     27  C   UNL     1      13.073  39.263  48.161  1.00  0.00    -0.000 C 
BRANCH  27  28
ATOM     28  C   UNL     1      12.819  38.259  49.301  1.00  0.00    -0.000 C 
BRANCH  28  29
ATOM     29  C   UNL     1      12.557  36.813  48.842  1.00  0.00    -0.003 C 
ATOM     30  C   UNL     1      11.382  36.693  47.873  1.00  0.00     0.004 C 
ENDBRANCH  28  29
ENDBRANCH  27  28
ENDBRANCH  26  27
ENDBRANCH  25  26
ENDBRANCH  24  25
ENDBRANCH  23  24
ENDBRANCH  22  23
ENDBRANCH  21  22
ENDBRANCH  20  21
ENDBRANCH  19  20
ENDBRANCH  18  19
ENDBRANCH  17  18
ENDBRANCH   1  17
TORSDOF 26
ENDMDL
