MODEL 1
REMARK VINA RESULT:     6.217      0.000      0.000
REMARK INTER + INTRA:           7.474
REMARK INTER:                   7.307
REMARK INTRA:                   0.167
REMARK UNBOUND:                 0.167
REMARK SMILES O=c1c(O)c(-c2ccc(O)cc2)oc2cc(O)cc(O)c12
REMARK SMILES IDX 5 1 3 2 2 3 1 4 21 5 19 6 18 7 16 8 15 9 14 10 13 11 6 12
REMARK SMILES IDX 7 13 8 14 9 15 12 16 11 17 10 18 4 20 20 22 17 24
REMARK H PARENT 10 19 4 21 20 23 17 25
REMARK Flexibility Score: inf
ROOT
ATOM      1  C   UNL     1      13.141  21.879  -0.162  1.00  0.00     0.180 A 
ATOM      2  C   UNL     1      13.831  22.952  -0.753  1.00  0.00     0.208 A 
ATOM      3  C   UNL     1      13.793  23.100  -2.149  1.00  0.00     0.238 A 
ATOM      4  O   UNL     1      14.458  24.030  -2.676  1.00  0.00    -0.285 OA
ATOM      5  C   UNL     1      13.054  22.184  -2.935  1.00  0.00     0.111 A 
ATOM      6  C   UNL     1      12.913  22.261  -4.353  1.00  0.00     0.134 A 
ATOM      7  C   UNL     1      12.267  21.227  -5.040  1.00  0.00     0.093 A 
ATOM      8  C   UNL     1      11.698  20.151  -4.355  1.00  0.00     0.123 A 
ATOM      9  C   UNL     1      11.778  20.096  -2.966  1.00  0.00     0.094 A 
ATOM     10  C   UNL     1      12.448  21.095  -2.255  1.00  0.00     0.146 A 
ATOM     11  O   UNL     1      12.511  21.000  -0.932  1.00  0.00    -0.452 OA
ENDROOT
BRANCH   1  12
ATOM     12  C   UNL     1      13.113  21.672   1.303  1.00  0.00     0.021 A 
ATOM     13  C   UNL     1      13.026  22.756   2.196  1.00  0.00     0.016 A 
ATOM     14  C   UNL     1      12.976  22.534   3.576  1.00  0.00     0.047 A 
ATOM     15  C   UNL     1      13.000  21.227   4.080  1.00  0.00     0.115 A 
ATOM     16  C   UNL     1      13.116  20.363   1.817  1.00  0.00     0.016 A 
ATOM     17  C   UNL     1      13.067  20.145   3.197  1.00  0.00     0.047 A 
BRANCH  15  18
ATOM     18  O   UNL     1      12.953  20.994   5.453  1.00  0.00    -0.508 OA
ATOM     19  H   UNL     1      13.357  20.161   5.863  1.00  0.00     0.293 HD
ENDBRANCH  15  18
ENDBRANCH   1  12
BRANCH   2  20
ATOM     20  O   UNL     1      14.574  23.832   0.040  1.00  0.00    -0.502 OA
ATOM     21  H   UNL     1      15.103  24.601  -0.352  1.00  0.00     0.293 HD
ENDBRANCH   2  20
BRANCH   6  22
ATOM     22  O   UNL     1      13.363  23.337  -5.124  1.00  0.00    -0.507 OA
ATOM     23  H   UNL     1      13.578  24.253  -4.762  1.00  0.00     0.293 HD
ENDBRANCH   6  22
BRANCH   8  24
ATOM     24  O   UNL     1      11.042  19.134  -5.045  1.00  0.00    -0.508 OA
ATOM     25  H   UNL     1      11.551  18.460  -5.605  1.00  0.00     0.293 HD
ENDBRANCH   8  24
TORSDOF 5
ENDMDL
MODEL 2
REMARK VINA RESULT:     6.492      3.037      6.307
REMARK INTER + INTRA:           7.797
REMARK INTER:                   8.015
REMARK INTRA:                  -0.219
REMARK UNBOUND:                 0.167
REMARK SMILES O=c1c(O)c(-c2ccc(O)cc2)oc2cc(O)cc(O)c12
REMARK SMILES IDX 5 1 3 2 2 3 1 4 21 5 19 6 18 7 16 8 15 9 14 10 13 11 6 12
REMARK SMILES IDX 7 13 8 14 9 15 12 16 11 17 10 18 4 20 20 22 17 24
REMARK H PARENT 10 19 4 21 20 23 17 25
REMARK Flexibility Score: inf
ROOT
ATOM      1  C   UNL     1      13.357  21.836  -2.141  1.00  0.00     0.180 A 
ATOM      2  C   UNL     1      14.431  21.195  -1.498  1.00  0.00     0.208 A 
ATOM      3  C   UNL     1      15.328  21.963  -0.739  1.00  0.00     0.238 A 
ATOM      4  O   UNL     1      16.317  21.391  -0.212  1.00  0.00    -0.285 OA
ATOM      5  C   UNL     1      15.133  23.360  -0.620  1.00  0.00     0.111 A 
ATOM      6  C   UNL     1      15.957  24.230   0.155  1.00  0.00     0.134 A 
ATOM      7  C   UNL     1      15.748  25.614   0.096  1.00  0.00     0.093 A 
ATOM      8  C   UNL     1      14.704  26.153  -0.659  1.00  0.00     0.123 A 
ATOM      9  C   UNL     1      13.857  25.308  -1.372  1.00  0.00     0.094 A 
ATOM     10  C   UNL     1      14.063  23.926  -1.361  1.00  0.00     0.146 A 
ATOM     11  O   UNL     1      13.239  23.157  -2.063  1.00  0.00    -0.452 OA
ENDROOT
BRANCH   1  12
ATOM     12  C   UNL     1      12.356  21.091  -2.936  1.00  0.00     0.021 A 
ATOM     13  C   UNL     1      12.372  21.114  -4.343  1.00  0.00     0.016 A 
ATOM     14  C   UNL     1      11.430  20.382  -5.073  1.00  0.00     0.047 A 
ATOM     15  C   UNL     1      10.471  19.607  -4.408  1.00  0.00     0.115 A 
ATOM     16  C   UNL     1      11.403  20.295  -2.278  1.00  0.00     0.016 A 
ATOM     17  C   UNL     1      10.463  19.565  -3.011  1.00  0.00     0.047 A 
BRANCH  15  18
ATOM     18  O   UNL     1       9.527  18.875  -5.125  1.00  0.00    -0.508 OA
ATOM     19  H   UNL     1       9.314  19.090  -6.091  1.00  0.00     0.293 HD
ENDBRANCH  15  18
ENDBRANCH   1  12
BRANCH   2  20
ATOM     20  O   UNL     1      14.618  19.817  -1.647  1.00  0.00    -0.502 OA
ATOM     21  H   UNL     1      14.087  19.266  -2.310  1.00  0.00     0.293 HD
ENDBRANCH   2  20
BRANCH   6  22
ATOM     22  O   UNL     1      16.968  23.789   1.014  1.00  0.00    -0.507 OA
ATOM     23  H   UNL     1      17.138  24.156   1.938  1.00  0.00     0.293 HD
ENDBRANCH   6  22
BRANCH   8  24
ATOM     24  O   UNL     1      14.493  27.530  -0.700  1.00  0.00    -0.508 OA
ATOM     25  H   UNL     1      13.724  27.963  -0.201  1.00  0.00     0.293 HD
ENDBRANCH   8  24
TORSDOF 5
ENDMDL
MODEL 3
REMARK VINA RESULT:     9.106      1.441      2.861
REMARK INTER + INTRA:          10.870
REMARK INTER:                  10.296
REMARK INTRA:                   0.574
REMARK UNBOUND:                 0.167
REMARK SMILES O=c1c(O)c(-c2ccc(O)cc2)oc2cc(O)cc(O)c12
REMARK SMILES IDX 5 1 3 2 2 3 1 4 21 5 19 6 18 7 16 8 15 9 14 10 13 11 6 12
REMARK SMILES IDX 7 13 8 14 9 15 12 16 11 17 10 18 4 20 20 22 17 24
REMARK H PARENT 10 19 4 21 20 23 17 25
REMARK Flexibility Score: inf
ROOT
ATOM      1  C   UNL     1      13.039  21.689   0.033  1.00  0.00     0.180 A 
ATOM      2  C   UNL     1      13.013  20.546  -0.786  1.00  0.00     0.208 A 
ATOM      3  C   UNL     1      13.019  20.708  -2.181  1.00  0.00     0.238 A 
ATOM      4  O   UNL     1      12.940  19.683  -2.908  1.00  0.00    -0.285 OA
ATOM      5  C   UNL     1      13.068  22.008  -2.740  1.00  0.00     0.111 A 
ATOM      6  C   UNL     1      13.119  22.288  -4.138  1.00  0.00     0.134 A 
ATOM      7  C   UNL     1      13.033  23.614  -4.580  1.00  0.00     0.093 A 
ATOM      8  C   UNL     1      12.964  24.673  -3.673  1.00  0.00     0.123 A 
ATOM      9  C   UNL     1      12.974  24.414  -2.305  1.00  0.00     0.094 A 
ATOM     10  C   UNL     1      13.022  23.099  -1.833  1.00  0.00     0.146 A 
ATOM     11  O   UNL     1      13.019  22.895  -0.521  1.00  0.00    -0.452 OA
ENDROOT
BRANCH   1  12
ATOM     12  C   UNL     1      13.060  21.599   1.510  1.00  0.00     0.021 A 
ATOM     13  C   UNL     1      13.163  22.749   2.315  1.00  0.00     0.016 A 
ATOM     14  C   UNL     1      13.156  22.640   3.708  1.00  0.00     0.047 A 
ATOM     15  C   UNL     1      13.034  21.384   4.317  1.00  0.00     0.115 A 
ATOM     16  C   UNL     1      12.916  20.345   2.129  1.00  0.00     0.016 A 
ATOM     17  C   UNL     1      12.911  20.240   3.523  1.00  0.00     0.047 A 
BRANCH  15  18
ATOM     18  O   UNL     1      13.028  21.264   5.704  1.00  0.00    -0.508 OA
ATOM     19  H   UNL     1      12.239  20.864   6.198  1.00  0.00     0.293 HD
ENDBRANCH  15  18
ENDBRANCH   1  12
BRANCH   2  20
ATOM     20  O   UNL     1      12.941  19.272  -0.214  1.00  0.00    -0.502 OA
ATOM     21  H   UNL     1      12.235  18.597  -0.478  1.00  0.00     0.293 HD
ENDBRANCH   2  20
BRANCH   6  22
ATOM     22  O   UNL     1      13.280  21.310  -5.124  1.00  0.00    -0.507 OA
ATOM     23  H   UNL     1      12.656  21.174  -5.906  1.00  0.00     0.293 HD
ENDBRANCH   6  22
BRANCH   8  24
ATOM     24  O   UNL     1      12.895  25.990  -4.121  1.00  0.00    -0.508 OA
ATOM     25  H   UNL     1      12.630  26.747  -3.502  1.00  0.00     0.293 HD
ENDBRANCH   8  24
TORSDOF 5
ENDMDL
