MODEL 1
REMARK VINA RESULT:    -4.162      0.000      0.000
REMARK INTER + INTRA:         -13.966
REMARK INTER:                 -10.488
REMARK INTRA:                  -3.478
REMARK UNBOUND:                -3.478
REMARK SMILES CCCCCCCCCCCCCCCCCCCCCCCCCCCC(=O)[O-]
REMARK SMILES IDX 15 1 16 2 17 3 18 4 19 5 20 6 21 7 22 8 23 9 24 10 25 11
REMARK SMILES IDX 26 12 27 13 28 14 29 15 30 16 14 17 13 18 12 19 11 20 10 21
REMARK SMILES IDX 9 22 8 23 7 24 6 25 5 26 4 27 3 28 2 29 1 30
REMARK H PARENT
REMARK Flexibility Score: inf
ROOT
ATOM      1  C   UNL     1      13.896  49.277  96.910  1.00  0.00     0.000 C 
ENDROOT
BRANCH   1   2
ATOM      2  C   UNL     1      12.736  49.936  97.669  1.00  0.00     0.000 C 
BRANCH   2   3
ATOM      3  C   UNL     1      11.491  49.038  97.644  1.00  0.00     0.000 C 
BRANCH   3   4
ATOM      4  C   UNL     1      10.315  49.617  98.452  1.00  0.00     0.000 C 
BRANCH   4   5
ATOM      5  C   UNL     1       8.954  49.603  97.723  1.00  0.00     0.000 C 
BRANCH   5   6
ATOM      6  C   UNL     1       8.049  50.822  97.997  1.00  0.00     0.000 C 
BRANCH   6   7
ATOM      7  C   UNL     1       7.181  51.277  96.806  1.00  0.00     0.000 C 
BRANCH   7   8
ATOM      8  C   UNL     1       6.804  50.161  95.816  1.00  0.00     0.000 C 
BRANCH   8   9
ATOM      9  C   UNL     1       7.002  50.579  94.349  1.00  0.00     0.000 C 
BRANCH   9  10
ATOM     10  C   UNL     1       7.910  51.814  94.193  1.00  0.00     0.000 C 
BRANCH  10  11
ATOM     11  C   UNL     1       8.873  51.779  92.989  1.00  0.00     0.000 C 
BRANCH  11  12
ATOM     12  C   UNL     1       8.785  50.514  92.116  1.00  0.00     0.006 C 
BRANCH  12  13
ATOM     13  C   UNL     1       9.592  50.629  90.815  1.00  0.00     0.053 C 
BRANCH  13  14
ATOM     14  C   UNL     1       9.533  52.020  90.271  1.00  0.00     0.041 C 
ATOM     15  O   UNL     1      10.454  52.840  90.527  1.00  0.00    -0.550 OA
ATOM     16  O   UNL     1       8.453  52.419  89.491  1.00  0.00    -0.550 OA
ENDBRANCH  13  14
ENDBRANCH  12  13
ENDBRANCH  11  12
ENDBRANCH  10  11
ENDBRANCH   9  10
ENDBRANCH   8   9
ENDBRANCH   7   8
ENDBRANCH   6   7
ENDBRANCH   5   6
ENDBRANCH   4   5
ENDBRANCH   3   4
ENDBRANCH   2   3
ENDBRANCH   1   2
BRANCH   1  17
ATOM     17  C   UNL     1      14.691  50.287  96.066  1.00  0.00     0.000 C 
BRANCH  17  18
ATOM     18  C   UNL     1      14.065  50.521  94.683  1.00  0.00     0.000 C 
BRANCH  18  19
ATOM     19  C   UNL     1      13.394  49.241  94.169  1.00  0.00     0.000 C 
BRANCH  19  20
ATOM     20  C   UNL     1      11.893  49.457  93.908  1.00  0.00     0.000 C 
BRANCH  20  21
ATOM     21  C   UNL     1      11.143  48.122  93.789  1.00  0.00     0.000 C 
BRANCH  21  22
ATOM     22  C   UNL     1       9.855  48.093  94.644  1.00  0.00    -0.000 C 
BRANCH  22  23
ATOM     23  C   UNL     1       8.706  47.330  93.956  1.00  0.00    -0.000 C 
BRANCH  23  24
ATOM     24  C   UNL     1       8.577  45.857  94.405  1.00  0.00    -0.000 C 
BRANCH  24  25
ATOM     25  C   UNL     1       9.589  45.419  95.482  1.00  0.00    -0.000 C 
BRANCH  25  26
ATOM     26  C   UNL     1      10.601  44.382  94.966  1.00  0.00    -0.000 C 
BRANCH  26  27
ATOM     27  C   UNL     1      10.642  43.155  95.888  1.00  0.00    -0.000 C 
BRANCH  27  28
ATOM     28  C   UNL     1      11.571  42.049  95.366  1.00  0.00    -0.000 C 
BRANCH  28  29
ATOM     29  C   UNL     1      12.909  42.595  94.839  1.00  0.00    -0.003 C 
ATOM     30  C   UNL     1      14.054  42.247  95.787  1.00  0.00     0.004 C 
ENDBRANCH  28  29
ENDBRANCH  27  28
ENDBRANCH  26  27
ENDBRANCH  25  26
ENDBRANCH  24  25
ENDBRANCH  23  24
ENDBRANCH  22  23
ENDBRANCH  21  22
ENDBRANCH  20  21
ENDBRANCH  19  20
ENDBRANCH  18  19
ENDBRANCH  17  18
ENDBRANCH   1  17
TORSDOF 26
ENDMDL
MODEL 2
REMARK VINA RESULT:    -4.092      2.451      4.270
REMARK INTER + INTRA:         -13.790
REMARK INTER:                 -10.010
REMARK INTRA:                  -3.780
REMARK UNBOUND:                -3.478
REMARK SMILES CCCCCCCCCCCCCCCCCCCCCCCCCCCC(=O)[O-]
REMARK SMILES IDX 15 1 16 2 17 3 18 4 19 5 20 6 21 7 22 8 23 9 24 10 25 11
REMARK SMILES IDX 26 12 27 13 28 14 29 15 30 16 14 17 13 18 12 19 11 20 10 21
REMARK SMILES IDX 9 22 8 23 7 24 6 25 5 26 4 27 3 28 2 29 1 30
REMARK H PARENT
REMARK Flexibility Score: inf
ROOT
ATOM      1  C   UNL     1      13.329  50.304  97.557  1.00  0.00     0.000 C 
ENDROOT
BRANCH   1   2
ATOM      2  C   UNL     1      12.396  49.158  97.140  1.00  0.00     0.000 C 
BRANCH   2   3
ATOM      3  C   UNL     1      11.036  49.281  97.843  1.00  0.00     0.000 C 
BRANCH   3   4
ATOM      4  C   UNL     1      10.133  48.053  97.626  1.00  0.00     0.000 C 
BRANCH   4   5
ATOM      5  C   UNL     1       8.927  48.288  96.692  1.00  0.00     0.000 C 
BRANCH   5   6
ATOM      6  C   UNL     1       8.089  47.034  96.371  1.00  0.00     0.000 C 
BRANCH   6   7
ATOM      7  C   UNL     1       8.313  46.434  94.968  1.00  0.00     0.000 C 
BRANCH   7   8
ATOM      8  C   UNL     1       9.715  45.841  94.734  1.00  0.00     0.000 C 
BRANCH   8   9
ATOM      9  C   UNL     1      10.085  45.770  93.243  1.00  0.00     0.000 C 
BRANCH   9  10
ATOM     10  C   UNL     1      11.184  46.774  92.846  1.00  0.00     0.000 C 
BRANCH  10  11
ATOM     11  C   UNL     1      11.569  47.796  93.935  1.00  0.00     0.000 C 
BRANCH  11  12
ATOM     12  C   UNL     1      10.954  49.197  93.766  1.00  0.00     0.006 C 
BRANCH  12  13
ATOM     13  C   UNL     1      10.040  49.303  92.538  1.00  0.00     0.053 C 
BRANCH  13  14
ATOM     14  C   UNL     1       8.620  49.530  92.947  1.00  0.00     0.041 C 
ATOM     15  O   UNL     1       7.680  49.016  92.286  1.00  0.00    -0.550 OA
ATOM     16  O   UNL     1       8.330  50.322  94.053  1.00  0.00    -0.550 OA
ENDBRANCH  13  14
ENDBRANCH  12  13
ENDBRANCH  11  12
ENDBRANCH  10  11
ENDBRANCH   9  10
ENDBRANCH   8   9
ENDBRANCH   7   8
ENDBRANCH   6   7
ENDBRANCH   5   6
ENDBRANCH   4   5
ENDBRANCH   3   4
ENDBRANCH   2   3
ENDBRANCH   1   2
BRANCH   1  17
ATOM     17  C   UNL     1      14.208  50.794  96.396  1.00  0.00     0.000 C 
BRANCH  17  18
ATOM     18  C   UNL     1      14.364  49.740  95.289  1.00  0.00     0.000 C 
BRANCH  18  19
ATOM     19  C   UNL     1      15.755  49.830  94.649  1.00  0.00     0.000 C 
BRANCH  19  20
ATOM     20  C   UNL     1      16.248  48.451  94.176  1.00  0.00     0.000 C 
BRANCH  20  21
ATOM     21  C   UNL     1      15.680  48.089  92.796  1.00  0.00     0.000 C 
BRANCH  21  22
ATOM     22  C   UNL     1      16.289  46.786  92.233  1.00  0.00    -0.000 C 
BRANCH  22  23
ATOM     23  C   UNL     1      15.224  45.841  91.643  1.00  0.00    -0.000 C 
BRANCH  23  24
ATOM     24  C   UNL     1      15.663  44.360  91.587  1.00  0.00    -0.000 C 
BRANCH  24  25
ATOM     25  C   UNL     1      14.504  43.342  91.608  1.00  0.00    -0.000 C 
BRANCH  25  26
ATOM     26  C   UNL     1      13.279  43.845  92.387  1.00  0.00    -0.000 C 
BRANCH  26  27
ATOM     27  C   UNL     1      12.512  42.672  93.015  1.00  0.00    -0.000 C 
BRANCH  27  28
ATOM     28  C   UNL     1      12.777  42.526  94.521  1.00  0.00    -0.000 C 
BRANCH  28  29
ATOM     29  C   UNL     1      11.518  42.766  95.372  1.00  0.00    -0.003 C 
ATOM     30  C   UNL     1      11.621  42.051  96.717  1.00  0.00     0.004 C 
ENDBRANCH  28  29
ENDBRANCH  27  28
ENDBRANCH  26  27
ENDBRANCH  25  26
ENDBRANCH  24  25
ENDBRANCH  23  24
ENDBRANCH  22  23
ENDBRANCH  21  22
ENDBRANCH  20  21
ENDBRANCH  19  20
ENDBRANCH  18  19
ENDBRANCH  17  18
ENDBRANCH   1  17
TORSDOF 26
ENDMDL
MODEL 3
REMARK VINA RESULT:    -4.076      3.007      4.613
REMARK INTER + INTRA:         -13.750
REMARK INTER:                 -10.604
REMARK INTRA:                  -3.145
REMARK UNBOUND:                -3.478
REMARK SMILES CCCCCCCCCCCCCCCCCCCCCCCCCCCC(=O)[O-]
REMARK SMILES IDX 15 1 16 2 17 3 18 4 19 5 20 6 21 7 22 8 23 9 24 10 25 11
REMARK SMILES IDX 26 12 27 13 28 14 29 15 30 16 14 17 13 18 12 19 11 20 10 21
REMARK SMILES IDX 9 22 8 23 7 24 6 25 5 26 4 27 3 28 2 29 1 30
REMARK H PARENT
REMARK Flexibility Score: inf
ROOT
ATOM      1  C   UNL     1      13.671  49.402  96.116  1.00  0.00     0.000 C 
ENDROOT
BRANCH   1   2
ATOM      2  C   UNL     1      12.779  49.536  97.359  1.00  0.00     0.000 C 
BRANCH   2   3
ATOM      3  C   UNL     1      11.410  48.884  97.116  1.00  0.00     0.000 C 
BRANCH   3   4
ATOM      4  C   UNL     1      10.466  48.998  98.328  1.00  0.00     0.000 C 
BRANCH   4   5
ATOM      5  C   UNL     1       9.613  50.284  98.372  1.00  0.00     0.000 C 
BRANCH   5   6
ATOM      6  C   UNL     1       8.095  50.072  98.198  1.00  0.00     0.000 C 
BRANCH   6   7
ATOM      7  C   UNL     1       7.572  50.227  96.755  1.00  0.00     0.000 C 
BRANCH   7   8
ATOM      8  C   UNL     1       6.937  48.959  96.157  1.00  0.00     0.000 C 
BRANCH   8   9
ATOM      9  C   UNL     1       7.986  47.920  95.727  1.00  0.00     0.000 C 
BRANCH   9  10
ATOM     10  C   UNL     1       8.031  46.690  96.653  1.00  0.00     0.000 C 
BRANCH  10  11
ATOM     11  C   UNL     1       9.320  45.847  96.573  1.00  0.00     0.000 C 
BRANCH  11  12
ATOM     12  C   UNL     1       9.605  45.215  95.198  1.00  0.00     0.006 C 
BRANCH  12  13
ATOM     13  C   UNL     1      10.644  45.999  94.385  1.00  0.00     0.053 C 
BRANCH  13  14
ATOM     14  C   UNL     1      10.351  45.916  92.922  1.00  0.00     0.041 C 
ATOM     15  O   UNL     1       9.168  46.035  92.505  1.00  0.00    -0.550 OA
ATOM     16  O   UNL     1      11.381  45.694  92.015  1.00  0.00    -0.550 OA
ENDBRANCH  13  14
ENDBRANCH  12  13
ENDBRANCH  11  12
ENDBRANCH  10  11
ENDBRANCH   9  10
ENDBRANCH   8   9
ENDBRANCH   7   8
ENDBRANCH   6   7
ENDBRANCH   5   6
ENDBRANCH   4   5
ENDBRANCH   3   4
ENDBRANCH   2   3
ENDBRANCH   1   2
BRANCH   1  17
ATOM     17  C   UNL     1      14.552  50.642  95.893  1.00  0.00     0.000 C 
BRANCH  17  18
ATOM     18  C   UNL     1      15.553  50.454  94.743  1.00  0.00     0.000 C 
BRANCH  18  19
ATOM     19  C   UNL     1      15.785  48.964  94.465  1.00  0.00     0.000 C 
BRANCH  19  20
ATOM     20  C   UNL     1      15.941  48.688  92.959  1.00  0.00     0.000 C 
BRANCH  20  21
ATOM     21  C   UNL     1      16.333  47.227  92.689  1.00  0.00     0.000 C 
BRANCH  21  22
ATOM     22  C   UNL     1      15.168  46.406  92.094  1.00  0.00    -0.000 C 
BRANCH  22  23
ATOM     23  C   UNL     1      15.650  45.317  91.116  1.00  0.00    -0.000 C 
BRANCH  23  24
ATOM     24  C   UNL     1      15.194  43.890  91.493  1.00  0.00    -0.000 C 
BRANCH  24  25
ATOM     25  C   UNL     1      15.823  43.333  92.787  1.00  0.00    -0.000 C 
BRANCH  25  26
ATOM     26  C   UNL     1      14.845  42.475  93.606  1.00  0.00    -0.000 C 
BRANCH  26  27
ATOM     27  C   UNL     1      13.448  42.479  92.967  1.00  0.00    -0.000 C 
BRANCH  27  28
ATOM     28  C   UNL     1      12.337  42.832  93.967  1.00  0.00    -0.000 C 
BRANCH  28  29
ATOM     29  C   UNL     1      12.666  42.388  95.402  1.00  0.00    -0.003 C 
ATOM     30  C   UNL     1      11.408  41.926  96.135  1.00  0.00     0.004 C 
ENDBRANCH  28  29
ENDBRANCH  27  28
ENDBRANCH  26  27
ENDBRANCH  25  26
ENDBRANCH  24  25
ENDBRANCH  23  24
ENDBRANCH  22  23
ENDBRANCH  21  22
ENDBRANCH  20  21
ENDBRANCH  19  20
ENDBRANCH  18  19
ENDBRANCH  17  18
ENDBRANCH   1  17
TORSDOF 26
ENDMDL
MODEL 4
REMARK VINA RESULT:    -3.930      4.706      7.698
REMARK INTER + INTRA:         -13.383
REMARK INTER:                 -10.849
REMARK INTRA:                  -2.534
REMARK UNBOUND:                -3.478
REMARK SMILES CCCCCCCCCCCCCCCCCCCCCCCCCCCC(=O)[O-]
REMARK SMILES IDX 15 1 16 2 17 3 18 4 19 5 20 6 21 7 22 8 23 9 24 10 25 11
REMARK SMILES IDX 26 12 27 13 28 14 29 15 30 16 14 17 13 18 12 19 11 20 10 21
REMARK SMILES IDX 9 22 8 23 7 24 6 25 5 26 4 27 3 28 2 29 1 30
REMARK H PARENT
REMARK Flexibility Score: inf
ROOT
ATOM      1  C   UNL     1      14.167  50.759  95.150  1.00  0.00     0.000 C 
ENDROOT
BRANCH   1   2
ATOM      2  C   UNL     1      15.593  50.545  94.621  1.00  0.00     0.000 C 
BRANCH   2   3
ATOM      3  C   UNL     1      15.959  49.054  94.637  1.00  0.00     0.000 C 
BRANCH   3   4
ATOM      4  C   UNL     1      15.449  48.296  93.397  1.00  0.00     0.000 C 
BRANCH   4   5
ATOM      5  C   UNL     1      16.278  48.514  92.113  1.00  0.00     0.000 C 
BRANCH   5   6
ATOM      6  C   UNL     1      16.437  47.271  91.214  1.00  0.00     0.000 C 
BRANCH   6   7
ATOM      7  C   UNL     1      15.946  45.946  91.833  1.00  0.00     0.000 C 
BRANCH   7   8
ATOM      8  C   UNL     1      15.298  44.967  90.837  1.00  0.00     0.000 C 
BRANCH   8   9
ATOM      9  C   UNL     1      14.148  44.161  91.464  1.00  0.00     0.000 C 
BRANCH   9  10
ATOM     10  C   UNL     1      13.735  42.942  90.618  1.00  0.00     0.000 C 
BRANCH  10  11
ATOM     11  C   UNL     1      12.225  42.630  90.600  1.00  0.00     0.000 C 
BRANCH  11  12
ATOM     12  C   UNL     1      11.860  41.143  90.767  1.00  0.00     0.006 C 
BRANCH  12  13
ATOM     13  C   UNL     1      12.906  40.201  90.155  1.00  0.00     0.053 C 
BRANCH  13  14
ATOM     14  C   UNL     1      12.270  39.251  89.191  1.00  0.00     0.041 C 
ATOM     15  O   UNL     1      11.116  38.799  89.415  1.00  0.00    -0.550 OA
ATOM     16  O   UNL     1      12.956  38.854  88.049  1.00  0.00    -0.550 OA
ENDBRANCH  13  14
ENDBRANCH  12  13
ENDBRANCH  11  12
ENDBRANCH  10  11
ENDBRANCH   9  10
ENDBRANCH   8   9
ENDBRANCH   7   8
ENDBRANCH   6   7
ENDBRANCH   5   6
ENDBRANCH   4   5
ENDBRANCH   3   4
ENDBRANCH   2   3
ENDBRANCH   1   2
BRANCH   1  17
ATOM     17  C   UNL     1      14.107  50.757  96.686  1.00  0.00     0.000 C 
BRANCH  17  18
ATOM     18  C   UNL     1      13.596  49.424  97.254  1.00  0.00     0.000 C 
BRANCH  18  19
ATOM     19  C   UNL     1      12.262  49.035  96.604  1.00  0.00     0.000 C 
BRANCH  19  20
ATOM     20  C   UNL     1      11.118  49.016  97.632  1.00  0.00     0.000 C 
BRANCH  20  21
ATOM     21  C   UNL     1       9.753  48.818  96.956  1.00  0.00     0.000 C 
BRANCH  21  22
ATOM     22  C   UNL     1       9.084  47.484  97.360  1.00  0.00    -0.000 C 
BRANCH  22  23
ATOM     23  C   UNL     1       8.944  46.509  96.175  1.00  0.00    -0.000 C 
BRANCH  23  24
ATOM     24  C   UNL     1       9.440  47.085  94.829  1.00  0.00    -0.000 C 
BRANCH  24  25
ATOM     25  C   UNL     1      10.446  46.191  94.075  1.00  0.00    -0.000 C 
BRANCH  25  26
ATOM     26  C   UNL     1      10.588  44.793  94.698  1.00  0.00    -0.000 C 
BRANCH  26  27
ATOM     27  C   UNL     1      11.597  43.945  93.910  1.00  0.00    -0.000 C 
BRANCH  27  28
ATOM     28  C   UNL     1      11.900  42.600  94.586  1.00  0.00    -0.000 C 
BRANCH  28  29
ATOM     29  C   UNL     1      11.074  42.377  95.864  1.00  0.00    -0.003 C 
ATOM     30  C   UNL     1      11.980  42.094  97.060  1.00  0.00     0.004 C 
ENDBRANCH  28  29
ENDBRANCH  27  28
ENDBRANCH  26  27
ENDBRANCH  25  26
ENDBRANCH  24  25
ENDBRANCH  23  24
ENDBRANCH  22  23
ENDBRANCH  21  22
ENDBRANCH  20  21
ENDBRANCH  19  20
ENDBRANCH  18  19
ENDBRANCH  17  18
ENDBRANCH   1  17
TORSDOF 26
ENDMDL
MODEL 5
REMARK VINA RESULT:    -3.922      4.471      7.971
REMARK INTER + INTRA:         -13.361
REMARK INTER:                 -11.932
REMARK INTRA:                  -1.429
REMARK UNBOUND:                -3.478
REMARK SMILES CCCCCCCCCCCCCCCCCCCCCCCCCCCC(=O)[O-]
REMARK SMILES IDX 15 1 16 2 17 3 18 4 19 5 20 6 21 7 22 8 23 9 24 10 25 11
REMARK SMILES IDX 26 12 27 13 28 14 29 15 30 16 14 17 13 18 12 19 11 20 10 21
REMARK SMILES IDX 9 22 8 23 7 24 6 25 5 26 4 27 3 28 2 29 1 30
REMARK H PARENT
REMARK Flexibility Score: inf
ROOT
ATOM      1  C   UNL     1      10.703  44.726  94.654  1.00  0.00     0.000 C 
ENDROOT
BRANCH   1   2
ATOM      2  C   UNL     1       9.419  45.506  94.971  1.00  0.00     0.000 C 
BRANCH   2   3
ATOM      3  C   UNL     1       9.310  45.782  96.477  1.00  0.00     0.000 C 
BRANCH   3   4
ATOM      4  C   UNL     1       9.035  47.263  96.799  1.00  0.00     0.000 C 
BRANCH   4   5
ATOM      5  C   UNL     1      10.262  48.193  96.686  1.00  0.00     0.000 C 
BRANCH   5   6
ATOM      6  C   UNL     1      10.590  49.004  97.957  1.00  0.00     0.000 C 
BRANCH   6   7
ATOM      7  C   UNL     1      11.912  49.798  97.905  1.00  0.00     0.000 C 
BRANCH   7   8
ATOM      8  C   UNL     1      13.007  49.177  97.020  1.00  0.00     0.000 C 
BRANCH   8   9
ATOM      9  C   UNL     1      13.855  50.237  96.297  1.00  0.00     0.000 C 
BRANCH   9  10
ATOM     10  C   UNL     1      14.125  49.888  94.821  1.00  0.00     0.000 C 
BRANCH  10  11
ATOM     11  C   UNL     1      15.609  49.896  94.400  1.00  0.00     0.000 C 
BRANCH  11  12
ATOM     12  C   UNL     1      16.195  48.520  94.038  1.00  0.00     0.006 C 
BRANCH  12  13
ATOM     13  C   UNL     1      16.783  47.784  95.249  1.00  0.00     0.053 C 
BRANCH  13  14
ATOM     14  C   UNL     1      17.667  46.659  94.813  1.00  0.00     0.041 C 
ATOM     15  O   UNL     1      18.636  46.300  95.532  1.00  0.00    -0.550 OA
ATOM     16  O   UNL     1      17.428  46.012  93.605  1.00  0.00    -0.550 OA
ENDBRANCH  13  14
ENDBRANCH  12  13
ENDBRANCH  11  12
ENDBRANCH  10  11
ENDBRANCH   9  10
ENDBRANCH   8   9
ENDBRANCH   7   8
ENDBRANCH   6   7
ENDBRANCH   5   6
ENDBRANCH   4   5
ENDBRANCH   3   4
ENDBRANCH   2   3
ENDBRANCH   1   2
BRANCH   1  17
ATOM     17  C   UNL     1      10.789  43.401  95.428  1.00  0.00     0.000 C 
BRANCH  17  18
ATOM     18  C   UNL     1      11.977  42.535  94.984  1.00  0.00     0.000 C 
BRANCH  18  19
ATOM     19  C   UNL     1      12.036  42.440  93.454  1.00  0.00     0.000 C 
BRANCH  19  20
ATOM     20  C   UNL     1      13.299  43.119  92.895  1.00  0.00     0.000 C 
BRANCH  20  21
ATOM     21  C   UNL     1      14.437  42.108  92.682  1.00  0.00     0.000 C 
BRANCH  21  22
ATOM     22  C   UNL     1      14.699  41.245  93.936  1.00  0.00    -0.000 C 
BRANCH  22  23
ATOM     23  C   UNL     1      16.086  40.574  93.914  1.00  0.00    -0.000 C 
BRANCH  23  24
ATOM     24  C   UNL     1      16.438  39.820  95.216  1.00  0.00    -0.000 C 
BRANCH  24  25
ATOM     25  C   UNL     1      16.748  38.320  95.030  1.00  0.00    -0.000 C 
BRANCH  25  26
ATOM     26  C   UNL     1      18.254  38.027  94.940  1.00  0.00    -0.000 C 
BRANCH  26  27
ATOM     27  C   UNL     1      19.067  39.128  95.636  1.00  0.00    -0.000 C 
BRANCH  27  28
ATOM     28  C   UNL     1      20.266  39.602  94.801  1.00  0.00    -0.000 C 
BRANCH  28  29
ATOM     29  C   UNL     1      21.463  40.027  95.667  1.00  0.00    -0.003 C 
ATOM     30  C   UNL     1      21.132  39.917  97.154  1.00  0.00     0.004 C 
ENDBRANCH  28  29
ENDBRANCH  27  28
ENDBRANCH  26  27
ENDBRANCH  25  26
ENDBRANCH  24  25
ENDBRANCH  23  24
ENDBRANCH  22  23
ENDBRANCH  21  22
ENDBRANCH  20  21
ENDBRANCH  19  20
ENDBRANCH  18  19
ENDBRANCH  17  18
ENDBRANCH   1  17
TORSDOF 26
ENDMDL
MODEL 6
REMARK VINA RESULT:    -3.915      4.739      7.885
REMARK INTER + INTRA:         -13.344
REMARK INTER:                 -10.494
REMARK INTRA:                  -2.850
REMARK UNBOUND:                -3.478
REMARK SMILES CCCCCCCCCCCCCCCCCCCCCCCCCCCC(=O)[O-]
REMARK SMILES IDX 15 1 16 2 17 3 18 4 19 5 20 6 21 7 22 8 23 9 24 10 25 11
REMARK SMILES IDX 26 12 27 13 28 14 29 15 30 16 14 17 13 18 12 19 11 20 10 21
REMARK SMILES IDX 9 22 8 23 7 24 6 25 5 26 4 27 3 28 2 29 1 30
REMARK H PARENT
REMARK Flexibility Score: inf
ROOT
ATOM      1  C   UNL     1      14.251  50.746  96.483  1.00  0.00     0.000 C 
ENDROOT
BRANCH   1   2
ATOM      2  C   UNL     1      15.283  50.560  95.362  1.00  0.00     0.000 C 
BRANCH   2   3
ATOM      3  C   UNL     1      14.873  49.411  94.431  1.00  0.00     0.000 C 
BRANCH   3   4
ATOM      4  C   UNL     1      16.046  48.482  94.067  1.00  0.00     0.000 C 
BRANCH   4   5
ATOM      5  C   UNL     1      16.875  47.978  95.267  1.00  0.00     0.000 C 
BRANCH   5   6
ATOM      6  C   UNL     1      17.538  46.598  95.076  1.00  0.00     0.000 C 
BRANCH   6   7
ATOM      7  C   UNL     1      17.293  45.937  93.704  1.00  0.00     0.000 C 
BRANCH   7   8
ATOM      8  C   UNL     1      18.552  45.756  92.837  1.00  0.00     0.000 C 
BRANCH   8   9
ATOM      9  C   UNL     1      18.586  44.396  92.120  1.00  0.00     0.000 C 
BRANCH   9  10
ATOM     10  C   UNL     1      17.197  43.742  92.003  1.00  0.00     0.000 C 
BRANCH  10  11
ATOM     11  C   UNL     1      16.746  43.397  90.569  1.00  0.00     0.000 C 
BRANCH  11  12
ATOM     12  C   UNL     1      15.238  43.142  90.399  1.00  0.00     0.006 C 
BRANCH  12  13
ATOM     13  C   UNL     1      14.934  41.884  89.574  1.00  0.00     0.053 C 
BRANCH  13  14
ATOM     14  C   UNL     1      14.505  40.757  90.458  1.00  0.00     0.041 C 
ATOM     15  O   UNL     1      15.364  40.054  91.051  1.00  0.00    -0.550 OA
ATOM     16  O   UNL     1      13.153  40.473  90.619  1.00  0.00    -0.550 OA
ENDBRANCH  13  14
ENDBRANCH  12  13
ENDBRANCH  11  12
ENDBRANCH  10  11
ENDBRANCH   9  10
ENDBRANCH   8   9
ENDBRANCH   7   8
ENDBRANCH   6   7
ENDBRANCH   5   6
ENDBRANCH   4   5
ENDBRANCH   3   4
ENDBRANCH   2   3
ENDBRANCH   1   2
BRANCH   1  17
ATOM     17  C   UNL     1      13.606  49.417  96.910  1.00  0.00     0.000 C 
BRANCH  17  18
ATOM     18  C   UNL     1      12.255  49.617  97.613  1.00  0.00     0.000 C 
BRANCH  18  19
ATOM     19  C   UNL     1      11.179  48.727  96.979  1.00  0.00     0.000 C 
BRANCH  19  20
ATOM     20  C   UNL     1      11.447  48.496  95.482  1.00  0.00     0.000 C 
BRANCH  20  21
ATOM     21  C   UNL     1      10.591  47.349  94.924  1.00  0.00     0.000 C 
BRANCH  21  22
ATOM     22  C   UNL     1      10.088  47.634  93.491  1.00  0.00    -0.000 C 
BRANCH  22  23
ATOM     23  C   UNL     1      10.486  46.529  92.493  1.00  0.00    -0.000 C 
BRANCH  23  24
ATOM     24  C   UNL     1      10.820  45.175  93.160  1.00  0.00    -0.000 C 
BRANCH  24  25
ATOM     25  C   UNL     1      12.181  44.574  92.754  1.00  0.00    -0.000 C 
BRANCH  25  26
ATOM     26  C   UNL     1      12.203  43.038  92.829  1.00  0.00    -0.000 C 
BRANCH  26  27
ATOM     27  C   UNL     1      13.471  42.546  93.542  1.00  0.00    -0.000 C 
BRANCH  27  28
ATOM     28  C   UNL     1      13.312  42.492  95.069  1.00  0.00    -0.000 C 
BRANCH  28  29
ATOM     29  C   UNL     1      11.852  42.292  95.508  1.00  0.00    -0.003 C 
ATOM     30  C   UNL     1      11.748  42.175  97.027  1.00  0.00     0.004 C 
ENDBRANCH  28  29
ENDBRANCH  27  28
ENDBRANCH  26  27
ENDBRANCH  25  26
ENDBRANCH  24  25
ENDBRANCH  23  24
ENDBRANCH  22  23
ENDBRANCH  21  22
ENDBRANCH  20  21
ENDBRANCH  19  20
ENDBRANCH  18  19
ENDBRANCH  17  18
ENDBRANCH   1  17
TORSDOF 26
ENDMDL
MODEL 7
REMARK VINA RESULT:    -3.898      4.889      8.495
REMARK INTER + INTRA:         -13.302
REMARK INTER:                 -10.294
REMARK INTRA:                  -3.007
REMARK UNBOUND:                -3.478
REMARK SMILES CCCCCCCCCCCCCCCCCCCCCCCCCCCC(=O)[O-]
REMARK SMILES IDX 15 1 16 2 17 3 18 4 19 5 20 6 21 7 22 8 23 9 24 10 25 11
REMARK SMILES IDX 26 12 27 13 28 14 29 15 30 16 14 17 13 18 12 19 11 20 10 21
REMARK SMILES IDX 9 22 8 23 7 24 6 25 5 26 4 27 3 28 2 29 1 30
REMARK H PARENT
REMARK Flexibility Score: inf
ROOT
ATOM      1  C   UNL     1      10.312  48.103  96.526  1.00  0.00     0.000 C 
ENDROOT
BRANCH   1   2
ATOM      2  C   UNL     1      10.011  47.014  95.485  1.00  0.00     0.000 C 
BRANCH   2   3
ATOM      3  C   UNL     1       9.334  45.805  96.145  1.00  0.00     0.000 C 
BRANCH   3   4
ATOM      4  C   UNL     1       9.665  44.474  95.444  1.00  0.00     0.000 C 
BRANCH   4   5
ATOM      5  C   UNL     1      10.936  44.496  94.569  1.00  0.00     0.000 C 
BRANCH   5   6
ATOM      6  C   UNL     1      11.790  43.212  94.617  1.00  0.00     0.000 C 
BRANCH   6   7
ATOM      7  C   UNL     1      12.269  42.689  93.247  1.00  0.00     0.000 C 
BRANCH   7   8
ATOM      8  C   UNL     1      13.658  43.189  92.813  1.00  0.00     0.000 C 
BRANCH   8   9
ATOM      9  C   UNL     1      14.799  42.315  93.362  1.00  0.00     0.000 C 
BRANCH   9  10
ATOM     10  C   UNL     1      15.311  41.281  92.341  1.00  0.00     0.000 C 
BRANCH  10  11
ATOM     11  C   UNL     1      15.406  41.781  90.885  1.00  0.00     0.000 C 
BRANCH  11  12
ATOM     12  C   UNL     1      14.701  40.896  89.841  1.00  0.00     0.006 C 
BRANCH  12  13
ATOM     13  C   UNL     1      13.202  41.200  89.715  1.00  0.00     0.053 C 
BRANCH  13  14
ATOM     14  C   UNL     1      12.382  40.024  90.136  1.00  0.00     0.041 C 
ATOM     15  O   UNL     1      11.359  40.188  90.851  1.00  0.00    -0.550 OA
ATOM     16  O   UNL     1      12.753  38.740  89.749  1.00  0.00    -0.550 OA
ENDBRANCH  13  14
ENDBRANCH  12  13
ENDBRANCH  11  12
ENDBRANCH  10  11
ENDBRANCH   9  10
ENDBRANCH   8   9
ENDBRANCH   7   8
ENDBRANCH   6   7
ENDBRANCH   5   6
ENDBRANCH   4   5
ENDBRANCH   3   4
ENDBRANCH   2   3
ENDBRANCH   1   2
BRANCH   1  17
ATOM     17  C   UNL     1      11.665  48.789  96.280  1.00  0.00     0.000 C 
BRANCH  17  18
ATOM     18  C   UNL     1      12.201  49.500  97.531  1.00  0.00     0.000 C 
BRANCH  18  19
ATOM     19  C   UNL     1      13.724  49.663  97.451  1.00  0.00     0.000 C 
BRANCH  19  20
ATOM     20  C   UNL     1      14.115  51.022  96.846  1.00  0.00     0.000 C 
BRANCH  20  21
ATOM     21  C   UNL     1      14.560  50.883  95.383  1.00  0.00     0.000 C 
BRANCH  21  22
ATOM     22  C   UNL     1      15.472  49.655  95.159  1.00  0.00    -0.000 C 
BRANCH  22  23
ATOM     23  C   UNL     1      15.644  49.310  93.667  1.00  0.00    -0.000 C 
BRANCH  23  24
ATOM     24  C   UNL     1      16.311  47.938  93.416  1.00  0.00    -0.000 C 
BRANCH  24  25
ATOM     25  C   UNL     1      17.210  47.437  94.564  1.00  0.00    -0.000 C 
BRANCH  25  26
ATOM     26  C   UNL     1      17.807  46.047  94.294  1.00  0.00    -0.000 C 
BRANCH  26  27
ATOM     27  C   UNL     1      17.032  45.327  93.180  1.00  0.00    -0.000 C 
BRANCH  27  28
ATOM     28  C   UNL     1      17.931  44.435  92.310  1.00  0.00    -0.000 C 
BRANCH  28  29
ATOM     29  C   UNL     1      17.619  44.559  90.810  1.00  0.00    -0.003 C 
ATOM     30  C   UNL     1      16.369  45.405  90.577  1.00  0.00     0.004 C 
ENDBRANCH  28  29
ENDBRANCH  27  28
ENDBRANCH  26  27
ENDBRANCH  25  26
ENDBRANCH  24  25
ENDBRANCH  23  24
ENDBRANCH  22  23
ENDBRANCH  21  22
ENDBRANCH  20  21
ENDBRANCH  19  20
ENDBRANCH  18  19
ENDBRANCH  17  18
ENDBRANCH   1  17
TORSDOF 26
ENDMDL
MODEL 8
REMARK VINA RESULT:    -3.874      2.989      4.771
REMARK INTER + INTRA:         -13.241
REMARK INTER:                  -9.840
REMARK INTRA:                  -3.401
REMARK UNBOUND:                -3.478
REMARK SMILES CCCCCCCCCCCCCCCCCCCCCCCCCCCC(=O)[O-]
REMARK SMILES IDX 15 1 16 2 17 3 18 4 19 5 20 6 21 7 22 8 23 9 24 10 25 11
REMARK SMILES IDX 26 12 27 13 28 14 29 15 30 16 14 17 13 18 12 19 11 20 10 21
REMARK SMILES IDX 9 22 8 23 7 24 6 25 5 26 4 27 3 28 2 29 1 30
REMARK H PARENT
REMARK Flexibility Score: inf
ROOT
ATOM      1  C   UNL     1      11.065  48.519  96.886  1.00  0.00     0.000 C 
ENDROOT
BRANCH   1   2
ATOM      2  C   UNL     1      10.692  49.237  98.191  1.00  0.00     0.000 C 
BRANCH   2   3
ATOM      3  C   UNL     1       9.282  49.837  98.096  1.00  0.00     0.000 C 
BRANCH   3   4
ATOM      4  C   UNL     1       8.388  49.113  97.072  1.00  0.00     0.000 C 
BRANCH   4   5
ATOM      5  C   UNL     1       7.322  50.001  96.394  1.00  0.00     0.000 C 
BRANCH   5   6
ATOM      6  C   UNL     1       7.378  51.496  96.767  1.00  0.00     0.000 C 
BRANCH   6   7
ATOM      7  C   UNL     1       6.595  52.437  95.828  1.00  0.00     0.000 C 
BRANCH   7   8
ATOM      8  C   UNL     1       7.440  53.107  94.730  1.00  0.00     0.000 C 
BRANCH   8   9
ATOM      9  C   UNL     1       7.515  52.265  93.445  1.00  0.00     0.000 C 
BRANCH   9  10
ATOM     10  C   UNL     1       8.885  51.592  93.244  1.00  0.00     0.000 C 
BRANCH  10  11
ATOM     11  C   UNL     1       8.839  50.126  92.765  1.00  0.00     0.000 C 
BRANCH  11  12
ATOM     12  C   UNL     1       9.832  49.177  93.461  1.00  0.00     0.006 C 
BRANCH  12  13
ATOM     13  C   UNL     1       9.247  47.781  93.713  1.00  0.00     0.053 C 
BRANCH  13  14
ATOM     14  C   UNL     1      10.303  46.730  93.593  1.00  0.00     0.041 C 
ATOM     15  O   UNL     1      10.538  45.955  94.557  1.00  0.00    -0.550 OA
ATOM     16  O   UNL     1      11.039  46.612  92.419  1.00  0.00    -0.550 OA
ENDBRANCH  13  14
ENDBRANCH  12  13
ENDBRANCH  11  12
ENDBRANCH  10  11
ENDBRANCH   9  10
ENDBRANCH   8   9
ENDBRANCH   7   8
ENDBRANCH   6   7
ENDBRANCH   5   6
ENDBRANCH   4   5
ENDBRANCH   3   4
ENDBRANCH   2   3
ENDBRANCH   1   2
BRANCH   1  17
ATOM     17  C   UNL     1      12.355  49.076  96.261  1.00  0.00     0.000 C 
BRANCH  17  18
ATOM     18  C   UNL     1      13.377  49.522  97.318  1.00  0.00     0.000 C 
BRANCH  18  19
ATOM     19  C   UNL     1      14.151  50.755  96.836  1.00  0.00     0.000 C 
BRANCH  19  20
ATOM     20  C   UNL     1      14.191  50.831  95.299  1.00  0.00     0.000 C 
BRANCH  20  21
ATOM     21  C   UNL     1      15.584  50.484  94.752  1.00  0.00     0.000 C 
BRANCH  21  22
ATOM     22  C   UNL     1      15.637  49.069  94.133  1.00  0.00    -0.000 C 
BRANCH  22  23
ATOM     23  C   UNL     1      16.565  48.117  94.912  1.00  0.00    -0.000 C 
BRANCH  23  24
ATOM     24  C   UNL     1      17.192  47.004  94.042  1.00  0.00    -0.000 C 
BRANCH  24  25
ATOM     25  C   UNL     1      17.161  47.276  92.524  1.00  0.00    -0.000 C 
BRANCH  25  26
ATOM     26  C   UNL     1      16.988  45.997  91.690  1.00  0.00    -0.000 C 
BRANCH  26  27
ATOM     27  C   UNL     1      15.683  45.276  92.060  1.00  0.00    -0.000 C 
BRANCH  27  28
ATOM     28  C   UNL     1      15.917  43.847  92.571  1.00  0.00    -0.000 C 
BRANCH  28  29
ATOM     29  C   UNL     1      14.619  43.026  92.656  1.00  0.00    -0.003 C 
ATOM     30  C   UNL     1      13.407  43.876  92.283  1.00  0.00     0.004 C 
ENDBRANCH  28  29
ENDBRANCH  27  28
ENDBRANCH  26  27
ENDBRANCH  25  26
ENDBRANCH  24  25
ENDBRANCH  23  24
ENDBRANCH  22  23
ENDBRANCH  21  22
ENDBRANCH  20  21
ENDBRANCH  19  20
ENDBRANCH  18  19
ENDBRANCH  17  18
ENDBRANCH   1  17
TORSDOF 26
ENDMDL
MODEL 9
REMARK VINA RESULT:    -3.841      3.861      7.342
REMARK INTER + INTRA:         -13.156
REMARK INTER:                  -9.617
REMARK INTRA:                  -3.539
REMARK UNBOUND:                -3.478
REMARK SMILES CCCCCCCCCCCCCCCCCCCCCCCCCCCC(=O)[O-]
REMARK SMILES IDX 15 1 16 2 17 3 18 4 19 5 20 6 21 7 22 8 23 9 24 10 25 11
REMARK SMILES IDX 26 12 27 13 28 14 29 15 30 16 14 17 13 18 12 19 11 20 10 21
REMARK SMILES IDX 9 22 8 23 7 24 6 25 5 26 4 27 3 28 2 29 1 30
REMARK H PARENT
REMARK Flexibility Score: inf
ROOT
ATOM      1  C   UNL     1      12.861  49.411  97.254  1.00  0.00     0.000 C 
ENDROOT
BRANCH   1   2
ATOM      2  C   UNL     1      13.316  49.675  95.811  1.00  0.00     0.000 C 
BRANCH   2   3
ATOM      3  C   UNL     1      14.554  50.583  95.790  1.00  0.00     0.000 C 
BRANCH   3   4
ATOM      4  C   UNL     1      15.721  49.989  94.979  1.00  0.00     0.000 C 
BRANCH   4   5
ATOM      5  C   UNL     1      15.304  49.156  93.749  1.00  0.00     0.000 C 
BRANCH   5   6
ATOM      6  C   UNL     1      16.256  47.998  93.386  1.00  0.00     0.000 C 
BRANCH   6   7
ATOM      7  C   UNL     1      17.111  47.460  94.552  1.00  0.00     0.000 C 
BRANCH   7   8
ATOM      8  C   UNL     1      17.693  46.052  94.333  1.00  0.00     0.000 C 
BRANCH   8   9
ATOM      9  C   UNL     1      18.107  45.804  92.873  1.00  0.00     0.000 C 
BRANCH   9  10
ATOM     10  C   UNL     1      17.574  44.472  92.313  1.00  0.00     0.000 C 
BRANCH  10  11
ATOM     11  C   UNL     1      16.182  44.049  92.826  1.00  0.00     0.000 C 
BRANCH  11  12
ATOM     12  C   UNL     1      15.000  44.455  91.926  1.00  0.00     0.006 C 
BRANCH  12  13
ATOM     13  C   UNL     1      13.651  43.939  92.444  1.00  0.00     0.053 C 
BRANCH  13  14
ATOM     14  C   UNL     1      13.213  42.729  91.682  1.00  0.00     0.041 C 
ATOM     15  O   UNL     1      13.847  42.363  90.657  1.00  0.00    -0.550 OA
ATOM     16  O   UNL     1      12.096  42.012  92.094  1.00  0.00    -0.550 OA
ENDBRANCH  13  14
ENDBRANCH  12  13
ENDBRANCH  11  12
ENDBRANCH  10  11
ENDBRANCH   9  10
ENDBRANCH   8   9
ENDBRANCH   7   8
ENDBRANCH   6   7
ENDBRANCH   5   6
ENDBRANCH   4   5
ENDBRANCH   3   4
ENDBRANCH   2   3
ENDBRANCH   1   2
BRANCH   1  17
ATOM     17  C   UNL     1      11.436  48.841  97.323  1.00  0.00     0.000 C 
BRANCH  17  18
ATOM     18  C   UNL     1      10.593  49.493  98.429  1.00  0.00     0.000 C 
BRANCH  18  19
ATOM     19  C   UNL     1       9.188  49.829  97.913  1.00  0.00     0.000 C 
BRANCH  19  20
ATOM     20  C   UNL     1       8.503  48.595  97.299  1.00  0.00     0.000 C 
BRANCH  20  21
ATOM     21  C   UNL     1       7.319  48.992  96.405  1.00  0.00     0.000 C 
BRANCH  21  22
ATOM     22  C   UNL     1       7.145  48.037  95.202  1.00  0.00    -0.000 C 
BRANCH  22  23
ATOM     23  C   UNL     1       7.629  48.660  93.878  1.00  0.00    -0.000 C 
BRANCH  23  24
ATOM     24  C   UNL     1       8.839  49.607  94.038  1.00  0.00    -0.000 C 
BRANCH  24  25
ATOM     25  C   UNL     1      10.216  48.922  93.921  1.00  0.00    -0.000 C 
BRANCH  25  26
ATOM     26  C   UNL     1      10.268  47.871  92.800  1.00  0.00    -0.000 C 
BRANCH  26  27
ATOM     27  C   UNL     1      10.649  46.493  93.361  1.00  0.00    -0.000 C 
BRANCH  27  28
ATOM     28  C   UNL     1      10.391  46.373  94.870  1.00  0.00    -0.000 C 
BRANCH  28  29
ATOM     29  C   UNL     1       9.850  44.991  95.273  1.00  0.00    -0.003 C 
ATOM     30  C   UNL     1      10.818  43.883  94.864  1.00  0.00     0.004 C 
ENDBRANCH  28  29
ENDBRANCH  27  28
ENDBRANCH  26  27
ENDBRANCH  25  26
ENDBRANCH  24  25
ENDBRANCH  23  24
ENDBRANCH  22  23
ENDBRANCH  21  22
ENDBRANCH  20  21
ENDBRANCH  19  20
ENDBRANCH  18  19
ENDBRANCH  17  18
ENDBRANCH   1  17
TORSDOF 26
ENDMDL
