MODEL 1
REMARK VINA RESULT:    -7.818      0.000      0.000
REMARK INTER + INTRA:          -9.421
REMARK INTER:                  -9.189
REMARK INTRA:                  -0.232
REMARK UNBOUND:                -0.232
REMARK SMILES O=c1c(O)c(-c2ccc(O)cc2)oc2cc(O)cc(O)c12
REMARK SMILES IDX 5 1 3 2 2 3 1 4 21 5 19 6 18 7 16 8 15 9 14 10 13 11 6 12
REMARK SMILES IDX 7 13 8 14 9 15 12 16 11 17 10 18 4 20 20 22 17 24
REMARK H PARENT 10 19 4 21 20 23 17 25
REMARK Flexibility Score: inf
ROOT
ATOM      1  C   UNL     1      18.864  10.128 152.350  1.00  0.00     0.180 A 
ATOM      2  C   UNL     1      19.981  10.542 153.096  1.00  0.00     0.208 A 
ATOM      3  C   UNL     1      21.218  10.683 152.447  1.00  0.00     0.238 A 
ATOM      4  O   UNL     1      22.196  11.125 153.104  1.00  0.00    -0.285 OA
ATOM      5  C   UNL     1      21.336  10.356 151.074  1.00  0.00     0.111 A 
ATOM      6  C   UNL     1      22.551  10.420 150.325  1.00  0.00     0.134 A 
ATOM      7  C   UNL     1      22.526  10.175 148.947  1.00  0.00     0.093 A 
ATOM      8  C   UNL     1      21.342   9.806 148.301  1.00  0.00     0.123 A 
ATOM      9  C   UNL     1      20.164   9.688 149.034  1.00  0.00     0.094 A 
ATOM     10  C   UNL     1      20.149   9.964 150.403  1.00  0.00     0.146 A 
ATOM     11  O   UNL     1      18.998   9.861 151.056  1.00  0.00    -0.452 OA
ENDROOT
BRANCH   1  12
ATOM     12  C   UNL     1      17.524   9.970 152.959  1.00  0.00     0.021 A 
ATOM     13  C   UNL     1      16.743  11.085 153.314  1.00  0.00     0.016 A 
ATOM     14  C   UNL     1      15.470  10.910 153.867  1.00  0.00     0.047 A 
ATOM     15  C   UNL     1      14.956   9.624 154.057  1.00  0.00     0.115 A 
ATOM     16  C   UNL     1      16.992   8.681 153.135  1.00  0.00     0.016 A 
ATOM     17  C   UNL     1      15.719   8.509 153.687  1.00  0.00     0.047 A 
BRANCH  15  18
ATOM     18  O   UNL     1      13.687   9.464 154.609  1.00  0.00    -0.508 OA
ATOM     19  H   UNL     1      12.930   9.045 154.083  1.00  0.00     0.293 HD
ENDBRANCH  15  18
ENDBRANCH   1  12
BRANCH   2  20
ATOM     20  O   UNL     1      19.860  10.786 154.467  1.00  0.00    -0.502 OA
ATOM     21  H   UNL     1      18.982  10.682 154.961  1.00  0.00     0.293 HD
ENDBRANCH   2  20
BRANCH   6  22
ATOM     22  O   UNL     1      23.802  10.690 150.885  1.00  0.00    -0.507 OA
ATOM     23  H   UNL     1      23.961  10.964 151.844  1.00  0.00     0.293 HD
ENDBRANCH   6  22
BRANCH   8  24
ATOM     24  O   UNL     1      21.330   9.548 146.933  1.00  0.00    -0.508 OA
ATOM     25  H   UNL     1      21.398   8.603 146.571  1.00  0.00     0.293 HD
ENDBRANCH   8  24
TORSDOF 5
ENDMDL
MODEL 2
REMARK VINA RESULT:    -7.807      1.494      6.534
REMARK INTER + INTRA:          -9.409
REMARK INTER:                  -9.116
REMARK INTRA:                  -0.293
REMARK UNBOUND:                -0.232
REMARK SMILES O=c1c(O)c(-c2ccc(O)cc2)oc2cc(O)cc(O)c12
REMARK SMILES IDX 5 1 3 2 2 3 1 4 21 5 19 6 18 7 16 8 15 9 14 10 13 11 6 12
REMARK SMILES IDX 7 13 8 14 9 15 12 16 11 17 10 18 4 20 20 22 17 24
REMARK H PARENT 10 19 4 21 20 23 17 25
REMARK Flexibility Score: inf
ROOT
ATOM      1  C   UNL     1      20.812   9.589 150.976  1.00  0.00     0.180 A 
ATOM      2  C   UNL     1      21.441  10.301 152.013  1.00  0.00     0.208 A 
ATOM      3  C   UNL     1      20.734  10.539 153.202  1.00  0.00     0.238 A 
ATOM      4  O   UNL     1      21.328  11.111 154.152  1.00  0.00    -0.285 OA
ATOM      5  C   UNL     1      19.388  10.114 153.320  1.00  0.00     0.111 A 
ATOM      6  C   UNL     1      18.561  10.341 154.462  1.00  0.00     0.134 A 
ATOM      7  C   UNL     1      17.278   9.782 154.508  1.00  0.00     0.093 A 
ATOM      8  C   UNL     1      16.769   9.056 153.428  1.00  0.00     0.123 A 
ATOM      9  C   UNL     1      17.548   8.876 152.288  1.00  0.00     0.094 A 
ATOM     10  C   UNL     1      18.846   9.390 152.227  1.00  0.00     0.146 A 
ATOM     11  O   UNL     1      19.560   9.174 151.129  1.00  0.00    -0.452 OA
ENDROOT
BRANCH   1  12
ATOM     12  C   UNL     1      21.497   9.286 149.700  1.00  0.00     0.021 A 
ATOM     13  C   UNL     1      22.324   8.156 149.561  1.00  0.00     0.016 A 
ATOM     14  C   UNL     1      22.941   7.878 148.338  1.00  0.00     0.047 A 
ATOM     15  C   UNL     1      22.730   8.712 147.236  1.00  0.00     0.115 A 
ATOM     16  C   UNL     1      21.272  10.108 148.583  1.00  0.00     0.016 A 
ATOM     17  C   UNL     1      21.891   9.827 147.361  1.00  0.00     0.047 A 
BRANCH  15  18
ATOM     18  O   UNL     1      23.351   8.423 146.023  1.00  0.00    -0.508 OA
ATOM     19  H   UNL     1      22.928   7.800 145.346  1.00  0.00     0.293 HD
ENDBRANCH  15  18
ENDBRANCH   1  12
BRANCH   2  20
ATOM     20  O   UNL     1      22.744  10.778 151.848  1.00  0.00    -0.502 OA
ATOM     21  H   UNL     1      23.213  11.333 152.554  1.00  0.00     0.293 HD
ENDBRANCH   2  20
BRANCH   6  22
ATOM     22  O   UNL     1      18.937  11.125 155.557  1.00  0.00    -0.507 OA
ATOM     23  H   UNL     1      18.820  12.125 155.620  1.00  0.00     0.293 HD
ENDBRANCH   6  22
BRANCH   8  24
ATOM     24  O   UNL     1      15.486   8.518 153.476  1.00  0.00    -0.508 OA
ATOM     25  H   UNL     1      15.324   7.522 153.373  1.00  0.00     0.293 HD
ENDBRANCH   8  24
TORSDOF 5
ENDMDL
MODEL 3
REMARK VINA RESULT:    -6.591     10.938     12.367
REMARK INTER + INTRA:          -7.979
REMARK INTER:                  -7.878
REMARK INTRA:                  -0.101
REMARK UNBOUND:                -0.232
REMARK SMILES O=c1c(O)c(-c2ccc(O)cc2)oc2cc(O)cc(O)c12
REMARK SMILES IDX 5 1 3 2 2 3 1 4 21 5 19 6 18 7 16 8 15 9 14 10 13 11 6 12
REMARK SMILES IDX 7 13 8 14 9 15 12 16 11 17 10 18 4 20 20 22 17 24
REMARK H PARENT 10 19 4 21 20 23 17 25
REMARK Flexibility Score: inf
ROOT
ATOM      1  C   UNL     1      17.503   4.787 141.124  1.00  0.00     0.180 A 
ATOM      2  C   UNL     1      17.810   3.558 140.513  1.00  0.00     0.208 A 
ATOM      3  C   UNL     1      19.157   3.194 140.355  1.00  0.00     0.238 A 
ATOM      4  O   UNL     1      19.422   2.062 139.875  1.00  0.00    -0.285 OA
ATOM      5  C   UNL     1      20.180   4.086 140.759  1.00  0.00     0.111 A 
ATOM      6  C   UNL     1      21.579   3.840 140.606  1.00  0.00     0.134 A 
ATOM      7  C   UNL     1      22.502   4.748 141.139  1.00  0.00     0.093 A 
ATOM      8  C   UNL     1      22.078   5.924 141.764  1.00  0.00     0.123 A 
ATOM      9  C   UNL     1      20.717   6.199 141.868  1.00  0.00     0.094 A 
ATOM     10  C   UNL     1      19.771   5.294 141.380  1.00  0.00     0.146 A 
ATOM     11  O   UNL     1      18.485   5.587 141.523  1.00  0.00    -0.452 OA
ENDROOT
BRANCH   1  12
ATOM     12  C   UNL     1      16.108   5.233 141.339  1.00  0.00     0.021 A 
ATOM     13  C   UNL     1      15.209   4.483 142.119  1.00  0.00     0.016 A 
ATOM     14  C   UNL     1      13.903   4.938 142.327  1.00  0.00     0.047 A 
ATOM     15  C   UNL     1      13.484   6.151 141.773  1.00  0.00     0.115 A 
ATOM     16  C   UNL     1      15.685   6.462 140.803  1.00  0.00     0.016 A 
ATOM     17  C   UNL     1      14.379   6.914 141.013  1.00  0.00     0.047 A 
BRANCH  15  18
ATOM     18  O   UNL     1      12.180   6.593 141.988  1.00  0.00    -0.508 OA
ATOM     19  H   UNL     1      11.793   6.669 142.921  1.00  0.00     0.293 HD
ENDBRANCH  15  18
ENDBRANCH   1  12
BRANCH   2  20
ATOM     20  O   UNL     1      16.785   2.727 140.052  1.00  0.00    -0.502 OA
ATOM     21  H   UNL     1      16.345   2.857 139.149  1.00  0.00     0.293 HD
ENDBRANCH   2  20
BRANCH   6  22
ATOM     22  O   UNL     1      22.110   2.743 139.922  1.00  0.00    -0.507 OA
ATOM     23  H   UNL     1      21.664   2.270 139.150  1.00  0.00     0.293 HD
ENDBRANCH   6  22
BRANCH   8  24
ATOM     24  O   UNL     1      23.004   6.829 142.276  1.00  0.00    -0.508 OA
ATOM     25  H   UNL     1      22.717   7.727 142.651  1.00  0.00     0.293 HD
ENDBRANCH   8  24
TORSDOF 5
ENDMDL
MODEL 4
REMARK VINA RESULT:    -6.329     11.136     12.208
REMARK INTER + INTRA:          -7.671
REMARK INTER:                  -7.617
REMARK INTRA:                  -0.055
REMARK UNBOUND:                -0.232
REMARK SMILES O=c1c(O)c(-c2ccc(O)cc2)oc2cc(O)cc(O)c12
REMARK SMILES IDX 5 1 3 2 2 3 1 4 21 5 19 6 18 7 16 8 15 9 14 10 13 11 6 12
REMARK SMILES IDX 7 13 8 14 9 15 12 16 11 17 10 18 4 20 20 22 17 24
REMARK H PARENT 10 19 4 21 20 23 17 25
REMARK Flexibility Score: inf
ROOT
ATOM      1  C   UNL     1      17.786   5.065 141.379  1.00  0.00     0.180 A 
ATOM      2  C   UNL     1      18.859   5.934 141.643  1.00  0.00     0.208 A 
ATOM      3  C   UNL     1      20.172   5.456 141.503  1.00  0.00     0.238 A 
ATOM      4  O   UNL     1      21.126   6.260 141.669  1.00  0.00    -0.285 OA
ATOM      5  C   UNL     1      20.397   4.102 141.156  1.00  0.00     0.111 A 
ATOM      6  C   UNL     1      21.685   3.498 141.030  1.00  0.00     0.134 A 
ATOM      7  C   UNL     1      21.788   2.177 140.578  1.00  0.00     0.093 A 
ATOM      8  C   UNL     1      20.646   1.417 140.308  1.00  0.00     0.123 A 
ATOM      9  C   UNL     1      19.385   1.980 140.481  1.00  0.00     0.094 A 
ATOM     10  C   UNL     1      19.250   3.308 140.894  1.00  0.00     0.146 A 
ATOM     11  O   UNL     1      18.028   3.809 141.023  1.00  0.00    -0.452 OA
ENDROOT
BRANCH   1  12
ATOM     12  C   UNL     1      16.375   5.499 141.490  1.00  0.00     0.021 A 
ATOM     13  C   UNL     1      15.890   6.609 140.775  1.00  0.00     0.016 A 
ATOM     14  C   UNL     1      14.547   6.984 140.878  1.00  0.00     0.047 A 
ATOM     15  C   UNL     1      13.670   6.250 141.682  1.00  0.00     0.115 A 
ATOM     16  C   UNL     1      15.483   4.754 142.281  1.00  0.00     0.016 A 
ATOM     17  C   UNL     1      14.141   5.132 142.382  1.00  0.00     0.047 A 
BRANCH  15  18
ATOM     18  O   UNL     1      12.334   6.636 141.776  1.00  0.00    -0.508 OA
ATOM     19  H   UNL     1      12.048   7.596 141.625  1.00  0.00     0.293 HD
ENDBRANCH  15  18
ENDBRANCH   1  12
BRANCH   2  20
ATOM     20  O   UNL     1      18.616   7.246 142.058  1.00  0.00    -0.502 OA
ATOM     21  H   UNL     1      18.734   8.042 141.442  1.00  0.00     0.293 HD
ENDBRANCH   2  20
BRANCH   6  22
ATOM     22  O   UNL     1      22.884   4.138 141.359  1.00  0.00    -0.507 OA
ATOM     23  H   UNL     1      23.709   3.676 141.712  1.00  0.00     0.293 HD
ENDBRANCH   6  22
BRANCH   8  24
ATOM     24  O   UNL     1      20.758   0.098 139.875  1.00  0.00    -0.508 OA
ATOM     25  H   UNL     1      20.256  -0.654 140.333  1.00  0.00     0.293 HD
ENDBRANCH   8  24
TORSDOF 5
ENDMDL
MODEL 5
REMARK VINA RESULT:    -6.309     12.204     14.985
REMARK INTER + INTRA:          -7.648
REMARK INTER:                  -7.377
REMARK INTRA:                  -0.271
REMARK UNBOUND:                -0.232
REMARK SMILES O=c1c(O)c(-c2ccc(O)cc2)oc2cc(O)cc(O)c12
REMARK SMILES IDX 5 1 3 2 2 3 1 4 21 5 19 6 18 7 16 8 15 9 14 10 13 11 6 12
REMARK SMILES IDX 7 13 8 14 9 15 12 16 11 17 10 18 4 20 20 22 17 24
REMARK H PARENT 10 19 4 21 20 23 17 25
REMARK Flexibility Score: inf
ROOT
ATOM      1  C   UNL     1      13.382   4.653 141.402  1.00  0.00     0.180 A 
ATOM      2  C   UNL     1      13.407   3.255 141.542  1.00  0.00     0.208 A 
ATOM      3  C   UNL     1      12.192   2.557 141.633  1.00  0.00     0.238 A 
ATOM      4  O   UNL     1      12.222   1.300 141.684  1.00  0.00    -0.285 OA
ATOM      5  C   UNL     1      10.968   3.270 141.640  1.00  0.00     0.111 A 
ATOM      6  C   UNL     1       9.679   2.670 141.772  1.00  0.00     0.134 A 
ATOM      7  C   UNL     1       8.532   3.464 141.658  1.00  0.00     0.093 A 
ATOM      8  C   UNL     1       8.628   4.847 141.480  1.00  0.00     0.123 A 
ATOM      9  C   UNL     1       9.882   5.449 141.405  1.00  0.00     0.094 A 
ATOM     10  C   UNL     1      11.044   4.678 141.477  1.00  0.00     0.146 A 
ATOM     11  O   UNL     1      12.217   5.291 141.378  1.00  0.00    -0.452 OA
ENDROOT
BRANCH   1  12
ATOM     12  C   UNL     1      14.619   5.456 141.285  1.00  0.00     0.021 A 
ATOM     13  C   UNL     1      15.369   5.819 142.418  1.00  0.00     0.016 A 
ATOM     14  C   UNL     1      16.549   6.557 142.279  1.00  0.00     0.047 A 
ATOM     15  C   UNL     1      17.002   6.930 141.010  1.00  0.00     0.115 A 
ATOM     16  C   UNL     1      15.092   5.816 140.011  1.00  0.00     0.016 A 
ATOM     17  C   UNL     1      16.271   6.555 139.875  1.00  0.00     0.047 A 
BRANCH  15  18
ATOM     18  O   UNL     1      18.178   7.666 140.886  1.00  0.00    -0.508 OA
ATOM     19  H   UNL     1      18.647   8.054 141.695  1.00  0.00     0.293 HD
ENDBRANCH  15  18
ENDBRANCH   1  12
BRANCH   2  20
ATOM     20  O   UNL     1      14.628   2.577 141.610  1.00  0.00    -0.502 OA
ATOM     21  H   UNL     1      14.901   2.031 142.418  1.00  0.00     0.293 HD
ENDBRANCH   2  20
BRANCH   6  22
ATOM     22  O   UNL     1       9.471   1.314 142.040  1.00  0.00    -0.507 OA
ATOM     23  H   UNL     1      10.078   0.735 142.601  1.00  0.00     0.293 HD
ENDBRANCH   6  22
BRANCH   8  24
ATOM     24  O   UNL     1       7.482   5.632 141.385  1.00  0.00    -0.508 OA
ATOM     25  H   UNL     1       7.304   6.215 140.575  1.00  0.00     0.293 HD
ENDBRANCH   8  24
TORSDOF 5
ENDMDL
MODEL 6
REMARK VINA RESULT:    -6.300     11.194     14.243
REMARK INTER + INTRA:          -7.637
REMARK INTER:                  -7.686
REMARK INTRA:                   0.049
REMARK UNBOUND:                -0.232
REMARK SMILES O=c1c(O)c(-c2ccc(O)cc2)oc2cc(O)cc(O)c12
REMARK SMILES IDX 5 1 3 2 2 3 1 4 21 5 19 6 18 7 16 8 15 9 14 10 13 11 6 12
REMARK SMILES IDX 7 13 8 14 9 15 12 16 11 17 10 18 4 20 20 22 17 24
REMARK H PARENT 10 19 4 21 20 23 17 25
REMARK Flexibility Score: inf
ROOT
ATOM      1  C   UNL     1      14.807   5.095 141.453  1.00  0.00     0.180 A 
ATOM      2  C   UNL     1      13.731   5.998 141.528  1.00  0.00     0.208 A 
ATOM      3  C   UNL     1      12.427   5.493 141.659  1.00  0.00     0.238 A 
ATOM      4  O   UNL     1      11.478   6.307 141.800  1.00  0.00    -0.285 OA
ATOM      5  C   UNL     1      12.209   4.094 141.656  1.00  0.00     0.111 A 
ATOM      6  C   UNL     1      10.926   3.472 141.737  1.00  0.00     0.134 A 
ATOM      7  C   UNL     1      10.839   2.077 141.833  1.00  0.00     0.093 A 
ATOM      8  C   UNL     1      11.985   1.279 141.786  1.00  0.00     0.123 A 
ATOM      9  C   UNL     1      13.237   1.874 141.651  1.00  0.00     0.094 A 
ATOM     10  C   UNL     1      13.358   3.265 141.592  1.00  0.00     0.146 A 
ATOM     11  O   UNL     1      14.573   3.789 141.487  1.00  0.00    -0.452 OA
ENDROOT
BRANCH   1  12
ATOM     12  C   UNL     1      16.210   5.551 141.330  1.00  0.00     0.021 A 
ATOM     13  C   UNL     1      16.729   6.562 142.159  1.00  0.00     0.016 A 
ATOM     14  C   UNL     1      18.065   6.957 142.040  1.00  0.00     0.047 A 
ATOM     15  C   UNL     1      18.901   6.341 141.104  1.00  0.00     0.115 A 
ATOM     16  C   UNL     1      17.062   4.921 140.407  1.00  0.00     0.016 A 
ATOM     17  C   UNL     1      18.397   5.319 140.290  1.00  0.00     0.047 A 
BRANCH  15  18
ATOM     18  O   UNL     1      20.230   6.745 140.996  1.00  0.00    -0.508 OA
ATOM     19  H   UNL     1      20.888   6.249 140.407  1.00  0.00     0.293 HD
ENDBRANCH  15  18
ENDBRANCH   1  12
BRANCH   2  20
ATOM     20  O   UNL     1      13.961   7.374 141.453  1.00  0.00    -0.502 OA
ATOM     21  H   UNL     1      13.298   8.056 141.802  1.00  0.00     0.293 HD
ENDBRANCH   2  20
BRANCH   6  22
ATOM     22  O   UNL     1       9.715   4.168 141.701  1.00  0.00    -0.507 OA
ATOM     23  H   UNL     1       9.611   5.159 141.863  1.00  0.00     0.293 HD
ENDBRANCH   6  22
BRANCH   8  24
ATOM     24  O   UNL     1      11.888  -0.108 141.865  1.00  0.00    -0.508 OA
ATOM     25  H   UNL     1      11.365  -0.562 142.605  1.00  0.00     0.293 HD
ENDBRANCH   8  24
TORSDOF 5
ENDMDL
MODEL 7
REMARK VINA RESULT:    -6.179     11.372     13.632
REMARK INTER + INTRA:          -7.495
REMARK INTER:                  -7.406
REMARK INTRA:                  -0.089
REMARK UNBOUND:                -0.232
REMARK SMILES O=c1c(O)c(-c2ccc(O)cc2)oc2cc(O)cc(O)c12
REMARK SMILES IDX 5 1 3 2 2 3 1 4 21 5 19 6 18 7 16 8 15 9 14 10 13 11 6 12
REMARK SMILES IDX 7 13 8 14 9 15 12 16 11 17 10 18 4 20 20 22 17 24
REMARK H PARENT 10 19 4 21 20 23 17 25
REMARK Flexibility Score: inf
ROOT
ATOM      1  C   UNL     1      17.354   5.321 141.198  1.00  0.00     0.180 A 
ATOM      2  C   UNL     1      16.657   6.542 141.163  1.00  0.00     0.208 A 
ATOM      3  C   UNL     1      15.264   6.535 141.335  1.00  0.00     0.238 A 
ATOM      4  O   UNL     1      14.657   7.636 141.376  1.00  0.00    -0.285 OA
ATOM      5  C   UNL     1      14.577   5.305 141.484  1.00  0.00     0.111 A 
ATOM      6  C   UNL     1      13.162   5.176 141.620  1.00  0.00     0.134 A 
ATOM      7  C   UNL     1      12.603   3.916 141.868  1.00  0.00     0.093 A 
ATOM      8  C   UNL     1      13.403   2.772 141.921  1.00  0.00     0.123 A 
ATOM      9  C   UNL     1      14.778   2.880 141.734  1.00  0.00     0.094 A 
ATOM     10  C   UNL     1      15.369   4.128 141.523  1.00  0.00     0.146 A 
ATOM     11  O   UNL     1      16.687   4.187 141.373  1.00  0.00    -0.452 OA
ENDROOT
BRANCH   1  12
ATOM     12  C   UNL     1      18.824   5.249 141.040  1.00  0.00     0.021 A 
ATOM     13  C   UNL     1      19.692   5.926 141.916  1.00  0.00     0.016 A 
ATOM     14  C   UNL     1      21.077   5.822 141.760  1.00  0.00     0.047 A 
ATOM     15  C   UNL     1      21.614   5.031 140.740  1.00  0.00     0.115 A 
ATOM     16  C   UNL     1      19.371   4.439 140.030  1.00  0.00     0.016 A 
ATOM     17  C   UNL     1      20.757   4.337 139.876  1.00  0.00     0.047 A 
BRANCH  15  18
ATOM     18  O   UNL     1      22.996   4.937 140.596  1.00  0.00    -0.508 OA
ATOM     19  H   UNL     1      23.559   5.740 140.343  1.00  0.00     0.293 HD
ENDBRANCH  15  18
ENDBRANCH   1  12
BRANCH   2  20
ATOM     20  O   UNL     1      17.345   7.738 140.939  1.00  0.00    -0.502 OA
ATOM     21  H   UNL     1      16.940   8.507 140.418  1.00  0.00     0.293 HD
ENDBRANCH   2  20
BRANCH   6  22
ATOM     22  O   UNL     1      12.264   6.240 141.496  1.00  0.00    -0.507 OA
ATOM     23  H   UNL     1      12.131   6.969 142.181  1.00  0.00     0.293 HD
ENDBRANCH   6  22
BRANCH   8  24
ATOM     24  O   UNL     1      12.837   1.520 142.151  1.00  0.00    -0.508 OA
ATOM     25  H   UNL     1      11.839   1.365 142.064  1.00  0.00     0.293 HD
ENDBRANCH   8  24
TORSDOF 5
ENDMDL
MODEL 8
REMARK VINA RESULT:    -6.164     11.981     12.531
REMARK INTER + INTRA:          -7.477
REMARK INTER:                  -7.650
REMARK INTRA:                   0.172
REMARK UNBOUND:                -0.232
REMARK SMILES O=c1c(O)c(-c2ccc(O)cc2)oc2cc(O)cc(O)c12
REMARK SMILES IDX 5 1 3 2 2 3 1 4 21 5 19 6 18 7 16 8 15 9 14 10 13 11 6 12
REMARK SMILES IDX 7 13 8 14 9 15 12 16 11 17 10 18 4 20 20 22 17 24
REMARK H PARENT 10 19 4 21 20 23 17 25
REMARK Flexibility Score: inf
ROOT
ATOM      1  C   UNL     1      16.152   5.040 141.071  1.00  0.00     0.180 A 
ATOM      2  C   UNL     1      16.826   6.189 140.624  1.00  0.00     0.208 A 
ATOM      3  C   UNL     1      18.225   6.156 140.510  1.00  0.00     0.238 A 
ATOM      4  O   UNL     1      18.815   7.163 140.039  1.00  0.00    -0.285 OA
ATOM      5  C   UNL     1      18.938   4.996 140.897  1.00  0.00     0.111 A 
ATOM      6  C   UNL     1      20.360   4.867 140.866  1.00  0.00     0.134 A 
ATOM      7  C   UNL     1      20.949   3.633 141.171  1.00  0.00     0.093 A 
ATOM      8  C   UNL     1      20.171   2.543 141.569  1.00  0.00     0.123 A 
ATOM      9  C   UNL     1      18.788   2.675 141.655  1.00  0.00     0.094 A 
ATOM     10  C   UNL     1      18.168   3.881 141.320  1.00  0.00     0.146 A 
ATOM     11  O   UNL     1      16.845   3.954 141.395  1.00  0.00    -0.452 OA
ENDROOT
BRANCH   1  12
ATOM     12  C   UNL     1      14.678   4.992 141.203  1.00  0.00     0.021 A 
ATOM     13  C   UNL     1      13.943   3.858 140.814  1.00  0.00     0.016 A 
ATOM     14  C   UNL     1      12.553   3.828 140.971  1.00  0.00     0.047 A 
ATOM     15  C   UNL     1      11.884   4.921 141.531  1.00  0.00     0.115 A 
ATOM     16  C   UNL     1      14.001   6.078 141.784  1.00  0.00     0.016 A 
ATOM     17  C   UNL     1      12.612   6.045 141.940  1.00  0.00     0.047 A 
BRANCH  15  18
ATOM     18  O   UNL     1      10.500   4.877 141.682  1.00  0.00    -0.508 OA
ATOM     19  H   UNL     1       9.908   5.631 141.354  1.00  0.00     0.293 HD
ENDBRANCH  15  18
ENDBRANCH   1  12
BRANCH   2  20
ATOM     20  O   UNL     1      16.110   7.351 140.319  1.00  0.00    -0.502 OA
ATOM     21  H   UNL     1      15.704   7.941 141.035  1.00  0.00     0.293 HD
ENDBRANCH   2  20
BRANCH   6  22
ATOM     22  O   UNL     1      21.234   5.916 140.569  1.00  0.00    -0.507 OA
ATOM     23  H   UNL     1      21.165   6.517 139.762  1.00  0.00     0.293 HD
ENDBRANCH   6  22
BRANCH   8  24
ATOM     24  O   UNL     1      20.767   1.325 141.887  1.00  0.00    -0.508 OA
ATOM     25  H   UNL     1      20.305   0.442 141.696  1.00  0.00     0.293 HD
ENDBRANCH   8  24
TORSDOF 5
ENDMDL
MODEL 9
REMARK VINA RESULT:    -4.853     12.339     13.837
REMARK INTER + INTRA:          -5.936
REMARK INTER:                  -5.640
REMARK INTRA:                  -0.296
REMARK UNBOUND:                -0.232
REMARK SMILES O=c1c(O)c(-c2ccc(O)cc2)oc2cc(O)cc(O)c12
REMARK SMILES IDX 5 1 3 2 2 3 1 4 21 5 19 6 18 7 16 8 15 9 14 10 13 11 6 12
REMARK SMILES IDX 7 13 8 14 9 15 12 16 11 17 10 18 4 20 20 22 17 24
REMARK H PARENT 10 19 4 21 20 23 17 25
REMARK Flexibility Score: inf
ROOT
ATOM      1  C   UNL     1      15.770   2.527 141.587  1.00  0.00     0.180 A 
ATOM      2  C   UNL     1      14.466   3.026 141.748  1.00  0.00     0.208 A 
ATOM      3  C   UNL     1      14.222   4.386 141.498  1.00  0.00     0.238 A 
ATOM      4  O   UNL     1      13.039   4.809 141.572  1.00  0.00    -0.285 OA
ATOM      5  C   UNL     1      15.294   5.242 141.146  1.00  0.00     0.111 A 
ATOM      6  C   UNL     1      15.170   6.645 140.913  1.00  0.00     0.134 A 
ATOM      7  C   UNL     1      16.280   7.372 140.465  1.00  0.00     0.093 A 
ATOM      8  C   UNL     1      17.525   6.759 140.304  1.00  0.00     0.123 A 
ATOM      9  C   UNL     1      17.668   5.402 140.581  1.00  0.00     0.094 A 
ATOM     10  C   UNL     1      16.571   4.642 140.992  1.00  0.00     0.146 A 
ATOM     11  O   UNL     1      16.749   3.347 141.223  1.00  0.00    -0.452 OA
ENDROOT
BRANCH   1  12
ATOM     12  C   UNL     1      16.103   1.103 141.817  1.00  0.00     0.021 A 
ATOM     13  C   UNL     1      15.960   0.142 140.800  1.00  0.00     0.016 A 
ATOM     14  C   UNL     1      16.304  -1.193 141.035  1.00  0.00     0.047 A 
ATOM     15  C   UNL     1      16.808  -1.582 142.280  1.00  0.00     0.115 A 
ATOM     16  C   UNL     1      16.629   0.708 143.060  1.00  0.00     0.016 A 
ATOM     17  C   UNL     1      16.972  -0.627 143.291  1.00  0.00     0.047 A 
BRANCH  15  18
ATOM     18  O   UNL     1      17.146  -2.915 142.500  1.00  0.00    -0.508 OA
ATOM     19  H   UNL     1      16.831  -3.651 141.880  1.00  0.00     0.293 HD
ENDBRANCH  15  18
ENDBRANCH   1  12
BRANCH   2  20
ATOM     20  O   UNL     1      13.437   2.180 142.171  1.00  0.00    -0.502 OA
ATOM     21  H   UNL     1      13.149   2.118 143.140  1.00  0.00     0.293 HD
ENDBRANCH   2  20
BRANCH   6  22
ATOM     22  O   UNL     1      13.996   7.374 141.129  1.00  0.00    -0.507 OA
ATOM     23  H   UNL     1      13.958   8.319 141.481  1.00  0.00     0.293 HD
ENDBRANCH   6  22
BRANCH   8  24
ATOM     24  O   UNL     1      18.628   7.493 139.875  1.00  0.00    -0.508 OA
ATOM     25  H   UNL     1      18.986   7.410 138.930  1.00  0.00     0.293 HD
ENDBRANCH   8  24
TORSDOF 5
ENDMDL
