MODEL 1
REMARK VINA RESULT:    -4.867      0.000      0.000
REMARK INTER + INTRA:          -7.944
REMARK INTER:                  -7.427
REMARK INTRA:                  -0.517
REMARK UNBOUND:                -0.517
REMARK SMILES CCCCCCCCCCC(=O)[O-]
REMARK SMILES IDX 7 1 8 2 9 3 10 4 11 5 12 6 13 7 6 8 5 9 4 10 3 11 2 12 1 13
REMARK H PARENT
REMARK Flexibility Score: inf
ROOT
ATOM      1  C   UNL     1     -16.563  42.077  21.740  1.00  0.00     0.000 C 
ENDROOT
BRANCH   1   2
ATOM      2  C   UNL     1     -15.817  43.315  22.259  1.00  0.00     0.000 C 
BRANCH   2   3
ATOM      3  C   UNL     1     -16.638  44.611  22.115  1.00  0.00     0.006 C 
BRANCH   3   4
ATOM      4  C   UNL     1     -16.969  45.301  23.448  1.00  0.00     0.053 C 
BRANCH   4   5
ATOM      5  C   UNL     1     -16.178  46.558  23.642  1.00  0.00     0.041 C 
ATOM      6  O   UNL     1     -15.113  46.540  24.313  1.00  0.00    -0.550 OA
ATOM      7  O   UNL     1     -16.636  47.757  23.109  1.00  0.00    -0.550 OA
ENDBRANCH   4   5
ENDBRANCH   3   4
ENDBRANCH   2   3
ENDBRANCH   1   2
BRANCH   1   8
ATOM      8  C   UNL     1     -17.773  42.483  20.889  1.00  0.00     0.000 C 
BRANCH   8   9
ATOM      9  C   UNL     1     -18.776  41.325  20.773  1.00  0.00    -0.000 C 
BRANCH   9  10
ATOM     10  C   UNL     1     -19.047  40.919  19.315  1.00  0.00    -0.000 C 
BRANCH  10  11
ATOM     11  C   UNL     1     -17.799  40.348  18.619  1.00  0.00    -0.000 C 
BRANCH  11  12
ATOM     12  C   UNL     1     -17.301  39.051  19.276  1.00  0.00    -0.003 C 
ATOM     13  C   UNL     1     -16.987  37.953  18.260  1.00  0.00     0.004 C 
ENDBRANCH  11  12
ENDBRANCH  10  11
ENDBRANCH   9  10
ENDBRANCH   8   9
ENDBRANCH   1   8
TORSDOF 9
ENDMDL
MODEL 2
REMARK VINA RESULT:    -4.765      3.684      6.800
REMARK INTER + INTRA:          -7.790
REMARK INTER:                  -7.168
REMARK INTRA:                  -0.621
REMARK UNBOUND:                -0.517
REMARK SMILES CCCCCCCCCCC(=O)[O-]
REMARK SMILES IDX 7 1 8 2 9 3 10 4 11 5 12 6 13 7 6 8 5 9 4 10 3 11 2 12 1 13
REMARK H PARENT
REMARK Flexibility Score: inf
ROOT
ATOM      1  C   UNL     1     -16.165  41.251  22.253  1.00  0.00     0.000 C 
ENDROOT
BRANCH   1   2
ATOM      2  C   UNL     1     -17.370  40.360  21.913  1.00  0.00     0.000 C 
BRANCH   2   3
ATOM      3  C   UNL     1     -18.457  41.106  21.116  1.00  0.00     0.006 C 
BRANCH   3   4
ATOM      4  C   UNL     1     -18.946  40.361  19.863  1.00  0.00     0.053 C 
BRANCH   4   5
ATOM      5  C   UNL     1     -17.827  40.069  18.910  1.00  0.00     0.041 C 
ATOM      6  O   UNL     1     -17.314  40.997  18.232  1.00  0.00    -0.550 OA
ATOM      7  O   UNL     1     -17.375  38.766  18.747  1.00  0.00    -0.550 OA
ENDBRANCH   4   5
ENDBRANCH   3   4
ENDBRANCH   2   3
ENDBRANCH   1   2
BRANCH   1   8
ATOM      8  C   UNL     1     -16.210  42.561  21.456  1.00  0.00     0.000 C 
BRANCH   8   9
ATOM      9  C   UNL     1     -15.848  43.758  22.348  1.00  0.00    -0.000 C 
BRANCH   9  10
ATOM     10  C   UNL     1     -16.984  44.789  22.448  1.00  0.00    -0.000 C 
BRANCH  10  11
ATOM     11  C   UNL     1     -16.930  45.604  23.752  1.00  0.00    -0.000 C 
BRANCH  11  12
ATOM     12  C   UNL     1     -16.117  46.899  23.603  1.00  0.00    -0.003 C 
ATOM     13  C   UNL     1     -16.076  47.411  22.163  1.00  0.00     0.004 C 
ENDBRANCH  11  12
ENDBRANCH  10  11
ENDBRANCH   9  10
ENDBRANCH   8   9
ENDBRANCH   1   8
TORSDOF 9
ENDMDL
MODEL 3
REMARK VINA RESULT:    -4.618      1.312      2.218
REMARK INTER + INTRA:          -7.564
REMARK INTER:                  -6.809
REMARK INTRA:                  -0.756
REMARK UNBOUND:                -0.517
REMARK SMILES CCCCCCCCCCC(=O)[O-]
REMARK SMILES IDX 7 1 8 2 9 3 10 4 11 5 12 6 13 7 6 8 5 9 4 10 3 11 2 12 1 13
REMARK H PARENT
REMARK Flexibility Score: inf
ROOT
ATOM      1  C   UNL     1     -14.762  42.327  22.767  1.00  0.00     0.000 C 
ENDROOT
BRANCH   1   2
ATOM      2  C   UNL     1     -15.562  43.155  21.750  1.00  0.00     0.000 C 
BRANCH   2   3
ATOM      3  C   UNL     1     -16.545  44.134  22.419  1.00  0.00     0.006 C 
BRANCH   3   4
ATOM      4  C   UNL     1     -16.529  45.552  21.824  1.00  0.00     0.053 C 
BRANCH   4   5
ATOM      5  C   UNL     1     -16.234  46.593  22.861  1.00  0.00     0.041 C 
ATOM      6  O   UNL     1     -15.775  46.257  23.983  1.00  0.00    -0.550 OA
ATOM      7  O   UNL     1     -16.501  47.930  22.598  1.00  0.00    -0.550 OA
ENDBRANCH   4   5
ENDBRANCH   3   4
ENDBRANCH   2   3
ENDBRANCH   1   2
BRANCH   1   8
ATOM      8  C   UNL     1     -15.008  40.826  22.566  1.00  0.00     0.000 C 
BRANCH   8   9
ATOM      9  C   UNL     1     -16.492  40.481  22.764  1.00  0.00    -0.000 C 
BRANCH   9  10
ATOM     10  C   UNL     1     -17.175  40.030  21.462  1.00  0.00    -0.000 C 
BRANCH  10  11
ATOM     11  C   UNL     1     -18.388  40.904  21.097  1.00  0.00    -0.000 C 
BRANCH  11  12
ATOM     12  C   UNL     1     -18.218  41.607  19.741  1.00  0.00    -0.003 C 
ATOM     13  C   UNL     1     -17.786  40.654  18.628  1.00  0.00     0.004 C 
ENDBRANCH  11  12
ENDBRANCH  10  11
ENDBRANCH   9  10
ENDBRANCH   8   9
ENDBRANCH   1   8
TORSDOF 9
ENDMDL
MODEL 4
REMARK VINA RESULT:    -4.496     10.388     11.693
REMARK INTER + INTRA:          -7.379
REMARK INTER:                  -6.553
REMARK INTRA:                  -0.826
REMARK UNBOUND:                -0.517
REMARK SMILES CCCCCCCCCCC(=O)[O-]
REMARK SMILES IDX 7 1 8 2 9 3 10 4 11 5 12 6 13 7 6 8 5 9 4 10 3 11 2 12 1 13
REMARK H PARENT
REMARK Flexibility Score: inf
ROOT
ATOM      1  C   UNL     1     -16.023  39.662  12.115  1.00  0.00     0.000 C 
ENDROOT
BRANCH   1   2
ATOM      2  C   UNL     1     -17.315  40.422  11.782  1.00  0.00     0.000 C 
BRANCH   2   3
ATOM      3  C   UNL     1     -17.346  40.938  10.330  1.00  0.00     0.006 C 
BRANCH   3   4
ATOM      4  C   UNL     1     -16.402  40.191   9.374  1.00  0.00     0.053 C 
BRANCH   4   5
ATOM      5  C   UNL     1     -15.467  41.123   8.665  1.00  0.00     0.041 C 
ATOM      6  O   UNL     1     -14.600  41.765   9.314  1.00  0.00    -0.550 OA
ATOM      7  O   UNL     1     -15.577  41.308   7.293  1.00  0.00    -0.550 OA
ENDBRANCH   4   5
ENDBRANCH   3   4
ENDBRANCH   2   3
ENDBRANCH   1   2
BRANCH   1   8
ATOM      8  C   UNL     1     -16.291  38.544  13.131  1.00  0.00     0.000 C 
BRANCH   8   9
ATOM      9  C   UNL     1     -17.795  38.245  13.233  1.00  0.00    -0.000 C 
BRANCH   9  10
ATOM     10  C   UNL     1     -18.104  36.739  13.215  1.00  0.00    -0.000 C 
BRANCH  10  11
ATOM     11  C   UNL     1     -16.833  35.876  13.122  1.00  0.00    -0.000 C 
BRANCH  11  12
ATOM     12  C   UNL     1     -16.739  35.110  11.793  1.00  0.00    -0.003 C 
ATOM     13  C   UNL     1     -15.836  35.802  10.773  1.00  0.00     0.004 C 
ENDBRANCH  11  12
ENDBRANCH  10  11
ENDBRANCH   9  10
ENDBRANCH   8   9
ENDBRANCH   1   8
TORSDOF 9
ENDMDL
MODEL 5
REMARK VINA RESULT:    -4.477      1.365      2.119
REMARK INTER + INTRA:          -7.349
REMARK INTER:                  -6.812
REMARK INTRA:                  -0.537
REMARK UNBOUND:                -0.517
REMARK SMILES CCCCCCCCCCC(=O)[O-]
REMARK SMILES IDX 7 1 8 2 9 3 10 4 11 5 12 6 13 7 6 8 5 9 4 10 3 11 2 12 1 13
REMARK H PARENT
REMARK Flexibility Score: inf
ROOT
ATOM      1  C   UNL     1     -17.359  44.315  21.589  1.00  0.00     0.000 C 
ENDROOT
BRANCH   1   2
ATOM      2  C   UNL     1     -16.333  44.436  22.726  1.00  0.00     0.000 C 
BRANCH   2   3
ATOM      3  C   UNL     1     -16.749  45.462  23.798  1.00  0.00     0.006 C 
BRANCH   3   4
ATOM      4  C   UNL     1     -15.921  46.756  23.790  1.00  0.00     0.053 C 
BRANCH   4   5
ATOM      5  C   UNL     1     -16.365  47.702  22.717  1.00  0.00     0.041 C 
ATOM      6  O   UNL     1     -15.942  47.568  21.539  1.00  0.00    -0.550 OA
ATOM      7  O   UNL     1     -17.220  48.752  23.026  1.00  0.00    -0.550 OA
ENDBRANCH   4   5
ENDBRANCH   3   4
ENDBRANCH   2   3
ENDBRANCH   1   2
BRANCH   1   8
ATOM      8  C   UNL     1     -17.361  42.897  21.003  1.00  0.00     0.000 C 
BRANCH   8   9
ATOM      9  C   UNL     1     -16.387  41.986  21.764  1.00  0.00    -0.000 C 
BRANCH   9  10
ATOM     10  C   UNL     1     -16.973  40.593  22.045  1.00  0.00    -0.000 C 
BRANCH  10  11
ATOM     11  C   UNL     1     -17.997  40.157  20.983  1.00  0.00    -0.000 C 
BRANCH  11  12
ATOM     12  C   UNL     1     -17.334  39.497  19.764  1.00  0.00    -0.003 C 
ATOM     13  C   UNL     1     -17.639  40.226  18.455  1.00  0.00     0.004 C 
ENDBRANCH  11  12
ENDBRANCH  10  11
ENDBRANCH   9  10
ENDBRANCH   8   9
ENDBRANCH   1   8
TORSDOF 9
ENDMDL
MODEL 6
REMARK VINA RESULT:    -4.446      3.754      6.804
REMARK INTER + INTRA:          -7.301
REMARK INTER:                  -6.511
REMARK INTRA:                  -0.791
REMARK UNBOUND:                -0.517
REMARK SMILES CCCCCCCCCCC(=O)[O-]
REMARK SMILES IDX 7 1 8 2 9 3 10 4 11 5 12 6 13 7 6 8 5 9 4 10 3 11 2 12 1 13
REMARK H PARENT
REMARK Flexibility Score: inf
ROOT
ATOM      1  C   UNL     1     -16.053  43.406  21.794  1.00  0.00     0.000 C 
ENDROOT
BRANCH   1   2
ATOM      2  C   UNL     1     -17.412  43.754  21.169  1.00  0.00     0.000 C 
BRANCH   2   3
ATOM      3  C   UNL     1     -18.225  42.506  20.776  1.00  0.00     0.006 C 
BRANCH   3   4
ATOM      4  C   UNL     1     -17.421  41.196  20.792  1.00  0.00     0.053 C 
BRANCH   4   5
ATOM      5  C   UNL     1     -17.824  40.275  19.682  1.00  0.00     0.041 C 
ATOM      6  O   UNL     1     -18.406  40.728  18.662  1.00  0.00    -0.550 OA
ATOM      7  O   UNL     1     -17.588  38.910  19.791  1.00  0.00    -0.550 OA
ENDBRANCH   4   5
ENDBRANCH   3   4
ENDBRANCH   2   3
ENDBRANCH   1   2
BRANCH   1   8
ATOM      8  C   UNL     1     -15.812  44.219  23.072  1.00  0.00     0.000 C 
BRANCH   8   9
ATOM      9  C   UNL     1     -16.976  45.186  23.335  1.00  0.00    -0.000 C 
BRANCH   9  10
ATOM     10  C   UNL     1     -16.505  46.558  23.846  1.00  0.00    -0.000 C 
BRANCH  10  11
ATOM     11  C   UNL     1     -16.645  47.664  22.786  1.00  0.00    -0.000 C 
BRANCH  11  12
ATOM     12  C   UNL     1     -15.823  47.372  21.521  1.00  0.00    -0.003 C 
ATOM     13  C   UNL     1     -16.650  47.475  20.239  1.00  0.00     0.004 C 
ENDBRANCH  11  12
ENDBRANCH  10  11
ENDBRANCH   9  10
ENDBRANCH   8   9
ENDBRANCH   1   8
TORSDOF 9
ENDMDL
MODEL 7
REMARK VINA RESULT:    -4.376      9.610     10.505
REMARK INTER + INTRA:          -7.196
REMARK INTER:                  -6.087
REMARK INTRA:                  -1.109
REMARK UNBOUND:                -0.517
REMARK SMILES CCCCCCCCCCC(=O)[O-]
REMARK SMILES IDX 7 1 8 2 9 3 10 4 11 5 12 6 13 7 6 8 5 9 4 10 3 11 2 12 1 13
REMARK H PARENT
REMARK Flexibility Score: inf
ROOT
ATOM      1  C   UNL     1     -13.869  37.442  13.427  1.00  0.00     0.000 C 
ENDROOT
BRANCH   1   2
ATOM      2  C   UNL     1     -15.017  38.455  13.548  1.00  0.00     0.000 C 
BRANCH   2   3
ATOM      3  C   UNL     1     -15.908  38.500  12.291  1.00  0.00     0.006 C 
BRANCH   3   4
ATOM      4  C   UNL     1     -17.091  39.477  12.390  1.00  0.00     0.053 C 
BRANCH   4   5
ATOM      5  C   UNL     1     -16.928  40.652  11.476  1.00  0.00     0.041 C 
ATOM      6  O   UNL     1     -17.576  40.711  10.398  1.00  0.00    -0.550 OA
ATOM      7  O   UNL     1     -16.034  41.665  11.798  1.00  0.00    -0.550 OA
ENDBRANCH   4   5
ENDBRANCH   3   4
ENDBRANCH   2   3
ENDBRANCH   1   2
BRANCH   1   8
ATOM      8  C   UNL     1     -14.022  36.315  14.456  1.00  0.00     0.000 C 
BRANCH   8   9
ATOM      9  C   UNL     1     -15.266  36.534  15.329  1.00  0.00    -0.000 C 
BRANCH   9  10
ATOM     10  C   UNL     1     -16.254  35.357  15.262  1.00  0.00    -0.000 C 
BRANCH  10  11
ATOM     11  C   UNL     1     -17.384  35.591  14.245  1.00  0.00    -0.000 C 
BRANCH  11  12
ATOM     12  C   UNL     1     -17.398  34.535  13.129  1.00  0.00    -0.003 C 
ATOM     13  C   UNL     1     -16.739  35.025  11.840  1.00  0.00     0.004 C 
ENDBRANCH  11  12
ENDBRANCH  10  11
ENDBRANCH   9  10
ENDBRANCH   8   9
ENDBRANCH   1   8
TORSDOF 9
ENDMDL
MODEL 8
REMARK VINA RESULT:    -4.327      9.742     11.560
REMARK INTER + INTRA:          -7.120
REMARK INTER:                  -6.554
REMARK INTRA:                  -0.566
REMARK UNBOUND:                -0.517
REMARK SMILES CCCCCCCCCCC(=O)[O-]
REMARK SMILES IDX 7 1 8 2 9 3 10 4 11 5 12 6 13 7 6 8 5 9 4 10 3 11 2 12 1 13
REMARK H PARENT
REMARK Flexibility Score: inf
ROOT
ATOM      1  C   UNL     1     -17.030  35.146  12.604  1.00  0.00     0.000 C 
ENDROOT
BRANCH   1   2
ATOM      2  C   UNL     1     -17.776  35.878  13.730  1.00  0.00     0.000 C 
BRANCH   2   3
ATOM      3  C   UNL     1     -16.853  36.786  14.565  1.00  0.00     0.006 C 
BRANCH   3   4
ATOM      4  C   UNL     1     -15.428  36.927  14.004  1.00  0.00     0.053 C 
BRANCH   4   5
ATOM      5  C   UNL     1     -15.200  38.269  13.380  1.00  0.00     0.041 C 
ATOM      6  O   UNL     1     -16.108  38.814  12.699  1.00  0.00    -0.550 OA
ATOM      7  O   UNL     1     -13.972  38.902  13.522  1.00  0.00    -0.550 OA
ENDBRANCH   4   5
ENDBRANCH   3   4
ENDBRANCH   2   3
ENDBRANCH   1   2
BRANCH   1   8
ATOM      8  C   UNL     1     -17.361  33.648  12.612  1.00  0.00     0.000 C 
BRANCH   8   9
ATOM      9  C   UNL     1     -18.374  33.315  13.717  1.00  0.00    -0.000 C 
BRANCH   9  10
ATOM     10  C   UNL     1     -18.478  31.806  13.992  1.00  0.00    -0.000 C 
BRANCH  10  11
ATOM     11  C   UNL     1     -19.934  31.308  14.012  1.00  0.00    -0.000 C 
BRANCH  11  12
ATOM     12  C   UNL     1     -20.945  32.454  14.171  1.00  0.00    -0.003 C 
ATOM     13  C   UNL     1     -22.394  31.994  14.015  1.00  0.00     0.004 C 
ENDBRANCH  11  12
ENDBRANCH  10  11
ENDBRANCH   9  10
ENDBRANCH   8   9
ENDBRANCH   1   8
TORSDOF 9
ENDMDL
MODEL 9
REMARK VINA RESULT:    -4.316     10.330     12.265
REMARK INTER + INTRA:          -7.103
REMARK INTER:                  -6.706
REMARK INTRA:                  -0.397
REMARK UNBOUND:                -0.517
REMARK SMILES CCCCCCCCCCC(=O)[O-]
REMARK SMILES IDX 7 1 8 2 9 3 10 4 11 5 12 6 13 7 6 8 5 9 4 10 3 11 2 12 1 13
REMARK H PARENT
REMARK Flexibility Score: inf
ROOT
ATOM      1  C   UNL     1     -16.372  39.048  12.361  1.00  0.00     0.000 C 
ENDROOT
BRANCH   1   2
ATOM      2  C   UNL     1     -17.789  38.746  12.871  1.00  0.00     0.000 C 
BRANCH   2   3
ATOM      3  C   UNL     1     -17.883  37.395  13.605  1.00  0.00     0.006 C 
BRANCH   3   4
ATOM      4  C   UNL     1     -17.255  36.216  12.843  1.00  0.00     0.053 C 
BRANCH   4   5
ATOM      5  C   UNL     1     -17.132  34.994  13.700  1.00  0.00     0.041 C 
ATOM      6  O   UNL     1     -17.562  33.885  13.287  1.00  0.00    -0.550 OA
ATOM      7  O   UNL     1     -16.576  35.087  14.970  1.00  0.00    -0.550 OA
ENDBRANCH   4   5
ENDBRANCH   3   4
ENDBRANCH   2   3
ENDBRANCH   1   2
BRANCH   1   8
ATOM      8  C   UNL     1     -16.273  40.488  11.840  1.00  0.00     0.000 C 
BRANCH   8   9
ATOM      9  C   UNL     1     -17.135  40.677  10.582  1.00  0.00    -0.000 C 
BRANCH   9  10
ATOM     10  C   UNL     1     -16.349  40.443   9.282  1.00  0.00    -0.000 C 
BRANCH  10  11
ATOM     11  C   UNL     1     -16.304  41.693   8.386  1.00  0.00    -0.000 C 
BRANCH  11  12
ATOM     12  C   UNL     1     -17.341  42.749   8.799  1.00  0.00    -0.003 C 
ATOM     13  C   UNL     1     -17.129  44.093   8.102  1.00  0.00     0.004 C 
ENDBRANCH  11  12
ENDBRANCH  10  11
ENDBRANCH   9  10
ENDBRANCH   8   9
ENDBRANCH   1   8
TORSDOF 9
ENDMDL
