MODEL 1
REMARK VINA RESULT:    -5.993      0.000      0.000
REMARK INTER + INTRA:          -6.765
REMARK INTER:                  -7.219
REMARK INTRA:                   0.455
REMARK UNBOUND:                 0.455
REMARK SMILES O=c1c(O)c(-c2ccc(O)c(O)c2)oc2cc(O)cc(O)c12
REMARK SMILES IDX 5 1 3 2 2 3 1 4 22 5 20 6 19 7 17 8 16 9 15 10 14 11 6 12
REMARK SMILES IDX 7 13 8 14 9 15 13 16 11 17 10 18 12 20 4 22 21 24 18 26
REMARK H PARENT 10 19 12 21 4 23 21 25 18 27
REMARK Flexibility Score: inf
ROOT
ATOM      1  C   UNL     1      26.882 -18.131   0.790  1.00  0.00     0.180 A 
ATOM      2  C   UNL     1      27.968 -17.576   0.085  1.00  0.00     0.208 A 
ATOM      3  C   UNL     1      29.264 -17.729   0.604  1.00  0.00     0.238 A 
ATOM      4  O   UNL     1      30.242 -17.226  -0.013  1.00  0.00    -0.285 OA
ATOM      5  C   UNL     1      29.454 -18.450   1.801  1.00  0.00     0.111 A 
ATOM      6  C   UNL     1      30.726 -18.653   2.388  1.00  0.00     0.134 A 
ATOM      7  C   UNL     1      30.834 -19.390   3.577  1.00  0.00     0.093 A 
ATOM      8  C   UNL     1      29.694 -19.926   4.188  1.00  0.00     0.123 A 
ATOM      9  C   UNL     1      28.439 -19.727   3.613  1.00  0.00     0.094 A 
ATOM     10  C   UNL     1      28.309 -18.995   2.430  1.00  0.00     0.146 A 
ATOM     11  O   UNL     1      27.102 -18.817   1.907  1.00  0.00    -0.452 OA
ENDROOT
BRANCH   1  12
ATOM     12  C   UNL     1      25.486 -17.995   0.317  1.00  0.00     0.025 A 
ATOM     13  C   UNL     1      25.172 -17.009  -0.633  1.00  0.00     0.016 A 
ATOM     14  C   UNL     1      23.865 -16.875  -1.109  1.00  0.00     0.051 A 
ATOM     15  C   UNL     1      22.857 -17.736  -0.654  1.00  0.00     0.157 A 
ATOM     16  C   UNL     1      24.474 -18.869   0.756  1.00  0.00     0.062 A 
ATOM     17  C   UNL     1      23.164 -18.736   0.276  1.00  0.00     0.158 A 
BRANCH  15  18
ATOM     18  O   UNL     1      21.552 -17.605  -1.125  1.00  0.00    -0.504 OA
ATOM     19  H   UNL     1      21.181 -18.220  -1.840  1.00  0.00     0.293 HD
ENDBRANCH  15  18
BRANCH  17  20
ATOM     20  O   UNL     1      22.161 -19.599   0.717  1.00  0.00    -0.504 OA
ATOM     21  H   UNL     1      22.339 -20.303   1.424  1.00  0.00     0.293 HD
ENDBRANCH  17  20
ENDBRANCH   1  12
BRANCH   2  22
ATOM     22  O   UNL     1      27.757 -16.909  -1.125  1.00  0.00    -0.502 OA
ATOM     23  H   UNL     1      28.233 -16.045  -1.358  1.00  0.00     0.293 HD
ENDBRANCH   2  22
BRANCH   6  24
ATOM     24  O   UNL     1      31.879 -18.132   1.801  1.00  0.00    -0.507 OA
ATOM     25  H   UNL     1      32.802 -18.327   2.172  1.00  0.00     0.293 HD
ENDBRANCH   6  24
BRANCH   8  26
ATOM     26  O   UNL     1      29.801 -20.658   5.369  1.00  0.00    -0.508 OA
ATOM     27  H   UNL     1      30.520 -21.362   5.493  1.00  0.00     0.293 HD
ENDBRANCH   8  26
TORSDOF 6
ENDMDL
MODEL 2
REMARK VINA RESULT:    -5.333      2.288      2.719
REMARK INTER + INTRA:          -5.970
REMARK INTER:                  -5.803
REMARK INTRA:                  -0.167
REMARK UNBOUND:                 0.455
REMARK SMILES O=c1c(O)c(-c2ccc(O)c(O)c2)oc2cc(O)cc(O)c12
REMARK SMILES IDX 5 1 3 2 2 3 1 4 22 5 20 6 19 7 17 8 16 9 15 10 14 11 6 12
REMARK SMILES IDX 7 13 8 14 9 15 13 16 11 17 10 18 12 20 4 22 21 24 18 26
REMARK H PARENT 10 19 12 21 4 23 21 25 18 27
REMARK Flexibility Score: inf
ROOT
ATOM      1  C   UNL     1      27.825 -19.084   1.392  1.00  0.00     0.180 A 
ATOM      2  C   UNL     1      28.594 -18.365   2.329  1.00  0.00     0.208 A 
ATOM      3  C   UNL     1      29.717 -18.983   2.900  1.00  0.00     0.238 A 
ATOM      4  O   UNL     1      30.406 -18.353   3.748  1.00  0.00    -0.285 OA
ATOM      5  C   UNL     1      30.065 -20.293   2.512  1.00  0.00     0.111 A 
ATOM      6  C   UNL     1      31.184 -20.984   3.036  1.00  0.00     0.134 A 
ATOM      7  C   UNL     1      31.469 -22.284   2.593  1.00  0.00     0.093 A 
ATOM      8  C   UNL     1      30.657 -22.904   1.635  1.00  0.00     0.123 A 
ATOM      9  C   UNL     1      29.553 -22.226   1.116  1.00  0.00     0.094 A 
ATOM     10  C   UNL     1      29.251 -20.931   1.546  1.00  0.00     0.146 A 
ATOM     11  O   UNL     1      28.192 -20.311   1.040  1.00  0.00    -0.452 OA
ENDROOT
BRANCH   1  12
ATOM     12  C   UNL     1      26.615 -18.508   0.761  1.00  0.00     0.025 A 
ATOM     13  C   UNL     1      26.747 -17.421  -0.119  1.00  0.00     0.016 A 
ATOM     14  C   UNL     1      25.621 -16.875  -0.742  1.00  0.00     0.051 A 
ATOM     15  C   UNL     1      24.351 -17.418  -0.507  1.00  0.00     0.157 A 
ATOM     16  C   UNL     1      25.340 -19.062   0.979  1.00  0.00     0.062 A 
ATOM     17  C   UNL     1      24.211 -18.515   0.351  1.00  0.00     0.158 A 
BRANCH  15  18
ATOM     18  O   UNL     1      23.226 -16.875  -1.125  1.00  0.00    -0.504 OA
ATOM     19  H   UNL     1      22.689 -17.400  -1.805  1.00  0.00     0.293 HD
ENDBRANCH  15  18
BRANCH  17  20
ATOM     20  O   UNL     1      22.948 -19.061   0.573  1.00  0.00    -0.504 OA
ATOM     21  H   UNL     1      22.700 -19.483   1.461  1.00  0.00     0.293 HD
ENDBRANCH  17  20
ENDBRANCH   1  12
BRANCH   2  22
ATOM     22  O   UNL     1      28.255 -17.050   2.658  1.00  0.00    -0.502 OA
ATOM     23  H   UNL     1      28.085 -16.341   1.954  1.00  0.00     0.293 HD
ENDBRANCH   2  22
BRANCH   6  24
ATOM     24  O   UNL     1      32.011 -20.392   3.991  1.00  0.00    -0.507 OA
ATOM     25  H   UNL     1      33.013 -20.546   3.998  1.00  0.00     0.293 HD
ENDBRANCH   6  24
BRANCH   8  26
ATOM     26  O   UNL     1      30.941 -24.195   1.193  1.00  0.00    -0.508 OA
ATOM     27  H   UNL     1      30.605 -25.010   1.693  1.00  0.00     0.293 HD
ENDBRANCH   8  26
TORSDOF 6
ENDMDL
