MODEL 1
REMARK VINA RESULT:     4.739      0.000      0.000
REMARK INTER + INTRA:           7.848
REMARK INTER:                   6.679
REMARK INTRA:                   1.169
REMARK UNBOUND:                 1.169
REMARK SMILES O=C(C=Cc1ccc(O)cc1)CC(=O)C=Cc1ccc(O)cc1
REMARK SMILES IDX 12 1 2 2 1 3 3 4 4 5 5 6 6 7 7 8 8 9 11 10 10 11 9 12 13 14
REMARK SMILES IDX 14 15 15 16 16 17 17 18 18 19 23 20 19 21 22 22 20 23 21 24
REMARK H PARENT 9 13 21 25
REMARK Flexibility Score: inf
ROOT
ATOM      1  C   UNL     1      16.633  28.000  37.799  1.00  0.00     0.160 C 
ENDROOT
BRANCH   1   2
ATOM      2  C   UNL     1      17.360  27.938  39.122  1.00  0.00     0.163 C 
ATOM      3  O   UNL     1      18.621  27.960  39.148  1.00  0.00    -0.294 OA
BRANCH   2   4
ATOM      4  C   UNL     1      16.639  27.876  40.411  1.00  0.00     0.048 C 
ATOM      5  C   UNL     1      17.204  28.193  41.587  1.00  0.00     0.012 C 
BRANCH   5   6
ATOM      6  C   UNL     1      16.490  28.122  42.886  1.00  0.00    -0.025 A 
ATOM      7  C   UNL     1      17.168  28.052  44.120  1.00  0.00     0.012 A 
ATOM      8  C   UNL     1      16.450  27.973  45.318  1.00  0.00     0.047 A 
ATOM      9  C   UNL     1      15.051  27.953  45.301  1.00  0.00     0.115 A 
ATOM     10  C   UNL     1      15.086  28.084  42.882  1.00  0.00     0.012 A 
ATOM     11  C   UNL     1      14.371  28.007  44.081  1.00  0.00     0.047 A 
BRANCH   9  12
ATOM     12  O   UNL     1      14.326  27.877  46.489  1.00  0.00    -0.508 OA
ATOM     13  H   UNL     1      13.543  27.243  46.591  1.00  0.00     0.293 HD
ENDBRANCH   9  12
ENDBRANCH   5   6
ENDBRANCH   2   4
ENDBRANCH   1   2
BRANCH   1  14
ATOM     14  C   UNL     1      17.547  28.344  36.658  1.00  0.00     0.163 C 
ATOM     15  O   UNL     1      18.769  28.548  36.890  1.00  0.00    -0.294 OA
BRANCH  14  16
ATOM     16  C   UNL     1      17.029  28.326  35.272  1.00  0.00     0.048 C 
ATOM     17  C   UNL     1      15.791  28.688  34.897  1.00  0.00     0.012 C 
BRANCH  17  18
ATOM     18  C   UNL     1      14.674  28.992  35.817  1.00  0.00    -0.025 A 
ATOM     19  C   UNL     1      13.963  27.936  36.405  1.00  0.00     0.012 A 
ATOM     20  C   UNL     1      14.378  30.314  36.192  1.00  0.00     0.012 A 
ATOM     21  C   UNL     1      12.932  28.198  37.314  1.00  0.00     0.047 A 
ATOM     22  C   UNL     1      13.347  30.574  37.102  1.00  0.00     0.047 A 
ATOM     23  C   UNL     1      12.619  29.516  37.662  1.00  0.00     0.115 A 
BRANCH  23  24
ATOM     24  O   UNL     1      11.590  29.762  38.568  1.00  0.00    -0.508 OA
ATOM     25  H   UNL     1      11.782  30.043  39.522  1.00  0.00     0.293 HD
ENDBRANCH  23  24
ENDBRANCH  17  18
ENDBRANCH  14  16
ENDBRANCH   1  14
TORSDOF 8
ENDMDL
MODEL 2
REMARK VINA RESULT:     5.180     21.210     23.596
REMARK INTER + INTRA:           8.468
REMARK INTER:                   9.702
REMARK INTRA:                  -1.234
REMARK UNBOUND:                 1.169
REMARK SMILES O=C(C=Cc1ccc(O)cc1)CC(=O)C=Cc1ccc(O)cc1
REMARK SMILES IDX 12 1 2 2 1 3 3 4 4 5 5 6 6 7 7 8 8 9 11 10 10 11 9 12 13 14
REMARK SMILES IDX 14 15 15 16 16 17 17 18 18 19 23 20 19 21 22 22 20 23 21 24
REMARK H PARENT 9 13 21 25
REMARK Flexibility Score: inf
ROOT
ATOM      1  C   UNL     1      -0.711  43.980  49.826  1.00  0.00     0.160 C 
ENDROOT
BRANCH   1   2
ATOM      2  C   UNL     1       0.417  44.075  50.827  1.00  0.00     0.163 C 
ATOM      3  O   UNL     1       0.199  44.545  51.978  1.00  0.00    -0.294 OA
BRANCH   2   4
ATOM      4  C   UNL     1       1.784  43.607  50.516  1.00  0.00     0.048 C 
ATOM      5  C   UNL     1       2.133  42.311  50.493  1.00  0.00     0.012 C 
BRANCH   5   6
ATOM      6  C   UNL     1       3.506  41.836  50.193  1.00  0.00    -0.025 A 
ATOM      7  C   UNL     1       4.603  42.107  51.037  1.00  0.00     0.012 A 
ATOM      8  C   UNL     1       5.882  41.648  50.704  1.00  0.00     0.047 A 
ATOM      9  C   UNL     1       6.085  40.924  49.524  1.00  0.00     0.115 A 
ATOM     10  C   UNL     1       3.727  41.123  49.003  1.00  0.00     0.012 A 
ATOM     11  C   UNL     1       5.007  40.665  48.674  1.00  0.00     0.047 A 
BRANCH   9  12
ATOM     12  O   UNL     1       7.355  40.461  49.184  1.00  0.00    -0.508 OA
ATOM     13  H   UNL     1       8.060  40.283  49.890  1.00  0.00     0.293 HD
ENDBRANCH   9  12
ENDBRANCH   5   6
ENDBRANCH   2   4
ENDBRANCH   1   2
BRANCH   1  14
ATOM     14  C   UNL     1      -0.837  45.218  48.985  1.00  0.00     0.163 C 
ATOM     15  O   UNL     1      -0.836  45.108  47.729  1.00  0.00    -0.294 OA
BRANCH  14  16
ATOM     16  C   UNL     1      -1.072  46.526  49.634  1.00  0.00     0.048 C 
ATOM     17  C   UNL     1      -0.242  47.580  49.588  1.00  0.00     0.012 C 
BRANCH  17  18
ATOM     18  C   UNL     1       1.131  47.564  49.038  1.00  0.00    -0.025 A 
ATOM     19  C   UNL     1       1.350  48.011  47.727  1.00  0.00     0.012 A 
ATOM     20  C   UNL     1       2.232  47.206  49.837  1.00  0.00     0.012 A 
ATOM     21  C   UNL     1       2.646  48.049  47.202  1.00  0.00     0.047 A 
ATOM     22  C   UNL     1       3.527  47.246  49.310  1.00  0.00     0.047 A 
ATOM     23  C   UNL     1       3.737  47.664  47.989  1.00  0.00     0.115 A 
BRANCH  23  24
ATOM     24  O   UNL     1       5.021  47.706  47.452  1.00  0.00    -0.508 OA
ATOM     25  H   UNL     1       5.843  47.628  48.040  1.00  0.00     0.293 HD
ENDBRANCH  23  24
ENDBRANCH  17  18
ENDBRANCH  14  16
ENDBRANCH   1  14
TORSDOF 8
ENDMDL
MODEL 3
REMARK VINA RESULT:     5.870      1.012      1.739
REMARK INTER + INTRA:           9.441
REMARK INTER:                   7.837
REMARK INTRA:                   1.604
REMARK UNBOUND:                 1.169
REMARK SMILES O=C(C=Cc1ccc(O)cc1)CC(=O)C=Cc1ccc(O)cc1
REMARK SMILES IDX 12 1 2 2 1 3 3 4 4 5 5 6 6 7 7 8 8 9 11 10 10 11 9 12 13 14
REMARK SMILES IDX 14 15 15 16 16 17 17 18 18 19 23 20 19 21 22 22 20 23 21 24
REMARK H PARENT 9 13 21 25
REMARK Flexibility Score: inf
ROOT
ATOM      1  C   UNL     1      16.064  28.595  37.594  1.00  0.00     0.160 C 
ENDROOT
BRANCH   1   2
ATOM      2  C   UNL     1      17.038  28.134  38.653  1.00  0.00     0.163 C 
ATOM      3  O   UNL     1      18.256  27.980  38.362  1.00  0.00    -0.294 OA
BRANCH   2   4
ATOM      4  C   UNL     1      16.618  27.876  40.046  1.00  0.00     0.048 C 
ATOM      5  C   UNL     1      16.353  28.851  40.929  1.00  0.00     0.012 C 
BRANCH   5   6
ATOM      6  C   UNL     1      15.942  28.598  42.332  1.00  0.00    -0.025 A 
ATOM      7  C   UNL     1      14.607  28.323  42.693  1.00  0.00     0.012 A 
ATOM      8  C   UNL     1      14.267  28.104  44.032  1.00  0.00     0.047 A 
ATOM      9  C   UNL     1      15.248  28.165  45.028  1.00  0.00     0.115 A 
ATOM     10  C   UNL     1      16.915  28.674  43.343  1.00  0.00     0.012 A 
ATOM     11  C   UNL     1      16.571  28.453  44.681  1.00  0.00     0.047 A 
BRANCH   9  12
ATOM     12  O   UNL     1      14.920  27.947  46.364  1.00  0.00    -0.508 OA
ATOM     13  H   UNL     1      14.275  27.215  46.638  1.00  0.00     0.293 HD
ENDBRANCH   9  12
ENDBRANCH   5   6
ENDBRANCH   2   4
ENDBRANCH   1   2
BRANCH   1  14
ATOM     14  C   UNL     1      16.753  29.045  36.337  1.00  0.00     0.163 C 
ATOM     15  O   UNL     1      17.938  28.673  36.120  1.00  0.00    -0.294 OA
BRANCH  14  16
ATOM     16  C   UNL     1      16.001  29.820  35.325  1.00  0.00     0.048 C 
ATOM     17  C   UNL     1      14.683  30.070  35.356  1.00  0.00     0.012 C 
BRANCH  17  18
ATOM     18  C   UNL     1      13.720  29.466  36.301  1.00  0.00    -0.025 A 
ATOM     19  C   UNL     1      13.655  29.948  37.616  1.00  0.00     0.012 A 
ATOM     20  C   UNL     1      12.799  28.490  35.879  1.00  0.00     0.012 A 
ATOM     21  C   UNL     1      12.719  29.424  38.515  1.00  0.00     0.047 A 
ATOM     22  C   UNL     1      11.864  27.968  36.779  1.00  0.00     0.047 A 
ATOM     23  C   UNL     1      11.825  28.431  38.101  1.00  0.00     0.115 A 
BRANCH  23  24
ATOM     24  O   UNL     1      10.900  27.918  39.007  1.00  0.00    -0.508 OA
ATOM     25  H   UNL     1      11.172  27.649  39.945  1.00  0.00     0.293 HD
ENDBRANCH  23  24
ENDBRANCH  17  18
ENDBRANCH  14  16
ENDBRANCH   1  14
TORSDOF 8
ENDMDL
MODEL 4
REMARK VINA RESULT:     7.199     21.315     23.779
REMARK INTER + INTRA:          11.313
REMARK INTER:                  11.299
REMARK INTRA:                   0.014
REMARK UNBOUND:                 1.169
REMARK SMILES O=C(C=Cc1ccc(O)cc1)CC(=O)C=Cc1ccc(O)cc1
REMARK SMILES IDX 12 1 2 2 1 3 3 4 4 5 5 6 6 7 7 8 8 9 11 10 10 11 9 12 13 14
REMARK SMILES IDX 14 15 15 16 16 17 17 18 18 19 23 20 19 21 22 22 20 23 21 24
REMARK H PARENT 9 13 21 25
REMARK Flexibility Score: inf
ROOT
ATOM      1  C   UNL     1       1.014  45.396  51.247  1.00  0.00     0.160 C 
ENDROOT
BRANCH   1   2
ATOM      2  C   UNL     1       1.112  44.255  50.262  1.00  0.00     0.163 C 
ATOM      3  O   UNL     1       0.074  43.835  49.681  1.00  0.00    -0.294 OA
BRANCH   2   4
ATOM      4  C   UNL     1       2.402  43.615  49.928  1.00  0.00     0.048 C 
ATOM      5  C   UNL     1       2.721  42.364  50.294  1.00  0.00     0.012 C 
BRANCH   5   6
ATOM      6  C   UNL     1       4.018  41.720  49.971  1.00  0.00    -0.025 A 
ATOM      7  C   UNL     1       4.184  40.863  48.864  1.00  0.00     0.012 A 
ATOM      8  C   UNL     1       5.425  40.269  48.608  1.00  0.00     0.047 A 
ATOM      9  C   UNL     1       6.510  40.513  49.457  1.00  0.00     0.115 A 
ATOM     10  C   UNL     1       5.112  41.943  50.825  1.00  0.00     0.012 A 
ATOM     11  C   UNL     1       6.351  41.349  50.566  1.00  0.00     0.047 A 
BRANCH   9  12
ATOM     12  O   UNL     1       7.751  39.927  49.210  1.00  0.00    -0.508 OA
ATOM     13  H   UNL     1       8.325  39.567  49.963  1.00  0.00     0.293 HD
ENDBRANCH   9  12
ENDBRANCH   5   6
ENDBRANCH   2   4
ENDBRANCH   1   2
BRANCH   1  14
ATOM     14  C   UNL     1      -0.406  45.707  51.627  1.00  0.00     0.163 C 
ATOM     15  O   UNL     1      -1.121  44.796  52.124  1.00  0.00    -0.294 OA
BRANCH  14  16
ATOM     16  C   UNL     1      -0.907  47.095  51.518  1.00  0.00     0.048 C 
ATOM     17  C   UNL     1      -0.545  47.984  50.581  1.00  0.00     0.012 C 
BRANCH  17  18
ATOM     18  C   UNL     1       0.550  47.799  49.605  1.00  0.00    -0.025 A 
ATOM     19  C   UNL     1       1.869  48.082  49.991  1.00  0.00     0.012 A 
ATOM     20  C   UNL     1       0.308  47.250  48.333  1.00  0.00     0.012 A 
ATOM     21  C   UNL     1       2.926  47.870  49.100  1.00  0.00     0.047 A 
ATOM     22  C   UNL     1       1.367  47.038  47.444  1.00  0.00     0.047 A 
ATOM     23  C   UNL     1       2.679  47.351  47.824  1.00  0.00     0.115 A 
BRANCH  23  24
ATOM     24  O   UNL     1       3.742  47.147  46.947  1.00  0.00    -0.508 OA
ATOM     25  H   UNL     1       4.691  47.395  47.201  1.00  0.00     0.293 HD
ENDBRANCH  23  24
ENDBRANCH  17  18
ENDBRANCH  14  16
ENDBRANCH   1  14
TORSDOF 8
ENDMDL
