MODEL 1
REMARK VINA RESULT:    -5.019      0.000      0.000
REMARK INTER + INTRA:          -5.168
REMARK INTER:                  -6.193
REMARK INTRA:                   1.025
REMARK UNBOUND:                 1.025
REMARK SMILES CC1=CC=CC(C)(C)CC1=O
REMARK SMILES IDX 1 1 2 2 3 3 10 4 11 5 9 6 4 8 5 9 6 10 7 11 8 12
REMARK H PARENT
REMARK Flexibility Score: 80.00
ROOT
ATOM      1  C   UNL     1      81.063   6.738  27.146  1.00  0.00     0.048 C 
ATOM      2  C   UNL     1      82.319   5.901  27.170  1.00  0.00    -0.008 C 
ATOM      3  C   UNL     1      82.784   5.437  25.991  1.00  0.00     0.007 C 
ENDROOT
BRANCH   2   4
ATOM      4  C   UNL     1      82.986   5.719  28.484  1.00  0.00     0.159 C 
ATOM      5  O   UNL     1      82.349   6.012  29.534  1.00  0.00    -0.295 OA
BRANCH   4   6
ATOM      6  C   UNL     1      84.378   5.190  28.638  1.00  0.00     0.091 CG0
ATOM      7  G   UNL     1      84.569   3.788  28.017  1.00  0.00     0.000 G0
ENDBRANCH   4   6
ENDBRANCH   2   4
BRANCH   3   8
ATOM      8  C   UNL     1      83.988   4.624  25.696  1.00  0.00    -0.003 C 
ATOM      9  C   UNL     1      84.766   3.932  26.538  1.00  0.00    -0.020 C 
BRANCH   9  10
ATOM     10  C   UNL     1      84.575   3.794  28.029  1.00  0.00    -0.010 CG0
ATOM     11  C   UNL     1      85.773   3.039  28.649  1.00  0.00     0.016 C 
ATOM     12  C   UNL     1      83.301   2.954  28.279  1.00  0.00     0.016 C 
ATOM     13  G   UNL     1      84.362   5.189  28.658  1.00  0.00     0.000 G0
ENDBRANCH   9  10
ENDBRANCH   3   8
TORSDOF 0
ENDMDL
MODEL 2
REMARK VINA RESULT:    -4.779      1.488      2.352
REMARK INTER + INTRA:          -4.871
REMARK INTER:                  -5.625
REMARK INTRA:                   0.754
REMARK UNBOUND:                 1.025
REMARK SMILES CC1=CC=CC(C)(C)CC1=O
REMARK SMILES IDX 1 1 2 2 3 3 10 4 11 5 9 6 4 8 5 9 6 10 7 11 8 12
REMARK H PARENT
REMARK Flexibility Score: 80.00
ROOT
ATOM      1  C   UNL     1      81.354   6.714  26.991  1.00  0.00     0.048 C 
ATOM      2  C   UNL     1      82.300   5.808  27.743  1.00  0.00    -0.008 C 
ATOM      3  C   UNL     1      81.846   5.231  28.876  1.00  0.00     0.007 C 
ENDROOT
BRANCH   2   4
ATOM      4  C   UNL     1      83.632   5.565  27.133  1.00  0.00     0.159 C 
ATOM      5  O   UNL     1      83.840   5.961  25.953  1.00  0.00    -0.295 OA
BRANCH   4   6
ATOM      6  C   UNL     1      84.757   4.885  27.849  1.00  0.00     0.091 CG0
ATOM      7  G   UNL     1      84.408   3.452  28.310  1.00  0.00     0.000 G0
ENDBRANCH   4   6
ENDBRANCH   2   4
BRANCH   3   8
ATOM      8  C   UNL     1      82.521   4.289  29.800  1.00  0.00    -0.003 C 
ATOM      9  C   UNL     1      83.594   3.517  29.585  1.00  0.00    -0.020 C 
BRANCH   9  10
ATOM     10  C   UNL     1      84.408   3.446  28.315  1.00  0.00    -0.010 CG0
ATOM     11  C   UNL     1      83.648   2.630  27.244  1.00  0.00     0.016 C 
ATOM     12  C   UNL     1      85.731   2.710  28.627  1.00  0.00     0.016 C 
ATOM     13  G   UNL     1      84.754   4.875  27.838  1.00  0.00     0.000 G0
ENDBRANCH   9  10
ENDBRANCH   3   8
TORSDOF 0
ENDMDL
MODEL 3
REMARK VINA RESULT:    -4.555      1.384      2.929
REMARK INTER + INTRA:          -4.595
REMARK INTER:                  -5.343
REMARK INTRA:                   0.748
REMARK UNBOUND:                 1.025
REMARK SMILES CC1=CC=CC(C)(C)CC1=O
REMARK SMILES IDX 1 1 2 2 3 3 10 4 11 5 9 6 4 8 5 9 6 10 7 11 8 12
REMARK H PARENT
REMARK Flexibility Score: 80.00
ROOT
ATOM      1  C   UNL     1      81.907   3.365  30.993  1.00  0.00     0.048 C 
ATOM      2  C   UNL     1      82.689   3.665  29.737  1.00  0.00    -0.008 C 
ATOM      3  C   UNL     1      82.954   2.636  28.904  1.00  0.00     0.007 C 
ENDROOT
BRANCH   2   4
ATOM      4  C   UNL     1      83.041   5.085  29.482  1.00  0.00     0.159 C 
ATOM      5  O   UNL     1      82.521   5.978  30.206  1.00  0.00    -0.295 OA
BRANCH   4   6
ATOM      6  C   UNL     1      83.996   5.521  28.415  1.00  0.00     0.091 CG0
ATOM      7  G   UNL     1      83.565   5.086  26.996  1.00  0.00     0.000 G0
ENDBRANCH   4   6
ENDBRANCH   2   4
BRANCH   3   8
ATOM      8  C   UNL     1      83.667   2.623  27.604  1.00  0.00    -0.003 C 
ATOM      9  C   UNL     1      83.931   3.641  26.776  1.00  0.00    -0.020 C 
BRANCH   9  10
ATOM     10  C   UNL     1      83.575   5.093  26.996  1.00  0.00    -0.010 CG0
ATOM     11  C   UNL     1      82.071   5.316  26.714  1.00  0.00     0.016 C 
ATOM     12  C   UNL     1      84.381   5.948  25.991  1.00  0.00     0.016 C 
ATOM     13  G   UNL     1      83.982   5.518  28.425  1.00  0.00     0.000 G0
ENDBRANCH   9  10
ENDBRANCH   3   8
TORSDOF 0
ENDMDL
MODEL 4
REMARK VINA RESULT:    -4.472      1.939      3.953
REMARK INTER + INTRA:          -4.493
REMARK INTER:                  -5.281
REMARK INTRA:                   0.788
REMARK UNBOUND:                 1.025
REMARK SMILES CC1=CC=CC(C)(C)CC1=O
REMARK SMILES IDX 1 1 2 2 3 3 10 4 11 5 9 6 4 8 5 9 6 10 7 11 8 12
REMARK H PARENT
REMARK Flexibility Score: 80.00
ROOT
ATOM      1  C   UNL     1      86.254   2.621  28.250  1.00  0.00     0.048 C 
ATOM      2  C   UNL     1      84.869   3.221  28.257  1.00  0.00    -0.008 C 
ATOM      3  C   UNL     1      84.243   3.339  29.447  1.00  0.00     0.007 C 
ENDROOT
BRANCH   2   4
ATOM      4  C   UNL     1      84.335   3.704  26.958  1.00  0.00     0.159 C 
ATOM      5  O   UNL     1      85.118   3.782  25.971  1.00  0.00    -0.295 OA
BRANCH   4   6
ATOM      6  C   UNL     1      82.905   4.094  26.745  1.00  0.00     0.091 CG0
ATOM      7  G   UNL     1      82.447   5.253  27.659  1.00  0.00     0.000 G0
ENDBRANCH   4   6
ENDBRANCH   2   4
BRANCH   3   8
ATOM      8  C   UNL     1      82.911   3.902  29.770  1.00  0.00    -0.003 C 
ATOM      9  C   UNL     1      82.141   4.720  29.041  1.00  0.00    -0.020 C 
BRANCH   9  10
ATOM     10  C   UNL     1      82.451   5.254  27.663  1.00  0.00    -0.010 CG0
ATOM     11  C   UNL     1      83.518   6.369  27.756  1.00  0.00     0.016 C 
ATOM     12  C   UNL     1      81.160   5.874  27.081  1.00  0.00     0.016 C 
ATOM     13  G   UNL     1      82.884   4.092  26.741  1.00  0.00     0.000 G0
ENDBRANCH   9  10
ENDBRANCH   3   8
TORSDOF 0
ENDMDL
MODEL 5
REMARK VINA RESULT:    -4.432      1.874      3.053
REMARK INTER + INTRA:          -4.443
REMARK INTER:                  -5.217
REMARK INTRA:                   0.774
REMARK UNBOUND:                 1.025
REMARK SMILES CC1=CC=CC(C)(C)CC1=O
REMARK SMILES IDX 1 1 2 2 3 3 10 4 11 5 9 6 4 8 5 9 6 10 7 11 8 12
REMARK H PARENT
REMARK Flexibility Score: 80.00
ROOT
ATOM      1  C   UNL     1      82.081   3.726  31.531  1.00  0.00     0.048 C 
ATOM      2  C   UNL     1      82.574   4.072  30.147  1.00  0.00    -0.008 C 
ATOM      3  C   UNL     1      82.799   5.375  29.870  1.00  0.00     0.007 C 
ENDROOT
BRANCH   2   4
ATOM      4  C   UNL     1      82.845   2.942  29.223  1.00  0.00     0.159 C 
ATOM      5  O   UNL     1      82.847   1.768  29.684  1.00  0.00    -0.295 OA
BRANCH   4   6
ATOM      6  C   UNL     1      83.103   3.116  27.758  1.00  0.00     0.091 CG0
ATOM      7  G   UNL     1      84.334   4.001  27.457  1.00  0.00     0.000 G0
ENDBRANCH   4   6
ENDBRANCH   2   4
BRANCH   3   8
ATOM      8  C   UNL     1      83.302   6.011  28.630  1.00  0.00    -0.003 C 
ATOM      9  C   UNL     1      83.958   5.457  27.603  1.00  0.00    -0.020 C 
BRANCH   9  10
ATOM     10  C   UNL     1      84.327   4.000  27.454  1.00  0.00    -0.010 CG0
ATOM     11  C   UNL     1      85.530   3.664  28.366  1.00  0.00     0.016 C 
ATOM     12  C   UNL     1      84.754   3.754  25.989  1.00  0.00     0.016 C 
ATOM     13  G   UNL     1      83.092   3.118  27.750  1.00  0.00     0.000 G0
ENDBRANCH   9  10
ENDBRANCH   3   8
TORSDOF 0
ENDMDL
MODEL 6
REMARK VINA RESULT:    -4.231      1.413      3.478
REMARK INTER + INTRA:          -4.196
REMARK INTER:                  -5.224
REMARK INTRA:                   1.028
REMARK UNBOUND:                 1.025
REMARK SMILES CC1=CC=CC(C)(C)CC1=O
REMARK SMILES IDX 1 1 2 2 3 3 10 4 11 5 9 6 4 8 5 9 6 10 7 11 8 12
REMARK H PARENT
REMARK Flexibility Score: 80.00
ROOT
ATOM      1  C   UNL     1      86.140   2.597  28.318  1.00  0.00     0.048 C 
ATOM      2  C   UNL     1      84.991   3.417  27.781  1.00  0.00    -0.008 C 
ATOM      3  C   UNL     1      85.170   4.046  26.599  1.00  0.00     0.007 C 
ENDROOT
BRANCH   2   4
ATOM      4  C   UNL     1      83.728   3.404  28.561  1.00  0.00     0.159 C 
ATOM      5  O   UNL     1      83.752   2.976  29.748  1.00  0.00    -0.295 OA
BRANCH   4   6
ATOM      6  C   UNL     1      82.418   3.888  28.021  1.00  0.00     0.091 CG0
ATOM      7  G   UNL     1      82.451   5.368  27.577  1.00  0.00     0.000 G0
ENDBRANCH   4   6
ENDBRANCH   2   4
BRANCH   3   8
ATOM      8  C   UNL     1      84.233   4.888  25.819  1.00  0.00    -0.003 C 
ATOM      9  C   UNL     1      83.077   5.444  26.203  1.00  0.00    -0.020 C 
BRANCH   9  10
ATOM     10  C   UNL     1      82.453   5.360  27.575  1.00  0.00    -0.010 CG0
ATOM     11  C   UNL     1      81.048   6.005  27.558  1.00  0.00     0.016 C 
ATOM     12  C   UNL     1      83.334   6.163  28.559  1.00  0.00     0.016 C 
ATOM     13  G   UNL     1      82.426   3.888  28.045  1.00  0.00     0.000 G0
ENDBRANCH   9  10
ENDBRANCH   3   8
TORSDOF 0
ENDMDL
MODEL 7
REMARK VINA RESULT:    -4.216      1.665      2.962
REMARK INTER + INTRA:          -4.177
REMARK INTER:                  -4.923
REMARK INTRA:                   0.745
REMARK UNBOUND:                 1.025
REMARK SMILES CC1=CC=CC(C)(C)CC1=O
REMARK SMILES IDX 1 1 2 2 3 3 10 4 11 5 9 6 4 8 5 9 6 10 7 11 8 12
REMARK H PARENT
REMARK Flexibility Score: 80.00
ROOT
ATOM      1  C   UNL     1      84.745   4.515  24.957  1.00  0.00     0.048 C 
ATOM      2  C   UNL     1      84.004   5.055  26.157  1.00  0.00    -0.008 C 
ATOM      3  C   UNL     1      82.784   5.595  25.948  1.00  0.00     0.007 C 
ENDROOT
BRANCH   2   4
ATOM      4  C   UNL     1      84.646   4.880  27.483  1.00  0.00     0.159 C 
ATOM      5  O   UNL     1      85.662   4.136  27.573  1.00  0.00    -0.295 OA
BRANCH   4   6
ATOM      6  C   UNL     1      84.163   5.552  28.731  1.00  0.00     0.091 CG0
ATOM      7  G   UNL     1      82.705   5.192  29.092  1.00  0.00     0.000 G0
ENDBRANCH   4   6
ENDBRANCH   2   4
BRANCH   3   8
ATOM      8  C   UNL     1      81.822   6.174  26.915  1.00  0.00    -0.003 C 
ATOM      9  C   UNL     1      81.763   6.019  28.244  1.00  0.00    -0.020 C 
BRANCH   9  10
ATOM     10  C   UNL     1      82.714   5.212  29.096  1.00  0.00    -0.010 CG0
ATOM     11  C   UNL     1      82.397   3.704  28.958  1.00  0.00     0.016 C 
ATOM     12  C   UNL     1      82.500   5.611  30.573  1.00  0.00     0.016 C 
ATOM     13  G   UNL     1      84.172   5.550  28.712  1.00  0.00     0.000 G0
ENDBRANCH   9  10
ENDBRANCH   3   8
TORSDOF 0
ENDMDL
MODEL 8
REMARK VINA RESULT:    -4.087      1.766      2.997
REMARK INTER + INTRA:          -4.019
REMARK INTER:                  -4.785
REMARK INTRA:                   0.767
REMARK UNBOUND:                 1.025
REMARK SMILES CC1=CC=CC(C)(C)CC1=O
REMARK SMILES IDX 1 1 2 2 3 3 10 4 11 5 9 6 4 8 5 9 6 10 7 11 8 12
REMARK H PARENT
REMARK Flexibility Score: 80.00
ROOT
ATOM      1  C   UNL     1      84.746   4.908  25.048  1.00  0.00     0.048 C 
ATOM      2  C   UNL     1      84.373   4.275  26.367  1.00  0.00    -0.008 C 
ATOM      3  C   UNL     1      85.362   3.713  27.094  1.00  0.00     0.007 C 
ENDROOT
BRANCH   2   4
ATOM      4  C   UNL     1      82.956   4.388  26.795  1.00  0.00     0.159 C 
ATOM      5  O   UNL     1      82.186   5.153  26.151  1.00  0.00    -0.295 OA
BRANCH   4   6
ATOM      6  C   UNL     1      82.378   3.630  27.949  1.00  0.00     0.091 CG0
ATOM      7  G   UNL     1      83.090   3.922  29.289  1.00  0.00     0.000 G0
ENDBRANCH   4   6
ENDBRANCH   2   4
BRANCH   3   8
ATOM      8  C   UNL     1      85.311   3.049  28.418  1.00  0.00    -0.003 C 
ATOM      9  C   UNL     1      84.368   3.124  29.365  1.00  0.00    -0.020 C 
BRANCH   9  10
ATOM     10  C   UNL     1      83.080   3.910  29.288  1.00  0.00    -0.010 CG0
ATOM     11  C   UNL     1      83.366   5.415  29.499  1.00  0.00     0.016 C 
ATOM     12  C   UNL     1      82.153   3.436  30.430  1.00  0.00     0.016 C 
ATOM     13  G   UNL     1      82.374   3.622  27.944  1.00  0.00     0.000 G0
ENDBRANCH   9  10
ENDBRANCH   3   8
TORSDOF 0
ENDMDL
MODEL 9
REMARK VINA RESULT:    -3.448     10.364     11.957
REMARK INTER + INTRA:          -3.230
REMARK INTER:                  -3.983
REMARK INTRA:                   0.753
REMARK UNBOUND:                 1.025
REMARK SMILES CC1=CC=CC(C)(C)CC1=O
REMARK SMILES IDX 1 1 2 2 3 3 10 4 11 5 9 6 4 8 5 9 6 10 7 11 8 12
REMARK H PARENT
REMARK Flexibility Score: 80.00
ROOT
ATOM      1  C   UNL     1      81.023  -3.382  29.028  1.00  0.00     0.048 C 
ATOM      2  C   UNL     1      80.380  -4.702  28.676  1.00  0.00    -0.008 C 
ATOM      3  C   UNL     1      79.352  -5.121  29.444  1.00  0.00     0.007 C 
ENDROOT
BRANCH   2   4
ATOM      4  C   UNL     1      80.882  -5.398  27.465  1.00  0.00     0.159 C 
ATOM      5  O   UNL     1      81.671  -4.783  26.694  1.00  0.00    -0.295 OA
BRANCH   4   6
ATOM      6  C   UNL     1      80.516  -6.805  27.109  1.00  0.00     0.091 CG0
ATOM      7  G   UNL     1      78.995  -7.013  26.930  1.00  0.00     0.000 G0
ENDBRANCH   4   6
ENDBRANCH   2   4
BRANCH   3   8
ATOM      8  C   UNL     1      78.517  -6.340  29.334  1.00  0.00    -0.003 C 
ATOM      9  C   UNL     1      78.344  -7.153  28.284  1.00  0.00    -0.020 C 
BRANCH   9  10
ATOM     10  C   UNL     1      79.004  -7.025  26.931  1.00  0.00    -0.010 CG0
ATOM     11  C   UNL     1      78.324  -5.900  26.116  1.00  0.00     0.016 C 
ATOM     12  C   UNL     1      78.807  -8.354  26.167  1.00  0.00     0.016 C 
ATOM     13  G   UNL     1      80.521  -6.794  27.113  1.00  0.00     0.000 G0
ENDBRANCH   9  10
ENDBRANCH   3   8
TORSDOF 0
ENDMDL
