MODEL 1
REMARK VINA RESULT:     1.087      0.000      0.000
REMARK INTER + INTRA:           1.564
REMARK INTER:                   1.151
REMARK INTRA:                   0.414
REMARK UNBOUND:                 0.414
REMARK SMILES CC(C)[C@H]1CC[C@@H](C)CC1=O
REMARK SMILES IDX 8 1 7 2 6 3 5 4 4 5 10 6 11 7 9 8 2 9 1 10 3 11
REMARK H PARENT
REMARK Flexibility Score: inf
ROOT
ATOM      1  C   UNL     1      -6.677 -13.151 -16.767  1.00  0.00     0.008 C 
ATOM      2  C   UNL     1      -6.516 -14.661 -16.524  1.00  0.00    -0.007 C 
ATOM      3  C   UNL     1      -6.982 -15.068 -15.106  1.00  0.00     0.004 C 
ATOM      4  C   UNL     1      -6.019 -14.602 -13.995  1.00  0.00     0.012 C 
ATOM      5  C   UNL     1      -4.573 -15.095 -14.239  1.00  0.00     0.058 C 
ATOM      6  C   UNL     1      -4.183 -14.690 -15.650  1.00  0.00     0.136 C 
ATOM      7  O   UNL     1      -3.231 -13.954 -15.872  1.00  0.00    -0.299 OA
ATOM      8  C   UNL     1      -5.069 -15.123 -16.781  1.00  0.00     0.079 C 
ENDROOT
BRANCH   5   9
ATOM      9  C   UNL     1      -3.558 -14.592 -13.159  1.00  0.00    -0.007 C 
ATOM     10  C   UNL     1      -3.880 -15.123 -11.749  1.00  0.00     0.008 C 
ATOM     11  C   UNL     1      -2.120 -15.009 -13.520  1.00  0.00     0.008 C 
ENDBRANCH   5   9
TORSDOF 1
ENDMDL
MODEL 2
REMARK VINA RESULT:     1.295      2.618      4.696
REMARK INTER + INTRA:           1.784
REMARK INTER:                   0.787
REMARK INTRA:                   0.997
REMARK UNBOUND:                 0.414
REMARK SMILES CC(C)[C@H]1CC[C@@H](C)CC1=O
REMARK SMILES IDX 8 1 7 2 6 3 5 4 4 5 10 6 11 7 9 8 2 9 1 10 3 11
REMARK H PARENT
REMARK Flexibility Score: inf
ROOT
ATOM      1  C   UNL     1       0.147 -11.690 -14.496  1.00  0.00     0.008 C 
ATOM      2  C   UNL     1       0.024 -12.817 -15.535  1.00  0.00    -0.007 C 
ATOM      3  C   UNL     1      -1.061 -12.507 -16.594  1.00  0.00     0.004 C 
ATOM      4  C   UNL     1      -2.496 -12.616 -16.039  1.00  0.00     0.012 C 
ATOM      5  C   UNL     1      -2.765 -13.996 -15.394  1.00  0.00     0.058 C 
ATOM      6  C   UNL     1      -1.656 -14.253 -14.387  1.00  0.00     0.136 C 
ATOM      7  O   UNL     1      -1.890 -14.427 -13.198  1.00  0.00    -0.299 OA
ATOM      8  C   UNL     1      -0.236 -14.179 -14.864  1.00  0.00     0.079 C 
ENDROOT
BRANCH   5   9
ATOM      9  C   UNL     1      -4.194 -14.119 -14.770  1.00  0.00    -0.007 C 
ATOM     10  C   UNL     1      -5.255 -14.559 -15.797  1.00  0.00     0.008 C 
ATOM     11  C   UNL     1      -4.200 -15.124 -13.602  1.00  0.00     0.008 C 
ENDBRANCH   5   9
TORSDOF 1
ENDMDL
MODEL 3
REMARK VINA RESULT:     2.183      1.466      2.438
REMARK INTER + INTRA:           2.724
REMARK INTER:                   2.053
REMARK INTRA:                   0.671
REMARK UNBOUND:                 0.414
REMARK SMILES CC(C)[C@H]1CC[C@@H](C)CC1=O
REMARK SMILES IDX 8 1 7 2 6 3 5 4 4 5 10 6 11 7 9 8 2 9 1 10 3 11
REMARK H PARENT
REMARK Flexibility Score: inf
ROOT
ATOM      1  C   UNL     1      -7.101 -13.250 -14.071  1.00  0.00     0.008 C 
ATOM      2  C   UNL     1      -6.670 -14.708 -14.300  1.00  0.00    -0.007 C 
ATOM      3  C   UNL     1      -5.524 -15.125 -13.349  1.00  0.00     0.004 C 
ATOM      4  C   UNL     1      -4.171 -14.478 -13.712  1.00  0.00     0.012 C 
ATOM      5  C   UNL     1      -3.770 -14.758 -15.180  1.00  0.00     0.058 C 
ATOM      6  C   UNL     1      -4.942 -14.354 -16.058  1.00  0.00     0.136 C 
ATOM      7  O   UNL     1      -4.836 -13.493 -16.922  1.00  0.00    -0.299 OA
ATOM      8  C   UNL     1      -6.284 -14.959 -15.770  1.00  0.00     0.079 C 
ENDROOT
BRANCH   5   9
ATOM      9  C   UNL     1      -2.430 -14.067 -15.597  1.00  0.00    -0.007 C 
ATOM     10  C   UNL     1      -2.611 -12.576 -15.938  1.00  0.00     0.008 C 
ATOM     11  C   UNL     1      -1.378 -14.187 -14.478  1.00  0.00     0.008 C 
ENDBRANCH   5   9
TORSDOF 1
ENDMDL
