MODEL 1
REMARK VINA RESULT:     1.223      0.000      0.000
REMARK INTER + INTRA:           1.087
REMARK INTER:                   1.330
REMARK INTRA:                  -0.243
REMARK UNBOUND:                -0.243
REMARK SMILES O=C([O-])c1ccccc1O
REMARK SMILES IDX 4 1 9 2 5 3 8 4 6 5 7 6 2 7 1 8 3 9 10 10
REMARK H PARENT 10 11
REMARK Flexibility Score: inf
ROOT
ATOM      1  C   UNL     1     -37.566  27.795  -5.493  1.00  0.00     0.039 A 
ATOM      2  C   UNL     1     -36.312  27.669  -6.137  1.00  0.00     0.124 A 
ATOM      3  C   UNL     1     -38.128  26.659  -4.875  1.00  0.00     0.014 A 
ATOM      4  C   UNL     1     -35.655  26.428  -6.151  1.00  0.00     0.047 A 
ATOM      5  C   UNL     1     -37.463  25.432  -4.898  1.00  0.00     0.001 A 
ATOM      6  C   UNL     1     -36.228  25.316  -5.535  1.00  0.00     0.004 A 
ENDROOT
BRANCH   1   7
ATOM      7  C   UNL     1     -38.297  29.087  -5.453  1.00  0.00     0.075 C 
ATOM      8  O   UNL     1     -37.674  30.165  -5.258  1.00  0.00    -0.545 OA
ATOM      9  O   UNL     1     -39.674  29.139  -5.631  1.00  0.00    -0.545 OA
ENDBRANCH   1   7
BRANCH   2  10
ATOM     10  O   UNL     1     -35.716  28.764  -6.760  1.00  0.00    -0.507 OA
ATOM     11  H   UNL     1     -35.554  28.786  -7.760  1.00  0.00     0.293 HD
ENDBRANCH   2  10
TORSDOF 2
ENDMDL
MODEL 2
REMARK VINA RESULT:     1.366      1.932      3.423
REMARK INTER + INTRA:           1.243
REMARK INTER:                   1.395
REMARK INTRA:                  -0.152
REMARK UNBOUND:                -0.243
REMARK SMILES O=C([O-])c1ccccc1O
REMARK SMILES IDX 4 1 9 2 5 3 8 4 6 5 7 6 2 7 1 8 3 9 10 10
REMARK H PARENT 10 11
REMARK Flexibility Score: inf
ROOT
ATOM      1  C   UNL     1     -37.465  27.337  -5.498  1.00  0.00     0.039 A 
ATOM      2  C   UNL     1     -36.762  28.502  -5.889  1.00  0.00     0.124 A 
ATOM      3  C   UNL     1     -38.773  27.472  -4.991  1.00  0.00     0.014 A 
ATOM      4  C   UNL     1     -37.373  29.760  -5.768  1.00  0.00     0.047 A 
ATOM      5  C   UNL     1     -39.367  28.731  -4.876  1.00  0.00     0.001 A 
ATOM      6  C   UNL     1     -38.669  29.873  -5.264  1.00  0.00     0.004 A 
ENDROOT
BRANCH   1   7
ATOM      7  C   UNL     1     -36.858  25.986  -5.607  1.00  0.00     0.075 C 
ATOM      8  O   UNL     1     -35.863  25.793  -6.357  1.00  0.00    -0.545 OA
ATOM      9  O   UNL     1     -37.367  24.909  -4.891  1.00  0.00    -0.545 OA
ENDBRANCH   1   7
BRANCH   2  10
ATOM     10  O   UNL     1     -35.467  28.418  -6.396  1.00  0.00    -0.507 OA
ATOM     11  H   UNL     1     -35.189  28.915  -7.235  1.00  0.00     0.293 HD
ENDBRANCH   2  10
TORSDOF 2
ENDMDL
MODEL 3
REMARK VINA RESULT:     2.632      0.958      2.565
REMARK INTER + INTRA:           2.619
REMARK INTER:                   2.815
REMARK INTRA:                  -0.195
REMARK UNBOUND:                -0.243
REMARK SMILES O=C([O-])c1ccccc1O
REMARK SMILES IDX 4 1 9 2 5 3 8 4 6 5 7 6 2 7 1 8 3 9 10 10
REMARK H PARENT 10 11
REMARK Flexibility Score: inf
ROOT
ATOM      1  C   UNL     1     -36.618  28.155  -5.487  1.00  0.00     0.039 A 
ATOM      2  C   UNL     1     -37.969  27.872  -5.176  1.00  0.00     0.124 A 
ATOM      3  C   UNL     1     -35.686  27.097  -5.487  1.00  0.00     0.014 A 
ATOM      4  C   UNL     1     -38.357  26.557  -4.875  1.00  0.00     0.047 A 
ATOM      5  C   UNL     1     -36.087  25.794  -5.186  1.00  0.00     0.001 A 
ATOM      6  C   UNL     1     -37.420  25.524  -4.880  1.00  0.00     0.004 A 
ENDROOT
BRANCH   1   7
ATOM      7  C   UNL     1     -36.163  29.531  -5.811  1.00  0.00     0.075 C 
ATOM      8  O   UNL     1     -36.810  30.530  -5.394  1.00  0.00    -0.545 OA
ATOM      9  O   UNL     1     -35.022  29.750  -6.574  1.00  0.00    -0.545 OA
ENDBRANCH   1   7
BRANCH   2  10
ATOM     10  O   UNL     1     -38.927  28.885  -5.164  1.00  0.00    -0.507 OA
ATOM     11  H   UNL     1     -38.791  29.741  -4.639  1.00  0.00     0.293 HD
ENDBRANCH   2  10
TORSDOF 2
ENDMDL
MODEL 4
REMARK VINA RESULT:     3.560     22.035     23.122
REMARK INTER + INTRA:           3.629
REMARK INTER:                   3.745
REMARK INTRA:                  -0.116
REMARK UNBOUND:                -0.243
REMARK SMILES O=C([O-])c1ccccc1O
REMARK SMILES IDX 4 1 9 2 5 3 8 4 6 5 7 6 2 7 1 8 3 9 10 10
REMARK H PARENT 10 11
REMARK Flexibility Score: inf
ROOT
ATOM      1  C   UNL     1     -29.650  41.117 -22.363  1.00  0.00     0.039 A 
ATOM      2  C   UNL     1     -28.609  41.120 -23.322  1.00  0.00     0.124 A 
ATOM      3  C   UNL     1     -29.312  41.119 -20.995  1.00  0.00     0.014 A 
ATOM      4  C   UNL     1     -27.270  41.124 -22.900  1.00  0.00     0.047 A 
ATOM      5  C   UNL     1     -27.976  41.123 -20.590  1.00  0.00     0.001 A 
ATOM      6  C   UNL     1     -26.956  41.125 -21.541  1.00  0.00     0.004 A 
ENDROOT
BRANCH   1   7
ATOM      7  C   UNL     1     -31.080  41.112 -22.764  1.00  0.00     0.075 C 
ATOM      8  O   UNL     1     -31.987  41.123 -21.888  1.00  0.00    -0.545 OA
ATOM      9  O   UNL     1     -31.452  41.098 -24.103  1.00  0.00    -0.545 OA
ENDBRANCH   1   7
BRANCH   2  10
ATOM     10  O   UNL     1     -28.895  41.119 -24.686  1.00  0.00    -0.507 OA
ATOM     11  H   UNL     1     -29.017  41.980 -25.206  1.00  0.00     0.293 HD
ENDBRANCH   2  10
TORSDOF 2
ENDMDL
