MODEL 1
REMARK VINA RESULT:    -5.026      0.000      0.000
REMARK INTER + INTRA:          -7.469
REMARK INTER:                  -7.670
REMARK INTRA:                   0.201
REMARK UNBOUND:                 0.201
REMARK SMILES CC1=CCC[C@H](C)C(=O)C[C@@H](C(C)C)C(=O)C1
REMARK SMILES IDX 8 1 9 2 6 3 7 4 5 5 4 6 3 7 2 8 1 9 10 11 11 12 15 13 16 14
REMARK SMILES IDX 17 15 12 17 13 18 14 19
REMARK H PARENT
REMARK Flexibility Score: 70.00
ROOT
ATOM      1  C   UNL     1      -3.623  12.235 -28.117  1.00  0.00     0.136 C 
ATOM      2  O   UNL     1      -3.148  11.232 -27.603  1.00  0.00    -0.299 OA
ENDROOT
BRANCH   1   3
ATOM      3  C   UNL     1      -3.182  13.600 -27.640  1.00  0.00     0.053 C 
ATOM      4  C   UNL     1      -3.907  13.967 -26.340  1.00  0.00     0.016 C 
BRANCH   3   5
ATOM      5  C   UNL     1      -1.654  13.659 -27.449  1.00  0.00     0.015 C 
BRANCH   5   6
ATOM      6  C   UNL     1      -0.942  14.466 -28.556  1.00  0.00     0.028 C 
BRANCH   6   7
ATOM      7  C   UNL     1      -0.123  13.571 -29.457  1.00  0.00    -0.028 C 
ATOM      8  C   UNL     1      -0.467  13.101 -30.681  1.00  0.00    -0.070 CG0
ATOM      9  C   UNL     1       0.549  12.257 -31.410  1.00  0.00     0.039 C 
ATOM     10  G   UNL     1      -1.806  13.346 -31.357  1.00  0.00     0.000 G0
ENDBRANCH   6   7
ENDBRANCH   5   6
ENDBRANCH   3   5
ENDBRANCH   1   3
BRANCH   1  11
ATOM     11  C   UNL     1      -4.697  12.116 -29.173  1.00  0.00     0.087 C 
BRANCH  11  12
ATOM     12  C   UNL     1      -4.269  12.664 -30.556  1.00  0.00     0.066 C 
BRANCH  12  13
ATOM     13  C   UNL     1      -2.834  12.317 -30.931  1.00  0.00     0.140 C 
ATOM     14  O   UNL     1      -2.511  11.137 -30.943  1.00  0.00    -0.299 OA
BRANCH  13  15
ATOM     15  C   UNL     1      -1.813  13.348 -31.358  1.00  0.00     0.106 CG0
ATOM     16  G   UNL     1      -0.471  13.100 -30.688  1.00  0.00     0.000 G0
ENDBRANCH  13  15
ENDBRANCH  12  13
BRANCH  12  17
ATOM     17  C   UNL     1      -4.589  14.183 -30.713  1.00  0.00    -0.006 C 
ATOM     18  C   UNL     1      -4.963  14.603 -32.144  1.00  0.00     0.008 C 
ATOM     19  C   UNL     1      -5.690  14.625 -29.736  1.00  0.00     0.008 C 
ENDBRANCH  12  17
ENDBRANCH  11  12
ENDBRANCH   1  11
TORSDOF 1
ENDMDL
MODEL 2
REMARK VINA RESULT:    -4.500      1.261      3.564
REMARK INTER + INTRA:          -6.667
REMARK INTER:                  -7.671
REMARK INTRA:                   1.004
REMARK UNBOUND:                 0.201
REMARK SMILES CC1=CCC[C@H](C)C(=O)C[C@@H](C(C)C)C(=O)C1
REMARK SMILES IDX 8 1 9 2 6 3 7 4 5 5 4 6 3 7 2 8 1 9 10 11 11 12 15 13 16 14
REMARK SMILES IDX 17 15 12 17 13 18 14 19
REMARK H PARENT
REMARK Flexibility Score: 70.00
ROOT
ATOM      1  C   UNL     1      -3.010  11.717 -27.336  1.00  0.00     0.136 C 
ATOM      2  O   UNL     1      -2.613  11.193 -26.304  1.00  0.00    -0.299 OA
ENDROOT
BRANCH   1   3
ATOM      3  C   UNL     1      -4.099  12.763 -27.272  1.00  0.00     0.053 C 
ATOM      4  C   UNL     1      -3.514  14.112 -26.839  1.00  0.00     0.016 C 
BRANCH   3   5
ATOM      5  C   UNL     1      -4.829  12.893 -28.624  1.00  0.00     0.015 C 
BRANCH   5   6
ATOM      6  C   UNL     1      -4.850  14.343 -29.156  1.00  0.00     0.028 C 
BRANCH   6   7
ATOM      7  C   UNL     1      -5.206  14.390 -30.624  1.00  0.00    -0.028 C 
ATOM      8  C   UNL     1      -4.376  14.188 -31.676  1.00  0.00    -0.070 CG0
ATOM      9  C   UNL     1      -4.982  14.241 -33.057  1.00  0.00     0.039 C 
ATOM     10  G   UNL     1      -2.882  13.934 -31.565  1.00  0.00     0.000 G0
ENDBRANCH   6   7
ENDBRANCH   5   6
ENDBRANCH   3   5
ENDBRANCH   1   3
BRANCH   1  11
ATOM     11  C   UNL     1      -2.469  11.272 -28.675  1.00  0.00     0.087 C 
BRANCH  11  12
ATOM     12  C   UNL     1      -1.918  12.434 -29.536  1.00  0.00     0.066 C 
BRANCH  12  13
ATOM     13  C   UNL     1      -2.620  12.582 -30.880  1.00  0.00     0.140 C 
ATOM     14  O   UNL     1      -3.051  11.573 -31.419  1.00  0.00    -0.299 OA
BRANCH  13  15
ATOM     15  C   UNL     1      -2.873  13.918 -31.543  1.00  0.00     0.106 CG0
ATOM     16  G   UNL     1      -4.362  14.189 -31.677  1.00  0.00     0.000 G0
ENDBRANCH  13  15
ENDBRANCH  12  13
BRANCH  12  17
ATOM     17  C   UNL     1      -0.363  12.387 -29.662  1.00  0.00    -0.006 C 
ATOM     18  C   UNL     1       0.153  12.442 -31.110  1.00  0.00     0.008 C 
ATOM     19  C   UNL     1       0.298  13.498 -28.831  1.00  0.00     0.008 C 
ENDBRANCH  12  17
ENDBRANCH  11  12
ENDBRANCH   1  11
TORSDOF 1
ENDMDL
MODEL 3
REMARK VINA RESULT:    -4.480      1.672      3.711
REMARK INTER + INTRA:          -6.636
REMARK INTER:                  -7.163
REMARK INTRA:                   0.526
REMARK UNBOUND:                 0.201
REMARK SMILES CC1=CCC[C@H](C)C(=O)C[C@@H](C(C)C)C(=O)C1
REMARK SMILES IDX 8 1 9 2 6 3 7 4 5 5 4 6 3 7 2 8 1 9 10 11 11 12 15 13 16 14
REMARK SMILES IDX 17 15 12 17 13 18 14 19
REMARK H PARENT
REMARK Flexibility Score: 70.00
ROOT
ATOM      1  C   UNL     1      -1.343  11.282 -30.615  1.00  0.00     0.136 C 
ATOM      2  O   UNL     1      -1.294  10.128 -30.212  1.00  0.00    -0.299 OA
ENDROOT
BRANCH   1   3
ATOM      3  C   UNL     1      -0.146  12.188 -30.437  1.00  0.00     0.053 C 
ATOM      4  C   UNL     1       0.617  12.326 -31.759  1.00  0.00     0.016 C 
BRANCH   3   5
ATOM      5  C   UNL     1      -0.567  13.571 -29.902  1.00  0.00     0.015 C 
BRANCH   5   6
ATOM      6  C   UNL     1      -0.549  13.648 -28.360  1.00  0.00     0.028 C 
BRANCH   6   7
ATOM      7  C   UNL     1      -1.798  14.308 -27.822  1.00  0.00    -0.028 C 
ATOM      8  C   UNL     1      -2.955  13.701 -27.460  1.00  0.00    -0.070 CG0
ATOM      9  C   UNL     1      -4.051  14.577 -26.902  1.00  0.00     0.039 C 
ATOM     10  G   UNL     1      -3.233  12.214 -27.596  1.00  0.00     0.000 G0
ENDBRANCH   6   7
ENDBRANCH   5   6
ENDBRANCH   3   5
ENDBRANCH   1   3
BRANCH   1  11
ATOM     11  C   UNL     1      -2.615  11.826 -31.223  1.00  0.00     0.087 C 
BRANCH  11  12
ATOM     12  C   UNL     1      -3.456  12.677 -30.242  1.00  0.00     0.066 C 
BRANCH  12  13
ATOM     13  C   UNL     1      -3.850  11.932 -28.973  1.00  0.00     0.140 C 
ATOM     14  O   UNL     1      -4.660  11.020 -29.067  1.00  0.00    -0.299 OA
BRANCH  13  15
ATOM     15  C   UNL     1      -3.237  12.213 -27.619  1.00  0.00     0.106 CG0
ATOM     16  G   UNL     1      -2.946  13.694 -27.447  1.00  0.00     0.000 G0
ENDBRANCH  13  15
ENDBRANCH  12  13
BRANCH  12  17
ATOM     17  C   UNL     1      -4.668  13.363 -30.946  1.00  0.00    -0.006 C 
ATOM     18  C   UNL     1      -5.371  14.430 -30.091  1.00  0.00     0.008 C 
ATOM     19  C   UNL     1      -4.258  13.967 -32.298  1.00  0.00     0.008 C 
ENDBRANCH  12  17
ENDBRANCH  11  12
ENDBRANCH   1  11
TORSDOF 1
ENDMDL
MODEL 4
REMARK VINA RESULT:    -4.421      1.583      3.904
REMARK INTER + INTRA:          -6.546
REMARK INTER:                  -6.811
REMARK INTRA:                   0.266
REMARK UNBOUND:                 0.201
REMARK SMILES CC1=CCC[C@H](C)C(=O)C[C@@H](C(C)C)C(=O)C1
REMARK SMILES IDX 8 1 9 2 6 3 7 4 5 5 4 6 3 7 2 8 1 9 10 11 11 12 15 13 16 14
REMARK SMILES IDX 17 15 12 17 13 18 14 19
REMARK H PARENT
REMARK Flexibility Score: 70.00
ROOT
ATOM      1  C   UNL     1      -3.308  11.283 -28.651  1.00  0.00     0.136 C 
ATOM      2  O   UNL     1      -4.034  10.439 -29.158  1.00  0.00    -0.299 OA
ENDROOT
BRANCH   1   3
ATOM      3  C   UNL     1      -3.802  12.078 -27.464  1.00  0.00     0.053 C 
ATOM      4  C   UNL     1      -2.701  12.189 -26.403  1.00  0.00     0.016 C 
BRANCH   3   5
ATOM      5  C   UNL     1      -4.292  13.475 -27.892  1.00  0.00     0.015 C 
BRANCH   5   6
ATOM      6  C   UNL     1      -5.579  13.424 -28.744  1.00  0.00     0.028 C 
BRANCH   6   7
ATOM      7  C   UNL     1      -5.496  14.354 -29.932  1.00  0.00    -0.028 C 
ATOM      8  C   UNL     1      -4.828  14.144 -31.093  1.00  0.00    -0.070 CG0
ATOM      9  C   UNL     1      -4.936  15.209 -32.157  1.00  0.00     0.039 C 
ATOM     10  G   UNL     1      -3.966  12.929 -31.389  1.00  0.00     0.000 G0
ENDBRANCH   6   7
ENDBRANCH   5   6
ENDBRANCH   3   5
ENDBRANCH   1   3
BRANCH   1  11
ATOM     11  C   UNL     1      -1.953  11.584 -29.247  1.00  0.00     0.087 C 
BRANCH  11  12
ATOM     12  C   UNL     1      -1.817  13.032 -29.776  1.00  0.00     0.066 C 
BRANCH  12  13
ATOM     13  C   UNL     1      -2.493  13.254 -31.123  1.00  0.00     0.140 C 
ATOM     14  O   UNL     1      -1.805  13.650 -32.054  1.00  0.00    -0.299 OA
BRANCH  13  15
ATOM     15  C   UNL     1      -3.949  12.941 -31.385  1.00  0.00     0.106 CG0
ATOM     16  G   UNL     1      -4.829  14.145 -31.094  1.00  0.00     0.000 G0
ENDBRANCH  13  15
ENDBRANCH  12  13
BRANCH  12  17
ATOM     17  C   UNL     1      -0.340  13.535 -29.745  1.00  0.00    -0.006 C 
ATOM     18  C   UNL     1       0.108  14.085 -28.381  1.00  0.00     0.008 C 
ATOM     19  C   UNL     1       0.633  12.440 -30.210  1.00  0.00     0.008 C 
ENDBRANCH  12  17
ENDBRANCH  11  12
ENDBRANCH   1  11
TORSDOF 1
ENDMDL
MODEL 5
REMARK VINA RESULT:    -4.346      2.184      4.974
REMARK INTER + INTRA:          -6.431
REMARK INTER:                  -7.118
REMARK INTRA:                   0.687
REMARK UNBOUND:                 0.201
REMARK SMILES CC1=CCC[C@H](C)C(=O)C[C@@H](C(C)C)C(=O)C1
REMARK SMILES IDX 8 1 9 2 6 3 7 4 5 5 4 6 3 7 2 8 1 9 10 11 11 12 15 13 16 14
REMARK SMILES IDX 17 15 12 17 13 18 14 19
REMARK H PARENT
REMARK Flexibility Score: 70.00
ROOT
ATOM      1  C   UNL     1      -0.778  12.803 -29.782  1.00  0.00     0.136 C 
ATOM      2  O   UNL     1       0.428  12.601 -29.740  1.00  0.00    -0.299 OA
ENDROOT
BRANCH   1   3
ATOM      3  C   UNL     1      -1.527  12.591 -31.077  1.00  0.00     0.053 C 
ATOM      4  C   UNL     1      -2.194  11.211 -31.085  1.00  0.00     0.016 C 
BRANCH   3   5
ATOM      5  C   UNL     1      -2.569  13.702 -31.308  1.00  0.00     0.015 C 
BRANCH   5   6
ATOM      6  C   UNL     1      -4.023  13.189 -31.218  1.00  0.00     0.028 C 
BRANCH   6   7
ATOM      7  C   UNL     1      -4.963  14.267 -30.729  1.00  0.00    -0.028 C 
ATOM      8  C   UNL     1      -5.523  14.370 -29.499  1.00  0.00    -0.070 CG0
ATOM      9  C   UNL     1      -6.397  15.571 -29.234  1.00  0.00     0.039 C 
ATOM     10  G   UNL     1      -5.352  13.355 -28.381  1.00  0.00     0.000 G0
ENDBRANCH   6   7
ENDBRANCH   5   6
ENDBRANCH   3   5
ENDBRANCH   1   3
BRANCH   1  11
ATOM     11  C   UNL     1      -1.506  13.332 -28.568  1.00  0.00     0.087 C 
BRANCH  11  12
ATOM     12  C   UNL     1      -2.799  12.550 -28.233  1.00  0.00     0.066 C 
BRANCH  12  13
ATOM     13  C   UNL     1      -3.946  13.440 -27.772  1.00  0.00     0.140 C 
ATOM     14  O   UNL     1      -3.712  14.290 -26.924  1.00  0.00    -0.299 OA
BRANCH  13  15
ATOM     15  C   UNL     1      -5.338  13.375 -28.362  1.00  0.00     0.106 CG0
ATOM     16  G   UNL     1      -5.504  14.383 -29.486  1.00  0.00     0.000 G0
ENDBRANCH  13  15
ENDBRANCH  12  13
BRANCH  12  17
ATOM     17  C   UNL     1      -2.532  11.353 -27.269  1.00  0.00    -0.006 C 
ATOM     18  C   UNL     1      -3.126  11.532 -25.862  1.00  0.00     0.008 C 
ATOM     19  C   UNL     1      -3.020  10.028 -27.876  1.00  0.00     0.008 C 
ENDBRANCH  12  17
ENDBRANCH  11  12
ENDBRANCH   1  11
TORSDOF 1
ENDMDL
MODEL 6
REMARK VINA RESULT:    -4.307      2.219      4.158
REMARK INTER + INTRA:          -6.372
REMARK INTER:                  -6.632
REMARK INTRA:                   0.260
REMARK UNBOUND:                 0.201
REMARK SMILES CC1=CCC[C@H](C)C(=O)C[C@@H](C(C)C)C(=O)C1
REMARK SMILES IDX 8 1 9 2 6 3 7 4 5 5 4 6 3 7 2 8 1 9 10 11 11 12 15 13 16 14
REMARK SMILES IDX 17 15 12 17 13 18 14 19
REMARK H PARENT
REMARK Flexibility Score: 70.00
ROOT
ATOM      1  C   UNL     1      -1.147  13.889 -29.137  1.00  0.00     0.136 C 
ATOM      2  O   UNL     1      -0.559  14.506 -28.259  1.00  0.00    -0.299 OA
ENDROOT
BRANCH   1   3
ATOM      3  C   UNL     1      -0.394  13.439 -30.368  1.00  0.00     0.053 C 
ATOM      4  C   UNL     1       0.748  12.494 -29.976  1.00  0.00     0.016 C 
BRANCH   3   5
ATOM      5  C   UNL     1      -1.336  12.765 -31.384  1.00  0.00     0.015 C 
BRANCH   5   6
ATOM      6  C   UNL     1      -1.343  11.225 -31.266  1.00  0.00     0.028 C 
BRANCH   6   7
ATOM      7  C   UNL     1      -2.677  10.712 -30.776  1.00  0.00    -0.028 C 
ATOM      8  C   UNL     1      -3.072  10.553 -29.489  1.00  0.00    -0.070 CG0
ATOM      9  C   UNL     1      -4.480  10.065 -29.252  1.00  0.00     0.039 C 
ATOM     10  G   UNL     1      -2.195  10.810 -28.275  1.00  0.00     0.000 G0
ENDBRANCH   6   7
ENDBRANCH   5   6
ENDBRANCH   3   5
ENDBRANCH   1   3
BRANCH   1  11
ATOM     11  C   UNL     1      -2.633  13.639 -29.030  1.00  0.00     0.087 C 
BRANCH  11  12
ATOM     12  C   UNL     1      -3.090  13.221 -27.611  1.00  0.00     0.066 C 
BRANCH  12  13
ATOM     13  C   UNL     1      -2.810  11.759 -27.287  1.00  0.00     0.140 C 
ATOM     14  O   UNL     1      -3.160  11.334 -26.195  1.00  0.00    -0.299 OA
BRANCH  13  15
ATOM     15  C   UNL     1      -2.191  10.793 -28.272  1.00  0.00     0.106 CG0
ATOM     16  G   UNL     1      -3.095  10.582 -29.475  1.00  0.00     0.000 G0
ENDBRANCH  13  15
ENDBRANCH  12  13
BRANCH  12  17
ATOM     17  C   UNL     1      -4.565  13.639 -27.320  1.00  0.00    -0.006 C 
ATOM     18  C   UNL     1      -4.705  14.796 -26.317  1.00  0.00     0.008 C 
ATOM     19  C   UNL     1      -5.315  13.980 -28.617  1.00  0.00     0.008 C 
ENDBRANCH  12  17
ENDBRANCH  11  12
ENDBRANCH   1  11
TORSDOF 1
ENDMDL
MODEL 7
REMARK VINA RESULT:    -4.275      2.245      4.160
REMARK INTER + INTRA:          -6.323
REMARK INTER:                  -6.157
REMARK INTRA:                  -0.166
REMARK UNBOUND:                 0.201
REMARK SMILES CC1=CCC[C@H](C)C(=O)C[C@@H](C(C)C)C(=O)C1
REMARK SMILES IDX 8 1 9 2 6 3 7 4 5 5 4 6 3 7 2 8 1 9 10 11 11 12 15 13 16 14
REMARK SMILES IDX 17 15 12 17 13 18 14 19
REMARK H PARENT
REMARK Flexibility Score: 70.00
ROOT
ATOM      1  C   UNL     1      -4.345  13.721 -30.997  1.00  0.00     0.136 C 
ATOM      2  O   UNL     1      -4.781  14.615 -31.710  1.00  0.00    -0.299 OA
ENDROOT
BRANCH   1   3
ATOM      3  C   UNL     1      -3.203  12.862 -31.489  1.00  0.00     0.053 C 
ATOM      4  C   UNL     1      -1.877  13.624 -31.373  1.00  0.00     0.016 C 
BRANCH   3   5
ATOM      5  C   UNL     1      -3.135  11.528 -30.722  1.00  0.00     0.015 C 
BRANCH   5   6
ATOM      6  C   UNL     1      -1.930  11.450 -29.759  1.00  0.00     0.028 C 
BRANCH   6   7
ATOM      7  C   UNL     1      -2.370  11.177 -28.339  1.00  0.00    -0.028 C 
ATOM      8  C   UNL     1      -2.698  12.090 -27.392  1.00  0.00    -0.070 CG0
ATOM      9  C   UNL     1      -3.156  11.565 -26.053  1.00  0.00     0.039 C 
ATOM     10  G   UNL     1      -2.616  13.596 -27.575  1.00  0.00     0.000 G0
ENDBRANCH   6   7
ENDBRANCH   5   6
ENDBRANCH   3   5
ENDBRANCH   1   3
BRANCH   1  11
ATOM     11  C   UNL     1      -4.987  13.427 -29.661  1.00  0.00     0.087 C 
BRANCH  11  12
ATOM     12  C   UNL     1      -4.859  14.587 -28.644  1.00  0.00     0.066 C 
BRANCH  12  13
ATOM     13  C   UNL     1      -3.986  14.250 -27.442  1.00  0.00     0.140 C 
ATOM     14  O   UNL     1      -4.438  14.460 -26.325  1.00  0.00    -0.299 OA
BRANCH  13  15
ATOM     15  C   UNL     1      -2.624  13.604 -27.559  1.00  0.00     0.106 CG0
ATOM     16  G   UNL     1      -2.718  12.095 -27.403  1.00  0.00     0.000 G0
ENDBRANCH  13  15
ENDBRANCH  12  13
BRANCH  12  17
ATOM     17  C   UNL     1      -6.248  15.175 -28.243  1.00  0.00    -0.006 C 
ATOM     18  C   UNL     1      -6.589  16.508 -28.929  1.00  0.00     0.008 C 
ATOM     19  C   UNL     1      -7.376  14.160 -28.488  1.00  0.00     0.008 C 
ENDBRANCH  12  17
ENDBRANCH  11  12
ENDBRANCH   1  11
TORSDOF 1
ENDMDL
MODEL 8
REMARK VINA RESULT:    -4.004      2.055      4.091
REMARK INTER + INTRA:          -5.909
REMARK INTER:                  -6.937
REMARK INTRA:                   1.028
REMARK UNBOUND:                 0.201
REMARK SMILES CC1=CCC[C@H](C)C(=O)C[C@@H](C(C)C)C(=O)C1
REMARK SMILES IDX 8 1 9 2 6 3 7 4 5 5 4 6 3 7 2 8 1 9 10 11 11 12 15 13 16 14
REMARK SMILES IDX 17 15 12 17 13 18 14 19
REMARK H PARENT
REMARK Flexibility Score: 70.00
ROOT
ATOM      1  C   UNL     1      -1.679  12.889 -31.221  1.00  0.00     0.136 C 
ATOM      2  O   UNL     1      -1.181  14.005 -31.286  1.00  0.00    -0.299 OA
ENDROOT
BRANCH   1   3
ATOM      3  C   UNL     1      -0.786  11.670 -31.234  1.00  0.00     0.053 C 
ATOM      4  C   UNL     1       0.659  12.074 -31.551  1.00  0.00     0.016 C 
BRANCH   3   5
ATOM      5  C   UNL     1      -0.859  10.910 -29.895  1.00  0.00     0.015 C 
BRANCH   5   6
ATOM      6  C   UNL     1      -2.288  10.433 -29.554  1.00  0.00     0.028 C 
BRANCH   6   7
ATOM      7  C   UNL     1      -2.555  10.498 -28.068  1.00  0.00    -0.028 C 
ATOM      8  C   UNL     1      -2.844  11.600 -27.334  1.00  0.00    -0.070 CG0
ATOM      9  C   UNL     1      -3.120  11.400 -25.863  1.00  0.00     0.039 C 
ATOM     10  G   UNL     1      -2.889  13.017 -27.879  1.00  0.00     0.000 G0
ENDBRANCH   6   7
ENDBRANCH   5   6
ENDBRANCH   3   5
ENDBRANCH   1   3
BRANCH   1  11
ATOM     11  C   UNL     1      -3.181  12.723 -31.201  1.00  0.00     0.087 C 
BRANCH  11  12
ATOM     12  C   UNL     1      -3.901  13.713 -30.255  1.00  0.00     0.066 C 
BRANCH  12  13
ATOM     13  C   UNL     1      -4.063  13.190 -28.834  1.00  0.00     0.140 C 
ATOM     14  O   UNL     1      -5.176  12.833 -28.475  1.00  0.00    -0.299 OA
BRANCH  13  15
ATOM     15  C   UNL     1      -2.907  13.022 -27.873  1.00  0.00     0.106 CG0
ATOM     16  G   UNL     1      -2.856  11.608 -27.320  1.00  0.00     0.000 G0
ENDBRANCH  13  15
ENDBRANCH  12  13
BRANCH  12  17
ATOM     17  C   UNL     1      -5.235  14.246 -30.864  1.00  0.00    -0.006 C 
ATOM     18  C   UNL     1      -5.946  15.300 -29.999  1.00  0.00     0.008 C 
ATOM     19  C   UNL     1      -5.021  14.795 -32.283  1.00  0.00     0.008 C 
ENDBRANCH  12  17
ENDBRANCH  11  12
ENDBRANCH   1  11
TORSDOF 1
ENDMDL
MODEL 9
REMARK VINA RESULT:    -3.824      1.961      4.477
REMARK INTER + INTRA:          -5.635
REMARK INTER:                  -6.351
REMARK INTRA:                   0.716
REMARK UNBOUND:                 0.201
REMARK SMILES CC1=CCC[C@H](C)C(=O)C[C@@H](C(C)C)C(=O)C1
REMARK SMILES IDX 8 1 9 2 6 3 7 4 5 5 4 6 3 7 2 8 1 9 10 11 11 12 15 13 16 14
REMARK SMILES IDX 17 15 12 17 13 18 14 19
REMARK H PARENT
REMARK Flexibility Score: 70.00
ROOT
ATOM      1  C   UNL     1      -0.495  13.144 -29.119  1.00  0.00     0.136 C 
ATOM      2  O   UNL     1       0.666  13.146 -28.733  1.00  0.00    -0.299 OA
ENDROOT
BRANCH   1   3
ATOM      3  C   UNL     1      -0.861  12.403 -30.385  1.00  0.00     0.053 C 
ATOM      4  C   UNL     1       0.368  12.259 -31.290  1.00  0.00     0.016 C 
BRANCH   3   5
ATOM      5  C   UNL     1      -1.471  11.024 -30.068  1.00  0.00     0.015 C 
BRANCH   5   6
ATOM      6  C   UNL     1      -2.904  10.860 -30.623  1.00  0.00     0.028 C 
BRANCH   6   7
ATOM      7  C   UNL     1      -3.354  12.094 -31.370  1.00  0.00    -0.028 C 
ATOM      8  C   UNL     1      -4.204  13.054 -30.931  1.00  0.00    -0.070 CG0
ATOM      9  C   UNL     1      -4.464  14.222 -31.851  1.00  0.00     0.039 C 
ATOM     10  G   UNL     1      -4.927  13.027 -29.595  1.00  0.00     0.000 G0
ENDBRANCH   6   7
ENDBRANCH   5   6
ENDBRANCH   3   5
ENDBRANCH   1   3
BRANCH   1  11
ATOM     11  C   UNL     1      -1.548  13.936 -28.378  1.00  0.00     0.087 C 
BRANCH  11  12
ATOM     12  C   UNL     1      -2.790  13.100 -27.988  1.00  0.00     0.066 C 
BRANCH  12  13
ATOM     13  C   UNL     1      -4.101  13.675 -28.511  1.00  0.00     0.140 C 
ATOM     14  O   UNL     1      -4.468  14.758 -28.078  1.00  0.00    -0.299 OA
BRANCH  13  15
ATOM     15  C   UNL     1      -4.929  13.010 -29.587  1.00  0.00     0.106 CG0
ATOM     16  G   UNL     1      -4.222  13.057 -30.931  1.00  0.00     0.000 G0
ENDBRANCH  13  15
ENDBRANCH  12  13
BRANCH  12  17
ATOM     17  C   UNL     1      -2.831  12.782 -26.460  1.00  0.00    -0.006 C 
ATOM     18  C   UNL     1      -3.902  13.564 -25.683  1.00  0.00     0.008 C 
ATOM     19  C   UNL     1      -2.999  11.276 -26.208  1.00  0.00     0.008 C 
ENDBRANCH  12  17
ENDBRANCH  11  12
ENDBRANCH   1  11
TORSDOF 1
ENDMDL
