MODEL 1
REMARK VINA RESULT:    -2.725      0.000      0.000
REMARK INTER + INTRA:          -3.970
REMARK INTER:                  -3.681
REMARK INTRA:                  -0.289
REMARK UNBOUND:                -0.289
REMARK SMILES CCCCCCCC(=O)[O-]
REMARK SMILES IDX 5 1 6 2 7 3 8 4 9 5 10 6 4 7 3 8 2 9 1 10
REMARK H PARENT
REMARK Flexibility Score: inf
ROOT
ATOM      1  C   UNL     1     168.091 169.201 152.175  1.00  0.00     0.000 C 
ENDROOT
BRANCH   1   2
ATOM      2  C   UNL     1     169.333 169.207 151.268  1.00  0.00     0.006 C 
BRANCH   2   3
ATOM      3  C   UNL     1     169.616 170.582 150.651  1.00  0.00     0.053 C 
BRANCH   3   4
ATOM      4  C   UNL     1     169.705 170.478 149.161  1.00  0.00     0.041 C 
ATOM      5  O   UNL     1     170.658 169.856 148.625  1.00  0.00    -0.550 OA
ATOM      6  O   UNL     1     168.706 171.027 148.366  1.00  0.00    -0.550 OA
ENDBRANCH   3   4
ENDBRANCH   2   3
ENDBRANCH   1   2
BRANCH   1   7
ATOM      7  C   UNL     1     167.649 170.610 152.626  1.00  0.00     0.000 C 
BRANCH   7   8
ATOM      8  C   UNL     1     168.181 170.965 154.025  1.00  0.00    -0.000 C 
BRANCH   8   9
ATOM      9  C   UNL     1     167.764 169.943 155.094  1.00  0.00    -0.003 C 
ATOM     10  C   UNL     1     166.334 170.156 155.588  1.00  0.00     0.004 C 
ENDBRANCH   8   9
ENDBRANCH   7   8
ENDBRANCH   1   7
TORSDOF 6
ENDMDL
MODEL 2
REMARK VINA RESULT:    -2.699     17.462     18.310
REMARK INTER + INTRA:          -3.935
REMARK INTER:                  -3.439
REMARK INTRA:                  -0.496
REMARK UNBOUND:                -0.289
REMARK SMILES CCCCCCCC(=O)[O-]
REMARK SMILES IDX 5 1 6 2 7 3 8 4 9 5 10 6 4 7 3 8 2 9 1 10
REMARK H PARENT
REMARK Flexibility Score: inf
ROOT
ATOM      1  C   UNL     1     170.536 152.689 153.958  1.00  0.00     0.000 C 
ENDROOT
BRANCH   1   2
ATOM      2  C   UNL     1     171.703 153.557 153.459  1.00  0.00     0.006 C 
BRANCH   2   3
ATOM      3  C   UNL     1     172.775 152.748 152.719  1.00  0.00     0.053 C 
BRANCH   3   4
ATOM      4  C   UNL     1     172.486 152.714 151.252  1.00  0.00     0.041 C 
ATOM      5  O   UNL     1     172.086 153.750 150.661  1.00  0.00    -0.550 OA
ATOM      6  O   UNL     1     172.706 151.548 150.527  1.00  0.00    -0.550 OA
ENDBRANCH   3   4
ENDBRANCH   2   3
ENDBRANCH   1   2
BRANCH   1   7
ATOM      7  C   UNL     1     170.974 151.300 154.472  1.00  0.00     0.000 C 
BRANCH   7   8
ATOM      8  C   UNL     1     171.175 151.284 155.997  1.00  0.00    -0.000 C 
BRANCH   8   9
ATOM      9  C   UNL     1     172.623 151.593 156.407  1.00  0.00    -0.003 C 
ATOM     10  C   UNL     1     172.760 152.938 157.121  1.00  0.00     0.004 C 
ENDBRANCH   8   9
ENDBRANCH   7   8
ENDBRANCH   1   7
TORSDOF 6
ENDMDL
MODEL 3
REMARK VINA RESULT:    -2.676      2.551      3.692
REMARK INTER + INTRA:          -3.904
REMARK INTER:                  -3.285
REMARK INTRA:                  -0.619
REMARK UNBOUND:                -0.289
REMARK SMILES CCCCCCCC(=O)[O-]
REMARK SMILES IDX 5 1 6 2 7 3 8 4 9 5 10 6 4 7 3 8 2 9 1 10
REMARK H PARENT
REMARK Flexibility Score: inf
ROOT
ATOM      1  C   UNL     1     169.299 169.115 149.166  1.00  0.00     0.000 C 
ENDROOT
BRANCH   1   2
ATOM      2  C   UNL     1     168.158 170.065 148.765  1.00  0.00     0.006 C 
BRANCH   2   3
ATOM      3  C   UNL     1     166.814 169.346 148.595  1.00  0.00     0.053 C 
BRANCH   3   4
ATOM      4  C   UNL     1     165.807 169.885 149.562  1.00  0.00     0.041 C 
ATOM      5  O   UNL     1     165.615 171.125 149.653  1.00  0.00    -0.550 OA
ATOM      6  O   UNL     1     165.044 169.012 150.328  1.00  0.00    -0.550 OA
ENDBRANCH   3   4
ENDBRANCH   2   3
ENDBRANCH   1   2
BRANCH   1   7
ATOM      7  C   UNL     1     169.645 169.165 150.670  1.00  0.00     0.000 C 
BRANCH   7   8
ATOM      8  C   UNL     1     169.314 170.531 151.296  1.00  0.00    -0.000 C 
BRANCH   8   9
ATOM      9  C   UNL     1     168.250 170.433 152.400  1.00  0.00    -0.003 C 
ATOM     10  C   UNL     1     167.771 169.001 152.634  1.00  0.00     0.004 C 
ENDBRANCH   8   9
ENDBRANCH   7   8
ENDBRANCH   1   7
TORSDOF 6
ENDMDL
MODEL 4
REMARK VINA RESULT:    -2.671      3.614      4.786
REMARK INTER + INTRA:          -3.897
REMARK INTER:                  -3.290
REMARK INTRA:                  -0.606
REMARK UNBOUND:                -0.289
REMARK SMILES CCCCCCCC(=O)[O-]
REMARK SMILES IDX 5 1 6 2 7 3 8 4 9 5 10 6 4 7 3 8 2 9 1 10
REMARK H PARENT
REMARK Flexibility Score: inf
ROOT
ATOM      1  C   UNL     1     166.762 169.584 148.893  1.00  0.00     0.000 C 
ENDROOT
BRANCH   1   2
ATOM      2  C   UNL     1     165.278 169.866 149.179  1.00  0.00     0.006 C 
BRANCH   2   3
ATOM      3  C   UNL     1     165.063 170.710 150.442  1.00  0.00     0.053 C 
BRANCH   3   4
ATOM      4  C   UNL     1     164.450 169.882 151.526  1.00  0.00     0.041 C 
ATOM      5  O   UNL     1     163.620 170.394 152.322  1.00  0.00    -0.550 OA
ATOM      6  O   UNL     1     164.758 168.531 151.627  1.00  0.00    -0.550 OA
ENDBRANCH   3   4
ENDBRANCH   2   3
ENDBRANCH   1   2
BRANCH   1   7
ATOM      7  C   UNL     1     167.727 170.323 149.845  1.00  0.00     0.000 C 
BRANCH   7   8
ATOM      8  C   UNL     1     168.733 169.367 150.509  1.00  0.00    -0.000 C 
BRANCH   8   9
ATOM      9  C   UNL     1     168.279 168.904 151.901  1.00  0.00    -0.003 C 
ATOM     10  C   UNL     1     167.995 170.069 152.848  1.00  0.00     0.004 C 
ENDBRANCH   8   9
ENDBRANCH   7   8
ENDBRANCH   1   7
TORSDOF 6
ENDMDL
MODEL 5
REMARK VINA RESULT:    -2.665      2.482      3.532
REMARK INTER + INTRA:          -3.888
REMARK INTER:                  -3.311
REMARK INTRA:                  -0.577
REMARK UNBOUND:                -0.289
REMARK SMILES CCCCCCCC(=O)[O-]
REMARK SMILES IDX 5 1 6 2 7 3 8 4 9 5 10 6 4 7 3 8 2 9 1 10
REMARK H PARENT
REMARK Flexibility Score: inf
ROOT
ATOM      1  C   UNL     1     165.545 170.187 151.217  1.00  0.00     0.000 C 
ENDROOT
BRANCH   1   2
ATOM      2  C   UNL     1     165.325 170.387 149.708  1.00  0.00     0.006 C 
BRANCH   2   3
ATOM      3  C   UNL     1     165.620 169.124 148.889  1.00  0.00     0.053 C 
BRANCH   3   4
ATOM      4  C   UNL     1     166.998 169.189 148.309  1.00  0.00     0.041 C 
ATOM      5  O   UNL     1     167.692 170.230 148.439  1.00  0.00    -0.550 OA
ATOM      6  O   UNL     1     167.533 168.079 147.666  1.00  0.00    -0.550 OA
ENDBRANCH   3   4
ENDBRANCH   2   3
ENDBRANCH   1   2
BRANCH   1   7
ATOM      7  C   UNL     1     166.695 171.042 151.792  1.00  0.00     0.000 C 
BRANCH   7   8
ATOM      8  C   UNL     1     167.684 170.203 152.620  1.00  0.00    -0.000 C 
BRANCH   8   9
ATOM      9  C   UNL     1     168.051 168.877 151.936  1.00  0.00    -0.003 C 
ATOM     10  C   UNL     1     169.365 168.957 151.159  1.00  0.00     0.004 C 
ENDBRANCH   8   9
ENDBRANCH   7   8
ENDBRANCH   1   7
TORSDOF 6
ENDMDL
MODEL 6
REMARK VINA RESULT:    -2.663      3.686      5.054
REMARK INTER + INTRA:          -3.886
REMARK INTER:                  -3.493
REMARK INTRA:                  -0.393
REMARK UNBOUND:                -0.289
REMARK SMILES CCCCCCCC(=O)[O-]
REMARK SMILES IDX 5 1 6 2 7 3 8 4 9 5 10 6 4 7 3 8 2 9 1 10
REMARK H PARENT
REMARK Flexibility Score: inf
ROOT
ATOM      1  C   UNL     1     169.107 169.350 150.622  1.00  0.00     0.000 C 
ENDROOT
BRANCH   1   2
ATOM      2  C   UNL     1     168.356 168.869 151.874  1.00  0.00     0.006 C 
BRANCH   2   3
ATOM      3  C   UNL     1     167.911 170.021 152.784  1.00  0.00     0.053 C 
BRANCH   3   4
ATOM      4  C   UNL     1     167.376 169.490 154.076  1.00  0.00     0.041 C 
ATOM      5  O   UNL     1     166.451 168.638 154.077  1.00  0.00    -0.550 OA
ATOM      6  O   UNL     1     167.936 169.901 155.280  1.00  0.00    -0.550 OA
ENDBRANCH   3   4
ENDBRANCH   2   3
ENDBRANCH   1   2
BRANCH   1   7
ATOM      7  C   UNL     1     168.289 170.325 149.747  1.00  0.00     0.000 C 
BRANCH   7   8
ATOM      8  C   UNL     1     167.208 169.601 148.927  1.00  0.00    -0.000 C 
BRANCH   8   9
ATOM      9  C   UNL     1     165.784 170.015 149.328  1.00  0.00    -0.003 C 
ATOM     10  C   UNL     1     164.894 168.819 149.666  1.00  0.00     0.004 C 
ENDBRANCH   8   9
ENDBRANCH   7   8
ENDBRANCH   1   7
TORSDOF 6
ENDMDL
MODEL 7
REMARK VINA RESULT:    -2.653      2.677      3.247
REMARK INTER + INTRA:          -3.873
REMARK INTER:                  -3.433
REMARK INTRA:                  -0.440
REMARK UNBOUND:                -0.289
REMARK SMILES CCCCCCCC(=O)[O-]
REMARK SMILES IDX 5 1 6 2 7 3 8 4 9 5 10 6 4 7 3 8 2 9 1 10
REMARK H PARENT
REMARK Flexibility Score: inf
ROOT
ATOM      1  C   UNL     1     167.846 169.256 152.528  1.00  0.00     0.000 C 
ENDROOT
BRANCH   1   2
ATOM      2  C   UNL     1     167.528 169.691 151.088  1.00  0.00     0.006 C 
BRANCH   2   3
ATOM      3  C   UNL     1     166.532 170.856 151.023  1.00  0.00     0.053 C 
BRANCH   3   4
ATOM      4  C   UNL     1     165.206 170.383 150.517  1.00  0.00     0.041 C 
ATOM      5  O   UNL     1     164.430 169.745 151.275  1.00  0.00    -0.550 OA
ATOM      6  O   UNL     1     164.807 170.688 149.222  1.00  0.00    -0.550 OA
ENDBRANCH   3   4
ENDBRANCH   2   3
ENDBRANCH   1   2
BRANCH   1   7
ATOM      7  C   UNL     1     168.068 170.438 153.497  1.00  0.00     0.000 C 
BRANCH   7   8
ATOM      8  C   UNL     1     167.589 170.117 154.923  1.00  0.00    -0.000 C 
BRANCH   8   9
ATOM      9  C   UNL     1     166.307 170.875 155.301  1.00  0.00    -0.003 C 
ATOM     10  C   UNL     1     165.037 170.138 154.877  1.00  0.00     0.004 C 
ENDBRANCH   8   9
ENDBRANCH   7   8
ENDBRANCH   1   7
TORSDOF 6
ENDMDL
MODEL 8
REMARK VINA RESULT:    -2.649     16.903     17.764
REMARK INTER + INTRA:          -3.868
REMARK INTER:                  -3.328
REMARK INTRA:                  -0.540
REMARK UNBOUND:                -0.289
REMARK SMILES CCCCCCCC(=O)[O-]
REMARK SMILES IDX 5 1 6 2 7 3 8 4 9 5 10 6 4 7 3 8 2 9 1 10
REMARK H PARENT
REMARK Flexibility Score: inf
ROOT
ATOM      1  C   UNL     1     170.777 152.453 153.568  1.00  0.00     0.000 C 
ENDROOT
BRANCH   1   2
ATOM      2  C   UNL     1     171.890 152.403 152.509  1.00  0.00     0.006 C 
BRANCH   2   3
ATOM      3  C   UNL     1     173.124 153.227 152.899  1.00  0.00     0.053 C 
BRANCH   3   4
ATOM      4  C   UNL     1     172.833 154.690 152.785  1.00  0.00     0.041 C 
ATOM      5  O   UNL     1     172.940 155.438 153.791  1.00  0.00    -0.550 OA
ATOM      6  O   UNL     1     172.491 155.236 151.554  1.00  0.00    -0.550 OA
ENDBRANCH   3   4
ENDBRANCH   2   3
ENDBRANCH   1   2
BRANCH   1   7
ATOM      7  C   UNL     1     170.715 151.193 154.459  1.00  0.00     0.000 C 
BRANCH   7   8
ATOM      8  C   UNL     1     170.967 151.518 155.941  1.00  0.00    -0.000 C 
BRANCH   8   9
ATOM      9  C   UNL     1     172.460 151.676 156.267  1.00  0.00    -0.003 C 
ATOM     10  C   UNL     1     172.818 153.088 156.729  1.00  0.00     0.004 C 
ENDBRANCH   8   9
ENDBRANCH   7   8
ENDBRANCH   1   7
TORSDOF 6
ENDMDL
MODEL 9
REMARK VINA RESULT:    -2.630      2.162      3.454
REMARK INTER + INTRA:          -3.842
REMARK INTER:                  -3.284
REMARK INTRA:                  -0.557
REMARK UNBOUND:                -0.289
REMARK SMILES CCCCCCCC(=O)[O-]
REMARK SMILES IDX 5 1 6 2 7 3 8 4 9 5 10 6 4 7 3 8 2 9 1 10
REMARK H PARENT
REMARK Flexibility Score: inf
ROOT
ATOM      1  C   UNL     1     168.157 169.222 152.103  1.00  0.00     0.000 C 
ENDROOT
BRANCH   1   2
ATOM      2  C   UNL     1     169.201 169.880 151.185  1.00  0.00     0.006 C 
BRANCH   2   3
ATOM      3  C   UNL     1     169.990 168.862 150.352  1.00  0.00     0.053 C 
BRANCH   3   4
ATOM      4  C   UNL     1     169.704 169.045 148.895  1.00  0.00     0.041 C 
ATOM      5  O   UNL     1     169.153 170.099 148.485  1.00  0.00    -0.550 OA
ATOM      6  O   UNL     1     170.093 168.071 147.984  1.00  0.00    -0.550 OA
ENDBRANCH   3   4
ENDBRANCH   2   3
ENDBRANCH   1   2
BRANCH   1   7
ATOM      7  C   UNL     1     166.712 169.326 151.570  1.00  0.00     0.000 C 
BRANCH   7   8
ATOM      8  C   UNL     1     166.486 170.609 150.752  1.00  0.00    -0.000 C 
BRANCH   8   9
ATOM      9  C   UNL     1     165.503 170.405 149.590  1.00  0.00    -0.003 C 
ATOM     10  C   UNL     1     165.770 169.119 148.809  1.00  0.00     0.004 C 
ENDBRANCH   8   9
ENDBRANCH   7   8
ENDBRANCH   1   7
TORSDOF 6
ENDMDL
