MODEL 1
REMARK VINA RESULT:    -4.149      0.000      0.000
REMARK INTER + INTRA:          -5.242
REMARK INTER:                  -5.119
REMARK INTRA:                  -0.123
REMARK UNBOUND:                -0.123
REMARK SMILES CCCCC=CC(C)=O
REMARK SMILES IDX 4 1 3 2 2 3 1 4 5 5 6 6 7 7 9 8 8 9
REMARK H PARENT
REMARK Flexibility Score: inf
ROOT
ATOM      1  C   UNL     1       0.560   4.915  63.452  1.00  0.00     0.027 C 
ENDROOT
BRANCH   1   2
ATOM      2  C   UNL     1       0.844   5.102  61.951  1.00  0.00     0.004 C 
BRANCH   2   3
ATOM      3  C   UNL     1       2.334   5.290  61.613  1.00  0.00    -0.003 C 
ATOM      4  C   UNL     1       3.209   4.148  62.131  1.00  0.00     0.004 C 
ENDBRANCH   2   3
ENDBRANCH   1   2
BRANCH   1   5
ATOM      5  C   UNL     1      -0.870   5.209  63.810  1.00  0.00    -0.023 C 
ATOM      6  C   UNL     1      -1.875   4.460  63.347  1.00  0.00     0.042 C 
BRANCH   6   7
ATOM      7  C   UNL     1      -3.284   4.735  63.683  1.00  0.00     0.152 C 
ATOM      8  O   UNL     1      -3.609   5.793  64.286  1.00  0.00    -0.295 OA
ATOM      9  C   UNL     1      -4.341   3.744  63.312  1.00  0.00     0.093 C 
ENDBRANCH   6   7
ENDBRANCH   1   5
TORSDOF 4
ENDMDL
MODEL 2
REMARK VINA RESULT:    -4.143      2.555      5.586
REMARK INTER + INTRA:          -5.235
REMARK INTER:                  -5.152
REMARK INTRA:                  -0.083
REMARK UNBOUND:                -0.123
REMARK SMILES CCCCC=CC(C)=O
REMARK SMILES IDX 4 1 3 2 2 3 1 4 5 5 6 6 7 7 9 8 8 9
REMARK H PARENT
REMARK Flexibility Score: inf
ROOT
ATOM      1  C   UNL     1      -0.570   5.355  63.666  1.00  0.00     0.027 C 
ENDROOT
BRANCH   1   2
ATOM      2  C   UNL     1      -1.727   4.390  63.352  1.00  0.00     0.004 C 
BRANCH   2   3
ATOM      3  C   UNL     1      -3.113   4.915  63.768  1.00  0.00    -0.003 C 
ATOM      4  C   UNL     1      -4.242   3.941  63.432  1.00  0.00     0.004 C 
ENDBRANCH   2   3
ENDBRANCH   1   2
BRANCH   1   5
ATOM      5  C   UNL     1       0.593   5.188  62.727  1.00  0.00    -0.023 C 
ATOM      6  C   UNL     1       1.759   4.683  63.142  1.00  0.00     0.042 C 
BRANCH   6   7
ATOM      7  C   UNL     1       2.912   4.516  62.239  1.00  0.00     0.152 C 
ATOM      8  O   UNL     1       3.211   5.410  61.402  1.00  0.00    -0.295 OA
ATOM      9  C   UNL     1       3.734   3.269  62.310  1.00  0.00     0.093 C 
ENDBRANCH   6   7
ENDBRANCH   1   5
TORSDOF 4
ENDMDL
MODEL 3
REMARK VINA RESULT:    -4.059      3.266      6.131
REMARK INTER + INTRA:          -5.132
REMARK INTER:                  -4.966
REMARK INTRA:                  -0.166
REMARK UNBOUND:                -0.123
REMARK SMILES CCCCC=CC(C)=O
REMARK SMILES IDX 4 1 3 2 2 3 1 4 5 5 6 6 7 7 9 8 8 9
REMARK H PARENT
REMARK Flexibility Score: inf
ROOT
ATOM      1  C   UNL     1       0.838   5.064  61.782  1.00  0.00     0.027 C 
ENDROOT
BRANCH   1   2
ATOM      2  C   UNL     1       0.246   5.609  63.094  1.00  0.00     0.004 C 
BRANCH   2   3
ATOM      3  C   UNL     1      -0.597   4.585  63.875  1.00  0.00    -0.003 C 
ATOM      4  C   UNL     1      -2.065   4.577  63.449  1.00  0.00     0.004 C 
ENDBRANCH   2   3
ENDBRANCH   1   2
BRANCH   1   5
ATOM      5  C   UNL     1       2.340   5.118  61.759  1.00  0.00    -0.023 C 
ATOM      6  C   UNL     1       3.083   4.095  62.193  1.00  0.00     0.042 C 
BRANCH   6   7
ATOM      7  C   UNL     1       4.557   4.130  62.183  1.00  0.00     0.152 C 
ATOM      8  O   UNL     1       5.228   3.231  62.759  1.00  0.00    -0.295 OA
ATOM      9  C   UNL     1       5.266   5.248  61.488  1.00  0.00     0.093 C 
ENDBRANCH   6   7
ENDBRANCH   1   5
TORSDOF 4
ENDMDL
MODEL 4
REMARK VINA RESULT:    -4.003      2.436      5.290
REMARK INTER + INTRA:          -5.063
REMARK INTER:                  -4.920
REMARK INTRA:                  -0.143
REMARK UNBOUND:                -0.123
REMARK SMILES CCCCC=CC(C)=O
REMARK SMILES IDX 4 1 3 2 2 3 1 4 5 5 6 6 7 7 9 8 8 9
REMARK H PARENT
REMARK Flexibility Score: inf
ROOT
ATOM      1  C   UNL     1      -0.949   4.437  64.393  1.00  0.00     0.027 C 
ENDROOT
BRANCH   1   2
ATOM      2  C   UNL     1      -2.155   4.660  63.465  1.00  0.00     0.004 C 
BRANCH   2   3
ATOM      3  C   UNL     1      -3.511   4.307  64.101  1.00  0.00    -0.003 C 
ATOM      4  C   UNL     1      -4.420   3.515  63.162  1.00  0.00     0.004 C 
ENDBRANCH   2   3
ENDBRANCH   1   2
BRANCH   1   5
ATOM      5  C   UNL     1       0.362   4.746  63.723  1.00  0.00    -0.023 C 
ATOM      6  C   UNL     1       0.429   5.042  62.422  1.00  0.00     0.042 C 
BRANCH   6   7
ATOM      7  C   UNL     1       1.705   5.342  61.746  1.00  0.00     0.152 C 
ATOM      8  O   UNL     1       2.708   4.593  61.898  1.00  0.00    -0.295 OA
ATOM      9  C   UNL     1       1.814   6.554  60.876  1.00  0.00     0.093 C 
ENDBRANCH   6   7
ENDBRANCH   1   5
TORSDOF 4
ENDMDL
MODEL 5
REMARK VINA RESULT:    -3.996      1.429      2.207
REMARK INTER + INTRA:          -5.054
REMARK INTER:                  -4.869
REMARK INTRA:                  -0.185
REMARK UNBOUND:                -0.123
REMARK SMILES CCCCC=CC(C)=O
REMARK SMILES IDX 4 1 3 2 2 3 1 4 5 5 6 6 7 7 9 8 8 9
REMARK H PARENT
REMARK Flexibility Score: inf
ROOT
ATOM      1  C   UNL     1       1.635   5.867  61.668  1.00  0.00     0.027 C 
ENDROOT
BRANCH   1   2
ATOM      2  C   UNL     1       3.024   5.210  61.585  1.00  0.00     0.004 C 
BRANCH   2   3
ATOM      3  C   UNL     1       3.122   3.856  62.311  1.00  0.00    -0.003 C 
ATOM      4  C   UNL     1       4.551   3.318  62.374  1.00  0.00     0.004 C 
ENDBRANCH   2   3
ENDBRANCH   1   2
BRANCH   1   5
ATOM      5  C   UNL     1       0.619   4.987  62.341  1.00  0.00    -0.023 C 
ATOM      6  C   UNL     1      -0.172   5.451  63.314  1.00  0.00     0.042 C 
BRANCH   6   7
ATOM      7  C   UNL     1      -1.172   4.603  63.989  1.00  0.00     0.152 C 
ATOM      8  O   UNL     1      -0.880   3.977  65.044  1.00  0.00    -0.295 OA
ATOM      9  C   UNL     1      -2.546   4.477  63.414  1.00  0.00     0.093 C 
ENDBRANCH   6   7
ENDBRANCH   1   5
TORSDOF 4
ENDMDL
MODEL 6
REMARK VINA RESULT:    -3.927      1.337      1.462
REMARK INTER + INTRA:          -4.968
REMARK INTER:                  -4.848
REMARK INTRA:                  -0.120
REMARK UNBOUND:                -0.123
REMARK SMILES CCCCC=CC(C)=O
REMARK SMILES IDX 4 1 3 2 2 3 1 4 5 5 6 6 7 7 9 8 8 9
REMARK H PARENT
REMARK Flexibility Score: inf
ROOT
ATOM      1  C   UNL     1      -0.240   4.726  63.666  1.00  0.00     0.027 C 
ENDROOT
BRANCH   1   2
ATOM      2  C   UNL     1       0.620   5.734  62.885  1.00  0.00     0.004 C 
BRANCH   2   3
ATOM      3  C   UNL     1       1.273   5.153  61.617  1.00  0.00    -0.003 C 
ATOM      4  C   UNL     1       2.667   4.582  61.876  1.00  0.00     0.004 C 
ENDBRANCH   2   3
ENDBRANCH   1   2
BRANCH   1   5
ATOM      5  C   UNL     1      -1.689   4.769  63.265  1.00  0.00    -0.023 C 
ATOM      6  C   UNL     1      -2.637   4.191  64.008  1.00  0.00     0.042 C 
BRANCH   6   7
ATOM      7  C   UNL     1      -4.062   4.218  63.629  1.00  0.00     0.152 C 
ATOM      8  O   UNL     1      -4.535   3.359  62.837  1.00  0.00    -0.295 OA
ATOM      9  C   UNL     1      -4.956   5.280  64.185  1.00  0.00     0.093 C 
ENDBRANCH   6   7
ENDBRANCH   1   5
TORSDOF 4
ENDMDL
MODEL 7
REMARK VINA RESULT:    -3.860      2.350      5.305
REMARK INTER + INTRA:          -4.886
REMARK INTER:                  -4.696
REMARK INTRA:                  -0.191
REMARK UNBOUND:                -0.123
REMARK SMILES CCCCC=CC(C)=O
REMARK SMILES IDX 4 1 3 2 2 3 1 4 5 5 6 6 7 7 9 8 8 9
REMARK H PARENT
REMARK Flexibility Score: inf
ROOT
ATOM      1  C   UNL     1      -2.014   4.291  64.149  1.00  0.00     0.027 C 
ENDROOT
BRANCH   1   2
ATOM      2  C   UNL     1      -3.357   4.348  63.401  1.00  0.00     0.004 C 
BRANCH   2   3
ATOM      3  C   UNL     1      -4.473   5.079  64.170  1.00  0.00    -0.003 C 
ATOM      4  C   UNL     1      -4.007   6.403  64.777  1.00  0.00     0.004 C 
ENDBRANCH   2   3
ENDBRANCH   1   2
BRANCH   1   5
ATOM      5  C   UNL     1      -0.853   4.698  63.283  1.00  0.00    -0.023 C 
ATOM      6  C   UNL     1       0.387   4.785  63.772  1.00  0.00     0.042 C 
BRANCH   6   7
ATOM      7  C   UNL     1       1.537   5.186  62.941  1.00  0.00     0.152 C 
ATOM      8  O   UNL     1       2.650   5.459  63.467  1.00  0.00    -0.295 OA
ATOM      9  C   UNL     1       1.382   5.276  61.456  1.00  0.00     0.093 C 
ENDBRANCH   6   7
ENDBRANCH   1   5
TORSDOF 4
ENDMDL
MODEL 8
REMARK VINA RESULT:    -3.579      1.654      2.157
REMARK INTER + INTRA:          -4.539
REMARK INTER:                  -4.364
REMARK INTRA:                  -0.175
REMARK UNBOUND:                -0.123
REMARK SMILES CCCCC=CC(C)=O
REMARK SMILES IDX 4 1 3 2 2 3 1 4 5 5 6 6 7 7 9 8 8 9
REMARK H PARENT
REMARK Flexibility Score: inf
ROOT
ATOM      1  C   UNL     1       1.290   5.202  62.473  1.00  0.00     0.027 C 
ENDROOT
BRANCH   1   2
ATOM      2  C   UNL     1       1.412   5.683  61.017  1.00  0.00     0.004 C 
BRANCH   2   3
ATOM      3  C   UNL     1       1.801   7.166  60.876  1.00  0.00    -0.003 C 
ATOM      4  C   UNL     1       1.502   7.980  62.135  1.00  0.00     0.004 C 
ENDBRANCH   2   3
ENDBRANCH   1   2
BRANCH   1   5
ATOM      5  C   UNL     1      -0.128   4.882  62.859  1.00  0.00    -0.023 C 
ATOM      6  C   UNL     1      -0.483   4.710  64.136  1.00  0.00     0.042 C 
BRANCH   6   7
ATOM      7  C   UNL     1      -1.866   4.391  64.534  1.00  0.00     0.152 C 
ATOM      8  O   UNL     1      -2.133   4.040  65.715  1.00  0.00    -0.295 OA
ATOM      9  C   UNL     1      -2.966   4.477  63.525  1.00  0.00     0.093 C 
ENDBRANCH   6   7
ENDBRANCH   1   5
TORSDOF 4
ENDMDL
MODEL 9
REMARK VINA RESULT:    -3.549      2.881      5.250
REMARK INTER + INTRA:          -4.502
REMARK INTER:                  -4.299
REMARK INTRA:                  -0.203
REMARK UNBOUND:                -0.123
REMARK SMILES CCCCC=CC(C)=O
REMARK SMILES IDX 4 1 3 2 2 3 1 4 5 5 6 6 7 7 9 8 8 9
REMARK H PARENT
REMARK Flexibility Score: inf
ROOT
ATOM      1  C   UNL     1      -0.836   4.793  63.139  1.00  0.00     0.027 C 
ENDROOT
BRANCH   1   2
ATOM      2  C   UNL     1      -1.276   4.412  64.564  1.00  0.00     0.004 C 
BRANCH   2   3
ATOM      3  C   UNL     1      -0.119   3.979  65.483  1.00  0.00    -0.003 C 
ATOM      4  C   UNL     1      -0.306   4.439  66.929  1.00  0.00     0.004 C 
ENDBRANCH   2   3
ENDBRANCH   1   2
BRANCH   1   5
ATOM      5  C   UNL     1       0.656   4.929  63.012  1.00  0.00    -0.023 C 
ATOM      6  C   UNL     1       1.230   5.283  61.858  1.00  0.00     0.042 C 
BRANCH   6   7
ATOM      7  C   UNL     1       2.691   5.418  61.712  1.00  0.00     0.152 C 
ATOM      8  O   UNL     1       3.202   6.494  61.300  1.00  0.00    -0.295 OA
ATOM      9  C   UNL     1       3.578   4.263  62.050  1.00  0.00     0.093 C 
ENDBRANCH   6   7
ENDBRANCH   1   5
TORSDOF 4
ENDMDL
