MODEL 1
REMARK VINA RESULT:     5.646      0.000      0.000
REMARK INTER + INTRA:           7.364
REMARK INTER:                   6.966
REMARK INTRA:                   0.398
REMARK UNBOUND:                 0.398
REMARK SMILES COc1cc(-c2oc3cc(O)cc(O)c3c(=O)c2O)ccc1O
REMARK SMILES IDX 6 1 18 2 16 3 17 4 15 5 13 6 12 7 10 8 9 9 8 10 7 11 5 12
REMARK SMILES IDX 3 13 22 14 4 15 21 16 20 17 2 18 1 19 23 20 19 22 14 24
REMARK SMILES IDX 11 26
REMARK H PARENT 23 21 19 23 14 25 11 27
REMARK Flexibility Score: inf
ROOT
ATOM      1  C   UNL     1      -1.820  31.941   8.842  1.00  0.00     0.180 A 
ATOM      2  C   UNL     1      -3.101  31.819   8.278  1.00  0.00     0.208 A 
ATOM      3  C   UNL     1      -3.234  31.824   6.881  1.00  0.00     0.238 A 
ATOM      4  O   UNL     1      -4.378  31.660   6.381  1.00  0.00    -0.285 OA
ATOM      5  C   UNL     1      -2.086  31.965   6.064  1.00  0.00     0.111 A 
ATOM      6  C   UNL     1      -2.108  32.023   4.639  1.00  0.00     0.134 A 
ATOM      7  C   UNL     1      -0.901  32.034   3.930  1.00  0.00     0.093 A 
ATOM      8  C   UNL     1       0.327  32.055   4.597  1.00  0.00     0.123 A 
ATOM      9  C   UNL     1       0.357  32.058   5.989  1.00  0.00     0.094 A 
ATOM     10  C   UNL     1      -0.830  32.011   6.724  1.00  0.00     0.146 A 
ATOM     11  O   UNL     1      -0.757  32.006   8.049  1.00  0.00    -0.452 OA
ENDROOT
BRANCH   1  12
ATOM     12  C   UNL     1      -1.603  31.969  10.306  1.00  0.00     0.025 A 
ATOM     13  C   UNL     1      -2.461  32.044  12.596  1.00  0.00     0.161 A 
ATOM     14  C   UNL     1      -1.146  32.078  13.080  1.00  0.00     0.157 A 
ATOM     15  C   UNL     1      -2.685  31.996  11.206  1.00  0.00     0.062 A 
ATOM     16  C   UNL     1      -0.067  32.073  12.185  1.00  0.00     0.051 A 
ATOM     17  C   UNL     1      -0.295  32.027  10.809  1.00  0.00     0.016 A 
BRANCH  13  18
ATOM     18  O   UNL     1      -3.515  32.062  13.523  1.00  0.00    -0.493 OA
ATOM     19  C   UNL     1      -4.894  32.116  13.175  1.00  0.00     0.278 C 
ENDBRANCH  13  18
BRANCH  14  20
ATOM     20  O   UNL     1      -0.917  32.122  14.454  1.00  0.00    -0.504 OA
ATOM     21  H   UNL     1      -0.626  32.975  14.917  1.00  0.00     0.293 HD
ENDBRANCH  14  20
ENDBRANCH   1  12
BRANCH   2  22
ATOM     22  O   UNL     1      -4.219  31.657   9.102  1.00  0.00    -0.502 OA
ATOM     23  H   UNL     1      -4.243  30.986   9.861  1.00  0.00     0.293 HD
ENDBRANCH   2  22
BRANCH   6  24
ATOM     24  O   UNL     1      -3.278  32.100   3.878  1.00  0.00    -0.507 OA
ATOM     25  H   UNL     1      -3.672  32.955   3.514  1.00  0.00     0.293 HD
ENDBRANCH   6  24
BRANCH   8  26
ATOM     26  O   UNL     1       1.523  32.081   3.884  1.00  0.00    -0.508 OA
ATOM     27  H   UNL     1       1.905  32.946   3.520  1.00  0.00     0.293 HD
ENDBRANCH   8  26
TORSDOF 6
ENDMDL
MODEL 2
REMARK VINA RESULT:     7.772      1.601      2.962
REMARK INTER + INTRA:           9.987
REMARK INTER:                   9.532
REMARK INTRA:                   0.455
REMARK UNBOUND:                 0.398
REMARK SMILES COc1cc(-c2oc3cc(O)cc(O)c3c(=O)c2O)ccc1O
REMARK SMILES IDX 6 1 18 2 16 3 17 4 15 5 13 6 12 7 10 8 9 9 8 10 7 11 5 12
REMARK SMILES IDX 3 13 22 14 4 15 21 16 20 17 2 18 1 19 23 20 19 22 14 24
REMARK SMILES IDX 11 26
REMARK H PARENT 23 21 19 23 14 25 11 27
REMARK Flexibility Score: inf
ROOT
ATOM      1  C   UNL     1      -1.162  31.236   8.911  1.00  0.00     0.180 A 
ATOM      2  C   UNL     1       0.006  31.490   8.173  1.00  0.00     0.208 A 
ATOM      3  C   UNL     1       0.007  31.244   6.791  1.00  0.00     0.238 A 
ATOM      4  O   UNL     1       1.039  31.526   6.127  1.00  0.00    -0.285 OA
ATOM      5  C   UNL     1      -1.156  30.733   6.166  1.00  0.00     0.111 A 
ATOM      6  C   UNL     1      -1.255  30.410   4.780  1.00  0.00     0.134 A 
ATOM      7  C   UNL     1      -2.494  30.033   4.246  1.00  0.00     0.093 A 
ATOM      8  C   UNL     1      -3.621  29.906   5.061  1.00  0.00     0.123 A 
ATOM      9  C   UNL     1      -3.521  30.162   6.426  1.00  0.00     0.094 A 
ATOM     10  C   UNL     1      -2.308  30.574   6.982  1.00  0.00     0.146 A 
ATOM     11  O   UNL     1      -2.257  30.818   8.285  1.00  0.00    -0.452 OA
ENDROOT
BRANCH   1  12
ATOM     12  C   UNL     1      -1.231  31.446  10.375  1.00  0.00     0.025 A 
ATOM     13  C   UNL     1      -2.511  31.653  12.449  1.00  0.00     0.161 A 
ATOM     14  C   UNL     1      -1.323  31.907  13.148  1.00  0.00     0.157 A 
ATOM     15  C   UNL     1      -2.461  31.430  11.059  1.00  0.00     0.062 A 
ATOM     16  C   UNL     1      -0.100  31.946  12.465  1.00  0.00     0.051 A 
ATOM     17  C   UNL     1      -0.056  31.725  11.088  1.00  0.00     0.016 A 
BRANCH  13  18
ATOM     18  O   UNL     1      -3.718  31.632  13.167  1.00  0.00    -0.493 OA
ATOM     19  C   UNL     1      -4.958  32.124  12.672  1.00  0.00     0.278 C 
ENDBRANCH  13  18
BRANCH  14  20
ATOM     20  O   UNL     1      -1.366  32.125  14.525  1.00  0.00    -0.504 OA
ATOM     21  H   UNL     1      -1.482  33.054  14.911  1.00  0.00     0.293 HD
ENDBRANCH  14  20
ENDBRANCH   1  12
BRANCH   2  22
ATOM     22  O   UNL     1       1.136  32.017   8.806  1.00  0.00    -0.502 OA
ATOM     23  H   UNL     1       1.201  32.112   9.813  1.00  0.00     0.293 HD
ENDBRANCH   2  22
BRANCH   6  24
ATOM     24  O   UNL     1      -0.171  30.414   3.898  1.00  0.00    -0.507 OA
ATOM     25  H   UNL     1       0.374  31.230   3.662  1.00  0.00     0.293 HD
ENDBRANCH   6  24
BRANCH   8  26
ATOM     26  O   UNL     1      -4.846  29.516   4.523  1.00  0.00    -0.508 OA
ATOM     27  H   UNL     1      -5.213  29.938   3.678  1.00  0.00     0.293 HD
ENDBRANCH   8  26
TORSDOF 6
ENDMDL
