MODEL 1
REMARK VINA RESULT:    35.275      0.000      0.000
REMARK INTER + INTRA:          41.382
REMARK INTER:                  41.461
REMARK INTRA:                  -0.079
REMARK UNBOUND:                -0.079
REMARK SMILES O=c1c(O)c(-c2ccc(O)cc2)oc2cc(O)cc(O)c12
REMARK SMILES IDX 5 1 3 2 2 3 1 4 21 5 19 6 18 7 16 8 15 9 14 10 13 11 6 12
REMARK SMILES IDX 7 13 8 14 9 15 12 16 11 17 10 18 4 20 20 22 17 24
REMARK H PARENT 10 19 4 21 20 23 17 25
REMARK Flexibility Score: inf
ROOT
ATOM      1  C   UNL     1      31.213   4.632   0.164  1.00  0.00     0.180 A 
ATOM      2  C   UNL     1      31.248   5.976   0.584  1.00  0.00     0.208 A 
ATOM      3  C   UNL     1      32.454   6.502   1.075  1.00  0.00     0.238 A 
ATOM      4  O   UNL     1      32.501   7.707   1.443  1.00  0.00    -0.285 OA
ATOM      5  C   UNL     1      33.594   5.675   1.155  1.00  0.00     0.111 A 
ATOM      6  C   UNL     1      34.844   6.126   1.641  1.00  0.00     0.134 A 
ATOM      7  C   UNL     1      35.929   5.239   1.699  1.00  0.00     0.093 A 
ATOM      8  C   UNL     1      35.789   3.913   1.284  1.00  0.00     0.123 A 
ATOM      9  C   UNL     1      34.555   3.462   0.802  1.00  0.00     0.094 A 
ATOM     10  C   UNL     1      33.462   4.331   0.735  1.00  0.00     0.146 A 
ATOM     11  O   UNL     1      32.304   3.878   0.270  1.00  0.00    -0.452 OA
ENDROOT
BRANCH   1  12
ATOM     12  C   UNL     1      29.985   4.011  -0.382  1.00  0.00     0.021 A 
ATOM     13  C   UNL     1      29.364   2.925   0.263  1.00  0.00     0.016 A 
ATOM     14  C   UNL     1      28.191   2.370  -0.258  1.00  0.00     0.047 A 
ATOM     15  C   UNL     1      27.617   2.901  -1.421  1.00  0.00     0.115 A 
ATOM     16  C   UNL     1      29.391   4.549  -1.535  1.00  0.00     0.016 A 
ATOM     17  C   UNL     1      28.219   3.993  -2.055  1.00  0.00     0.047 A 
BRANCH  15  18
ATOM     18  O   UNL     1      26.450   2.356  -1.951  1.00  0.00    -0.508 OA
ATOM     19  H   UNL     1      25.819   2.909  -2.519  1.00  0.00     0.293 HD
ENDBRANCH  15  18
ENDBRANCH   1  12
BRANCH   2  20
ATOM     20  O   UNL     1      30.093   6.760   0.540  1.00  0.00    -0.502 OA
ATOM     21  H   UNL     1      29.880   7.454   1.247  1.00  0.00     0.293 HD
ENDBRANCH   2  20
BRANCH   6  22
ATOM     22  O   UNL     1      35.018   7.444   2.065  1.00  0.00    -0.507 OA
ATOM     23  H   UNL     1      35.147   8.204   1.407  1.00  0.00     0.293 HD
ENDBRANCH   6  22
BRANCH   8  24
ATOM     24  O   UNL     1      36.881   3.052   1.352  1.00  0.00    -0.508 OA
ATOM     25  H   UNL     1      37.253   2.736   2.240  1.00  0.00     0.293 HD
ENDBRANCH   8  24
TORSDOF 5
ENDMDL
