MODEL 1
REMARK VINA RESULT:    -2.964      0.000      0.000
REMARK INTER + INTRA:          -2.908
REMARK INTER:                  -3.657
REMARK INTRA:                   0.748
REMARK UNBOUND:                 0.748
REMARK SMILES CC1=CC=CC(C)(C)CC1=O
REMARK SMILES IDX 1 1 2 2 3 3 10 4 11 5 9 6 4 8 5 9 6 10 7 11 8 12
REMARK H PARENT
REMARK Flexibility Score: 80.00
ROOT
ATOM      1  C   UNL     1      67.527 -17.109  16.817  1.00  0.00     0.048 C 
ATOM      2  C   UNL     1      67.208 -16.879  15.359  1.00  0.00    -0.008 C 
ATOM      3  C   UNL     1      65.909 -16.890  14.992  1.00  0.00     0.007 C 
ENDROOT
BRANCH   2   4
ATOM      4  C   UNL     1      68.349 -16.582  14.456  1.00  0.00     0.159 C 
ATOM      5  O   UNL     1      69.483 -16.360  14.962  1.00  0.00    -0.295 OA
BRANCH   4   6
ATOM      6  C   UNL     1      68.233 -16.543  12.963  1.00  0.00     0.091 CG0
ATOM      7  G   UNL     1      67.197 -15.514  12.460  1.00  0.00     0.000 G0
ENDBRANCH   4   6
ENDBRANCH   2   4
BRANCH   3   8
ATOM      8  C   UNL     1      65.292 -16.673  13.662  1.00  0.00    -0.003 C 
ATOM      9  C   UNL     1      65.811 -16.083  12.578  1.00  0.00    -0.020 C 
BRANCH   9  10
ATOM     10  C   UNL     1      67.202 -15.508  12.449  1.00  0.00    -0.010 CG0
ATOM     11  C   UNL     1      67.488 -15.267  10.949  1.00  0.00     0.016 C 
ATOM     12  C   UNL     1      67.280 -14.145  13.174  1.00  0.00     0.016 C 
ATOM     13  G   UNL     1      68.238 -16.525  12.978  1.00  0.00     0.000 G0
ENDBRANCH   9  10
ENDBRANCH   3   8
TORSDOF 0
ENDMDL
MODEL 2
REMARK VINA RESULT:    -2.671     15.201     16.747
REMARK INTER + INTRA:          -2.547
REMARK INTER:                  -3.296
REMARK INTRA:                   0.749
REMARK UNBOUND:                 0.748
REMARK SMILES CC1=CC=CC(C)(C)CC1=O
REMARK SMILES IDX 1 1 2 2 3 3 10 4 11 5 9 6 4 8 5 9 6 10 7 11 8 12
REMARK H PARENT
REMARK Flexibility Score: 80.00
ROOT
ATOM      1  C   UNL     1      69.268  -2.059  12.016  1.00  0.00     0.048 C 
ATOM      2  C   UNL     1      69.223  -1.332  10.692  1.00  0.00    -0.008 C 
ATOM      3  C   UNL     1      69.444  -2.055   9.573  1.00  0.00     0.007 C 
ENDROOT
BRANCH   2   4
ATOM      4  C   UNL     1      68.864   0.108  10.723  1.00  0.00     0.159 C 
ATOM      5  O   UNL     1      68.417   0.600  11.795  1.00  0.00    -0.295 OA
BRANCH   4   6
ATOM      6  C   UNL     1      69.016   1.023   9.547  1.00  0.00     0.091 CG0
ATOM      7  G   UNL     1      68.184   0.583   8.322  1.00  0.00     0.000 G0
ENDBRANCH   4   6
ENDBRANCH   2   4
BRANCH   3   8
ATOM      8  C   UNL     1      69.439  -1.635   8.152  1.00  0.00    -0.003 C 
ATOM      9  C   UNL     1      68.908  -0.539   7.598  1.00  0.00    -0.020 C 
BRANCH   9  10
ATOM     10  C   UNL     1      68.190   0.575   8.323  1.00  0.00    -0.010 CG0
ATOM     11  C   UNL     1      68.081   1.784   7.366  1.00  0.00     0.016 C 
ATOM     12  C   UNL     1      66.757   0.128   8.691  1.00  0.00     0.016 C 
ATOM     13  G   UNL     1      69.015   1.011   9.555  1.00  0.00     0.000 G0
ENDBRANCH   9  10
ENDBRANCH   3   8
TORSDOF 0
ENDMDL
MODEL 3
REMARK VINA RESULT:    -2.660     15.241     16.934
REMARK INTER + INTRA:          -2.534
REMARK INTER:                  -3.290
REMARK INTRA:                   0.756
REMARK UNBOUND:                 0.748
REMARK SMILES CC1=CC=CC(C)(C)CC1=O
REMARK SMILES IDX 1 1 2 2 3 3 10 4 11 5 9 6 4 8 5 9 6 10 7 11 8 12
REMARK H PARENT
REMARK Flexibility Score: 80.00
ROOT
ATOM      1  C   UNL     1      69.731  -1.839  12.003  1.00  0.00     0.048 C 
ATOM      2  C   UNL     1      68.965  -0.746  11.297  1.00  0.00    -0.008 C 
ATOM      3  C   UNL     1      69.133   0.520  11.736  1.00  0.00     0.007 C 
ENDROOT
BRANCH   2   4
ATOM      4  C   UNL     1      68.146  -1.143  10.124  1.00  0.00     0.159 C 
ATOM      5  O   UNL     1      68.286  -2.303   9.650  1.00  0.00    -0.295 OA
BRANCH   4   6
ATOM      6  C   UNL     1      67.143  -0.241   9.473  1.00  0.00     0.091 CG0
ATOM      7  G   UNL     1      67.765   1.060   8.917  1.00  0.00     0.000 G0
ENDBRANCH   4   6
ENDBRANCH   2   4
BRANCH   3   8
ATOM      8  C   UNL     1      68.547   1.787  11.237  1.00  0.00    -0.003 C 
ATOM      9  C   UNL     1      67.977   2.044  10.053  1.00  0.00    -0.020 C 
BRANCH   9  10
ATOM     10  C   UNL     1      67.767   1.061   8.926  1.00  0.00    -0.010 CG0
ATOM     11  C   UNL     1      66.769   1.681   7.921  1.00  0.00     0.016 C 
ATOM     12  C   UNL     1      69.101   0.817   8.182  1.00  0.00     0.016 C 
ATOM     13  G   UNL     1      67.146  -0.242   9.479  1.00  0.00     0.000 G0
ENDBRANCH   9  10
ENDBRANCH   3   8
TORSDOF 0
ENDMDL
MODEL 4
REMARK VINA RESULT:    -2.645      1.716      3.477
REMARK INTER + INTRA:          -2.516
REMARK INTER:                  -3.264
REMARK INTRA:                   0.749
REMARK UNBOUND:                 0.748
REMARK SMILES CC1=CC=CC(C)(C)CC1=O
REMARK SMILES IDX 1 1 2 2 3 3 10 4 11 5 9 6 4 8 5 9 6 10 7 11 8 12
REMARK H PARENT
REMARK Flexibility Score: 80.00
ROOT
ATOM      1  C   UNL     1      65.299 -14.557  11.452  1.00  0.00     0.048 C 
ATOM      2  C   UNL     1      65.763 -15.161  12.756  1.00  0.00    -0.008 C 
ATOM      3  C   UNL     1      65.075 -16.219  13.237  1.00  0.00     0.007 C 
ENDROOT
BRANCH   2   4
ATOM      4  C   UNL     1      66.989 -14.590  13.367  1.00  0.00     0.159 C 
ATOM      5  O   UNL     1      67.699 -13.802  12.685  1.00  0.00    -0.295 OA
BRANCH   4   6
ATOM      6  C   UNL     1      67.430 -14.887  14.768  1.00  0.00     0.091 CG0
ATOM      7  G   UNL     1      67.712 -16.386  15.012  1.00  0.00     0.000 G0
ENDBRANCH   4   6
ENDBRANCH   2   4
BRANCH   3   8
ATOM      8  C   UNL     1      65.301 -17.028  14.457  1.00  0.00    -0.003 C 
ATOM      9  C   UNL     1      66.402 -17.125  15.213  1.00  0.00    -0.020 C 
BRANCH   9  10
ATOM     10  C   UNL     1      67.702 -16.385  15.003  1.00  0.00    -0.010 CG0
ATOM     11  C   UNL     1      68.539 -16.500  16.298  1.00  0.00     0.016 C 
ATOM     12  C   UNL     1      68.505 -17.042  13.857  1.00  0.00     0.016 C 
ATOM     13  G   UNL     1      67.415 -14.888  14.748  1.00  0.00     0.000 G0
ENDBRANCH   9  10
ENDBRANCH   3   8
TORSDOF 0
ENDMDL
MODEL 5
REMARK VINA RESULT:    -2.602     15.339     17.109
REMARK INTER + INTRA:          -2.462
REMARK INTER:                  -3.218
REMARK INTRA:                   0.756
REMARK UNBOUND:                 0.748
REMARK SMILES CC1=CC=CC(C)(C)CC1=O
REMARK SMILES IDX 1 1 2 2 3 3 10 4 11 5 9 6 4 8 5 9 6 10 7 11 8 12
REMARK H PARENT
REMARK Flexibility Score: 80.00
ROOT
ATOM      1  C   UNL     1      68.861  -2.659   9.433  1.00  0.00     0.048 C 
ATOM      2  C   UNL     1      68.845  -1.426  10.305  1.00  0.00    -0.008 C 
ATOM      3  C   UNL     1      69.679  -1.399  11.367  1.00  0.00     0.007 C 
ENDROOT
BRANCH   2   4
ATOM      4  C   UNL     1      67.965  -0.309   9.881  1.00  0.00     0.159 C 
ATOM      5  O   UNL     1      67.450  -0.343   8.730  1.00  0.00    -0.295 OA
BRANCH   4   6
ATOM      6  C   UNL     1      67.637   0.863  10.755  1.00  0.00     0.091 CG0
ATOM      7  G   UNL     1      68.884   1.671  11.181  1.00  0.00     0.000 G0
ENDBRANCH   4   6
ENDBRANCH   2   4
BRANCH   3   8
ATOM      8  C   UNL     1      69.905  -0.336  12.374  1.00  0.00    -0.003 C 
ATOM      9  C   UNL     1      69.591   0.964  12.313  1.00  0.00    -0.020 C 
BRANCH   9  10
ATOM     10  C   UNL     1      68.885   1.665  11.176  1.00  0.00    -0.010 CG0
ATOM     11  C   UNL     1      68.408   3.046  11.680  1.00  0.00     0.016 C 
ATOM     12  C   UNL     1      69.869   1.898  10.007  1.00  0.00     0.016 C 
ATOM     13  G   UNL     1      67.641   0.851  10.755  1.00  0.00     0.000 G0
ENDBRANCH   9  10
ENDBRANCH   3   8
TORSDOF 0
ENDMDL
MODEL 6
REMARK VINA RESULT:    -2.531     15.406     17.127
REMARK INTER + INTRA:          -2.375
REMARK INTER:                  -3.431
REMARK INTRA:                   1.057
REMARK UNBOUND:                 0.748
REMARK SMILES CC1=CC=CC(C)(C)CC1=O
REMARK SMILES IDX 1 1 2 2 3 3 10 4 11 5 9 6 4 8 5 9 6 10 7 11 8 12
REMARK H PARENT
REMARK Flexibility Score: 80.00
ROOT
ATOM      1  C   UNL     1      68.686  -2.558   9.612  1.00  0.00     0.048 C 
ATOM      2  C   UNL     1      68.389  -1.130  10.008  1.00  0.00    -0.008 C 
ATOM      3  C   UNL     1      67.590  -0.408   9.194  1.00  0.00     0.007 C 
ENDROOT
BRANCH   2   4
ATOM      4  C   UNL     1      68.940  -0.660  11.304  1.00  0.00     0.159 C 
ATOM      5  O   UNL     1      69.869  -1.320  11.844  1.00  0.00    -0.295 OA
BRANCH   4   6
ATOM      6  C   UNL     1      68.462   0.573  12.007  1.00  0.00     0.091 CG0
ATOM      7  G   UNL     1      68.636   1.858  11.167  1.00  0.00     0.000 G0
ENDBRANCH   4   6
ENDBRANCH   2   4
BRANCH   3   8
ATOM      8  C   UNL     1      67.106   0.987   9.328  1.00  0.00    -0.003 C 
ATOM      9  C   UNL     1      67.527   1.950  10.155  1.00  0.00    -0.020 C 
BRANCH   9  10
ATOM     10  C   UNL     1      68.651   1.843  11.159  1.00  0.00    -0.010 CG0
ATOM     11  C   UNL     1      69.984   1.724  10.384  1.00  0.00     0.016 C 
ATOM     12  C   UNL     1      68.714   3.125  12.021  1.00  0.00     0.016 C 
ATOM     13  G   UNL     1      68.472   0.563  12.006  1.00  0.00     0.000 G0
ENDBRANCH   9  10
ENDBRANCH   3   8
TORSDOF 0
ENDMDL
MODEL 7
REMARK VINA RESULT:    -2.523     21.298     22.254
REMARK INTER + INTRA:          -2.365
REMARK INTER:                  -3.125
REMARK INTRA:                   0.761
REMARK UNBOUND:                 0.748
REMARK SMILES CC1=CC=CC(C)(C)CC1=O
REMARK SMILES IDX 1 1 2 2 3 3 10 4 11 5 9 6 4 8 5 9 6 10 7 11 8 12
REMARK H PARENT
REMARK Flexibility Score: 80.00
ROOT
ATOM      1  C   UNL     1      58.547  -1.820  22.743  1.00  0.00     0.048 C 
ATOM      2  C   UNL     1      57.429  -0.869  23.099  1.00  0.00    -0.008 C 
ATOM      3  C   UNL     1      57.166  -0.674  24.409  1.00  0.00     0.007 C 
ENDROOT
BRANCH   2   4
ATOM      4  C   UNL     1      56.758  -0.164  21.978  1.00  0.00     0.159 C 
ATOM      5  O   UNL     1      57.270  -0.228  20.827  1.00  0.00    -0.295 OA
BRANCH   4   6
ATOM      6  C   UNL     1      55.488   0.614  22.133  1.00  0.00     0.091 CG0
ATOM      7  G   UNL     1      55.610   1.783  23.136  1.00  0.00     0.000 G0
ENDBRANCH   4   6
ENDBRANCH   2   4
BRANCH   3   8
ATOM      8  C   UNL     1      56.164   0.204  25.059  1.00  0.00    -0.003 C 
ATOM      9  C   UNL     1      55.505   1.252  24.551  1.00  0.00    -0.020 C 
BRANCH   9  10
ATOM     10  C   UNL     1      55.614   1.782  23.140  1.00  0.00    -0.010 CG0
ATOM     11  C   UNL     1      54.433   2.750  22.894  1.00  0.00     0.016 C 
ATOM     12  C   UNL     1      56.927   2.582  22.976  1.00  0.00     0.016 C 
ATOM     13  G   UNL     1      55.496   0.615  22.134  1.00  0.00     0.000 G0
ENDBRANCH   9  10
ENDBRANCH   3   8
TORSDOF 0
ENDMDL
MODEL 8
REMARK VINA RESULT:    -2.434     15.023     16.809
REMARK INTER + INTRA:          -2.254
REMARK INTER:                  -3.021
REMARK INTRA:                   0.766
REMARK UNBOUND:                 0.748
REMARK SMILES CC1=CC=CC(C)(C)CC1=O
REMARK SMILES IDX 1 1 2 2 3 3 10 4 11 5 9 6 4 8 5 9 6 10 7 11 8 12
REMARK H PARENT
REMARK Flexibility Score: 80.00
ROOT
ATOM      1  C   UNL     1      69.624  -3.254   8.445  1.00  0.00     0.048 C 
ATOM      2  C   UNL     1      69.381  -1.775   8.630  1.00  0.00    -0.008 C 
ATOM      3  C   UNL     1      69.284  -1.013   7.519  1.00  0.00     0.007 C 
ENDROOT
BRANCH   2   4
ATOM      4  C   UNL     1      69.191  -1.289  10.020  1.00  0.00     0.159 C 
ATOM      5  O   UNL     1      69.010  -2.133  10.939  1.00  0.00    -0.295 OA
BRANCH   4   6
ATOM      6  C   UNL     1      69.217   0.160  10.400  1.00  0.00     0.091 CG0
ATOM      7  G   UNL     1      68.111   0.989   9.710  1.00  0.00     0.000 G0
ENDBRANCH   4   6
ENDBRANCH   2   4
BRANCH   3   8
ATOM      8  C   UNL     1      69.027   0.440   7.381  1.00  0.00    -0.003 C 
ATOM      9  C   UNL     1      68.523   1.297   8.277  1.00  0.00    -0.020 C 
BRANCH   9  10
ATOM     10  C   UNL     1      68.111   0.974   9.694  1.00  0.00    -0.010 CG0
ATOM     11  C   UNL     1      67.936   2.304  10.463  1.00  0.00     0.016 C 
ATOM     12  C   UNL     1      66.750   0.241   9.694  1.00  0.00     0.016 C 
ATOM     13  G   UNL     1      69.226   0.160  10.388  1.00  0.00     0.000 G0
ENDBRANCH   9  10
ENDBRANCH   3   8
TORSDOF 0
ENDMDL
MODEL 9
REMARK VINA RESULT:    -2.432     11.175     12.587
REMARK INTER + INTRA:          -2.252
REMARK INTER:                  -3.017
REMARK INTRA:                   0.765
REMARK UNBOUND:                 0.748
REMARK SMILES CC1=CC=CC(C)(C)CC1=O
REMARK SMILES IDX 1 1 2 2 3 3 10 4 11 5 9 6 4 8 5 9 6 10 7 11 8 12
REMARK H PARENT
REMARK Flexibility Score: 80.00
ROOT
ATOM      1  C   UNL     1      57.689 -15.021   5.066  1.00  0.00     0.048 C 
ATOM      2  C   UNL     1      56.909 -15.326   6.323  1.00  0.00    -0.008 C 
ATOM      3  C   UNL     1      55.877 -16.192   6.225  1.00  0.00     0.007 C 
ENDROOT
BRANCH   2   4
ATOM      4  C   UNL     1      57.388 -14.706   7.584  1.00  0.00     0.159 C 
ATOM      5  O   UNL     1      58.501 -14.114   7.585  1.00  0.00    -0.295 OA
BRANCH   4   6
ATOM      6  C   UNL     1      56.611 -14.731   8.864  1.00  0.00     0.091 CG0
ATOM      7  G   UNL     1      56.293 -16.161   9.355  1.00  0.00     0.000 G0
ENDBRANCH   4   6
ENDBRANCH   2   4
BRANCH   3   8
ATOM      8  C   UNL     1      54.957 -16.700   7.270  1.00  0.00    -0.003 C 
ATOM      9  C   UNL     1      55.114 -16.710   8.599  1.00  0.00    -0.020 C 
BRANCH   9  10
ATOM     10  C   UNL     1      56.293 -16.161   9.368  1.00  0.00    -0.010 CG0
ATOM     11  C   UNL     1      55.899 -16.072  10.860  1.00  0.00     0.016 C 
ATOM     12  C   UNL     1      57.496 -17.125   9.249  1.00  0.00     0.016 C 
ATOM     13  G   UNL     1      56.620 -14.735   8.871  1.00  0.00     0.000 G0
ENDBRANCH   9  10
ENDBRANCH   3   8
TORSDOF 0
ENDMDL
