MODEL 1
REMARK VINA RESULT:     0.145      0.000      0.000
REMARK INTER + INTRA:           1.099
REMARK INTER:                   0.247
REMARK INTRA:                   0.852
REMARK UNBOUND:                 0.852
REMARK SMILES CCCCCCCCCCCCCC(=O)[O-]
REMARK SMILES IDX 8 1 9 2 10 3 11 4 12 5 13 6 14 7 15 8 16 9 7 10 6 11 5 12
REMARK SMILES IDX 4 13 3 14 2 15 1 16
REMARK H PARENT
REMARK Flexibility Score: inf
ROOT
ATOM      1  C   UNL     1      -2.893   4.752   5.712  1.00  0.00     0.000 C 
ENDROOT
BRANCH   1   2
ATOM      2  C   UNL     1      -3.293   5.843   6.720  1.00  0.00     0.000 C 
BRANCH   2   3
ATOM      3  C   UNL     1      -2.644   5.639   8.099  1.00  0.00     0.000 C 
BRANCH   3   4
ATOM      4  C   UNL     1      -2.178   6.958   8.734  1.00  0.00     0.000 C 
BRANCH   4   5
ATOM      5  C   UNL     1      -1.179   6.697   9.870  1.00  0.00     0.006 C 
BRANCH   5   6
ATOM      6  C   UNL     1       0.083   7.561   9.743  1.00  0.00     0.053 C 
BRANCH   6   7
ATOM      7  C   UNL     1      -0.226   9.019   9.889  1.00  0.00     0.041 C 
ATOM      8  O   UNL     1       0.706   9.864   9.933  1.00  0.00    -0.550 OA
ATOM      9  O   UNL     1      -1.544   9.442  10.009  1.00  0.00    -0.550 OA
ENDBRANCH   6   7
ENDBRANCH   5   6
ENDBRANCH   4   5
ENDBRANCH   3   4
ENDBRANCH   2   3
ENDBRANCH   1   2
BRANCH   1  10
ATOM     10  C   UNL     1      -3.539   3.391   6.024  1.00  0.00     0.000 C 
BRANCH  10  11
ATOM     11  C   UNL     1      -3.905   3.239   7.510  1.00  0.00    -0.000 C 
BRANCH  11  12
ATOM     12  C   UNL     1      -5.361   2.792   7.723  1.00  0.00    -0.000 C 
BRANCH  12  13
ATOM     13  C   UNL     1      -5.808   2.683   9.196  1.00  0.00    -0.000 C 
BRANCH  13  14
ATOM     14  C   UNL     1      -5.271   3.787  10.125  1.00  0.00    -0.000 C 
BRANCH  14  15
ATOM     15  C   UNL     1      -5.937   5.148   9.880  1.00  0.00    -0.003 C 
ATOM     16  C   UNL     1      -4.931   6.286  10.025  1.00  0.00     0.004 C 
ENDBRANCH  14  15
ENDBRANCH  13  14
ENDBRANCH  12  13
ENDBRANCH  11  12
ENDBRANCH  10  11
ENDBRANCH   1  10
TORSDOF 12
ENDMDL
MODEL 2
REMARK VINA RESULT:     1.585      9.396     11.347
REMARK INTER + INTRA:           3.549
REMARK INTER:                   4.104
REMARK INTRA:                  -0.555
REMARK UNBOUND:                 0.852
REMARK SMILES CCCCCCCCCCCCCC(=O)[O-]
REMARK SMILES IDX 8 1 9 2 10 3 11 4 12 5 13 6 14 7 15 8 16 9 7 10 6 11 5 12
REMARK SMILES IDX 4 13 3 14 2 15 1 16
REMARK H PARENT
REMARK Flexibility Score: inf
ROOT
ATOM      1  C   UNL     1      -2.019   8.237  -0.969  1.00  0.00     0.000 C 
ENDROOT
BRANCH   1   2
ATOM      2  C   UNL     1      -0.862   7.833  -1.899  1.00  0.00     0.000 C 
BRANCH   2   3
ATOM      3  C   UNL     1       0.515   8.009  -1.238  1.00  0.00     0.000 C 
BRANCH   3   4
ATOM      4  C   UNL     1       1.421   6.782  -1.422  1.00  0.00     0.000 C 
BRANCH   4   5
ATOM      5  C   UNL     1       2.890   7.202  -1.572  1.00  0.00     0.006 C 
BRANCH   5   6
ATOM      6  C   UNL     1       3.041   8.533  -2.320  1.00  0.00     0.053 C 
BRANCH   6   7
ATOM      7  C   UNL     1       4.164   9.355  -1.768  1.00  0.00     0.041 C 
ATOM      8  O   UNL     1       3.975  10.101  -0.772  1.00  0.00    -0.550 OA
ATOM      9  O   UNL     1       5.413   9.323  -2.376  1.00  0.00    -0.550 OA
ENDBRANCH   6   7
ENDBRANCH   5   6
ENDBRANCH   4   5
ENDBRANCH   3   4
ENDBRANCH   2   3
ENDBRANCH   1   2
BRANCH   1  10
ATOM     10  C   UNL     1      -1.541   9.009   0.271  1.00  0.00     0.000 C 
BRANCH  10  11
ATOM     11  C   UNL     1      -2.707   9.491   1.151  1.00  0.00    -0.000 C 
BRANCH  11  12
ATOM     12  C   UNL     1      -4.082   9.072   0.603  1.00  0.00    -0.000 C 
BRANCH  12  13
ATOM     13  C   UNL     1      -4.757  10.094  -0.336  1.00  0.00    -0.000 C 
BRANCH  13  14
ATOM     14  C   UNL     1      -5.623   9.482  -1.452  1.00  0.00    -0.000 C 
BRANCH  14  15
ATOM     15  C   UNL     1      -4.807   8.653  -2.453  1.00  0.00    -0.003 C 
ATOM     16  C   UNL     1      -4.115   9.551  -3.475  1.00  0.00     0.004 C 
ENDBRANCH  14  15
ENDBRANCH  13  14
ENDBRANCH  12  13
ENDBRANCH  11  12
ENDBRANCH  10  11
ENDBRANCH   1  10
TORSDOF 12
ENDMDL
MODEL 3
REMARK VINA RESULT:     1.659      3.604      5.259
REMARK INTER + INTRA:           3.675
REMARK INTER:                   3.793
REMARK INTRA:                  -0.118
REMARK UNBOUND:                 0.852
REMARK SMILES CCCCCCCCCCCCCC(=O)[O-]
REMARK SMILES IDX 8 1 9 2 10 3 11 4 12 5 13 6 14 7 15 8 16 9 7 10 6 11 5 12
REMARK SMILES IDX 4 13 3 14 2 15 1 16
REMARK H PARENT
REMARK Flexibility Score: inf
ROOT
ATOM      1  C   UNL     1      -5.798   2.951   8.601  1.00  0.00     0.000 C 
ENDROOT
BRANCH   1   2
ATOM      2  C   UNL     1      -5.149   3.684   9.789  1.00  0.00     0.000 C 
BRANCH   2   3
ATOM      3  C   UNL     1      -5.638   5.135   9.925  1.00  0.00     0.000 C 
BRANCH   3   4
ATOM      4  C   UNL     1      -4.483   6.142  10.023  1.00  0.00     0.000 C 
BRANCH   4   5
ATOM      5  C   UNL     1      -3.196   5.560   9.420  1.00  0.00     0.006 C 
BRANCH   5   6
ATOM      6  C   UNL     1      -2.654   6.418   8.270  1.00  0.00     0.053 C 
BRANCH   6   7
ATOM      7  C   UNL     1      -3.185   5.968   6.944  1.00  0.00     0.041 C 
ATOM      8  O   UNL     1      -3.380   4.745   6.721  1.00  0.00    -0.550 OA
ATOM      9  O   UNL     1      -3.434   6.898   5.942  1.00  0.00    -0.550 OA
ENDBRANCH   6   7
ENDBRANCH   5   6
ENDBRANCH   4   5
ENDBRANCH   3   4
ENDBRANCH   2   3
ENDBRANCH   1   2
BRANCH   1  10
ATOM     10  C   UNL     1      -4.768   2.238   7.711  1.00  0.00     0.000 C 
BRANCH  10  11
ATOM     11  C   UNL     1      -3.331   2.379   8.241  1.00  0.00    -0.000 C 
BRANCH  11  12
ATOM     12  C   UNL     1      -2.856   1.139   9.019  1.00  0.00    -0.000 C 
BRANCH  12  13
ATOM     13  C   UNL     1      -1.855   0.235   8.270  1.00  0.00    -0.000 C 
BRANCH  13  14
ATOM     14  C   UNL     1      -1.336  -0.970   9.074  1.00  0.00    -0.000 C 
BRANCH  14  15
ATOM     15  C   UNL     1      -1.782  -2.316   8.485  1.00  0.00    -0.003 C 
ATOM     16  C   UNL     1      -1.506  -3.460   9.457  1.00  0.00     0.004 C 
ENDBRANCH  14  15
ENDBRANCH  13  14
ENDBRANCH  12  13
ENDBRANCH  11  12
ENDBRANCH  10  11
ENDBRANCH   1  10
TORSDOF 12
ENDMDL
MODEL 4
REMARK VINA RESULT:     1.695      2.624      3.782
REMARK INTER + INTRA:           3.736
REMARK INTER:                   4.346
REMARK INTRA:                  -0.610
REMARK UNBOUND:                 0.852
REMARK SMILES CCCCCCCCCCCCCC(=O)[O-]
REMARK SMILES IDX 8 1 9 2 10 3 11 4 12 5 13 6 14 7 15 8 16 9 7 10 6 11 5 12
REMARK SMILES IDX 4 13 3 14 2 15 1 16
REMARK H PARENT
REMARK Flexibility Score: inf
ROOT
ATOM      1  C   UNL     1      -3.732   5.634   7.436  1.00  0.00     0.000 C 
ENDROOT
BRANCH   1   2
ATOM      2  C   UNL     1      -4.226   5.677   8.893  1.00  0.00     0.000 C 
BRANCH   2   3
ATOM      3  C   UNL     1      -3.198   6.310   9.846  1.00  0.00     0.000 C 
BRANCH   3   4
ATOM      4  C   UNL     1      -3.356   7.833   9.958  1.00  0.00     0.000 C 
BRANCH   4   5
ATOM      5  C   UNL     1      -1.991   8.516  10.125  1.00  0.00     0.006 C 
BRANCH   5   6
ATOM      6  C   UNL     1      -0.833   7.510  10.110  1.00  0.00     0.053 C 
BRANCH   6   7
ATOM      7  C   UNL     1       0.497   8.196  10.056  1.00  0.00     0.041 C 
ATOM      8  O   UNL     1       1.560   7.524  10.113  1.00  0.00    -0.550 OA
ATOM      9  O   UNL     1       0.563   9.581   9.976  1.00  0.00    -0.550 OA
ENDBRANCH   6   7
ENDBRANCH   5   6
ENDBRANCH   4   5
ENDBRANCH   3   4
ENDBRANCH   2   3
ENDBRANCH   1   2
BRANCH   1  10
ATOM     10  C   UNL     1      -3.375   4.213   6.972  1.00  0.00     0.000 C 
BRANCH  10  11
ATOM     11  C   UNL     1      -4.274   3.140   7.610  1.00  0.00    -0.000 C 
BRANCH  11  12
ATOM     12  C   UNL     1      -3.492   2.157   8.499  1.00  0.00    -0.000 C 
BRANCH  12  13
ATOM     13  C   UNL     1      -2.910   0.929   7.770  1.00  0.00    -0.000 C 
BRANCH  13  14
ATOM     14  C   UNL     1      -1.786   0.194   8.524  1.00  0.00    -0.000 C 
BRANCH  14  15
ATOM     15  C   UNL     1      -1.653  -1.277   8.108  1.00  0.00    -0.003 C 
ATOM     16  C   UNL     1      -1.436  -2.174   9.323  1.00  0.00     0.004 C 
ENDBRANCH  14  15
ENDBRANCH  13  14
ENDBRANCH  12  13
ENDBRANCH  11  12
ENDBRANCH  10  11
ENDBRANCH   1  10
TORSDOF 12
ENDMDL
MODEL 5
REMARK VINA RESULT:     1.863      9.604     11.357
REMARK INTER + INTRA:           4.022
REMARK INTER:                   3.446
REMARK INTRA:                   0.576
REMARK UNBOUND:                 0.852
REMARK SMILES CCCCCCCCCCCCCC(=O)[O-]
REMARK SMILES IDX 8 1 9 2 10 3 11 4 12 5 13 6 14 7 15 8 16 9 7 10 6 11 5 12
REMARK SMILES IDX 4 13 3 14 2 15 1 16
REMARK H PARENT
REMARK Flexibility Score: inf
ROOT
ATOM      1  C   UNL     1      -1.434   7.932  -2.248  1.00  0.00     0.000 C 
ENDROOT
BRANCH   1   2
ATOM      2  C   UNL     1      -0.301   7.832  -1.212  1.00  0.00     0.000 C 
BRANCH   2   3
ATOM      3  C   UNL     1       0.811   6.862  -1.644  1.00  0.00     0.000 C 
BRANCH   3   4
ATOM      4  C   UNL     1       2.216   7.393  -1.325  1.00  0.00     0.000 C 
BRANCH   4   5
ATOM      5  C   UNL     1       2.285   8.915  -1.516  1.00  0.00     0.006 C 
BRANCH   5   6
ATOM      6  C   UNL     1       3.696   9.468  -1.279  1.00  0.00     0.053 C 
BRANCH   6   7
ATOM      7  C   UNL     1       4.585   9.246  -2.464  1.00  0.00     0.041 C 
ATOM      8  O   UNL     1       5.836   9.303  -2.337  1.00  0.00    -0.550 OA
ATOM      9  O   UNL     1       4.030   9.010  -3.715  1.00  0.00    -0.550 OA
ENDBRANCH   6   7
ENDBRANCH   5   6
ENDBRANCH   4   5
ENDBRANCH   3   4
ENDBRANCH   2   3
ENDBRANCH   1   2
BRANCH   1  10
ATOM     10  C   UNL     1      -2.566   8.872  -1.801  1.00  0.00     0.000 C 
BRANCH  10  11
ATOM     11  C   UNL     1      -3.880   8.613  -2.556  1.00  0.00    -0.000 C 
BRANCH  11  12
ATOM     12  C   UNL     1      -5.040   9.492  -2.055  1.00  0.00    -0.000 C 
BRANCH  12  13
ATOM     13  C   UNL     1      -5.059   9.752  -0.534  1.00  0.00    -0.000 C 
BRANCH  13  14
ATOM     14  C   UNL     1      -3.949   9.045   0.263  1.00  0.00    -0.000 C 
BRANCH  14  15
ATOM     15  C   UNL     1      -3.566   9.797   1.546  1.00  0.00    -0.003 C 
ATOM     16  C   UNL     1      -2.076  10.124   1.567  1.00  0.00     0.004 C 
ENDBRANCH  14  15
ENDBRANCH  13  14
ENDBRANCH  12  13
ENDBRANCH  11  12
ENDBRANCH  10  11
ENDBRANCH   1  10
TORSDOF 12
ENDMDL
MODEL 6
REMARK VINA RESULT:     2.044      9.936     12.460
REMARK INTER + INTRA:           4.331
REMARK INTER:                   4.842
REMARK INTRA:                  -0.511
REMARK UNBOUND:                 0.852
REMARK SMILES CCCCCCCCCCCCCC(=O)[O-]
REMARK SMILES IDX 8 1 9 2 10 3 11 4 12 5 13 6 14 7 15 8 16 9 7 10 6 11 5 12
REMARK SMILES IDX 4 13 3 14 2 15 1 16
REMARK H PARENT
REMARK Flexibility Score: inf
ROOT
ATOM      1  C   UNL     1      -1.487   8.206  -2.105  1.00  0.00     0.000 C 
ENDROOT
BRANCH   1   2
ATOM      2  C   UNL     1      -1.509   8.526  -0.600  1.00  0.00     0.000 C 
BRANCH   2   3
ATOM      3  C   UNL     1      -2.870   8.223   0.048  1.00  0.00     0.000 C 
BRANCH   3   4
ATOM      4  C   UNL     1      -3.495   9.457   0.714  1.00  0.00     0.000 C 
BRANCH   4   5
ATOM      5  C   UNL     1      -4.636  10.024  -0.142  1.00  0.00     0.006 C 
BRANCH   5   6
ATOM      6  C   UNL     1      -5.236   8.971  -1.082  1.00  0.00     0.053 C 
BRANCH   6   7
ATOM      7  C   UNL     1      -5.075   9.354  -2.521  1.00  0.00     0.041 C 
ATOM      8  O   UNL     1      -6.083   9.450  -3.269  1.00  0.00    -0.550 OA
ATOM      9  O   UNL     1      -3.807   9.572  -3.045  1.00  0.00    -0.550 OA
ENDBRANCH   6   7
ENDBRANCH   5   6
ENDBRANCH   4   5
ENDBRANCH   3   4
ENDBRANCH   2   3
ENDBRANCH   1   2
BRANCH   1  10
ATOM     10  C   UNL     1      -0.243   7.406  -2.523  1.00  0.00     0.000 C 
BRANCH  10  11
ATOM     11  C   UNL     1       0.589   6.935  -1.318  1.00  0.00    -0.000 C 
BRANCH  11  12
ATOM     12  C   UNL     1       2.060   7.380  -1.398  1.00  0.00    -0.000 C 
BRANCH  12  13
ATOM     13  C   UNL     1       2.319   8.656  -2.226  1.00  0.00    -0.000 C 
BRANCH  13  14
ATOM     14  C   UNL     1       3.017   9.797  -1.466  1.00  0.00    -0.000 C 
BRANCH  14  15
ATOM     15  C   UNL     1       4.484   9.484  -1.136  1.00  0.00    -0.003 C 
ATOM     16  C   UNL     1       5.251   9.066  -2.387  1.00  0.00     0.004 C 
ENDBRANCH  14  15
ENDBRANCH  13  14
ENDBRANCH  12  13
ENDBRANCH  11  12
ENDBRANCH  10  11
ENDBRANCH   1  10
TORSDOF 12
ENDMDL
