MODEL 1
REMARK VINA RESULT:    -5.553      0.000      0.000
REMARK INTER + INTRA:          -6.260
REMARK INTER:                  -6.202
REMARK INTRA:                  -0.058
REMARK UNBOUND:                -0.058
REMARK SMILES COc1cc2ccc(=O)oc2c(O)c1O
REMARK SMILES IDX 3 1 14 2 12 3 11 4 5 5 4 6 6 7 7 8 8 9 9 10 10 11 2 12 1 13
REMARK SMILES IDX 15 14 13 16
REMARK H PARENT 15 15 13 17
REMARK Flexibility Score: inf
ROOT
ATOM      1  C   UNL     1      18.884 -32.361 -22.041  1.00  0.00     0.165 A 
ATOM      2  C   UNL     1      19.642 -32.601 -23.205  1.00  0.00     0.204 A 
ATOM      3  C   UNL     1      20.132 -31.524 -23.966  1.00  0.00     0.205 A 
ATOM      4  C   UNL     1      19.867 -30.208 -23.568  1.00  0.00     0.184 A 
ATOM      5  C   UNL     1      19.109 -29.963 -22.405  1.00  0.00     0.025 A 
ATOM      6  C   UNL     1      18.621 -31.035 -21.647  1.00  0.00     0.062 A 
ATOM      7  C   UNL     1      18.862 -28.637 -22.035  1.00  0.00     0.020 A 
ATOM      8  C   UNL     1      19.368 -27.602 -22.820  1.00  0.00     0.094 A 
ATOM      9  C   UNL     1      20.111 -27.919 -23.961  1.00  0.00     0.336 A 
ATOM     10  O   UNL     1      20.576 -26.999 -24.683  1.00  0.00    -0.246 OA
ATOM     11  O   UNL     1      20.331 -29.190 -24.289  1.00  0.00    -0.419 OA
ENDROOT
BRANCH   1  12
ATOM     12  O   UNL     1      18.411 -33.460 -21.305  1.00  0.00    -0.493 OA
ATOM     13  C   UNL     1      17.062 -33.630 -20.881  1.00  0.00     0.278 C 
ENDBRANCH   1  12
BRANCH   2  14
ATOM     14  O   UNL     1      19.915 -33.907 -23.616  1.00  0.00    -0.502 OA
ATOM     15  H   UNL     1      20.796 -34.364 -23.418  1.00  0.00     0.293 HD
ENDBRANCH   2  14
BRANCH   3  16
ATOM     16  O   UNL     1      20.883 -31.746 -25.121  1.00  0.00    -0.502 OA
ATOM     17  H   UNL     1      20.472 -31.722 -26.046  1.00  0.00     0.293 HD
ENDBRANCH   3  16
TORSDOF 3
ENDMDL
MODEL 2
REMARK VINA RESULT:    -5.436     15.741     16.162
REMARK INTER + INTRA:          -6.129
REMARK INTER:                  -6.080
REMARK INTRA:                  -0.049
REMARK UNBOUND:                -0.058
REMARK SMILES COc1cc2ccc(=O)oc2c(O)c1O
REMARK SMILES IDX 3 1 14 2 12 3 11 4 5 5 4 6 6 7 7 8 8 9 9 10 10 11 2 12 1 13
REMARK SMILES IDX 15 14 13 16
REMARK H PARENT 15 15 13 17
REMARK Flexibility Score: inf
ROOT
ATOM      1  C   UNL     1      10.525 -26.589 -10.588  1.00  0.00     0.165 A 
ATOM      2  C   UNL     1      10.810 -25.230 -10.352  1.00  0.00     0.204 A 
ATOM      3  C   UNL     1      10.243 -24.234 -11.169  1.00  0.00     0.205 A 
ATOM      4  C   UNL     1       9.393 -24.593 -12.222  1.00  0.00     0.184 A 
ATOM      5  C   UNL     1       9.104 -25.952 -12.462  1.00  0.00     0.025 A 
ATOM      6  C   UNL     1       9.668 -26.944 -11.649  1.00  0.00     0.062 A 
ATOM      7  C   UNL     1       8.251 -26.276 -13.522  1.00  0.00     0.020 A 
ATOM      8  C   UNL     1       7.713 -25.256 -14.305  1.00  0.00     0.094 A 
ATOM      9  C   UNL     1       8.043 -23.931 -14.009  1.00  0.00     0.336 A 
ATOM     10  O   UNL     1       7.568 -22.995 -14.703  1.00  0.00    -0.246 OA
ATOM     11  O   UNL     1       8.857 -23.650 -12.994  1.00  0.00    -0.419 OA
ENDROOT
BRANCH   1  12
ATOM     12  O   UNL     1      11.107 -27.557  -9.753  1.00  0.00    -0.493 OA
ATOM     13  C   UNL     1      10.732 -28.931  -9.721  1.00  0.00     0.278 C 
ENDBRANCH   1  12
BRANCH   2  14
ATOM     14  O   UNL     1      11.656 -24.855  -9.307  1.00  0.00    -0.502 OA
ATOM     15  H   UNL     1      11.890 -23.889  -9.119  1.00  0.00     0.293 HD
ENDBRANCH   2  14
BRANCH   3  16
ATOM     16  O   UNL     1      10.517 -22.884 -10.947  1.00  0.00    -0.502 OA
ATOM     17  H   UNL     1       9.927 -22.146 -11.309  1.00  0.00     0.293 HD
ENDBRANCH   3  16
TORSDOF 3
ENDMDL
MODEL 3
REMARK VINA RESULT:    -5.354      2.128      2.775
REMARK INTER + INTRA:          -6.038
REMARK INTER:                  -5.976
REMARK INTRA:                  -0.061
REMARK UNBOUND:                -0.058
REMARK SMILES COc1cc2ccc(=O)oc2c(O)c1O
REMARK SMILES IDX 3 1 14 2 12 3 11 4 5 5 4 6 6 7 7 8 8 9 9 10 10 11 2 12 1 13
REMARK SMILES IDX 15 14 13 16
REMARK H PARENT 15 15 13 17
REMARK Flexibility Score: inf
ROOT
ATOM      1  C   UNL     1      17.556 -30.392 -21.369  1.00  0.00     0.165 A 
ATOM      2  C   UNL     1      18.851 -30.315 -21.917  1.00  0.00     0.204 A 
ATOM      3  C   UNL     1      19.224 -29.208 -22.701  1.00  0.00     0.205 A 
ATOM      4  C   UNL     1      18.306 -28.178 -22.940  1.00  0.00     0.184 A 
ATOM      5  C   UNL     1      17.008 -28.252 -22.394  1.00  0.00     0.025 A 
ATOM      6  C   UNL     1      16.637 -29.353 -21.613  1.00  0.00     0.062 A 
ATOM      7  C   UNL     1      16.115 -27.206 -22.652  1.00  0.00     0.020 A 
ATOM      8  C   UNL     1      16.529 -26.129 -23.435  1.00  0.00     0.094 A 
ATOM      9  C   UNL     1      17.831 -26.124 -23.944  1.00  0.00     0.336 A 
ATOM     10  O   UNL     1      18.224 -25.161 -24.653  1.00  0.00    -0.246 OA
ATOM     11  O   UNL     1      18.660 -27.131 -23.683  1.00  0.00    -0.419 OA
ENDROOT
BRANCH   1  12
ATOM     12  O   UNL     1      17.217 -31.511 -20.591  1.00  0.00    -0.493 OA
ATOM     13  C   UNL     1      16.596 -32.690 -21.094  1.00  0.00     0.278 C 
ENDBRANCH   1  12
BRANCH   2  14
ATOM     14  O   UNL     1      19.779 -31.333 -21.689  1.00  0.00    -0.502 OA
ATOM     15  H   UNL     1      20.154 -31.528 -20.769  1.00  0.00     0.293 HD
ENDBRANCH   2  14
BRANCH   3  16
ATOM     16  O   UNL     1      20.504 -29.118 -23.251  1.00  0.00    -0.502 OA
ATOM     17  H   UNL     1      21.163 -28.402 -22.972  1.00  0.00     0.293 HD
ENDBRANCH   3  16
TORSDOF 3
ENDMDL
MODEL 4
REMARK VINA RESULT:    -5.333     16.083     17.399
REMARK INTER + INTRA:          -6.014
REMARK INTER:                  -5.947
REMARK INTRA:                  -0.067
REMARK UNBOUND:                -0.058
REMARK SMILES COc1cc2ccc(=O)oc2c(O)c1O
REMARK SMILES IDX 3 1 14 2 12 3 11 4 5 5 4 6 6 7 7 8 8 9 9 10 10 11 2 12 1 13
REMARK SMILES IDX 15 14 13 16
REMARK H PARENT 15 15 13 17
REMARK Flexibility Score: inf
ROOT
ATOM      1  C   UNL     1       9.239 -25.500 -10.685  1.00  0.00     0.165 A 
ATOM      2  C   UNL     1       7.957 -25.190 -10.190  1.00  0.00     0.204 A 
ATOM      3  C   UNL     1       7.057 -24.442 -10.972  1.00  0.00     0.205 A 
ATOM      4  C   UNL     1       7.434 -24.003 -12.246  1.00  0.00     0.184 A 
ATOM      5  C   UNL     1       8.716 -24.311 -12.746  1.00  0.00     0.025 A 
ATOM      6  C   UNL     1       9.613 -25.055 -11.969  1.00  0.00     0.062 A 
ATOM      7  C   UNL     1       9.062 -23.857 -14.023  1.00  0.00     0.020 A 
ATOM      8  C   UNL     1       8.138 -23.120 -14.761  1.00  0.00     0.094 A 
ATOM      9  C   UNL     1       6.885 -22.852 -14.202  1.00  0.00     0.336 A 
ATOM     10  O   UNL     1       6.036 -22.188 -14.852  1.00  0.00    -0.246 OA
ATOM     11  O   UNL     1       6.582 -23.296 -12.985  1.00  0.00    -0.419 OA
ENDROOT
BRANCH   1  12
ATOM     12  O   UNL     1      10.112 -26.248  -9.878  1.00  0.00    -0.493 OA
ATOM     13  C   UNL     1      10.514 -27.588 -10.146  1.00  0.00     0.278 C 
ENDBRANCH   1  12
BRANCH   2  14
ATOM     14  O   UNL     1       7.565 -25.620  -8.921  1.00  0.00    -0.502 OA
ATOM     15  H   UNL     1       6.610 -25.544  -8.594  1.00  0.00     0.293 HD
ENDBRANCH   2  14
BRANCH   3  16
ATOM     16  O   UNL     1       5.784 -24.128 -10.494  1.00  0.00    -0.502 OA
ATOM     17  H   UNL     1       5.100 -23.641 -11.060  1.00  0.00     0.293 HD
ENDBRANCH   3  16
TORSDOF 3
ENDMDL
MODEL 5
REMARK VINA RESULT:    -5.290      2.275      5.457
REMARK INTER + INTRA:          -5.966
REMARK INTER:                  -5.900
REMARK INTRA:                  -0.065
REMARK UNBOUND:                -0.058
REMARK SMILES COc1cc2ccc(=O)oc2c(O)c1O
REMARK SMILES IDX 3 1 14 2 12 3 11 4 5 5 4 6 6 7 7 8 8 9 9 10 10 11 2 12 1 13
REMARK SMILES IDX 15 14 13 16
REMARK H PARENT 15 15 13 17
REMARK Flexibility Score: inf
ROOT
ATOM      1  C   UNL     1      17.747 -28.058 -22.282  1.00  0.00     0.165 A 
ATOM      2  C   UNL     1      18.867 -28.907 -22.184  1.00  0.00     0.204 A 
ATOM      3  C   UNL     1      18.705 -30.256 -21.819  1.00  0.00     0.205 A 
ATOM      4  C   UNL     1      17.426 -30.760 -21.552  1.00  0.00     0.184 A 
ATOM      5  C   UNL     1      16.302 -29.914 -21.648  1.00  0.00     0.025 A 
ATOM      6  C   UNL     1      16.463 -28.571 -22.011  1.00  0.00     0.062 A 
ATOM      7  C   UNL     1      15.038 -30.449 -21.374  1.00  0.00     0.020 A 
ATOM      8  C   UNL     1      14.926 -31.791 -21.016  1.00  0.00     0.094 A 
ATOM      9  C   UNL     1      16.084 -32.570 -20.939  1.00  0.00     0.336 A 
ATOM     10  O   UNL     1      16.004 -33.784 -20.618  1.00  0.00    -0.246 OA
ATOM     11  O   UNL     1      17.273 -32.036 -21.206  1.00  0.00    -0.419 OA
ENDROOT
BRANCH   1  12
ATOM     12  O   UNL     1      17.945 -26.717 -22.650  1.00  0.00    -0.493 OA
ATOM     13  C   UNL     1      17.844 -26.219 -23.980  1.00  0.00     0.278 C 
ENDBRANCH   1  12
BRANCH   2  14
ATOM     14  O   UNL     1      20.149 -28.421 -22.448  1.00  0.00    -0.502 OA
ATOM     15  H   UNL     1      20.431 -27.479 -22.208  1.00  0.00     0.293 HD
ENDBRANCH   2  14
BRANCH   3  16
ATOM     16  O   UNL     1      19.805 -31.108 -21.718  1.00  0.00    -0.502 OA
ATOM     17  H   UNL     1      19.853 -31.990 -22.213  1.00  0.00     0.293 HD
ENDBRANCH   3  16
TORSDOF 3
ENDMDL
MODEL 6
REMARK VINA RESULT:    -5.252     15.377     16.657
REMARK INTER + INTRA:          -5.924
REMARK INTER:                  -5.874
REMARK INTRA:                  -0.050
REMARK UNBOUND:                -0.058
REMARK SMILES COc1cc2ccc(=O)oc2c(O)c1O
REMARK SMILES IDX 3 1 14 2 12 3 11 4 5 5 4 6 6 7 7 8 8 9 9 10 10 11 2 12 1 13
REMARK SMILES IDX 15 14 13 16
REMARK H PARENT 15 15 13 17
REMARK Flexibility Score: inf
ROOT
ATOM      1  C   UNL     1       8.093 -24.704 -10.587  1.00  0.00     0.165 A 
ATOM      2  C   UNL     1       9.497 -24.651 -10.695  1.00  0.00     0.204 A 
ATOM      3  C   UNL     1      10.101 -24.292 -11.914  1.00  0.00     0.205 A 
ATOM      4  C   UNL     1       9.307 -23.988 -13.026  1.00  0.00     0.184 A 
ATOM      5  C   UNL     1       7.902 -24.040 -12.923  1.00  0.00     0.025 A 
ATOM      6  C   UNL     1       7.300 -24.397 -11.710  1.00  0.00     0.062 A 
ATOM      7  C   UNL     1       7.137 -23.730 -14.053  1.00  0.00     0.020 A 
ATOM      8  C   UNL     1       7.779 -23.381 -15.239  1.00  0.00     0.094 A 
ATOM      9  C   UNL     1       9.176 -23.350 -15.269  1.00  0.00     0.336 A 
ATOM     10  O   UNL     1       9.776 -23.037 -16.330  1.00  0.00    -0.246 OA
ATOM     11  O   UNL     1       9.879 -23.649 -14.179  1.00  0.00    -0.419 OA
ENDROOT
BRANCH   1  12
ATOM     12  O   UNL     1       7.524 -25.065  -9.355  1.00  0.00    -0.493 OA
ATOM     13  C   UNL     1       6.208 -24.714  -8.937  1.00  0.00     0.278 C 
ENDBRANCH   1  12
BRANCH   2  14
ATOM     14  O   UNL     1      10.304 -24.951  -9.596  1.00  0.00    -0.502 OA
ATOM     15  H   UNL     1       9.985 -25.535  -8.833  1.00  0.00     0.293 HD
ENDBRANCH   2  14
BRANCH   3  16
ATOM     16  O   UNL     1      11.490 -24.236 -12.036  1.00  0.00    -0.502 OA
ATOM     17  H   UNL     1      12.000 -23.362 -12.007  1.00  0.00     0.293 HD
ENDBRANCH   3  16
TORSDOF 3
ENDMDL
MODEL 7
REMARK VINA RESULT:    -5.252      1.848      2.552
REMARK INTER + INTRA:          -5.924
REMARK INTER:                  -5.874
REMARK INTRA:                  -0.050
REMARK UNBOUND:                -0.058
REMARK SMILES COc1cc2ccc(=O)oc2c(O)c1O
REMARK SMILES IDX 3 1 14 2 12 3 11 4 5 5 4 6 6 7 7 8 8 9 9 10 10 11 2 12 1 13
REMARK SMILES IDX 15 14 13 16
REMARK H PARENT 15 15 13 17
REMARK Flexibility Score: inf
ROOT
ATOM      1  C   UNL     1      16.475 -32.554 -21.130  1.00  0.00     0.165 A 
ATOM      2  C   UNL     1      17.818 -32.956 -21.271  1.00  0.00     0.204 A 
ATOM      3  C   UNL     1      18.803 -32.020 -21.638  1.00  0.00     0.205 A 
ATOM      4  C   UNL     1      18.450 -30.684 -21.864  1.00  0.00     0.184 A 
ATOM      5  C   UNL     1      17.107 -30.278 -21.724  1.00  0.00     0.025 A 
ATOM      6  C   UNL     1      16.126 -31.208 -21.360  1.00  0.00     0.062 A 
ATOM      7  C   UNL     1      16.788 -28.936 -21.958  1.00  0.00     0.020 A 
ATOM      8  C   UNL     1      17.798 -28.045 -22.319  1.00  0.00     0.094 A 
ATOM      9  C   UNL     1      19.107 -28.519 -22.440  1.00  0.00     0.336 A 
ATOM     10  O   UNL     1      20.033 -27.730 -22.765  1.00  0.00    -0.246 OA
ATOM     11  O   UNL     1      19.383 -29.800 -22.211  1.00  0.00    -0.419 OA
ENDROOT
BRANCH   1  12
ATOM     12  O   UNL     1      15.517 -33.514 -20.763  1.00  0.00    -0.493 OA
ATOM     13  C   UNL     1      14.121 -33.405 -21.022  1.00  0.00     0.278 C 
ENDBRANCH   1  12
BRANCH   2  14
ATOM     14  O   UNL     1      18.187 -34.284 -21.049  1.00  0.00    -0.502 OA
ATOM     15  H   UNL     1      19.150 -34.593 -21.090  1.00  0.00     0.293 HD
ENDBRANCH   2  14
BRANCH   3  16
ATOM     16  O   UNL     1      20.137 -32.404 -21.782  1.00  0.00    -0.502 OA
ATOM     17  H   UNL     1      20.829 -31.803 -22.212  1.00  0.00     0.293 HD
ENDBRANCH   3  16
TORSDOF 3
ENDMDL
MODEL 8
REMARK VINA RESULT:    -5.200      8.668     10.365
REMARK INTER + INTRA:          -5.866
REMARK INTER:                  -5.817
REMARK INTRA:                  -0.049
REMARK UNBOUND:                -0.058
REMARK SMILES COc1cc2ccc(=O)oc2c(O)c1O
REMARK SMILES IDX 3 1 14 2 12 3 11 4 5 5 4 6 6 7 7 8 8 9 9 10 10 11 2 12 1 13
REMARK SMILES IDX 15 14 13 16
REMARK H PARENT 15 15 13 17
REMARK Flexibility Score: inf
ROOT
ATOM      1  C   UNL     1      11.071 -34.408 -18.993  1.00  0.00     0.165 A 
ATOM      2  C   UNL     1      11.968 -33.349 -19.232  1.00  0.00     0.204 A 
ATOM      3  C   UNL     1      11.488 -32.096 -19.657  1.00  0.00     0.205 A 
ATOM      4  C   UNL     1      10.114 -31.899 -19.844  1.00  0.00     0.184 A 
ATOM      5  C   UNL     1       9.213 -32.957 -19.606  1.00  0.00     0.025 A 
ATOM      6  C   UNL     1       9.690 -34.204 -19.183  1.00  0.00     0.062 A 
ATOM      7  C   UNL     1       7.847 -32.728 -19.802  1.00  0.00     0.020 A 
ATOM      8  C   UNL     1       7.418 -31.470 -20.223  1.00  0.00     0.094 A 
ATOM      9  C   UNL     1       8.368 -30.468 -20.440  1.00  0.00     0.336 A 
ATOM     10  O   UNL     1       8.001 -29.326 -20.821  1.00  0.00    -0.246 OA
ATOM     11  O   UNL     1       9.661 -30.714 -20.245  1.00  0.00    -0.419 OA
ENDROOT
BRANCH   1  12
ATOM     12  O   UNL     1      11.585 -35.645 -18.570  1.00  0.00    -0.493 OA
ATOM     13  C   UNL     1      11.798 -36.011 -17.210  1.00  0.00     0.278 C 
ENDBRANCH   1  12
BRANCH   2  14
ATOM     14  O   UNL     1      13.341 -33.528 -19.051  1.00  0.00    -0.502 OA
ATOM     15  H   UNL     1      13.964 -33.751 -19.817  1.00  0.00     0.293 HD
ENDBRANCH   2  14
BRANCH   3  16
ATOM     16  O   UNL     1      12.365 -31.037 -19.898  1.00  0.00    -0.502 OA
ATOM     17  H   UNL     1      12.970 -30.662 -19.178  1.00  0.00     0.293 HD
ENDBRANCH   3  16
TORSDOF 3
ENDMDL
MODEL 9
REMARK VINA RESULT:    -5.136      2.812      5.743
REMARK INTER + INTRA:          -5.795
REMARK INTER:                  -5.729
REMARK INTRA:                  -0.065
REMARK UNBOUND:                -0.058
REMARK SMILES COc1cc2ccc(=O)oc2c(O)c1O
REMARK SMILES IDX 3 1 14 2 12 3 11 4 5 5 4 6 6 7 7 8 8 9 9 10 10 11 2 12 1 13
REMARK SMILES IDX 15 14 13 16
REMARK H PARENT 15 15 13 17
REMARK Flexibility Score: inf
ROOT
ATOM      1  C   UNL     1      18.050 -29.877 -21.208  1.00  0.00     0.165 A 
ATOM      2  C   UNL     1      18.477 -31.204 -21.413  1.00  0.00     0.204 A 
ATOM      3  C   UNL     1      17.584 -32.274 -21.213  1.00  0.00     0.205 A 
ATOM      4  C   UNL     1      16.268 -32.021 -20.808  1.00  0.00     0.184 A 
ATOM      5  C   UNL     1      15.837 -30.695 -20.602  1.00  0.00     0.025 A 
ATOM      6  C   UNL     1      16.724 -29.630 -20.801  1.00  0.00     0.062 A 
ATOM      7  C   UNL     1      14.516 -30.477 -20.198  1.00  0.00     0.020 A 
ATOM      8  C   UNL     1      13.668 -31.568 -20.012  1.00  0.00     0.094 A 
ATOM      9  C   UNL     1      14.164 -32.855 -20.234  1.00  0.00     0.336 A 
ATOM     10  O   UNL     1      13.414 -33.853 -20.071  1.00  0.00    -0.246 OA
ATOM     11  O   UNL     1      15.425 -33.034 -20.618  1.00  0.00    -0.419 OA
ENDROOT
BRANCH   1  12
ATOM     12  O   UNL     1      18.967 -28.834 -21.418  1.00  0.00    -0.493 OA
ATOM     13  C   UNL     1      19.097 -28.102 -22.633  1.00  0.00     0.278 C 
ENDBRANCH   1  12
BRANCH   2  14
ATOM     14  O   UNL     1      19.785 -31.474 -21.816  1.00  0.00    -0.502 OA
ATOM     15  H   UNL     1      20.401 -32.080 -21.289  1.00  0.00     0.293 HD
ENDBRANCH   2  14
BRANCH   3  16
ATOM     16  O   UNL     1      17.993 -33.594 -21.411  1.00  0.00    -0.502 OA
ATOM     17  H   UNL     1      17.619 -34.169 -22.155  1.00  0.00     0.293 HD
ENDBRANCH   3  16
TORSDOF 3
ENDMDL
