MODEL 1
REMARK VINA RESULT:    -4.641      0.000      0.000
REMARK INTER + INTRA:          -8.943
REMARK INTER:                  -8.169
REMARK INTRA:                  -0.775
REMARK UNBOUND:                -0.775
REMARK SMILES CCCCCCC=CCCCCCCCC(=O)[O-]
REMARK SMILES IDX 10 1 11 2 12 3 13 4 14 5 15 6 16 7 17 8 18 9 9 10 8 11 7 12
REMARK SMILES IDX 6 13 5 14 4 15 3 16 2 17 1 18
REMARK H PARENT
REMARK Flexibility Score: inf
ROOT
ATOM      1  C   UNL     1       2.904   1.055  29.799  1.00  0.00     0.004 C 
ENDROOT
BRANCH   1   2
ATOM      2  C   UNL     1       3.451   0.177  30.932  1.00  0.00     0.000 C 
BRANCH   2   3
ATOM      3  C   UNL     1       3.007   0.709  32.302  1.00  0.00     0.000 C 
BRANCH   3   4
ATOM      4  C   UNL     1       3.522   2.129  32.583  1.00  0.00     0.000 C 
BRANCH   4   5
ATOM      5  C   UNL     1       5.058   2.216  32.549  1.00  0.00     0.006 C 
BRANCH   5   6
ATOM      6  C   UNL     1       5.573   3.578  33.036  1.00  0.00     0.053 C 
BRANCH   6   7
ATOM      7  C   UNL     1       6.641   4.123  32.139  1.00  0.00     0.041 C 
ATOM      8  O   UNL     1       6.772   3.679  30.967  1.00  0.00    -0.550 OA
ATOM      9  O   UNL     1       7.507   5.104  32.604  1.00  0.00    -0.550 OA
ENDBRANCH   6   7
ENDBRANCH   5   6
ENDBRANCH   4   5
ENDBRANCH   3   4
ENDBRANCH   2   3
ENDBRANCH   1   2
BRANCH   1  10
ATOM     10  C   UNL     1       2.907   0.297  28.466  1.00  0.00     0.027 C 
BRANCH  10  11
ATOM     11  C   UNL     1       1.530   0.258  27.865  1.00  0.00    -0.031 C 
ATOM     12  C   UNL     1       0.974   1.349  27.316  1.00  0.00    -0.031 C 
BRANCH  12  13
ATOM     13  C   UNL     1      -0.377   1.299  26.656  1.00  0.00     0.027 C 
BRANCH  13  14
ATOM     14  C   UNL     1      -1.048   2.679  26.645  1.00  0.00     0.004 C 
BRANCH  14  15
ATOM     15  C   UNL     1      -0.196   3.748  27.350  1.00  0.00     0.000 C 
BRANCH  15  16
ATOM     16  C   UNL     1      -1.055   4.713  28.195  1.00  0.00    -0.000 C 
BRANCH  16  17
ATOM     17  C   UNL     1      -0.299   5.975  28.645  1.00  0.00    -0.003 C 
ATOM     18  C   UNL     1       0.148   6.854  27.478  1.00  0.00     0.004 C 
ENDBRANCH  16  17
ENDBRANCH  15  16
ENDBRANCH  14  15
ENDBRANCH  13  14
ENDBRANCH  12  13
ENDBRANCH  10  11
ENDBRANCH   1  10
TORSDOF 13
ENDMDL
MODEL 2
REMARK VINA RESULT:    -4.564      3.243      7.500
REMARK INTER + INTRA:          -8.808
REMARK INTER:                  -7.888
REMARK INTRA:                  -0.919
REMARK UNBOUND:                -0.775
REMARK SMILES CCCCCCC=CCCCCCCCC(=O)[O-]
REMARK SMILES IDX 10 1 11 2 12 3 13 4 14 5 15 6 16 7 17 8 18 9 9 10 8 11 7 12
REMARK SMILES IDX 6 13 5 14 4 15 3 16 2 17 1 18
REMARK H PARENT
REMARK Flexibility Score: inf
ROOT
ATOM      1  C   UNL     1       1.584  -0.644  27.672  1.00  0.00     0.004 C 
ENDROOT
BRANCH   1   2
ATOM      2  C   UNL     1       0.493  -0.172  26.705  1.00  0.00     0.000 C 
BRANCH   2   3
ATOM      3  C   UNL     1      -0.447   0.834  27.385  1.00  0.00     0.000 C 
BRANCH   3   4
ATOM      4  C   UNL     1      -0.570   2.153  26.605  1.00  0.00     0.000 C 
BRANCH   4   5
ATOM      5  C   UNL     1       0.030   3.346  27.368  1.00  0.00     0.006 C 
BRANCH   5   6
ATOM      6  C   UNL     1      -1.030   4.397  27.728  1.00  0.00     0.053 C 
BRANCH   6   7
ATOM      7  C   UNL     1      -0.419   5.742  27.974  1.00  0.00     0.041 C 
ATOM      8  O   UNL     1      -0.072   6.078  29.137  1.00  0.00    -0.550 OA
ATOM      9  O   UNL     1      -0.257   6.635  26.922  1.00  0.00    -0.550 OA
ENDBRANCH   6   7
ENDBRANCH   5   6
ENDBRANCH   4   5
ENDBRANCH   3   4
ENDBRANCH   2   3
ENDBRANCH   1   2
BRANCH   1  10
ATOM     10  C   UNL     1       2.629   0.455  27.903  1.00  0.00     0.027 C 
BRANCH  10  11
ATOM     11  C   UNL     1       2.580   0.957  29.319  1.00  0.00    -0.031 C 
ATOM     12  C   UNL     1       3.672   0.959  30.099  1.00  0.00    -0.031 C 
BRANCH  12  13
ATOM     13  C   UNL     1       3.643   1.521  31.494  1.00  0.00     0.027 C 
BRANCH  13  14
ATOM     14  C   UNL     1       2.966   0.553  32.475  1.00  0.00     0.004 C 
BRANCH  14  15
ATOM     15  C   UNL     1       3.608  -0.845  32.450  1.00  0.00     0.000 C 
BRANCH  15  16
ATOM     16  C   UNL     1       2.611  -1.950  32.861  1.00  0.00    -0.000 C 
BRANCH  16  17
ATOM     17  C   UNL     1       2.870  -2.521  34.265  1.00  0.00    -0.003 C 
ATOM     18  C   UNL     1       3.484  -3.919  34.239  1.00  0.00     0.004 C 
ENDBRANCH  16  17
ENDBRANCH  15  16
ENDBRANCH  14  15
ENDBRANCH  13  14
ENDBRANCH  12  13
ENDBRANCH  10  11
ENDBRANCH   1  10
TORSDOF 13
ENDMDL
MODEL 3
REMARK VINA RESULT:    -4.500      3.393      4.102
REMARK INTER + INTRA:          -8.694
REMARK INTER:                  -7.830
REMARK INTRA:                  -0.865
REMARK UNBOUND:                -0.775
REMARK SMILES CCCCCCC=CCCCCCCCC(=O)[O-]
REMARK SMILES IDX 10 1 11 2 12 3 13 4 14 5 15 6 16 7 17 8 18 9 9 10 8 11 7 12
REMARK SMILES IDX 6 13 5 14 4 15 3 16 2 17 1 18
REMARK H PARENT
REMARK Flexibility Score: inf
ROOT
ATOM      1  C   UNL     1       2.692   0.610  29.168  1.00  0.00     0.004 C 
ENDROOT
BRANCH   1   2
ATOM      2  C   UNL     1       4.072   0.475  29.822  1.00  0.00     0.000 C 
BRANCH   2   3
ATOM      3  C   UNL     1       4.029   0.917  31.292  1.00  0.00     0.000 C 
BRANCH   3   4
ATOM      4  C   UNL     1       2.992   0.138  32.116  1.00  0.00     0.000 C 
BRANCH   4   5
ATOM      5  C   UNL     1       3.186  -1.385  32.018  1.00  0.00     0.006 C 
BRANCH   5   6
ATOM      6  C   UNL     1       3.954  -1.951  33.220  1.00  0.00     0.053 C 
BRANCH   6   7
ATOM      7  C   UNL     1       3.045  -2.652  34.182  1.00  0.00     0.041 C 
ATOM      8  O   UNL     1       3.436  -2.907  35.352  1.00  0.00    -0.550 OA
ATOM      9  O   UNL     1       1.776  -3.048  33.778  1.00  0.00    -0.550 OA
ENDBRANCH   6   7
ENDBRANCH   5   6
ENDBRANCH   4   5
ENDBRANCH   3   4
ENDBRANCH   2   3
ENDBRANCH   1   2
BRANCH   1  10
ATOM     10  C   UNL     1       2.285  -0.692  28.468  1.00  0.00     0.027 C 
BRANCH  10  11
ATOM     11  C   UNL     1       1.009  -0.512  27.694  1.00  0.00    -0.031 C 
ATOM     12  C   UNL     1       0.491   0.706  27.472  1.00  0.00    -0.031 C 
BRANCH  12  13
ATOM     13  C   UNL     1      -0.750   0.895  26.642  1.00  0.00     0.027 C 
BRANCH  13  14
ATOM     14  C   UNL     1      -0.859   2.334  26.117  1.00  0.00     0.004 C 
BRANCH  14  15
ATOM     15  C   UNL     1      -0.328   3.365  27.127  1.00  0.00     0.000 C 
BRANCH  15  16
ATOM     16  C   UNL     1      -1.368   4.463  27.438  1.00  0.00    -0.000 C 
BRANCH  16  17
ATOM     17  C   UNL     1      -1.006   5.324  28.661  1.00  0.00    -0.003 C 
ATOM     18  C   UNL     1       0.077   6.359  28.365  1.00  0.00     0.004 C 
ENDBRANCH  16  17
ENDBRANCH  15  16
ENDBRANCH  14  15
ENDBRANCH  13  14
ENDBRANCH  12  13
ENDBRANCH  10  11
ENDBRANCH   1  10
TORSDOF 13
ENDMDL
MODEL 4
REMARK VINA RESULT:    -4.492      9.753     12.112
REMARK INTER + INTRA:          -8.680
REMARK INTER:                  -7.058
REMARK INTRA:                  -1.622
REMARK UNBOUND:                -0.775
REMARK SMILES CCCCCCC=CCCCCCCCC(=O)[O-]
REMARK SMILES IDX 10 1 11 2 12 3 13 4 14 5 15 6 16 7 17 8 18 9 9 10 8 11 7 12
REMARK SMILES IDX 6 13 5 14 4 15 3 16 2 17 1 18
REMARK H PARENT
REMARK Flexibility Score: inf
ROOT
ATOM      1  C   UNL     1       1.512   2.608  19.595  1.00  0.00     0.004 C 
ENDROOT
BRANCH   1   2
ATOM      2  C   UNL     1       1.776   1.181  20.089  1.00  0.00     0.000 C 
BRANCH   2   3
ATOM      3  C   UNL     1       1.144   0.147  19.145  1.00  0.00     0.000 C 
BRANCH   3   4
ATOM      4  C   UNL     1      -0.381   0.300  19.032  1.00  0.00     0.000 C 
BRANCH   4   5
ATOM      5  C   UNL     1      -1.131  -0.424  20.163  1.00  0.00     0.006 C 
BRANCH   5   6
ATOM      6  C   UNL     1      -2.608  -0.013  20.235  1.00  0.00     0.053 C 
BRANCH   6   7
ATOM      7  C   UNL     1      -2.795   1.266  20.992  1.00  0.00     0.041 C 
ATOM      8  O   UNL     1      -2.177   1.458  22.073  1.00  0.00    -0.550 OA
ATOM      9  O   UNL     1      -3.670   2.235  20.518  1.00  0.00    -0.550 OA
ENDBRANCH   6   7
ENDBRANCH   5   6
ENDBRANCH   4   5
ENDBRANCH   3   4
ENDBRANCH   2   3
ENDBRANCH   1   2
BRANCH   1  10
ATOM     10  C   UNL     1       2.084   2.818  18.187  1.00  0.00     0.027 C 
BRANCH  10  11
ATOM     11  C   UNL     1       3.510   3.289  18.250  1.00  0.00    -0.031 C 
ATOM     12  C   UNL     1       3.827   4.502  18.728  1.00  0.00    -0.031 C 
BRANCH  12  13
ATOM     13  C   UNL     1       5.258   4.951  18.854  1.00  0.00     0.027 C 
BRANCH  13  14
ATOM     14  C   UNL     1       5.689   5.045  20.324  1.00  0.00     0.004 C 
BRANCH  14  15
ATOM     15  C   UNL     1       6.428   3.782  20.797  1.00  0.00     0.000 C 
BRANCH  15  16
ATOM     16  C   UNL     1       5.504   2.829  21.586  1.00  0.00    -0.000 C 
BRANCH  16  17
ATOM     17  C   UNL     1       5.350   1.444  20.936  1.00  0.00    -0.003 C 
ATOM     18  C   UNL     1       6.213   1.268  19.688  1.00  0.00     0.004 C 
ENDBRANCH  16  17
ENDBRANCH  15  16
ENDBRANCH  14  15
ENDBRANCH  13  14
ENDBRANCH  12  13
ENDBRANCH  10  11
ENDBRANCH   1  10
TORSDOF 13
ENDMDL
MODEL 5
REMARK VINA RESULT:    -4.482      4.783      7.629
REMARK INTER + INTRA:          -8.664
REMARK INTER:                  -7.979
REMARK INTRA:                  -0.685
REMARK UNBOUND:                -0.775
REMARK SMILES CCCCCCC=CCCCCCCCC(=O)[O-]
REMARK SMILES IDX 10 1 11 2 12 3 13 4 14 5 15 6 16 7 17 8 18 9 9 10 8 11 7 12
REMARK SMILES IDX 6 13 5 14 4 15 3 16 2 17 1 18
REMARK H PARENT
REMARK Flexibility Score: inf
ROOT
ATOM      1  C   UNL     1       5.011   2.328  32.254  1.00  0.00     0.004 C 
ENDROOT
BRANCH   1   2
ATOM      2  C   UNL     1       5.701   3.321  33.197  1.00  0.00     0.000 C 
BRANCH   2   3
ATOM      3  C   UNL     1       6.390   4.443  32.406  1.00  0.00     0.000 C 
BRANCH   3   4
ATOM      4  C   UNL     1       6.964   5.542  33.312  1.00  0.00     0.000 C 
BRANCH   4   5
ATOM      5  C   UNL     1       5.895   6.179  34.216  1.00  0.00     0.006 C 
BRANCH   5   6
ATOM      6  C   UNL     1       6.504   6.834  35.464  1.00  0.00     0.053 C 
BRANCH   6   7
ATOM      7  C   UNL     1       6.796   5.828  36.534  1.00  0.00     0.041 C 
ATOM      8  O   UNL     1       7.886   5.871  37.164  1.00  0.00    -0.550 OA
ATOM      9  O   UNL     1       5.876   4.827  36.819  1.00  0.00    -0.550 OA
ENDBRANCH   6   7
ENDBRANCH   5   6
ENDBRANCH   4   5
ENDBRANCH   3   4
ENDBRANCH   2   3
ENDBRANCH   1   2
BRANCH   1  10
ATOM     10  C   UNL     1       3.512   2.229  32.559  1.00  0.00     0.027 C 
BRANCH  10  11
ATOM     11  C   UNL     1       2.977   0.871  32.198  1.00  0.00    -0.031 C 
ATOM     12  C   UNL     1       3.600  -0.253  32.585  1.00  0.00    -0.031 C 
BRANCH  12  13
ATOM     13  C   UNL     1       3.033  -1.613  32.283  1.00  0.00     0.027 C 
BRANCH  13  14
ATOM     14  C   UNL     1       2.008  -2.042  33.342  1.00  0.00     0.004 C 
BRANCH  14  15
ATOM     15  C   UNL     1       2.476  -3.271  34.141  1.00  0.00     0.000 C 
BRANCH  15  16
ATOM     16  C   UNL     1       3.809  -3.014  34.876  1.00  0.00    -0.000 C 
BRANCH  16  17
ATOM     17  C   UNL     1       4.411  -4.276  35.516  1.00  0.00    -0.003 C 
ATOM     18  C   UNL     1       5.165  -3.989  36.813  1.00  0.00     0.004 C 
ENDBRANCH  16  17
ENDBRANCH  15  16
ENDBRANCH  14  15
ENDBRANCH  13  14
ENDBRANCH  12  13
ENDBRANCH  10  11
ENDBRANCH   1  10
TORSDOF 13
ENDMDL
MODEL 6
REMARK VINA RESULT:    -4.467      4.683      8.106
REMARK INTER + INTRA:          -8.637
REMARK INTER:                  -7.804
REMARK INTRA:                  -0.832
REMARK UNBOUND:                -0.775
REMARK SMILES CCCCCCC=CCCCCCCCC(=O)[O-]
REMARK SMILES IDX 10 1 11 2 12 3 13 4 14 5 15 6 16 7 17 8 18 9 9 10 8 11 7 12
REMARK SMILES IDX 6 13 5 14 4 15 3 16 2 17 1 18
REMARK H PARENT
REMARK Flexibility Score: inf
ROOT
ATOM      1  C   UNL     1       2.999   0.570  32.062  1.00  0.00     0.004 C 
ENDROOT
BRANCH   1   2
ATOM      2  C   UNL     1       3.503   1.979  32.398  1.00  0.00     0.000 C 
BRANCH   2   3
ATOM      3  C   UNL     1       5.034   2.001  32.519  1.00  0.00     0.000 C 
BRANCH   3   4
ATOM      4  C   UNL     1       5.623   3.408  32.337  1.00  0.00     0.000 C 
BRANCH   4   5
ATOM      5  C   UNL     1       6.116   4.017  33.661  1.00  0.00     0.006 C 
BRANCH   5   6
ATOM      6  C   UNL     1       6.195   5.548  33.602  1.00  0.00     0.053 C 
BRANCH   6   7
ATOM      7  C   UNL     1       6.253   6.156  34.970  1.00  0.00     0.041 C 
ATOM      8  O   UNL     1       6.532   7.376  35.110  1.00  0.00    -0.550 OA
ATOM      9  O   UNL     1       6.023   5.369  36.091  1.00  0.00    -0.550 OA
ENDBRANCH   6   7
ENDBRANCH   5   6
ENDBRANCH   4   5
ENDBRANCH   3   4
ENDBRANCH   2   3
ENDBRANCH   1   2
BRANCH   1  10
ATOM     10  C   UNL     1       4.168  -0.413  31.918  1.00  0.00     0.027 C 
BRANCH  10  11
ATOM     11  C   UNL     1       4.046  -1.543  32.901  1.00  0.00    -0.031 C 
ATOM     12  C   UNL     1       2.849  -1.993  33.306  1.00  0.00    -0.031 C 
BRANCH  12  13
ATOM     13  C   UNL     1       2.721  -3.167  34.239  1.00  0.00     0.027 C 
BRANCH  13  14
ATOM     14  C   UNL     1       3.738  -3.084  35.386  1.00  0.00     0.004 C 
BRANCH  14  15
ATOM     15  C   UNL     1       4.459  -4.422  35.624  1.00  0.00     0.000 C 
BRANCH  15  16
ATOM     16  C   UNL     1       5.376  -4.376  36.865  1.00  0.00    -0.000 C 
BRANCH  16  17
ATOM     17  C   UNL     1       6.188  -3.074  36.981  1.00  0.00    -0.003 C 
ATOM     18  C   UNL     1       7.393  -3.034  36.044  1.00  0.00     0.004 C 
ENDBRANCH  16  17
ENDBRANCH  15  16
ENDBRANCH  14  15
ENDBRANCH  13  14
ENDBRANCH  12  13
ENDBRANCH  10  11
ENDBRANCH   1  10
TORSDOF 13
ENDMDL
MODEL 7
REMARK VINA RESULT:    -4.437      4.132      5.613
REMARK INTER + INTRA:          -8.584
REMARK INTER:                  -7.537
REMARK INTRA:                  -1.047
REMARK UNBOUND:                -0.775
REMARK SMILES CCCCCCC=CCCCCCCCC(=O)[O-]
REMARK SMILES IDX 10 1 11 2 12 3 13 4 14 5 15 6 16 7 17 8 18 9 9 10 8 11 7 12
REMARK SMILES IDX 6 13 5 14 4 15 3 16 2 17 1 18
REMARK H PARENT
REMARK Flexibility Score: inf
ROOT
ATOM      1  C   UNL     1       2.998   0.388  32.501  1.00  0.00     0.004 C 
ENDROOT
BRANCH   1   2
ATOM      2  C   UNL     1       3.643  -1.003  32.493  1.00  0.00     0.000 C 
BRANCH   2   3
ATOM      3  C   UNL     1       2.587  -2.097  32.273  1.00  0.00     0.000 C 
BRANCH   3   4
ATOM      4  C   UNL     1       1.943  -2.571  33.585  1.00  0.00     0.000 C 
BRANCH   4   5
ATOM      5  C   UNL     1       2.981  -2.842  34.688  1.00  0.00     0.006 C 
BRANCH   5   6
ATOM      6  C   UNL     1       3.794  -4.116  34.420  1.00  0.00     0.053 C 
BRANCH   6   7
ATOM      7  C   UNL     1       4.851  -4.331  35.459  1.00  0.00     0.041 C 
ATOM      8  O   UNL     1       5.753  -3.470  35.633  1.00  0.00    -0.550 OA
ATOM      9  O   UNL     1       4.854  -5.495  36.218  1.00  0.00    -0.550 OA
ENDBRANCH   6   7
ENDBRANCH   5   6
ENDBRANCH   4   5
ENDBRANCH   3   4
ENDBRANCH   2   3
ENDBRANCH   1   2
BRANCH   1  10
ATOM     10  C   UNL     1       3.677   1.315  31.485  1.00  0.00     0.027 C 
BRANCH  10  11
ATOM     11  C   UNL     1       3.026   1.203  30.135  1.00  0.00    -0.031 C 
ATOM     12  C   UNL     1       3.568   0.463  29.155  1.00  0.00    -0.031 C 
BRANCH  12  13
ATOM     13  C   UNL     1       2.887   0.295  27.825  1.00  0.00     0.027 C 
BRANCH  13  14
ATOM     14  C   UNL     1       1.548  -0.442  27.969  1.00  0.00     0.004 C 
BRANCH  14  15
ATOM     15  C   UNL     1       0.619  -0.206  26.766  1.00  0.00     0.000 C 
BRANCH  15  16
ATOM     16  C   UNL     1      -0.643   0.594  27.154  1.00  0.00    -0.000 C 
BRANCH  16  17
ATOM     17  C   UNL     1      -0.697   1.998  26.527  1.00  0.00    -0.003 C 
ATOM     18  C   UNL     1       0.124   3.031  27.296  1.00  0.00     0.004 C 
ENDBRANCH  16  17
ENDBRANCH  15  16
ENDBRANCH  14  15
ENDBRANCH  13  14
ENDBRANCH  12  13
ENDBRANCH  10  11
ENDBRANCH   1  10
TORSDOF 13
ENDMDL
MODEL 8
REMARK VINA RESULT:    -4.436      4.240      8.031
REMARK INTER + INTRA:          -8.583
REMARK INTER:                  -7.054
REMARK INTRA:                  -1.529
REMARK UNBOUND:                -0.775
REMARK SMILES CCCCCCC=CCCCCCCCC(=O)[O-]
REMARK SMILES IDX 10 1 11 2 12 3 13 4 14 5 15 6 16 7 17 8 18 9 9 10 8 11 7 12
REMARK SMILES IDX 6 13 5 14 4 15 3 16 2 17 1 18
REMARK H PARENT
REMARK Flexibility Score: inf
ROOT
ATOM      1  C   UNL     1       6.446   8.683  34.371  1.00  0.00     0.004 C 
ENDROOT
BRANCH   1   2
ATOM      2  C   UNL     1       5.277   9.644  34.618  1.00  0.00     0.000 C 
BRANCH   2   3
ATOM      3  C   UNL     1       4.559   9.310  35.934  1.00  0.00     0.000 C 
BRANCH   3   4
ATOM      4  C   UNL     1       4.179   7.825  36.042  1.00  0.00     0.000 C 
BRANCH   4   5
ATOM      5  C   UNL     1       4.481   7.239  37.432  1.00  0.00     0.006 C 
BRANCH   5   6
ATOM      6  C   UNL     1       5.988   7.080  37.680  1.00  0.00     0.053 C 
BRANCH   6   7
ATOM      7  C   UNL     1       6.513   5.797  37.113  1.00  0.00     0.041 C 
ATOM      8  O   UNL     1       7.666   5.753  36.608  1.00  0.00    -0.550 OA
ATOM      9  O   UNL     1       5.720   4.656  37.121  1.00  0.00    -0.550 OA
ENDBRANCH   6   7
ENDBRANCH   5   6
ENDBRANCH   4   5
ENDBRANCH   3   4
ENDBRANCH   2   3
ENDBRANCH   1   2
BRANCH   1  10
ATOM     10  C   UNL     1       6.286   7.954  33.031  1.00  0.00     0.027 C 
BRANCH  10  11
ATOM     11  C   UNL     1       6.754   6.530  33.133  1.00  0.00    -0.031 C 
ATOM     12  C   UNL     1       5.909   5.535  33.443  1.00  0.00    -0.031 C 
BRANCH  12  13
ATOM     13  C   UNL     1       6.360   4.100  33.482  1.00  0.00     0.027 C 
BRANCH  13  14
ATOM     14  C   UNL     1       6.249   3.440  32.100  1.00  0.00     0.004 C 
BRANCH  14  15
ATOM     15  C   UNL     1       5.482   2.107  32.151  1.00  0.00     0.000 C 
BRANCH  15  16
ATOM     16  C   UNL     1       4.080   2.267  32.778  1.00  0.00    -0.000 C 
BRANCH  16  17
ATOM     17  C   UNL     1       3.000   1.413  32.095  1.00  0.00    -0.003 C 
ATOM     18  C   UNL     1       3.336   1.068  30.645  1.00  0.00     0.004 C 
ENDBRANCH  16  17
ENDBRANCH  15  16
ENDBRANCH  14  15
ENDBRANCH  13  14
ENDBRANCH  12  13
ENDBRANCH  10  11
ENDBRANCH   1  10
TORSDOF 13
ENDMDL
MODEL 9
REMARK VINA RESULT:    -4.416      4.399      6.846
REMARK INTER + INTRA:          -8.546
REMARK INTER:                  -6.928
REMARK INTRA:                  -1.618
REMARK UNBOUND:                -0.775
REMARK SMILES CCCCCCC=CCCCCCCCC(=O)[O-]
REMARK SMILES IDX 10 1 11 2 12 3 13 4 14 5 15 6 16 7 17 8 18 9 9 10 8 11 7 12
REMARK SMILES IDX 6 13 5 14 4 15 3 16 2 17 1 18
REMARK H PARENT
REMARK Flexibility Score: inf
ROOT
ATOM      1  C   UNL     1       3.155   1.700  32.404  1.00  0.00     0.004 C 
ENDROOT
BRANCH   1   2
ATOM      2  C   UNL     1       4.372   2.537  32.815  1.00  0.00     0.000 C 
BRANCH   2   3
ATOM      3  C   UNL     1       5.582   2.224  31.922  1.00  0.00     0.000 C 
BRANCH   3   4
ATOM      4  C   UNL     1       6.851   2.971  32.359  1.00  0.00     0.000 C 
BRANCH   4   5
ATOM      5  C   UNL     1       6.938   4.386  31.761  1.00  0.00     0.006 C 
BRANCH   5   6
ATOM      6  C   UNL     1       6.371   5.453  32.708  1.00  0.00     0.053 C 
BRANCH   6   7
ATOM      7  C   UNL     1       6.981   5.365  34.074  1.00  0.00     0.041 C 
ATOM      8  O   UNL     1       6.259   5.121  35.076  1.00  0.00    -0.550 OA
ATOM      9  O   UNL     1       8.343   5.579  34.242  1.00  0.00    -0.550 OA
ENDBRANCH   6   7
ENDBRANCH   5   6
ENDBRANCH   4   5
ENDBRANCH   3   4
ENDBRANCH   2   3
ENDBRANCH   1   2
BRANCH   1  10
ATOM     10  C   UNL     1       3.529   0.679  31.323  1.00  0.00     0.027 C 
BRANCH  10  11
ATOM     11  C   UNL     1       2.957  -0.675  31.640  1.00  0.00    -0.031 C 
ATOM     12  C   UNL     1       2.628  -1.020  32.894  1.00  0.00    -0.031 C 
BRANCH  12  13
ATOM     13  C   UNL     1       1.994  -2.348  33.206  1.00  0.00     0.027 C 
BRANCH  13  14
ATOM     14  C   UNL     1       3.015  -3.334  33.789  1.00  0.00     0.004 C 
BRANCH  14  15
ATOM     15  C   UNL     1       3.902  -2.686  34.866  1.00  0.00     0.000 C 
BRANCH  15  16
ATOM     16  C   UNL     1       5.390  -3.063  34.699  1.00  0.00    -0.000 C 
BRANCH  16  17
ATOM     17  C   UNL     1       5.930  -2.818  33.280  1.00  0.00    -0.003 C 
ATOM     18  C   UNL     1       6.328  -1.365  33.033  1.00  0.00     0.004 C 
ENDBRANCH  16  17
ENDBRANCH  15  16
ENDBRANCH  14  15
ENDBRANCH  13  14
ENDBRANCH  12  13
ENDBRANCH  10  11
ENDBRANCH   1  10
TORSDOF 13
ENDMDL
