MODEL 1
REMARK VINA RESULT:    -3.221      0.000      0.000
REMARK INTER + INTRA:          -3.844
REMARK INTER:                  -3.786
REMARK INTRA:                  -0.059
REMARK UNBOUND:                -0.059
REMARK SMILES CCCCC(=O)[O-]
REMARK SMILES IDX 4 1 5 2 6 3 7 4 3 5 2 6 1 7
REMARK H PARENT
REMARK Flexibility Score: inf
ROOT
ATOM      1  C   UNL     1     -12.161   0.675  14.965  1.00  0.00     0.053 C 
ENDROOT
BRANCH   1   2
ATOM      2  C   UNL     1     -10.713   1.047  15.023  1.00  0.00     0.041 C 
ATOM      3  O   UNL     1      -9.912   0.609  14.155  1.00  0.00    -0.550 OA
ATOM      4  O   UNL     1     -10.257   1.916  16.005  1.00  0.00    -0.550 OA
ENDBRANCH   1   2
BRANCH   1   5
ATOM      5  C   UNL     1     -12.478  -0.040  13.645  1.00  0.00     0.006 C 
BRANCH   5   6
ATOM      6  C   UNL     1     -13.066  -1.443  13.860  1.00  0.00    -0.003 C 
ATOM      7  C   UNL     1     -12.415  -2.499  12.967  1.00  0.00     0.004 C 
ENDBRANCH   5   6
ENDBRANCH   1   5
TORSDOF 3
ENDMDL
MODEL 2
REMARK VINA RESULT:    -3.170      2.162      3.978
REMARK INTER + INTRA:          -3.784
REMARK INTER:                  -3.691
REMARK INTRA:                  -0.093
REMARK UNBOUND:                -0.059
REMARK SMILES CCCCC(=O)[O-]
REMARK SMILES IDX 4 1 5 2 6 3 7 4 3 5 2 6 1 7
REMARK H PARENT
REMARK Flexibility Score: inf
ROOT
ATOM      1  C   UNL     1     -10.578   0.668  14.162  1.00  0.00     0.053 C 
ENDROOT
BRANCH   1   2
ATOM      2  C   UNL     1     -12.012   0.252  14.263  1.00  0.00     0.041 C 
ATOM      3  O   UNL     1     -12.548  -0.403  13.330  1.00  0.00    -0.550 OA
ATOM      4  O   UNL     1     -12.742   0.542  15.408  1.00  0.00    -0.550 OA
ENDBRANCH   1   2
BRANCH   1   5
ATOM      5  C   UNL     1     -10.040   1.073  15.541  1.00  0.00     0.006 C 
BRANCH   5   6
ATOM      6  C   UNL     1      -9.700   2.569  15.626  1.00  0.00    -0.003 C 
ATOM      7  C   UNL     1     -10.918   3.433  15.954  1.00  0.00     0.004 C 
ENDBRANCH   5   6
ENDBRANCH   1   5
TORSDOF 3
ENDMDL
MODEL 3
REMARK VINA RESULT:    -3.094      1.699      2.241
REMARK INTER + INTRA:          -3.695
REMARK INTER:                  -3.676
REMARK INTRA:                  -0.019
REMARK UNBOUND:                -0.059
REMARK SMILES CCCCC(=O)[O-]
REMARK SMILES IDX 4 1 5 2 6 3 7 4 3 5 2 6 1 7
REMARK H PARENT
REMARK Flexibility Score: inf
ROOT
ATOM      1  C   UNL     1     -11.299   1.365  15.642  1.00  0.00     0.053 C 
ENDROOT
BRANCH   1   2
ATOM      2  C   UNL     1     -11.660   2.745  16.091  1.00  0.00     0.041 C 
ATOM      3  O   UNL     1     -10.976   3.734  15.713  1.00  0.00    -0.550 OA
ATOM      4  O   UNL     1     -12.781   2.947  16.886  1.00  0.00    -0.550 OA
ENDBRANCH   1   2
BRANCH   1   5
ATOM      5  C   UNL     1     -12.530   0.646  15.076  1.00  0.00     0.006 C 
BRANCH   5   6
ATOM      6  C   UNL     1     -12.241  -0.057  13.740  1.00  0.00    -0.003 C 
ATOM      7  C   UNL     1     -12.931  -1.417  13.628  1.00  0.00     0.004 C 
ENDBRANCH   5   6
ENDBRANCH   1   5
TORSDOF 3
ENDMDL
MODEL 4
REMARK VINA RESULT:    -3.088      2.714      3.884
REMARK INTER + INTRA:          -3.689
REMARK INTER:                  -3.658
REMARK INTRA:                  -0.031
REMARK UNBOUND:                -0.059
REMARK SMILES CCCCC(=O)[O-]
REMARK SMILES IDX 4 1 5 2 6 3 7 4 3 5 2 6 1 7
REMARK H PARENT
REMARK Flexibility Score: inf
ROOT
ATOM      1  C   UNL     1      -9.986   1.365  15.683  1.00  0.00     0.053 C 
ENDROOT
BRANCH   1   2
ATOM      2  C   UNL     1     -10.128   0.644  14.380  1.00  0.00     0.041 C 
ATOM      3  O   UNL     1      -9.108   0.373  13.691  1.00  0.00    -0.550 OA
ATOM      4  O   UNL     1     -11.380   0.226  13.949  1.00  0.00    -0.550 OA
ENDBRANCH   1   2
BRANCH   1   5
ATOM      5  C   UNL     1     -10.943   2.563  15.739  1.00  0.00     0.006 C 
BRANCH   5   6
ATOM      6  C   UNL     1     -12.175   2.293  16.617  1.00  0.00    -0.003 C 
ATOM      7  C   UNL     1     -12.882   3.576  17.053  1.00  0.00     0.004 C 
ENDBRANCH   5   6
ENDBRANCH   1   5
TORSDOF 3
ENDMDL
MODEL 5
REMARK VINA RESULT:    -3.067      2.563      3.874
REMARK INTER + INTRA:          -3.663
REMARK INTER:                  -3.606
REMARK INTRA:                  -0.057
REMARK UNBOUND:                -0.059
REMARK SMILES CCCCC(=O)[O-]
REMARK SMILES IDX 4 1 5 2 6 3 7 4 3 5 2 6 1 7
REMARK H PARENT
REMARK Flexibility Score: inf
ROOT
ATOM      1  C   UNL     1     -12.105  -0.070  13.507  1.00  0.00     0.053 C 
ENDROOT
BRANCH   1   2
ATOM      2  C   UNL     1     -12.775  -1.403  13.620  1.00  0.00     0.041 C 
ATOM      3  O   UNL     1     -13.593  -1.623  14.552  1.00  0.00    -0.550 OA
ATOM      4  O   UNL     1     -12.536  -2.385  12.668  1.00  0.00    -0.550 OA
ENDBRANCH   1   2
BRANCH   1   5
ATOM      5  C   UNL     1     -12.108   0.647  14.862  1.00  0.00     0.006 C 
BRANCH   5   6
ATOM      6  C   UNL     1     -10.742   1.263  15.208  1.00  0.00    -0.003 C 
ATOM      7  C   UNL     1      -9.605   0.690  14.361  1.00  0.00     0.004 C 
ENDBRANCH   5   6
ENDBRANCH   1   5
TORSDOF 3
ENDMDL
MODEL 6
REMARK VINA RESULT:    -3.060     12.828     13.902
REMARK INTER + INTRA:          -3.655
REMARK INTER:                  -3.585
REMARK INTRA:                  -0.070
REMARK UNBOUND:                -0.059
REMARK SMILES CCCCC(=O)[O-]
REMARK SMILES IDX 4 1 5 2 6 3 7 4 3 5 2 6 1 7
REMARK H PARENT
REMARK Flexibility Score: inf
ROOT
ATOM      1  C   UNL     1      -1.080  -3.061  22.447  1.00  0.00     0.053 C 
ENDROOT
BRANCH   1   2
ATOM      2  C   UNL     1      -0.600  -3.844  23.628  1.00  0.00     0.041 C 
ATOM      3  O   UNL     1      -0.722  -3.374  24.791  1.00  0.00    -0.550 OA
ATOM      4  O   UNL     1      -0.065  -5.114  23.451  1.00  0.00    -0.550 OA
ENDBRANCH   1   2
BRANCH   1   5
ATOM      5  C   UNL     1      -2.526  -3.443  22.104  1.00  0.00     0.006 C 
BRANCH   5   6
ATOM      6  C   UNL     1      -3.485  -2.243  22.171  1.00  0.00    -0.003 C 
ATOM      7  C   UNL     1      -3.045  -1.193  23.191  1.00  0.00     0.004 C 
ENDBRANCH   5   6
ENDBRANCH   1   5
TORSDOF 3
ENDMDL
MODEL 7
REMARK VINA RESULT:    -2.970      2.908      3.583
REMARK INTER + INTRA:          -3.550
REMARK INTER:                  -3.519
REMARK INTRA:                  -0.031
REMARK UNBOUND:                -0.059
REMARK SMILES CCCCC(=O)[O-]
REMARK SMILES IDX 4 1 5 2 6 3 7 4 3 5 2 6 1 7
REMARK H PARENT
REMARK Flexibility Score: inf
ROOT
ATOM      1  C   UNL     1     -12.067   1.885  16.392  1.00  0.00     0.053 C 
ENDROOT
BRANCH   1   2
ATOM      2  C   UNL     1     -12.346   3.322  16.698  1.00  0.00     0.041 C 
ATOM      3  O   UNL     1     -13.257   3.631  17.511  1.00  0.00    -0.550 OA
ATOM      4  O   UNL     1     -11.568   4.320  16.124  1.00  0.00    -0.550 OA
ENDBRANCH   1   2
BRANCH   1   5
ATOM      5  C   UNL     1     -10.758   1.750  15.602  1.00  0.00     0.006 C 
BRANCH   5   6
ATOM      6  C   UNL     1     -10.865   0.737  14.451  1.00  0.00    -0.003 C 
ATOM      7  C   UNL     1      -9.510   0.153  14.052  1.00  0.00     0.004 C 
ENDBRANCH   5   6
ENDBRANCH   1   5
TORSDOF 3
ENDMDL
MODEL 8
REMARK VINA RESULT:    -2.869     12.441     13.574
REMARK INTER + INTRA:          -3.430
REMARK INTER:                  -3.327
REMARK INTRA:                  -0.103
REMARK UNBOUND:                -0.059
REMARK SMILES CCCCC(=O)[O-]
REMARK SMILES IDX 4 1 5 2 6 3 7 4 3 5 2 6 1 7
REMARK H PARENT
REMARK Flexibility Score: inf
ROOT
ATOM      1  C   UNL     1      -2.357  -3.404  22.109  1.00  0.00     0.053 C 
ENDROOT
BRANCH   1   2
ATOM      2  C   UNL     1      -3.177  -2.254  22.601  1.00  0.00     0.041 C 
ATOM      3  O   UNL     1      -4.304  -2.015  22.090  1.00  0.00    -0.550 OA
ATOM      4  O   UNL     1      -2.722  -1.477  23.659  1.00  0.00    -0.550 OA
ENDBRANCH   1   2
BRANCH   1   5
ATOM      5  C   UNL     1      -0.874  -3.181  22.433  1.00  0.00     0.006 C 
BRANCH   5   6
ATOM      6  C   UNL     1      -0.321  -4.224  23.416  1.00  0.00    -0.003 C 
ATOM      7  C   UNL     1      -0.309  -3.726  24.862  1.00  0.00     0.004 C 
ENDBRANCH   5   6
ENDBRANCH   1   5
TORSDOF 3
ENDMDL
MODEL 9
REMARK VINA RESULT:    -2.862      2.361      3.228
REMARK INTER + INTRA:          -3.423
REMARK INTER:                  -3.373
REMARK INTRA:                  -0.050
REMARK UNBOUND:                -0.059
REMARK SMILES CCCCC(=O)[O-]
REMARK SMILES IDX 4 1 5 2 6 3 7 4 3 5 2 6 1 7
REMARK H PARENT
REMARK Flexibility Score: inf
ROOT
ATOM      1  C   UNL     1     -10.566   2.677  15.643  1.00  0.00     0.053 C 
ENDROOT
BRANCH   1   2
ATOM      2  C   UNL     1     -11.592   2.584  16.728  1.00  0.00     0.041 C 
ATOM      3  O   UNL     1     -11.300   2.050  17.831  1.00  0.00    -0.550 OA
ATOM      4  O   UNL     1     -12.855   3.130  16.540  1.00  0.00    -0.550 OA
ENDBRANCH   1   2
BRANCH   1   5
ATOM      5  C   UNL     1      -9.858   1.329  15.458  1.00  0.00     0.006 C 
BRANCH   5   6
ATOM      6  C   UNL     1     -10.169   0.680  14.101  1.00  0.00    -0.003 C 
ATOM      7  C   UNL     1     -11.609   0.176  14.004  1.00  0.00     0.004 C 
ENDBRANCH   5   6
ENDBRANCH   1   5
TORSDOF 3
ENDMDL
