MODEL 1
REMARK VINA RESULT:    -5.544      0.000      0.000
REMARK INTER + INTRA:          -5.901
REMARK INTER:                  -5.868
REMARK INTRA:                  -0.032
REMARK UNBOUND:                -0.032
REMARK SMILES COc1ccc2ccc(=O)oc2c1
REMARK SMILES IDX 3 1 13 2 12 3 6 4 5 5 4 6 7 7 8 8 9 9 10 10 11 11 2 12 1 13
REMARK H PARENT
REMARK Flexibility Score: inf
ROOT
ATOM      1  C   UNL     1      20.432   0.291 -17.758  1.00  0.00     0.122 A 
ATOM      2  C   UNL     1      21.148   0.955 -18.763  1.00  0.00     0.094 A 
ATOM      3  C   UNL     1      21.170   0.454 -20.069  1.00  0.00     0.142 A 
ATOM      4  C   UNL     1      20.466  -0.729 -20.379  1.00  0.00     0.018 A 
ATOM      5  C   UNL     1      19.749  -1.397 -19.378  1.00  0.00     0.016 A 
ATOM      6  C   UNL     1      19.732  -0.891 -18.074  1.00  0.00     0.047 A 
ATOM      7  C   UNL     1      20.506  -1.205 -21.693  1.00  0.00     0.019 A 
ATOM      8  C   UNL     1      21.236  -0.502 -22.653  1.00  0.00     0.094 A 
ATOM      9  C   UNL     1      21.908   0.664 -22.274  1.00  0.00     0.336 A 
ATOM     10  O   UNL     1      22.571   1.312 -23.125  1.00  0.00    -0.246 OA
ATOM     11  O   UNL     1      21.852   1.094 -21.015  1.00  0.00    -0.423 OA
ENDROOT
BRANCH   1  12
ATOM     12  O   UNL     1      20.443   0.835 -16.465  1.00  0.00    -0.497 OA
ATOM     13  C   UNL     1      19.282   1.014 -15.659  1.00  0.00     0.278 C 
ENDBRANCH   1  12
TORSDOF 1
ENDMDL
MODEL 2
REMARK VINA RESULT:    -5.528      1.001      4.669
REMARK INTER + INTRA:          -5.884
REMARK INTER:                  -5.844
REMARK INTRA:                  -0.040
REMARK UNBOUND:                -0.032
REMARK SMILES COc1ccc2ccc(=O)oc2c1
REMARK SMILES IDX 3 1 13 2 12 3 6 4 5 5 4 6 7 7 8 8 9 9 10 10 11 11 2 12 1 13
REMARK H PARENT
REMARK Flexibility Score: inf
ROOT
ATOM      1  C   UNL     1      21.817   0.736 -22.160  1.00  0.00     0.122 A 
ATOM      2  C   UNL     1      21.695   1.205 -20.846  1.00  0.00     0.094 A 
ATOM      3  C   UNL     1      21.008   0.455 -19.885  1.00  0.00     0.142 A 
ATOM      4  C   UNL     1      20.433  -0.783 -20.241  1.00  0.00     0.018 A 
ATOM      5  C   UNL     1      20.551  -1.256 -21.554  1.00  0.00     0.016 A 
ATOM      6  C   UNL     1      21.240  -0.501 -22.510  1.00  0.00     0.047 A 
ATOM      7  C   UNL     1      19.752  -1.510 -19.260  1.00  0.00     0.019 A 
ATOM      8  C   UNL     1      19.662  -0.994 -17.966  1.00  0.00     0.094 A 
ATOM      9  C   UNL     1      20.257   0.240 -17.685  1.00  0.00     0.336 A 
ATOM     10  O   UNL     1      20.188   0.722 -16.525  1.00  0.00    -0.246 OA
ATOM     11  O   UNL     1      20.900   0.910 -18.639  1.00  0.00    -0.423 OA
ENDROOT
BRANCH   1  12
ATOM     12  O   UNL     1      22.517   1.526 -23.085  1.00  0.00    -0.497 OA
ATOM     13  C   UNL     1      22.468   2.949 -23.124  1.00  0.00     0.278 C 
ENDBRANCH   1  12
TORSDOF 1
ENDMDL
MODEL 3
REMARK VINA RESULT:    -5.104      7.539      9.270
REMARK INTER + INTRA:          -5.434
REMARK INTER:                  -5.403
REMARK INTRA:                  -0.031
REMARK UNBOUND:                -0.032
REMARK SMILES COc1ccc2ccc(=O)oc2c1
REMARK SMILES IDX 3 1 13 2 12 3 6 4 5 5 4 6 7 7 8 8 9 9 10 10 11 11 2 12 1 13
REMARK H PARENT
REMARK Flexibility Score: inf
ROOT
ATOM      1  C   UNL     1      23.179   6.012 -20.372  1.00  0.00     0.122 A 
ATOM      2  C   UNL     1      22.429   7.095 -19.892  1.00  0.00     0.094 A 
ATOM      3  C   UNL     1      23.015   8.048 -19.052  1.00  0.00     0.142 A 
ATOM      4  C   UNL     1      24.371   7.921 -18.685  1.00  0.00     0.018 A 
ATOM      5  C   UNL     1      25.125   6.841 -19.162  1.00  0.00     0.016 A 
ATOM      6  C   UNL     1      24.533   5.891 -20.001  1.00  0.00     0.047 A 
ATOM      7  C   UNL     1      24.929   8.889 -17.845  1.00  0.00     0.019 A 
ATOM      8  C   UNL     1      24.135   9.946 -17.397  1.00  0.00     0.094 A 
ATOM      9  C   UNL     1      22.798  10.008 -17.803  1.00  0.00     0.336 A 
ATOM     10  O   UNL     1      22.065  10.953 -17.410  1.00  0.00    -0.246 OA
ATOM     11  O   UNL     1      22.293   9.072 -18.604  1.00  0.00    -0.423 OA
ENDROOT
BRANCH   1  12
ATOM     12  O   UNL     1      22.543   5.085 -21.211  1.00  0.00    -0.497 OA
ATOM     13  C   UNL     1      22.981   4.759 -22.526  1.00  0.00     0.278 C 
ENDBRANCH   1  12
TORSDOF 1
ENDMDL
MODEL 4
REMARK VINA RESULT:    -5.095      1.955      2.992
REMARK INTER + INTRA:          -5.425
REMARK INTER:                  -5.392
REMARK INTRA:                  -0.033
REMARK UNBOUND:                -0.032
REMARK SMILES COc1ccc2ccc(=O)oc2c1
REMARK SMILES IDX 3 1 13 2 12 3 6 4 5 5 4 6 7 7 8 8 9 9 10 10 11 11 2 12 1 13
REMARK H PARENT
REMARK Flexibility Score: inf
ROOT
ATOM      1  C   UNL     1      21.666   1.366 -16.319  1.00  0.00     0.122 A 
ATOM      2  C   UNL     1      21.930   0.954 -17.632  1.00  0.00     0.094 A 
ATOM      3  C   UNL     1      20.968   0.248 -18.363  1.00  0.00     0.142 A 
ATOM      4  C   UNL     1      19.721  -0.052 -17.775  1.00  0.00     0.018 A 
ATOM      5  C   UNL     1      19.452   0.357 -16.462  1.00  0.00     0.016 A 
ATOM      6  C   UNL     1      20.419   1.062 -15.737  1.00  0.00     0.047 A 
ATOM      7  C   UNL     1      18.780  -0.758 -18.529  1.00  0.00     0.019 A 
ATOM      8  C   UNL     1      19.098  -1.143 -19.832  1.00  0.00     0.094 A 
ATOM      9  C   UNL     1      20.354  -0.810 -20.350  1.00  0.00     0.336 A 
ATOM     10  O   UNL     1      20.659  -1.148 -21.524  1.00  0.00    -0.246 OA
ATOM     11  O   UNL     1      21.231  -0.137 -19.609  1.00  0.00    -0.423 OA
ENDROOT
BRANCH   1  12
ATOM     12  O   UNL     1      22.665   2.070 -15.631  1.00  0.00    -0.497 OA
ATOM     13  C   UNL     1      23.613   1.470 -14.754  1.00  0.00     0.278 C 
ENDBRANCH   1  12
TORSDOF 1
ENDMDL
MODEL 5
REMARK VINA RESULT:    -5.013     14.378     17.109
REMARK INTER + INTRA:          -5.338
REMARK INTER:                  -5.304
REMARK INTRA:                  -0.034
REMARK UNBOUND:                -0.032
REMARK SMILES COc1ccc2ccc(=O)oc2c1
REMARK SMILES IDX 3 1 13 2 12 3 6 4 5 5 4 6 7 7 8 8 9 9 10 10 11 11 2 12 1 13
REMARK H PARENT
REMARK Flexibility Score: inf
ROOT
ATOM      1  C   UNL     1       8.105  -6.236  -7.122  1.00  0.00     0.122 A 
ATOM      2  C   UNL     1       9.478  -6.355  -7.375  1.00  0.00     0.094 A 
ATOM      3  C   UNL     1      10.012  -5.952  -8.604  1.00  0.00     0.142 A 
ATOM      4  C   UNL     1       9.163  -5.422  -9.598  1.00  0.00     0.018 A 
ATOM      5  C   UNL     1       7.789  -5.302  -9.350  1.00  0.00     0.016 A 
ATOM      6  C   UNL     1       7.262  -5.707  -8.119  1.00  0.00     0.047 A 
ATOM      7  C   UNL     1       9.724  -5.028 -10.815  1.00  0.00     0.019 A 
ATOM      8  C   UNL     1      11.099  -5.168 -11.012  1.00  0.00     0.094 A 
ATOM      9  C   UNL     1      11.880  -5.702  -9.981  1.00  0.00     0.336 A 
ATOM     10  O   UNL     1      13.121  -5.836 -10.139  1.00  0.00    -0.246 OA
ATOM     11  O   UNL     1      11.318  -6.068  -8.832  1.00  0.00    -0.423 OA
ENDROOT
BRANCH   1  12
ATOM     12  O   UNL     1       7.622  -6.655  -5.873  1.00  0.00    -0.497 OA
ATOM     13  C   UNL     1       7.469  -8.017  -5.486  1.00  0.00     0.278 C 
ENDBRANCH   1  12
TORSDOF 1
ENDMDL
MODEL 6
REMARK VINA RESULT:    -4.945      1.720      4.821
REMARK INTER + INTRA:          -5.266
REMARK INTER:                  -5.223
REMARK INTRA:                  -0.043
REMARK UNBOUND:                -0.032
REMARK SMILES COc1ccc2ccc(=O)oc2c1
REMARK SMILES IDX 3 1 13 2 12 3 6 4 5 5 4 6 7 7 8 8 9 9 10 10 11 11 2 12 1 13
REMARK H PARENT
REMARK Flexibility Score: inf
ROOT
ATOM      1  C   UNL     1      19.920  -0.757 -19.853  1.00  0.00     0.122 A 
ATOM      2  C   UNL     1      21.033  -0.109 -19.300  1.00  0.00     0.094 A 
ATOM      3  C   UNL     1      21.002   0.354 -17.980  1.00  0.00     0.142 A 
ATOM      4  C   UNL     1      19.843   0.166 -17.197  1.00  0.00     0.018 A 
ATOM      5  C   UNL     1      18.728  -0.481 -17.746  1.00  0.00     0.016 A 
ATOM      6  C   UNL     1      18.765  -0.940 -19.067  1.00  0.00     0.047 A 
ATOM      7  C   UNL     1      19.841   0.639 -15.882  1.00  0.00     0.019 A 
ATOM      8  C   UNL     1      20.978   1.277 -15.383  1.00  0.00     0.094 A 
ATOM      9  C   UNL     1      22.091   1.427 -16.216  1.00  0.00     0.336 A 
ATOM     10  O   UNL     1      23.126   1.999 -15.785  1.00  0.00    -0.246 OA
ATOM     11  O   UNL     1      22.065   0.967 -17.465  1.00  0.00    -0.423 OA
ENDROOT
BRANCH   1  12
ATOM     12  O   UNL     1      20.003  -1.201 -21.181  1.00  0.00    -0.497 OA
ATOM     13  C   UNL     1      21.041  -0.838 -22.087  1.00  0.00     0.278 C 
ENDBRANCH   1  12
TORSDOF 1
ENDMDL
MODEL 7
REMARK VINA RESULT:    -4.902     13.923     17.178
REMARK INTER + INTRA:          -5.221
REMARK INTER:                  -5.188
REMARK INTRA:                  -0.033
REMARK UNBOUND:                -0.032
REMARK SMILES COc1ccc2ccc(=O)oc2c1
REMARK SMILES IDX 3 1 13 2 12 3 6 4 5 5 4 6 7 7 8 8 9 9 10 10 11 11 2 12 1 13
REMARK H PARENT
REMARK Flexibility Score: inf
ROOT
ATOM      1  C   UNL     1      11.533  -5.814 -10.157  1.00  0.00     0.122 A 
ATOM      2  C   UNL     1      11.128  -6.135  -8.855  1.00  0.00     0.094 A 
ATOM      3  C   UNL     1       9.805  -5.929  -8.451  1.00  0.00     0.142 A 
ATOM      4  C   UNL     1       8.868  -5.395  -9.361  1.00  0.00     0.018 A 
ATOM      5  C   UNL     1       9.268  -5.072 -10.664  1.00  0.00     0.016 A 
ATOM      6  C   UNL     1      10.594  -5.280 -11.061  1.00  0.00     0.047 A 
ATOM      7  C   UNL     1       7.553  -5.201  -8.930  1.00  0.00     0.019 A 
ATOM      8  C   UNL     1       7.206  -5.539  -7.621  1.00  0.00     0.094 A 
ATOM      9  C   UNL     1       8.187  -6.064  -6.774  1.00  0.00     0.336 A 
ATOM     10  O   UNL     1       7.894  -6.376  -5.590  1.00  0.00    -0.246 OA
ATOM     11  O   UNL     1       9.432  -6.239  -7.212  1.00  0.00    -0.423 OA
ENDROOT
BRANCH   1  12
ATOM     12  O   UNL     1      12.872  -6.039 -10.511  1.00  0.00    -0.497 OA
ATOM     13  C   UNL     1      13.814  -5.009 -10.790  1.00  0.00     0.278 C 
ENDBRANCH   1  12
TORSDOF 1
ENDMDL
MODEL 8
REMARK VINA RESULT:    -4.888     15.976     18.859
REMARK INTER + INTRA:          -5.205
REMARK INTER:                  -5.166
REMARK INTRA:                  -0.040
REMARK UNBOUND:                -0.032
REMARK SMILES COc1ccc2ccc(=O)oc2c1
REMARK SMILES IDX 3 1 13 2 12 3 6 4 5 5 4 6 7 7 8 8 9 9 10 10 11 11 2 12 1 13
REMARK H PARENT
REMARK Flexibility Score: inf
ROOT
ATOM      1  C   UNL     1       8.265  -6.211 -10.611  1.00  0.00     0.122 A 
ATOM      2  C   UNL     1       8.212  -5.476  -9.419  1.00  0.00     0.094 A 
ATOM      3  C   UNL     1       8.058  -6.126  -8.190  1.00  0.00     0.142 A 
ATOM      4  C   UNL     1       7.956  -7.533  -8.148  1.00  0.00     0.018 A 
ATOM      5  C   UNL     1       8.009  -8.272  -9.337  1.00  0.00     0.016 A 
ATOM      6  C   UNL     1       8.162  -7.615 -10.562  1.00  0.00     0.047 A 
ATOM      7  C   UNL     1       7.804  -8.155  -6.906  1.00  0.00     0.019 A 
ATOM      8  C   UNL     1       7.757  -7.373  -5.750  1.00  0.00     0.094 A 
ATOM      9  C   UNL     1       7.865  -5.984  -5.868  1.00  0.00     0.336 A 
ATOM     10  O   UNL     1       7.825  -5.261  -4.838  1.00  0.00    -0.246 OA
ATOM     11  O   UNL     1       8.010  -5.418  -7.064  1.00  0.00    -0.423 OA
ENDROOT
BRANCH   1  12
ATOM     12  O   UNL     1       8.420  -5.510 -11.816  1.00  0.00    -0.497 OA
ATOM     13  C   UNL     1       7.800  -4.260 -12.105  1.00  0.00     0.278 C 
ENDBRANCH   1  12
TORSDOF 1
ENDMDL
MODEL 9
REMARK VINA RESULT:    -4.160      1.008      4.908
REMARK INTER + INTRA:          -4.435
REMARK INTER:                  -4.400
REMARK INTRA:                  -0.035
REMARK UNBOUND:                -0.032
REMARK SMILES COc1ccc2ccc(=O)oc2c1
REMARK SMILES IDX 3 1 13 2 12 3 6 4 5 5 4 6 7 7 8 8 9 9 10 10 11 11 2 12 1 13
REMARK H PARENT
REMARK Flexibility Score: inf
ROOT
ATOM      1  C   UNL     1      21.116   0.250 -20.881  1.00  0.00     0.122 A 
ATOM      2  C   UNL     1      21.365   0.803 -19.618  1.00  0.00     0.094 A 
ATOM      3  C   UNL     1      20.556   0.473 -18.526  1.00  0.00     0.142 A 
ATOM      4  C   UNL     1      19.480  -0.423 -18.695  1.00  0.00     0.018 A 
ATOM      5  C   UNL     1      19.226  -0.978 -19.956  1.00  0.00     0.016 A 
ATOM      6  C   UNL     1      20.039  -0.644 -21.044  1.00  0.00     0.047 A 
ATOM      7  C   UNL     1      18.688  -0.734 -17.586  1.00  0.00     0.019 A 
ATOM      8  C   UNL     1      18.983  -0.154 -16.352  1.00  0.00     0.094 A 
ATOM      9  C   UNL     1      20.066   0.726 -16.258  1.00  0.00     0.336 A 
ATOM     10  O   UNL     1      20.348   1.259 -15.153  1.00  0.00    -0.246 OA
ATOM     11  O   UNL     1      20.803   1.004 -17.330  1.00  0.00    -0.423 OA
ENDROOT
BRANCH   1  12
ATOM     12  O   UNL     1      21.958   0.614 -21.943  1.00  0.00    -0.497 OA
ATOM     13  C   UNL     1      22.141  -0.159 -23.125  1.00  0.00     0.278 C 
ENDBRANCH   1  12
TORSDOF 1
ENDMDL
