MODEL 1
REMARK VINA RESULT:    -4.482      0.000      0.000
REMARK INTER + INTRA:         -10.059
REMARK INTER:                  -8.150
REMARK INTRA:                  -1.909
REMARK UNBOUND:                -1.909
REMARK SMILES CCCCCCCCCCCCCCCC(=O)[O-]
REMARK SMILES IDX 9 1 10 2 11 3 12 4 13 5 14 6 15 7 16 8 17 9 18 10 8 11 7 12
REMARK SMILES IDX 6 13 5 14 4 15 3 16 2 17 1 18
REMARK H PARENT
REMARK Flexibility Score: inf
ROOT
ATOM      1  C   UNL     1       7.326   4.553  19.066  1.00  0.00     0.000 C 
ENDROOT
BRANCH   1   2
ATOM      2  C   UNL     1       6.129   4.880  18.157  1.00  0.00     0.000 C 
BRANCH   2   3
ATOM      3  C   UNL     1       6.090   6.358  17.736  1.00  0.00     0.000 C 
BRANCH   3   4
ATOM      4  C   UNL     1       6.575   6.573  16.292  1.00  0.00     0.000 C 
BRANCH   4   5
ATOM      5  C   UNL     1       6.755   5.253  15.527  1.00  0.00     0.000 C 
BRANCH   5   6
ATOM      6  C   UNL     1       8.209   5.018  15.082  1.00  0.00     0.006 C 
BRANCH   6   7
ATOM      7  C   UNL     1       9.201   5.891  15.864  1.00  0.00     0.053 C 
BRANCH   7   8
ATOM      8  C   UNL     1      10.074   6.696  14.951  1.00  0.00     0.041 C 
ATOM      9  O   UNL     1      10.036   6.505  13.706  1.00  0.00    -0.550 OA
ATOM     10  O   UNL     1      10.954   7.633  15.477  1.00  0.00    -0.550 OA
ENDBRANCH   7   8
ENDBRANCH   6   7
ENDBRANCH   5   6
ENDBRANCH   4   5
ENDBRANCH   3   4
ENDBRANCH   2   3
ENDBRANCH   1   2
BRANCH   1  11
ATOM     11  C   UNL     1       7.182   3.197  19.781  1.00  0.00     0.000 C 
BRANCH  11  12
ATOM     12  C   UNL     1       5.733   2.747  20.047  1.00  0.00    -0.000 C 
BRANCH  12  13
ATOM     13  C   UNL     1       5.472   2.411  21.525  1.00  0.00    -0.000 C 
BRANCH  13  14
ATOM     14  C   UNL     1       4.468   3.370  22.191  1.00  0.00    -0.000 C 
BRANCH  14  15
ATOM     15  C   UNL     1       4.354   4.757  21.534  1.00  0.00    -0.000 C 
BRANCH  15  16
ATOM     16  C   UNL     1       5.408   5.753  22.049  1.00  0.00    -0.000 C 
BRANCH  16  17
ATOM     17  C   UNL     1       5.398   7.077  21.268  1.00  0.00    -0.003 C 
ATOM     18  C   UNL     1       6.788   7.701  21.149  1.00  0.00     0.004 C 
ENDBRANCH  16  17
ENDBRANCH  15  16
ENDBRANCH  14  15
ENDBRANCH  13  14
ENDBRANCH  12  13
ENDBRANCH  11  12
ENDBRANCH   1  11
TORSDOF 14
ENDMDL
MODEL 2
REMARK VINA RESULT:    -4.316      3.112      7.527
REMARK INTER + INTRA:          -9.758
REMARK INTER:                  -7.684
REMARK INTRA:                  -2.074
REMARK UNBOUND:                -1.909
REMARK SMILES CCCCCCCCCCCCCCCC(=O)[O-]
REMARK SMILES IDX 9 1 10 2 11 3 12 4 13 5 14 6 15 7 16 8 17 9 18 10 8 11 7 12
REMARK SMILES IDX 6 13 5 14 4 15 3 16 2 17 1 18
REMARK H PARENT
REMARK Flexibility Score: inf
ROOT
ATOM      1  C   UNL     1       8.573   4.577  16.117  1.00  0.00     0.000 C 
ENDROOT
BRANCH   1   2
ATOM      2  C   UNL     1       7.434   5.226  15.313  1.00  0.00     0.000 C 
BRANCH   2   3
ATOM      3  C   UNL     1       6.197   5.529  16.176  1.00  0.00     0.000 C 
BRANCH   3   4
ATOM      4  C   UNL     1       6.181   6.977  16.694  1.00  0.00     0.000 C 
BRANCH   4   5
ATOM      5  C   UNL     1       6.493   7.070  18.196  1.00  0.00     0.000 C 
BRANCH   5   6
ATOM      6  C   UNL     1       6.442   5.701  18.898  1.00  0.00     0.006 C 
BRANCH   6   7
ATOM      7  C   UNL     1       5.747   5.778  20.265  1.00  0.00     0.053 C 
BRANCH   7   8
ATOM      8  C   UNL     1       6.356   6.830  21.140  1.00  0.00     0.041 C 
ATOM      9  O   UNL     1       7.543   6.711  21.543  1.00  0.00    -0.550 OA
ATOM     10  O   UNL     1       5.600   7.925  21.539  1.00  0.00    -0.550 OA
ENDBRANCH   7   8
ENDBRANCH   6   7
ENDBRANCH   5   6
ENDBRANCH   4   5
ENDBRANCH   3   4
ENDBRANCH   2   3
ENDBRANCH   1   2
BRANCH   1  11
ATOM     11  C   UNL     1       9.789   5.507  16.291  1.00  0.00     0.000 C 
BRANCH  11  12
ATOM     12  C   UNL     1       9.784   6.764  15.401  1.00  0.00    -0.000 C 
BRANCH  12  13
ATOM     13  C   UNL     1      10.887   6.745  14.330  1.00  0.00    -0.000 C 
BRANCH  13  14
ATOM     14  C   UNL     1      10.335   6.871  12.897  1.00  0.00    -0.000 C 
BRANCH  14  15
ATOM     15  C   UNL     1      10.311   5.562  12.088  1.00  0.00    -0.000 C 
BRANCH  15  16
ATOM     16  C   UNL     1       8.917   4.912  12.038  1.00  0.00    -0.000 C 
BRANCH  16  17
ATOM     17  C   UNL     1       8.949   3.421  12.406  1.00  0.00    -0.003 C 
ATOM     18  C   UNL     1      10.189   3.041  13.215  1.00  0.00     0.004 C 
ENDBRANCH  16  17
ENDBRANCH  15  16
ENDBRANCH  14  15
ENDBRANCH  13  14
ENDBRANCH  12  13
ENDBRANCH  11  12
ENDBRANCH   1  11
TORSDOF 14
ENDMDL
MODEL 3
REMARK VINA RESULT:    -4.284      3.614      6.416
REMARK INTER + INTRA:          -9.699
REMARK INTER:                  -7.267
REMARK INTRA:                  -2.432
REMARK UNBOUND:                -1.909
REMARK SMILES CCCCCCCCCCCCCCCC(=O)[O-]
REMARK SMILES IDX 9 1 10 2 11 3 12 4 13 5 14 6 15 7 16 8 17 9 18 10 8 11 7 12
REMARK SMILES IDX 6 13 5 14 4 15 3 16 2 17 1 18
REMARK H PARENT
REMARK Flexibility Score: inf
ROOT
ATOM      1  C   UNL     1       8.507   5.145  20.359  1.00  0.00     0.000 C 
ENDROOT
BRANCH   1   2
ATOM      2  C   UNL     1       7.338   6.058  19.949  1.00  0.00     0.000 C 
BRANCH   2   3
ATOM      3  C   UNL     1       5.987   5.324  19.940  1.00  0.00     0.000 C 
BRANCH   3   4
ATOM      4  C   UNL     1       6.037   4.008  19.146  1.00  0.00     0.000 C 
BRANCH   4   5
ATOM      5  C   UNL     1       5.789   2.776  20.029  1.00  0.00     0.000 C 
BRANCH   5   6
ATOM      6  C   UNL     1       4.957   3.102  21.282  1.00  0.00     0.006 C 
BRANCH   6   7
ATOM      7  C   UNL     1       5.528   2.439  22.544  1.00  0.00     0.053 C 
BRANCH   7   8
ATOM      8  C   UNL     1       6.712   3.186  23.078  1.00  0.00     0.041 C 
ATOM      9  O   UNL     1       6.584   4.373  23.477  1.00  0.00    -0.550 OA
ATOM     10  O   UNL     1       7.962   2.581  23.101  1.00  0.00    -0.550 OA
ENDBRANCH   7   8
ENDBRANCH   6   7
ENDBRANCH   5   6
ENDBRANCH   4   5
ENDBRANCH   3   4
ENDBRANCH   2   3
ENDBRANCH   1   2
BRANCH   1  11
ATOM     11  C   UNL     1       9.631   5.103  19.307  1.00  0.00     0.000 C 
BRANCH  11  12
ATOM     12  C   UNL     1       9.674   3.826  18.446  1.00  0.00    -0.000 C 
BRANCH  12  13
ATOM     13  C   UNL     1       9.353   4.091  16.966  1.00  0.00    -0.000 C 
BRANCH  13  14
ATOM     14  C   UNL     1       9.475   5.578  16.582  1.00  0.00    -0.000 C 
BRANCH  14  15
ATOM     15  C   UNL     1       8.345   6.117  15.688  1.00  0.00    -0.000 C 
BRANCH  15  16
ATOM     16  C   UNL     1       7.020   5.355  15.870  1.00  0.00    -0.000 C 
BRANCH  16  17
ATOM     17  C   UNL     1       5.874   6.271  16.329  1.00  0.00    -0.003 C 
ATOM     18  C   UNL     1       6.366   7.633  16.817  1.00  0.00     0.004 C 
ENDBRANCH  16  17
ENDBRANCH  15  16
ENDBRANCH  14  15
ENDBRANCH  13  14
ENDBRANCH  12  13
ENDBRANCH  11  12
ENDBRANCH   1  11
TORSDOF 14
ENDMDL
MODEL 4
REMARK VINA RESULT:    -4.275      2.803      6.299
REMARK INTER + INTRA:          -9.683
REMARK INTER:                  -7.482
REMARK INTRA:                  -2.201
REMARK UNBOUND:                -1.909
REMARK SMILES CCCCCCCCCCCCCCCC(=O)[O-]
REMARK SMILES IDX 9 1 10 2 11 3 12 4 13 5 14 6 15 7 16 8 17 9 18 10 8 11 7 12
REMARK SMILES IDX 6 13 5 14 4 15 3 16 2 17 1 18
REMARK H PARENT
REMARK Flexibility Score: inf
ROOT
ATOM      1  C   UNL     1       6.034   3.685  19.295  1.00  0.00     0.000 C 
ENDROOT
BRANCH   1   2
ATOM      2  C   UNL     1       5.854   2.367  20.069  1.00  0.00     0.000 C 
BRANCH   2   3
ATOM      3  C   UNL     1       5.302   2.584  21.487  1.00  0.00     0.000 C 
BRANCH   3   4
ATOM      4  C   UNL     1       4.446   3.857  21.598  1.00  0.00     0.000 C 
BRANCH   4   5
ATOM      5  C   UNL     1       4.970   4.830  22.665  1.00  0.00     0.000 C 
BRANCH   5   6
ATOM      6  C   UNL     1       5.472   6.155  22.064  1.00  0.00     0.006 C 
BRANCH   6   7
ATOM      7  C   UNL     1       6.899   6.493  22.520  1.00  0.00     0.053 C 
BRANCH   7   8
ATOM      8  C   UNL     1       7.175   7.963  22.438  1.00  0.00     0.041 C 
ATOM      9  O   UNL     1       7.463   8.613  23.478  1.00  0.00    -0.550 OA
ATOM     10  O   UNL     1       7.079   8.622  21.219  1.00  0.00    -0.550 OA
ENDBRANCH   7   8
ENDBRANCH   6   7
ENDBRANCH   5   6
ENDBRANCH   4   5
ENDBRANCH   3   4
ENDBRANCH   2   3
ENDBRANCH   1   2
BRANCH   1  11
ATOM     11  C   UNL     1       7.500   4.155  19.244  1.00  0.00     0.000 C 
BRANCH  11  12
ATOM     12  C   UNL     1       7.696   5.669  19.037  1.00  0.00    -0.000 C 
BRANCH  12  13
ATOM     13  C   UNL     1       6.408   6.383  18.592  1.00  0.00    -0.000 C 
BRANCH  13  14
ATOM     14  C   UNL     1       6.411   6.748  17.095  1.00  0.00    -0.000 C 
BRANCH  14  15
ATOM     15  C   UNL     1       5.867   5.657  16.155  1.00  0.00    -0.000 C 
BRANCH  15  16
ATOM     16  C   UNL     1       6.975   4.943  15.360  1.00  0.00    -0.000 C 
BRANCH  16  17
ATOM     17  C   UNL     1       8.319   5.684  15.428  1.00  0.00    -0.003 C 
ATOM     18  C   UNL     1       9.471   4.778  15.862  1.00  0.00     0.004 C 
ENDBRANCH  16  17
ENDBRANCH  15  16
ENDBRANCH  14  15
ENDBRANCH  13  14
ENDBRANCH  12  13
ENDBRANCH  11  12
ENDBRANCH   1  11
TORSDOF 14
ENDMDL
MODEL 5
REMARK VINA RESULT:    -4.259      4.087      7.760
REMARK INTER + INTRA:          -9.653
REMARK INTER:                  -8.368
REMARK INTRA:                  -1.285
REMARK UNBOUND:                -1.909
REMARK SMILES CCCCCCCCCCCCCCCC(=O)[O-]
REMARK SMILES IDX 9 1 10 2 11 3 12 4 13 5 14 6 15 7 16 8 17 9 18 10 8 11 7 12
REMARK SMILES IDX 6 13 5 14 4 15 3 16 2 17 1 18
REMARK H PARENT
REMARK Flexibility Score: inf
ROOT
ATOM      1  C   UNL     1       6.270   7.135  18.536  1.00  0.00     0.000 C 
ENDROOT
BRANCH   1   2
ATOM      2  C   UNL     1       6.990   6.064  19.374  1.00  0.00     0.000 C 
BRANCH   2   3
ATOM      3  C   UNL     1       6.016   5.076  20.036  1.00  0.00     0.000 C 
BRANCH   3   4
ATOM      4  C   UNL     1       5.868   3.770  19.238  1.00  0.00     0.000 C 
BRANCH   4   5
ATOM      5  C   UNL     1       5.794   2.530  20.143  1.00  0.00     0.000 C 
BRANCH   5   6
ATOM      6  C   UNL     1       6.035   2.863  21.626  1.00  0.00     0.006 C 
BRANCH   6   7
ATOM      7  C   UNL     1       4.954   2.263  22.537  1.00  0.00     0.053 C 
BRANCH   7   8
ATOM      8  C   UNL     1       4.455   3.259  23.538  1.00  0.00     0.041 C 
ATOM      9  O   UNL     1       3.577   2.928  24.378  1.00  0.00    -0.550 OA
ATOM     10  O   UNL     1       4.935   4.562  23.521  1.00  0.00    -0.550 OA
ENDBRANCH   7   8
ENDBRANCH   6   7
ENDBRANCH   5   6
ENDBRANCH   4   5
ENDBRANCH   3   4
ENDBRANCH   2   3
ENDBRANCH   1   2
BRANCH   1  11
ATOM     11  C   UNL     1       6.627   7.066  17.040  1.00  0.00     0.000 C 
BRANCH  11  12
ATOM     12  C   UNL     1       5.863   5.998  16.233  1.00  0.00    -0.000 C 
BRANCH  12  13
ATOM     13  C   UNL     1       6.796   5.048  15.464  1.00  0.00    -0.000 C 
BRANCH  13  14
ATOM     14  C   UNL     1       8.267   5.160  15.908  1.00  0.00    -0.000 C 
BRANCH  14  15
ATOM     15  C   UNL     1       9.288   5.284  14.763  1.00  0.00    -0.000 C 
BRANCH  15  16
ATOM     16  C   UNL     1       8.796   4.652  13.449  1.00  0.00    -0.000 C 
BRANCH  16  17
ATOM     17  C   UNL     1       9.132   5.513  12.221  1.00  0.00    -0.003 C 
ATOM     18  C   UNL     1      10.285   6.482  12.478  1.00  0.00     0.004 C 
ENDBRANCH  16  17
ENDBRANCH  15  16
ENDBRANCH  14  15
ENDBRANCH  13  14
ENDBRANCH  12  13
ENDBRANCH  11  12
ENDBRANCH   1  11
TORSDOF 14
ENDMDL
MODEL 6
REMARK VINA RESULT:    -4.235      3.004      5.943
REMARK INTER + INTRA:          -9.609
REMARK INTER:                  -7.457
REMARK INTRA:                  -2.152
REMARK UNBOUND:                -1.909
REMARK SMILES CCCCCCCCCCCCCCCC(=O)[O-]
REMARK SMILES IDX 9 1 10 2 11 3 12 4 13 5 14 6 15 7 16 8 17 9 18 10 8 11 7 12
REMARK SMILES IDX 6 13 5 14 4 15 3 16 2 17 1 18
REMARK H PARENT
REMARK Flexibility Score: inf
ROOT
ATOM      1  C   UNL     1       5.461   2.740  21.323  1.00  0.00     0.000 C 
ENDROOT
BRANCH   1   2
ATOM      2  C   UNL     1       4.311   3.753  21.460  1.00  0.00     0.000 C 
BRANCH   2   3
ATOM      3  C   UNL     1       4.759   5.073  22.109  1.00  0.00     0.000 C 
BRANCH   3   4
ATOM      4  C   UNL     1       6.150   4.969  22.757  1.00  0.00     0.000 C 
BRANCH   4   5
ATOM      5  C   UNL     1       7.032   6.192  22.460  1.00  0.00     0.000 C 
BRANCH   5   6
ATOM      6  C   UNL     1       6.270   7.308  21.723  1.00  0.00     0.006 C 
BRANCH   6   7
ATOM      7  C   UNL     1       7.214   8.391  21.181  1.00  0.00     0.053 C 
BRANCH   7   8
ATOM      8  C   UNL     1       7.088   9.673  21.947  1.00  0.00     0.041 C 
ATOM      9  O   UNL     1       7.423  10.764  21.416  1.00  0.00    -0.550 OA
ATOM     10  O   UNL     1       6.632   9.655  23.259  1.00  0.00    -0.550 OA
ENDBRANCH   7   8
ENDBRANCH   6   7
ENDBRANCH   5   6
ENDBRANCH   4   5
ENDBRANCH   3   4
ENDBRANCH   2   3
ENDBRANCH   1   2
BRANCH   1  11
ATOM     11  C   UNL     1       6.013   2.651  19.887  1.00  0.00     0.000 C 
BRANCH  11  12
ATOM     12  C   UNL     1       7.489   3.060  19.727  1.00  0.00    -0.000 C 
BRANCH  12  13
ATOM     13  C   UNL     1       7.659   4.494  19.196  1.00  0.00    -0.000 C 
BRANCH  13  14
ATOM     14  C   UNL     1       6.355   5.080  18.622  1.00  0.00    -0.000 C 
BRANCH  14  15
ATOM     15  C   UNL     1       6.458   6.527  18.109  1.00  0.00    -0.000 C 
BRANCH  15  16
ATOM     16  C   UNL     1       6.291   6.636  16.583  1.00  0.00    -0.000 C 
BRANCH  16  17
ATOM     17  C   UNL     1       6.209   5.262  15.900  1.00  0.00    -0.003 C 
ATOM     18  C   UNL     1       7.501   4.885  15.176  1.00  0.00     0.004 C 
ENDBRANCH  16  17
ENDBRANCH  15  16
ENDBRANCH  14  15
ENDBRANCH  13  14
ENDBRANCH  12  13
ENDBRANCH  11  12
ENDBRANCH   1  11
TORSDOF 14
ENDMDL
MODEL 7
REMARK VINA RESULT:    -4.211      1.612      3.193
REMARK INTER + INTRA:          -9.566
REMARK INTER:                  -7.505
REMARK INTRA:                  -2.061
REMARK UNBOUND:                -1.909
REMARK SMILES CCCCCCCCCCCCCCCC(=O)[O-]
REMARK SMILES IDX 9 1 10 2 11 3 12 4 13 5 14 6 15 7 16 8 17 9 18 10 8 11 7 12
REMARK SMILES IDX 6 13 5 14 4 15 3 16 2 17 1 18
REMARK H PARENT
REMARK Flexibility Score: inf
ROOT
ATOM      1  C   UNL     1       7.625   2.815  20.160  1.00  0.00     0.000 C 
ENDROOT
BRANCH   1   2
ATOM      2  C   UNL     1       7.926   3.933  19.147  1.00  0.00     0.000 C 
BRANCH   2   3
ATOM      3  C   UNL     1       7.563   5.329  19.679  1.00  0.00     0.000 C 
BRANCH   3   4
ATOM      4  C   UNL     1       6.439   5.995  18.867  1.00  0.00     0.000 C 
BRANCH   4   5
ATOM      5  C   UNL     1       5.901   5.088  17.749  1.00  0.00     0.000 C 
BRANCH   5   6
ATOM      6  C   UNL     1       6.043   5.719  16.353  1.00  0.00     0.006 C 
BRANCH   6   7
ATOM      7  C   UNL     1       7.257   6.656  16.262  1.00  0.00     0.053 C 
BRANCH   7   8
ATOM      8  C   UNL     1       8.479   5.936  15.781  1.00  0.00     0.041 C 
ATOM      9  O   UNL     1       9.476   5.802  16.540  1.00  0.00    -0.550 OA
ATOM     10  O   UNL     1       8.531   5.444  14.483  1.00  0.00    -0.550 OA
ENDBRANCH   7   8
ENDBRANCH   6   7
ENDBRANCH   5   6
ENDBRANCH   4   5
ENDBRANCH   3   4
ENDBRANCH   2   3
ENDBRANCH   1   2
BRANCH   1  11
ATOM     11  C   UNL     1       6.178   2.296  20.067  1.00  0.00     0.000 C 
BRANCH  11  12
ATOM     12  C   UNL     1       5.319   2.525  21.326  1.00  0.00    -0.000 C 
BRANCH  12  13
ATOM     13  C   UNL     1       4.495   3.823  21.260  1.00  0.00    -0.000 C 
BRANCH  13  14
ATOM     14  C   UNL     1       4.859   4.823  22.373  1.00  0.00    -0.000 C 
BRANCH  14  15
ATOM     15  C   UNL     1       5.679   4.236  23.536  1.00  0.00    -0.000 C 
BRANCH  15  16
ATOM     16  C   UNL     1       4.813   3.865  24.754  1.00  0.00    -0.000 C 
BRANCH  16  17
ATOM     17  C   UNL     1       4.515   2.359  24.827  1.00  0.00    -0.003 C 
ATOM     18  C   UNL     1       3.080   2.022  24.423  1.00  0.00     0.004 C 
ENDBRANCH  16  17
ENDBRANCH  15  16
ENDBRANCH  14  15
ENDBRANCH  13  14
ENDBRANCH  12  13
ENDBRANCH  11  12
ENDBRANCH   1  11
TORSDOF 14
ENDMDL
MODEL 8
REMARK VINA RESULT:    -4.193      1.237      2.183
REMARK INTER + INTRA:          -9.533
REMARK INTER:                  -7.259
REMARK INTRA:                  -2.273
REMARK UNBOUND:                -1.909
REMARK SMILES CCCCCCCCCCCCCCCC(=O)[O-]
REMARK SMILES IDX 9 1 10 2 11 3 12 4 13 5 14 6 15 7 16 8 17 9 18 10 8 11 7 12
REMARK SMILES IDX 6 13 5 14 4 15 3 16 2 17 1 18
REMARK H PARENT
REMARK Flexibility Score: inf
ROOT
ATOM      1  C   UNL     1       8.098   3.036  20.986  1.00  0.00     0.000 C 
ENDROOT
BRANCH   1   2
ATOM      2  C   UNL     1       8.629   4.408  20.535  1.00  0.00     0.000 C 
BRANCH   2   3
ATOM      3  C   UNL     1       8.347   4.695  19.051  1.00  0.00     0.000 C 
BRANCH   3   4
ATOM      4  C   UNL     1       7.471   5.943  18.849  1.00  0.00     0.000 C 
BRANCH   4   5
ATOM      5  C   UNL     1       6.163   5.632  18.106  1.00  0.00     0.000 C 
BRANCH   5   6
ATOM      6  C   UNL     1       6.133   6.222  16.684  1.00  0.00     0.006 C 
BRANCH   6   7
ATOM      7  C   UNL     1       6.406   5.159  15.611  1.00  0.00     0.053 C 
BRANCH   7   8
ATOM      8  C   UNL     1       7.853   5.119  15.224  1.00  0.00     0.041 C 
ATOM      9  O   UNL     1       8.322   4.114  14.628  1.00  0.00    -0.550 OA
ATOM     10  O   UNL     1       8.690   6.178  15.553  1.00  0.00    -0.550 OA
ENDBRANCH   7   8
ENDBRANCH   6   7
ENDBRANCH   5   6
ENDBRANCH   4   5
ENDBRANCH   3   4
ENDBRANCH   2   3
ENDBRANCH   1   2
BRANCH   1  11
ATOM     11  C   UNL     1       7.154   2.391  19.954  1.00  0.00     0.000 C 
BRANCH  11  12
ATOM     12  C   UNL     1       5.651   2.575  20.238  1.00  0.00    -0.000 C 
BRANCH  12  13
ATOM     13  C   UNL     1       5.301   2.431  21.729  1.00  0.00    -0.000 C 
BRANCH  13  14
ATOM     14  C   UNL     1       4.485   3.620  22.271  1.00  0.00    -0.000 C 
BRANCH  14  15
ATOM     15  C   UNL     1       4.572   4.909  21.434  1.00  0.00    -0.000 C 
BRANCH  15  16
ATOM     16  C   UNL     1       5.545   5.945  22.025  1.00  0.00    -0.000 C 
BRANCH  16  17
ATOM     17  C   UNL     1       5.319   7.355  21.457  1.00  0.00    -0.003 C 
ATOM     18  C   UNL     1       6.579   8.218  21.505  1.00  0.00     0.004 C 
ENDBRANCH  16  17
ENDBRANCH  15  16
ENDBRANCH  14  15
ENDBRANCH  13  14
ENDBRANCH  12  13
ENDBRANCH  11  12
ENDBRANCH   1  11
TORSDOF 14
ENDMDL
MODEL 9
REMARK VINA RESULT:    -4.166      2.525      4.859
REMARK INTER + INTRA:          -9.484
REMARK INTER:                  -7.620
REMARK INTRA:                  -1.864
REMARK UNBOUND:                -1.909
REMARK SMILES CCCCCCCCCCCCCCCC(=O)[O-]
REMARK SMILES IDX 9 1 10 2 11 3 12 4 13 5 14 6 15 7 16 8 17 9 18 10 8 11 7 12
REMARK SMILES IDX 6 13 5 14 4 15 3 16 2 17 1 18
REMARK H PARENT
REMARK Flexibility Score: inf
ROOT
ATOM      1  C   UNL     1       9.518   5.423  16.247  1.00  0.00     0.000 C 
ENDROOT
BRANCH   1   2
ATOM      2  C   UNL     1       9.482   6.759  15.485  1.00  0.00     0.000 C 
BRANCH   2   3
ATOM      3  C   UNL     1      10.868   7.189  14.975  1.00  0.00     0.000 C 
BRANCH   3   4
ATOM      4  C   UNL     1      11.346   6.340  13.785  1.00  0.00     0.000 C 
BRANCH   4   5
ATOM      5  C   UNL     1      10.428   6.471  12.560  1.00  0.00     0.000 C 
BRANCH   5   6
ATOM      6  C   UNL     1      10.093   5.110  11.921  1.00  0.00     0.006 C 
BRANCH   6   7
ATOM      7  C   UNL     1       8.648   4.678  12.207  1.00  0.00     0.053 C 
BRANCH   7   8
ATOM      8  C   UNL     1       8.500   3.187  12.191  1.00  0.00     0.041 C 
ATOM      9  O   UNL     1       7.775   2.612  13.045  1.00  0.00    -0.550 OA
ATOM     10  O   UNL     1       9.192   2.430  11.254  1.00  0.00    -0.550 OA
ENDBRANCH   7   8
ENDBRANCH   6   7
ENDBRANCH   5   6
ENDBRANCH   4   5
ENDBRANCH   3   4
ENDBRANCH   2   3
ENDBRANCH   1   2
BRANCH   1  11
ATOM     11  C   UNL     1       8.203   4.631  16.129  1.00  0.00     0.000 C 
BRANCH  11  12
ATOM     12  C   UNL     1       7.055   5.370  15.415  1.00  0.00    -0.000 C 
BRANCH  12  13
ATOM     13  C   UNL     1       5.990   5.904  16.387  1.00  0.00    -0.000 C 
BRANCH  13  14
ATOM     14  C   UNL     1       6.388   7.242  17.039  1.00  0.00    -0.000 C 
BRANCH  14  15
ATOM     15  C   UNL     1       6.312   7.269  18.576  1.00  0.00    -0.000 C 
BRANCH  15  16
ATOM     16  C   UNL     1       7.001   6.059  19.232  1.00  0.00    -0.000 C 
BRANCH  16  17
ATOM     17  C   UNL     1       6.002   5.110  19.911  1.00  0.00    -0.003 C 
ATOM     18  C   UNL     1       6.165   3.659  19.457  1.00  0.00     0.004 C 
ENDBRANCH  16  17
ENDBRANCH  15  16
ENDBRANCH  14  15
ENDBRANCH  13  14
ENDBRANCH  12  13
ENDBRANCH  11  12
ENDBRANCH   1  11
TORSDOF 14
ENDMDL
