MODEL 1
REMARK VINA RESULT:    -3.281      0.000      0.000
REMARK INTER + INTRA:          -4.241
REMARK INTER:                  -4.432
REMARK INTRA:                   0.192
REMARK UNBOUND:                 0.192
REMARK SMILES COc1ccc(-c2cc(=O)c3c(OC)c(OC)c(OC)c(OC)c3o2)cc1
REMARK SMILES IDX 7 1 8 2 9 3 10 4 11 5 24 6 25 7 21 8 18 9 15 10 12 11 6 12
REMARK SMILES IDX 3 13 4 14 27 15 5 16 26 17 2 18 1 19 22 20 23 21 13 22 14 23
REMARK SMILES IDX 19 24 20 25 16 26 17 27
REMARK H PARENT
REMARK Flexibility Score: inf
ROOT
ATOM      1  C   UNL     1      78.295  79.347  83.550  1.00  0.00     0.138 A 
ATOM      2  C   UNL     1      77.970  80.692  83.344  1.00  0.00     0.100 A 
ATOM      3  C   UNL     1      78.988  81.642  83.298  1.00  0.00     0.197 A 
ATOM      4  O   UNL     1      78.675  82.848  83.106  1.00  0.00    -0.289 OA
ATOM      5  C   UNL     1      80.334  81.239  83.459  1.00  0.00     0.115 A 
ATOM      6  C   UNL     1      80.586  79.857  83.661  1.00  0.00     0.188 A 
ATOM      7  O   UNL     1      79.570  78.998  83.689  1.00  0.00    -0.452 OA
ATOM      8  C   UNL     1      81.908  79.399  83.854  1.00  0.00     0.209 A 
ATOM      9  C   UNL     1      82.966  80.313  83.843  1.00  0.00     0.211 A 
ATOM     10  C   UNL     1      82.737  81.673  83.553  1.00  0.00     0.208 A 
ATOM     11  C   UNL     1      81.414  82.158  83.417  1.00  0.00     0.179 A 
ENDROOT
BRANCH   1  12
ATOM     12  C   UNL     1      77.248  78.299  83.611  1.00  0.00     0.018 A 
ATOM     13  C   UNL     1      75.288  76.271  83.751  1.00  0.00     0.118 A 
ATOM     14  C   UNL     1      76.626  75.950  83.454  1.00  0.00     0.047 A 
ATOM     15  C   UNL     1      74.944  77.606  83.982  1.00  0.00     0.047 A 
ATOM     16  C   UNL     1      77.594  76.956  83.389  1.00  0.00     0.016 A 
ATOM     17  C   UNL     1      75.911  78.613  83.917  1.00  0.00     0.016 A 
BRANCH  13  18
ATOM     18  O   UNL     1      74.279  75.299  83.826  1.00  0.00    -0.497 OA
ATOM     19  C   UNL     1      74.490  73.905  83.625  1.00  0.00     0.278 C 
ENDBRANCH  13  18
ENDBRANCH   1  12
BRANCH   8  20
ATOM     20  O   UNL     1      82.243  78.050  84.088  1.00  0.00    -0.490 OA
ATOM     21  C   UNL     1      81.355  76.939  84.070  1.00  0.00     0.278 C 
ENDBRANCH   8  20
BRANCH  11  22
ATOM     22  O   UNL     1      81.124  83.524  83.224  1.00  0.00    -0.492 OA
ATOM     23  C   UNL     1      81.408  84.594  84.120  1.00  0.00     0.278 C 
ENDBRANCH  11  22
BRANCH   9  24
ATOM     24  O   UNL     1      84.251  79.829  84.125  1.00  0.00    -0.490 OA
ATOM     25  C   UNL     1      85.094  79.236  83.141  1.00  0.00     0.279 C 
ENDBRANCH   9  24
BRANCH  10  26
ATOM     26  O   UNL     1      83.822  82.531  83.364  1.00  0.00    -0.490 OA
ATOM     27  C   UNL     1      84.635  82.470  82.196  1.00  0.00     0.278 C 
ENDBRANCH  10  26
TORSDOF 6
ENDMDL
MODEL 2
REMARK VINA RESULT:    -2.795      0.777      1.215
REMARK INTER + INTRA:          -3.583
REMARK INTER:                  -3.578
REMARK INTRA:                  -0.005
REMARK UNBOUND:                 0.192
REMARK SMILES COc1ccc(-c2cc(=O)c3c(OC)c(OC)c(OC)c(OC)c3o2)cc1
REMARK SMILES IDX 7 1 8 2 9 3 10 4 11 5 24 6 25 7 21 8 18 9 15 10 12 11 6 12
REMARK SMILES IDX 3 13 4 14 27 15 5 16 26 17 2 18 1 19 22 20 23 21 13 22 14 23
REMARK SMILES IDX 19 24 20 25 16 26 17 27
REMARK H PARENT
REMARK Flexibility Score: inf
ROOT
ATOM      1  C   UNL     1      78.036  79.269  83.515  1.00  0.00     0.138 A 
ATOM      2  C   UNL     1      77.510  80.549  83.310  1.00  0.00     0.100 A 
ATOM      3  C   UNL     1      78.370  81.643  83.271  1.00  0.00     0.197 A 
ATOM      4  O   UNL     1      77.877  82.788  83.079  1.00  0.00    -0.289 OA
ATOM      5  C   UNL     1      79.761  81.451  83.439  1.00  0.00     0.115 A 
ATOM      6  C   UNL     1      80.220  80.123  83.641  1.00  0.00     0.188 A 
ATOM      7  O   UNL     1      79.349  79.118  83.661  1.00  0.00    -0.452 OA
ATOM      8  C   UNL     1      81.596  79.872  83.840  1.00  0.00     0.209 A 
ATOM      9  C   UNL     1      82.502  80.938  83.836  1.00  0.00     0.211 A 
ATOM     10  C   UNL     1      82.069  82.247  83.548  1.00  0.00     0.208 A 
ATOM     11  C   UNL     1      80.688  82.524  83.404  1.00  0.00     0.179 A 
ENDROOT
BRANCH   1  12
ATOM     12  C   UNL     1      77.161  78.072  83.569  1.00  0.00     0.018 A 
ATOM     13  C   UNL     1      75.459  75.821  83.644  1.00  0.00     0.118 A 
ATOM     14  C   UNL     1      74.936  77.115  83.824  1.00  0.00     0.047 A 
ATOM     15  C   UNL     1      76.830  75.665  83.422  1.00  0.00     0.047 A 
ATOM     16  C   UNL     1      75.782  78.228  83.782  1.00  0.00     0.016 A 
ATOM     17  C   UNL     1      77.676  76.777  83.380  1.00  0.00     0.016 A 
BRANCH  13  18
ATOM     18  O   UNL     1      74.653  74.672  83.678  1.00  0.00    -0.497 OA
ATOM     19  C   UNL     1      73.239  74.688  83.844  1.00  0.00     0.278 C 
ENDBRANCH  13  18
ENDBRANCH   1  12
BRANCH   8  20
ATOM     20  O   UNL     1      82.133  78.590  84.073  1.00  0.00    -0.490 OA
ATOM     21  C   UNL     1      81.413  77.365  84.123  1.00  0.00     0.278 C 
ENDBRANCH   8  20
BRANCH  11  22
ATOM     22  O   UNL     1      80.193  83.830  83.212  1.00  0.00    -0.492 OA
ATOM     23  C   UNL     1      80.285  84.922  84.122  1.00  0.00     0.278 C 
ENDBRANCH  11  22
BRANCH   9  24
ATOM     24  O   UNL     1      83.844  80.655  84.125  1.00  0.00    -0.490 OA
ATOM     25  C   UNL     1      84.752  80.120  83.166  1.00  0.00     0.279 C 
ENDBRANCH   9  24
BRANCH  10  26
ATOM     26  O   UNL     1      83.011  83.262  83.367  1.00  0.00    -0.490 OA
ATOM     27  C   UNL     1      83.450  83.657  82.071  1.00  0.00     0.278 C 
ENDBRANCH  10  26
TORSDOF 6
ENDMDL
MODEL 3
REMARK VINA RESULT:    -2.436      2.064      5.054
REMARK INTER + INTRA:          -3.099
REMARK INTER:                  -3.953
REMARK INTRA:                   0.854
REMARK UNBOUND:                 0.192
REMARK SMILES COc1ccc(-c2cc(=O)c3c(OC)c(OC)c(OC)c(OC)c3o2)cc1
REMARK SMILES IDX 7 1 8 2 9 3 10 4 11 5 24 6 25 7 21 8 18 9 15 10 12 11 6 12
REMARK SMILES IDX 3 13 4 14 27 15 5 16 26 17 2 18 1 19 22 20 23 21 13 22 14 23
REMARK SMILES IDX 19 24 20 25 16 26 17 27
REMARK H PARENT
REMARK Flexibility Score: inf
ROOT
ATOM      1  C   UNL     1      76.549  75.822  83.876  1.00  0.00     0.138 A 
ATOM      2  C   UNL     1      77.858  75.339  83.982  1.00  0.00     0.100 A 
ATOM      3  C   UNL     1      78.918  76.241  84.017  1.00  0.00     0.197 A 
ATOM      4  O   UNL     1      80.089  75.787  84.119  1.00  0.00    -0.289 OA
ATOM      5  C   UNL     1      78.662  77.631  83.945  1.00  0.00     0.115 A 
ATOM      6  C   UNL     1      77.309  78.044  83.842  1.00  0.00     0.188 A 
ATOM      7  O   UNL     1      76.339  77.133  83.820  1.00  0.00    -0.452 OA
ATOM      8  C   UNL     1      76.993  79.418  83.741  1.00  0.00     0.209 A 
ATOM      9  C   UNL     1      78.021  80.366  83.746  1.00  0.00     0.211 A 
ATOM     10  C   UNL     1      79.360  79.972  83.939  1.00  0.00     0.208 A 
ATOM     11  C   UNL     1      79.698  78.599  83.982  1.00  0.00     0.179 A 
ENDROOT
BRANCH   1  12
ATOM     12  C   UNL     1      75.386  74.902  83.831  1.00  0.00     0.018 A 
ATOM     13  C   UNL     1      73.154  73.176  83.704  1.00  0.00     0.118 A 
ATOM     14  C   UNL     1      73.003  74.556  83.471  1.00  0.00     0.047 A 
ATOM     15  C   UNL     1      74.425  72.671  83.993  1.00  0.00     0.047 A 
ATOM     16  C   UNL     1      74.111  75.406  83.531  1.00  0.00     0.016 A 
ATOM     17  C   UNL     1      75.534  73.520  84.054  1.00  0.00     0.016 A 
BRANCH  13  18
ATOM     18  O   UNL     1      72.075  72.281  83.657  1.00  0.00    -0.497 OA
ATOM     19  C   UNL     1      72.144  70.968  83.112  1.00  0.00     0.278 C 
ENDBRANCH  13  18
ENDBRANCH   1  12
BRANCH   8  20
ATOM     20  O   UNL     1      75.680  79.912  83.608  1.00  0.00    -0.490 OA
ATOM     21  C   UNL     1      74.633  79.343  82.831  1.00  0.00     0.278 C 
ENDBRANCH   8  20
BRANCH  11  22
ATOM     22  O   UNL     1      81.031  78.149  84.075  1.00  0.00    -0.492 OA
ATOM     23  C   UNL     1      82.205  78.955  84.125  1.00  0.00     0.278 C 
ENDBRANCH  11  22
BRANCH   9  24
ATOM     24  O   UNL     1      77.671  81.710  83.555  1.00  0.00    -0.490 OA
ATOM     25  C   UNL     1      77.844  82.393  82.316  1.00  0.00     0.279 C 
ENDBRANCH   9  24
BRANCH  10  26
ATOM     26  O   UNL     1      80.345  80.945  84.125  1.00  0.00    -0.490 OA
ATOM     27  C   UNL     1      81.011  81.559  83.027  1.00  0.00     0.278 C 
ENDBRANCH  10  26
TORSDOF 6
ENDMDL
MODEL 4
REMARK VINA RESULT:    -2.074      5.224     13.103
REMARK INTER + INTRA:          -2.610
REMARK INTER:                  -3.443
REMARK INTRA:                   0.833
REMARK UNBOUND:                 0.192
REMARK SMILES COc1ccc(-c2cc(=O)c3c(OC)c(OC)c(OC)c(OC)c3o2)cc1
REMARK SMILES IDX 7 1 8 2 9 3 10 4 11 5 24 6 25 7 21 8 18 9 15 10 12 11 6 12
REMARK SMILES IDX 3 13 4 14 27 15 5 16 26 17 2 18 1 19 22 20 23 21 13 22 14 23
REMARK SMILES IDX 19 24 20 25 16 26 17 27
REMARK H PARENT
REMARK Flexibility Score: inf
ROOT
ATOM      1  C   UNL     1      72.782  73.220  84.030  1.00  0.00     0.138 A 
ATOM      2  C   UNL     1      71.461  73.677  84.081  1.00  0.00     0.100 A 
ATOM      3  C   UNL     1      70.417  72.755  84.073  1.00  0.00     0.197 A 
ATOM      4  O   UNL     1      69.234  73.186  84.125  1.00  0.00    -0.289 OA
ATOM      5  C   UNL     1      70.703  71.370  84.013  1.00  0.00     0.115 A 
ATOM      6  C   UNL     1      72.067  70.983  83.967  1.00  0.00     0.188 A 
ATOM      7  O   UNL     1      73.019  71.913  83.984  1.00  0.00    -0.452 OA
ATOM      8  C   UNL     1      72.413  69.616  83.880  1.00  0.00     0.209 A 
ATOM      9  C   UNL     1      71.404  68.648  83.843  1.00  0.00     0.211 A 
ATOM     10  C   UNL     1      70.051  69.016  83.979  1.00  0.00     0.208 A 
ATOM     11  C   UNL     1      69.685  70.383  84.007  1.00  0.00     0.179 A 
ENDROOT
BRANCH   1  12
ATOM     12  C   UNL     1      73.927  74.162  84.033  1.00  0.00     0.018 A 
ATOM     13  C   UNL     1      76.134  75.924  84.007  1.00  0.00     0.118 A 
ATOM     14  C   UNL     1      76.334  74.531  84.060  1.00  0.00     0.047 A 
ATOM     15  C   UNL     1      74.829  76.422  83.961  1.00  0.00     0.047 A 
ATOM     16  C   UNL     1      75.239  73.662  84.069  1.00  0.00     0.016 A 
ATOM     17  C   UNL     1      73.733  75.554  83.970  1.00  0.00     0.016 A 
BRANCH  13  18
ATOM     18  O   UNL     1      77.199  76.838  83.997  1.00  0.00    -0.497 OA
ATOM     19  C   UNL     1      77.430  77.790  82.964  1.00  0.00     0.278 C 
ENDBRANCH  13  18
ENDBRANCH   1  12
BRANCH   8  20
ATOM     20  O   UNL     1      73.739  69.147  83.803  1.00  0.00    -0.490 OA
ATOM     21  C   UNL     1      74.858  69.848  83.275  1.00  0.00     0.278 C 
ENDBRANCH   8  20
BRANCH  11  22
ATOM     22  O   UNL     1      68.340  70.807  84.044  1.00  0.00    -0.492 OA
ATOM     23  C   UNL     1      67.203  70.086  83.579  1.00  0.00     0.278 C 
ENDBRANCH  11  22
BRANCH   9  24
ATOM     24  O   UNL     1      71.788  67.311  83.669  1.00  0.00    -0.490 OA
ATOM     25  C   UNL     1      71.720  66.638  82.415  1.00  0.00     0.279 C 
ENDBRANCH   9  24
BRANCH  10  26
ATOM     26  O   UNL     1      69.078  68.025  84.125  1.00  0.00    -0.490 OA
ATOM     27  C   UNL     1      68.457  67.410  83.001  1.00  0.00     0.278 C 
ENDBRANCH  10  26
TORSDOF 6
ENDMDL
MODEL 5
REMARK VINA RESULT:    -1.753      6.439     14.447
REMARK INTER + INTRA:          -2.177
REMARK INTER:                  -2.368
REMARK INTRA:                   0.191
REMARK UNBOUND:                 0.192
REMARK SMILES COc1ccc(-c2cc(=O)c3c(OC)c(OC)c(OC)c(OC)c3o2)cc1
REMARK SMILES IDX 7 1 8 2 9 3 10 4 11 5 24 6 25 7 21 8 18 9 15 10 12 11 6 12
REMARK SMILES IDX 3 13 4 14 27 15 5 16 26 17 2 18 1 19 22 20 23 21 13 22 14 23
REMARK SMILES IDX 19 24 20 25 16 26 17 27
REMARK H PARENT
REMARK Flexibility Score: inf
ROOT
ATOM      1  C   UNL     1      71.487  72.080  84.064  1.00  0.00     0.138 A 
ATOM      2  C   UNL     1      70.148  72.483  84.102  1.00  0.00     0.100 A 
ATOM      3  C   UNL     1      69.143  71.519  84.084  1.00  0.00     0.197 A 
ATOM      4  O   UNL     1      67.943  71.901  84.125  1.00  0.00    -0.289 OA
ATOM      5  C   UNL     1      69.485  70.147  84.028  1.00  0.00     0.115 A 
ATOM      6  C   UNL     1      70.864  69.816  83.994  1.00  0.00     0.188 A 
ATOM      7  O   UNL     1      71.778  70.783  84.021  1.00  0.00    -0.452 OA
ATOM      8  C   UNL     1      71.266  68.464  83.912  1.00  0.00     0.209 A 
ATOM      9  C   UNL     1      70.298  67.455  83.865  1.00  0.00     0.211 A 
ATOM     10  C   UNL     1      68.930  67.768  83.988  1.00  0.00     0.208 A 
ATOM     11  C   UNL     1      68.508  69.119  84.012  1.00  0.00     0.179 A 
ENDROOT
BRANCH   1  12
ATOM     12  C   UNL     1      72.593  73.068  84.078  1.00  0.00     0.018 A 
ATOM     13  C   UNL     1      74.724  74.920  84.069  1.00  0.00     0.118 A 
ATOM     14  C   UNL     1      74.982  73.537  84.027  1.00  0.00     0.047 A 
ATOM     15  C   UNL     1      73.399  75.365  84.108  1.00  0.00     0.047 A 
ATOM     16  C   UNL     1      73.924  72.624  84.028  1.00  0.00     0.016 A 
ATOM     17  C   UNL     1      72.340  74.452  84.109  1.00  0.00     0.016 A 
BRANCH  13  18
ATOM     18  O   UNL     1      75.750  75.878  84.071  1.00  0.00    -0.497 OA
ATOM     19  C   UNL     1      76.103  76.680  82.949  1.00  0.00     0.278 C 
ENDBRANCH  13  18
ENDBRANCH   1  12
BRANCH   8  20
ATOM     20  O   UNL     1      72.612  68.049  83.847  1.00  0.00    -0.490 OA
ATOM     21  C   UNL     1      73.759  68.846  84.116  1.00  0.00     0.278 C 
ENDBRANCH   8  20
BRANCH  11  22
ATOM     22  O   UNL     1      67.147  69.488  84.036  1.00  0.00    -0.492 OA
ATOM     23  C   UNL     1      66.210  69.370  82.970  1.00  0.00     0.278 C 
ENDBRANCH  11  22
BRANCH   9  24
ATOM     24  O   UNL     1      70.738  66.136  83.695  1.00  0.00    -0.490 OA
ATOM     25  C   UNL     1      71.340  65.663  82.493  1.00  0.00     0.279 C 
ENDBRANCH   9  24
BRANCH  10  26
ATOM     26  O   UNL     1      67.997  66.738  84.125  1.00  0.00    -0.490 OA
ATOM     27  C   UNL     1      67.483  66.035  82.998  1.00  0.00     0.278 C 
ENDBRANCH  10  26
TORSDOF 6
ENDMDL
MODEL 6
REMARK VINA RESULT:    -1.328      1.889      3.425
REMARK INTER + INTRA:          -1.603
REMARK INTER:                  -2.545
REMARK INTRA:                   0.942
REMARK UNBOUND:                 0.192
REMARK SMILES COc1ccc(-c2cc(=O)c3c(OC)c(OC)c(OC)c(OC)c3o2)cc1
REMARK SMILES IDX 7 1 8 2 9 3 10 4 11 5 24 6 25 7 21 8 18 9 15 10 12 11 6 12
REMARK SMILES IDX 3 13 4 14 27 15 5 16 26 17 2 18 1 19 22 20 23 21 13 22 14 23
REMARK SMILES IDX 19 24 20 25 16 26 17 27
REMARK H PARENT
REMARK Flexibility Score: inf
ROOT
ATOM      1  C   UNL     1      76.143  76.807  83.363  1.00  0.00     0.138 A 
ATOM      2  C   UNL     1      75.443  77.980  83.061  1.00  0.00     0.100 A 
ATOM      3  C   UNL     1      76.131  79.188  82.993  1.00  0.00     0.197 A 
ATOM      4  O   UNL     1      75.483  80.233  82.715  1.00  0.00    -0.289 OA
ATOM      5  C   UNL     1      77.526  79.218  83.229  1.00  0.00     0.115 A 
ATOM      6  C   UNL     1      78.167  77.988  83.526  1.00  0.00     0.188 A 
ATOM      7  O   UNL     1      77.455  76.865  83.570  1.00  0.00    -0.452 OA
ATOM      8  C   UNL     1      79.554  77.959  83.796  1.00  0.00     0.209 A 
ATOM      9  C   UNL     1      80.290  79.148  83.766  1.00  0.00     0.211 A 
ATOM     10  C   UNL     1      79.680  80.360  83.384  1.00  0.00     0.208 A 
ATOM     11  C   UNL     1      78.282  80.416  83.169  1.00  0.00     0.179 A 
ENDROOT
BRANCH   1  12
ATOM     12  C   UNL     1      75.455  75.496  83.450  1.00  0.00     0.018 A 
ATOM     13  C   UNL     1      74.168  72.992  83.664  1.00  0.00     0.118 A 
ATOM     14  C   UNL     1      75.489  73.154  84.119  1.00  0.00     0.047 A 
ATOM     15  C   UNL     1      73.499  74.087  83.110  1.00  0.00     0.047 A 
ATOM     16  C   UNL     1      76.122  74.396  84.015  1.00  0.00     0.016 A 
ATOM     17  C   UNL     1      74.131  75.330  83.005  1.00  0.00     0.016 A 
BRANCH  13  18
ATOM     18  O   UNL     1      73.489  71.766  83.744  1.00  0.00    -0.497 OA
ATOM     19  C   UNL     1      73.348  70.853  82.661  1.00  0.00     0.278 C 
ENDBRANCH  13  18
ENDBRANCH   1  12
BRANCH   8  20
ATOM     20  O   UNL     1      80.264  76.787  84.125  1.00  0.00    -0.490 OA
ATOM     21  C   UNL     1      79.833  75.448  83.917  1.00  0.00     0.278 C 
ENDBRANCH   8  20
BRANCH  11  22
ATOM     22  O   UNL     1      77.608  81.621  82.881  1.00  0.00    -0.492 OA
ATOM     23  C   UNL     1      78.004  82.621  81.947  1.00  0.00     0.278 C 
ENDBRANCH  11  22
BRANCH   9  24
ATOM     24  O   UNL     1      81.643  79.088  84.125  1.00  0.00    -0.490 OA
ATOM     25  C   UNL     1      82.667  79.791  83.427  1.00  0.00     0.279 C 
ENDBRANCH   9  24
BRANCH  10  26
ATOM     26  O   UNL     1      80.468  81.495  83.182  1.00  0.00    -0.490 OA
ATOM     27  C   UNL     1      80.486  82.573  84.112  1.00  0.00     0.278 C 
ENDBRANCH  10  26
TORSDOF 6
ENDMDL
MODEL 7
REMARK VINA RESULT:    -1.235      5.432     13.776
REMARK INTER + INTRA:          -1.477
REMARK INTER:                  -2.001
REMARK INTRA:                   0.524
REMARK UNBOUND:                 0.192
REMARK SMILES COc1ccc(-c2cc(=O)c3c(OC)c(OC)c(OC)c(OC)c3o2)cc1
REMARK SMILES IDX 7 1 8 2 9 3 10 4 11 5 24 6 25 7 21 8 18 9 15 10 12 11 6 12
REMARK SMILES IDX 3 13 4 14 27 15 5 16 26 17 2 18 1 19 22 20 23 21 13 22 14 23
REMARK SMILES IDX 19 24 20 25 16 26 17 27
REMARK H PARENT
REMARK Flexibility Score: inf
ROOT
ATOM      1  C   UNL     1      73.058  72.612  83.463  1.00  0.00     0.138 A 
ATOM      2  C   UNL     1      73.711  71.406  83.188  1.00  0.00     0.100 A 
ATOM      3  C   UNL     1      72.971  70.229  83.113  1.00  0.00     0.197 A 
ATOM      4  O   UNL     1      73.577  69.154  82.859  1.00  0.00    -0.289 OA
ATOM      5  C   UNL     1      71.571  70.265  83.315  1.00  0.00     0.115 A 
ATOM      6  C   UNL     1      70.979  71.525  83.587  1.00  0.00     0.188 A 
ATOM      7  O   UNL     1      71.740  72.616  83.639  1.00  0.00    -0.452 OA
ATOM      8  C   UNL     1      69.589  71.619  83.822  1.00  0.00     0.209 A 
ATOM      9  C   UNL     1      68.801  70.464  83.784  1.00  0.00     0.211 A 
ATOM     10  C   UNL     1      69.364  69.223  83.427  1.00  0.00     0.208 A 
ATOM     11  C   UNL     1      70.762  69.101  83.246  1.00  0.00     0.179 A 
ENDROOT
BRANCH   1  12
ATOM     12  C   UNL     1      73.802  73.892  83.557  1.00  0.00     0.018 A 
ATOM     13  C   UNL     1      75.191  76.340  83.777  1.00  0.00     0.118 A 
ATOM     14  C   UNL     1      73.808  76.280  84.032  1.00  0.00     0.047 A 
ATOM     15  C   UNL     1      75.869  75.171  83.419  1.00  0.00     0.047 A 
ATOM     16  C   UNL     1      73.125  75.065  83.926  1.00  0.00     0.016 A 
ATOM     17  C   UNL     1      75.186  73.956  83.312  1.00  0.00     0.016 A 
BRANCH  13  18
ATOM     18  O   UNL     1      75.923  77.534  83.869  1.00  0.00    -0.497 OA
ATOM     19  C   UNL     1      77.279  77.679  83.460  1.00  0.00     0.278 C 
ENDBRANCH  13  18
ENDBRANCH   1  12
BRANCH   8  20
ATOM     20  O   UNL     1      68.925  72.825  84.125  1.00  0.00    -0.490 OA
ATOM     21  C   UNL     1      69.249  74.119  83.631  1.00  0.00     0.278 C 
ENDBRANCH   8  20
BRANCH  11  22
ATOM     22  O   UNL     1      71.388  67.865  82.984  1.00  0.00    -0.492 OA
ATOM     23  C   UNL     1      71.666  66.831  83.923  1.00  0.00     0.278 C 
ENDBRANCH  11  22
BRANCH   9  24
ATOM     24  O   UNL     1      67.443  70.589  84.110  1.00  0.00    -0.490 OA
ATOM     25  C   UNL     1      66.393  70.134  83.261  1.00  0.00     0.279 C 
ENDBRANCH   9  24
BRANCH  10  26
ATOM     26  O   UNL     1      68.530  68.123  83.215  1.00  0.00    -0.490 OA
ATOM     27  C   UNL     1      68.490  67.024  84.121  1.00  0.00     0.278 C 
ENDBRANCH  10  26
TORSDOF 6
ENDMDL
