MODEL 1
REMARK VINA RESULT:    -3.962      0.000      0.000
REMARK INTER + INTRA:          -5.079
REMARK INTER:                  -5.004
REMARK INTRA:                  -0.074
REMARK UNBOUND:                -0.074
REMARK SMILES CSCC[C@@H]([NH3+])C(=O)[O-]
REMARK SMILES IDX 4 1 5 2 6 3 7 7 8 8 9 9 3 10 2 11 1 12
REMARK H PARENT 6 4 6 5 6 6
REMARK Flexibility Score: inf
ROOT
ATOM      1  C   UNL     1      10.500  26.556  14.389  1.00  0.00     0.082 C 
ENDROOT
BRANCH   1   2
ATOM      2  C   UNL     1      11.646  27.596  14.416  1.00  0.00     0.228 C 
BRANCH   2   3
ATOM      3  N   UNL     1      11.252  28.808  13.688  1.00  0.00    -0.350 N 
ATOM      4  H   UNL     1      10.271  28.709  13.338  1.00  0.00     0.345 HD
ATOM      5  H   UNL     1      11.879  28.946  12.862  1.00  0.00     0.345 HD
ATOM      6  H   UNL     1      11.310  29.648  14.309  1.00  0.00     0.345 HD
ENDBRANCH   2   3
BRANCH   2   7
ATOM      7  C   UNL     1      12.034  27.952  15.827  1.00  0.00     0.099 C 
ATOM      8  O   UNL     1      12.988  28.745  16.040  1.00  0.00    -0.544 OA
ATOM      9  O   UNL     1      11.343  27.406  16.903  1.00  0.00    -0.544 OA
ENDBRANCH   2   7
ENDBRANCH   1   2
BRANCH   1  10
ATOM     10  C   UNL     1       9.849  26.397  13.006  1.00  0.00     0.076 C 
BRANCH  10  11
ATOM     11  S   UNL     1       8.112  25.844  13.142  1.00  0.00    -0.165 SA
ATOM     12  C   UNL     1       8.261  25.305  14.874  1.00  0.00     0.085 C 
ENDBRANCH  10  11
ENDBRANCH   1  10
TORSDOF 5
ENDMDL
MODEL 2
REMARK VINA RESULT:    -3.830      4.412      5.486
REMARK INTER + INTRA:          -4.912
REMARK INTER:                  -4.844
REMARK INTRA:                  -0.067
REMARK UNBOUND:                -0.074
REMARK SMILES CSCC[C@@H]([NH3+])C(=O)[O-]
REMARK SMILES IDX 4 1 5 2 6 3 7 7 8 8 9 9 3 10 2 11 1 12
REMARK H PARENT 6 4 6 5 6 6
REMARK Flexibility Score: inf
ROOT
ATOM      1  C   UNL     1      10.060  25.927  17.790  1.00  0.00     0.082 C 
ENDROOT
BRANCH   1   2
ATOM      2  C   UNL     1      10.257  24.604  18.569  1.00  0.00     0.228 C 
BRANCH   2   3
ATOM      3  N   UNL     1      10.209  24.852  20.014  1.00  0.00    -0.350 N 
ATOM      4  H   UNL     1      10.875  24.213  20.507  1.00  0.00     0.345 HD
ATOM      5  H   UNL     1       9.246  24.657  20.376  1.00  0.00     0.345 HD
ATOM      6  H   UNL     1      10.464  25.844  20.230  1.00  0.00     0.345 HD
ENDBRANCH   2   3
BRANCH   2   7
ATOM      7  C   UNL     1       9.217  23.583  18.191  1.00  0.00     0.099 C 
ATOM      8  O   UNL     1       8.998  22.595  18.941  1.00  0.00    -0.544 OA
ATOM      9  O   UNL     1       8.493  23.722  17.012  1.00  0.00    -0.544 OA
ENDBRANCH   2   7
ENDBRANCH   1   2
BRANCH   1  10
ATOM     10  C   UNL     1      11.332  26.412  17.076  1.00  0.00     0.076 C 
BRANCH  10  11
ATOM     11  S   UNL     1      10.986  26.901  15.348  1.00  0.00    -0.165 SA
ATOM     12  C   UNL     1      12.157  28.294  15.350  1.00  0.00     0.085 C 
ENDBRANCH  10  11
ENDBRANCH   1  10
TORSDOF 5
ENDMDL
MODEL 3
REMARK VINA RESULT:    -3.753      1.160      1.169
REMARK INTER + INTRA:          -4.815
REMARK INTER:                  -4.741
REMARK INTRA:                  -0.075
REMARK UNBOUND:                -0.074
REMARK SMILES CSCC[C@@H]([NH3+])C(=O)[O-]
REMARK SMILES IDX 4 1 5 2 6 3 7 7 8 8 9 9 3 10 2 11 1 12
REMARK H PARENT 6 4 6 5 6 6
REMARK Flexibility Score: inf
ROOT
ATOM      1  C   UNL     1      10.125  26.360  14.267  1.00  0.00     0.082 C 
ENDROOT
BRANCH   1   2
ATOM      2  C   UNL     1      11.385  27.233  14.481  1.00  0.00     0.228 C 
BRANCH   2   3
ATOM      3  N   UNL     1      11.241  28.516  13.785  1.00  0.00    -0.350 N 
ATOM      4  H   UNL     1      11.453  29.303  14.442  1.00  0.00     0.345 HD
ATOM      5  H   UNL     1      10.256  28.631  13.451  1.00  0.00     0.345 HD
ATOM      6  H   UNL     1      11.891  28.570  12.967  1.00  0.00     0.345 HD
ENDBRANCH   2   3
BRANCH   2   7
ATOM      7  C   UNL     1      11.645  27.473  15.946  1.00  0.00     0.099 C 
ATOM      8  O   UNL     1      12.144  28.564  16.329  1.00  0.00    -0.544 OA
ATOM      9  O   UNL     1      11.339  26.492  16.883  1.00  0.00    -0.544 OA
ENDBRANCH   2   7
ENDBRANCH   1   2
BRANCH   1  10
ATOM     10  C   UNL     1      10.119  25.614  12.923  1.00  0.00     0.076 C 
BRANCH  10  11
ATOM     11  S   UNL     1       8.991  26.404  11.721  1.00  0.00    -0.165 SA
ATOM     12  C   UNL     1       7.487  26.088  12.697  1.00  0.00     0.085 C 
ENDBRANCH  10  11
ENDBRANCH   1  10
TORSDOF 5
ENDMDL
MODEL 4
REMARK VINA RESULT:    -3.648      2.759      3.294
REMARK INTER + INTRA:          -4.682
REMARK INTER:                  -4.561
REMARK INTRA:                  -0.121
REMARK UNBOUND:                -0.074
REMARK SMILES CSCC[C@@H]([NH3+])C(=O)[O-]
REMARK SMILES IDX 4 1 5 2 6 3 7 7 8 8 9 9 3 10 2 11 1 12
REMARK H PARENT 6 4 6 5 6 6
REMARK Flexibility Score: inf
ROOT
ATOM      1  C   UNL     1      11.550  26.478  16.740  1.00  0.00     0.082 C 
ENDROOT
BRANCH   1   2
ATOM      2  C   UNL     1      11.727  27.907  16.175  1.00  0.00     0.228 C 
BRANCH   2   3
ATOM      3  N   UNL     1      13.102  28.373  16.388  1.00  0.00    -0.350 N 
ATOM      4  H   UNL     1      13.679  28.180  15.536  1.00  0.00     0.345 HD
ATOM      5  H   UNL     1      13.531  27.860  17.193  1.00  0.00     0.345 HD
ATOM      6  H   UNL     1      13.119  29.401  16.586  1.00  0.00     0.345 HD
ENDBRANCH   2   3
BRANCH   2   7
ATOM      7  C   UNL     1      11.391  27.964  14.707  1.00  0.00     0.099 C 
ATOM      8  O   UNL     1      10.897  26.960  14.132  1.00  0.00    -0.544 OA
ATOM      9  O   UNL     1      11.627  29.125  13.978  1.00  0.00    -0.544 OA
ENDBRANCH   2   7
ENDBRANCH   1   2
BRANCH   1  10
ATOM     10  C   UNL     1      10.325  26.329  17.656  1.00  0.00     0.076 C 
BRANCH  10  11
ATOM     11  S   UNL     1       9.106  25.157  16.961  1.00  0.00    -0.165 SA
ATOM     12  C   UNL     1       9.368  23.891  18.243  1.00  0.00     0.085 C 
ENDBRANCH  10  11
ENDBRANCH   1  10
TORSDOF 5
ENDMDL
MODEL 5
REMARK VINA RESULT:    -3.578      3.457      4.257
REMARK INTER + INTRA:          -4.594
REMARK INTER:                  -4.517
REMARK INTRA:                  -0.077
REMARK UNBOUND:                -0.074
REMARK SMILES CSCC[C@@H]([NH3+])C(=O)[O-]
REMARK SMILES IDX 4 1 5 2 6 3 7 7 8 8 9 9 3 10 2 11 1 12
REMARK H PARENT 6 4 6 5 6 6
REMARK Flexibility Score: inf
ROOT
ATOM      1  C   UNL     1      10.726  26.508  14.299  1.00  0.00     0.082 C 
ENDROOT
BRANCH   1   2
ATOM      2  C   UNL     1       9.712  26.454  13.131  1.00  0.00     0.228 C 
BRANCH   2   3
ATOM      3  N   UNL     1      10.318  25.812  11.959  1.00  0.00    -0.350 N 
ATOM      4  H   UNL     1       9.988  24.821  11.886  1.00  0.00     0.345 HD
ATOM      5  H   UNL     1      11.360  25.800  12.059  1.00  0.00     0.345 HD
ATOM      6  H   UNL     1      10.062  26.323  11.082  1.00  0.00     0.345 HD
ENDBRANCH   2   3
BRANCH   2   7
ATOM      7  C   UNL     1       8.458  25.718  13.524  1.00  0.00     0.099 C 
ATOM      8  O   UNL     1       7.348  26.050  13.029  1.00  0.00    -0.544 OA
ATOM      9  O   UNL     1       8.516  24.670  14.436  1.00  0.00    -0.544 OA
ENDBRANCH   2   7
ENDBRANCH   1   2
BRANCH   1  10
ATOM     10  C   UNL     1      11.512  27.827  14.368  1.00  0.00     0.076 C 
BRANCH  10  11
ATOM     11  S   UNL     1      11.975  28.243  16.087  1.00  0.00    -0.165 SA
ATOM     12  C   UNL     1      11.247  26.738  16.806  1.00  0.00     0.085 C 
ENDBRANCH  10  11
ENDBRANCH   1  10
TORSDOF 5
ENDMDL
MODEL 6
REMARK VINA RESULT:    -3.523      3.627      4.145
REMARK INTER + INTRA:          -4.524
REMARK INTER:                  -4.475
REMARK INTRA:                  -0.049
REMARK UNBOUND:                -0.074
REMARK SMILES CSCC[C@@H]([NH3+])C(=O)[O-]
REMARK SMILES IDX 4 1 5 2 6 3 7 7 8 8 9 9 3 10 2 11 1 12
REMARK H PARENT 6 4 6 5 6 6
REMARK Flexibility Score: inf
ROOT
ATOM      1  C   UNL     1       8.693  25.208  14.614  1.00  0.00     0.082 C 
ENDROOT
BRANCH   1   2
ATOM      2  C   UNL     1       7.988  25.071  15.985  1.00  0.00     0.228 C 
BRANCH   2   3
ATOM      3  N   UNL     1       6.962  24.023  15.928  1.00  0.00    -0.350 N 
ATOM      4  H   UNL     1       6.011  24.451  16.006  1.00  0.00     0.345 HD
ATOM      5  H   UNL     1       7.086  23.360  16.729  1.00  0.00     0.345 HD
ATOM      6  H   UNL     1       7.025  23.491  15.028  1.00  0.00     0.345 HD
ENDBRANCH   2   3
BRANCH   2   7
ATOM      7  C   UNL     1       8.972  24.762  17.082  1.00  0.00     0.099 C 
ATOM      8  O   UNL     1       9.843  25.611  17.408  1.00  0.00    -0.544 OA
ATOM      9  O   UNL     1       8.928  23.538  17.740  1.00  0.00    -0.544 OA
ENDBRANCH   2   7
ENDBRANCH   1   2
BRANCH   1  10
ATOM     10  C   UNL     1       7.816  25.866  13.537  1.00  0.00     0.076 C 
BRANCH  10  11
ATOM     11  S   UNL     1       8.796  26.330  12.065  1.00  0.00    -0.165 SA
ATOM     12  C   UNL     1       9.929  24.911  12.186  1.00  0.00     0.085 C 
ENDBRANCH  10  11
ENDBRANCH   1  10
TORSDOF 5
ENDMDL
MODEL 7
REMARK VINA RESULT:    -3.497      1.736      2.280
REMARK INTER + INTRA:          -4.491
REMARK INTER:                  -4.359
REMARK INTRA:                  -0.131
REMARK UNBOUND:                -0.074
REMARK SMILES CSCC[C@@H]([NH3+])C(=O)[O-]
REMARK SMILES IDX 4 1 5 2 6 3 7 7 8 8 9 9 3 10 2 11 1 12
REMARK H PARENT 6 4 6 5 6 6
REMARK Flexibility Score: inf
ROOT
ATOM      1  C   UNL     1       9.054  26.016  14.679  1.00  0.00     0.082 C 
ENDROOT
BRANCH   1   2
ATOM      2  C   UNL     1      10.377  26.449  14.003  1.00  0.00     0.228 C 
BRANCH   2   3
ATOM      3  N   UNL     1      10.100  27.288  12.831  1.00  0.00    -0.350 N 
ATOM      4  H   UNL     1       9.338  26.857  12.258  1.00  0.00     0.345 HD
ATOM      5  H   UNL     1      10.956  27.358  12.233  1.00  0.00     0.345 HD
ATOM      6  H   UNL     1       9.805  28.249  13.124  1.00  0.00     0.345 HD
ENDBRANCH   2   3
BRANCH   2   7
ATOM      7  C   UNL     1      11.269  27.193  14.962  1.00  0.00     0.099 C 
ATOM      8  O   UNL     1      11.354  26.823  16.163  1.00  0.00    -0.544 OA
ATOM      9  O   UNL     1      12.001  28.293  14.530  1.00  0.00    -0.544 OA
ENDBRANCH   2   7
ENDBRANCH   1   2
BRANCH   1  10
ATOM     10  C   UNL     1       8.555  24.637  14.220  1.00  0.00     0.076 C 
BRANCH  10  11
ATOM     11  S   UNL     1       7.736  23.732  15.581  1.00  0.00    -0.165 SA
ATOM     12  C   UNL     1       8.728  24.509  16.895  1.00  0.00     0.085 C 
ENDBRANCH  10  11
ENDBRANCH   1  10
TORSDOF 5
ENDMDL
MODEL 8
REMARK VINA RESULT:    -3.485      5.370      6.258
REMARK INTER + INTRA:          -4.477
REMARK INTER:                  -4.518
REMARK INTRA:                   0.041
REMARK UNBOUND:                -0.074
REMARK SMILES CSCC[C@@H]([NH3+])C(=O)[O-]
REMARK SMILES IDX 4 1 5 2 6 3 7 7 8 8 9 9 3 10 2 11 1 12
REMARK H PARENT 6 4 6 5 6 6
REMARK Flexibility Score: inf
ROOT
ATOM      1  C   UNL     1       9.329  24.124  18.062  1.00  0.00     0.082 C 
ENDROOT
BRANCH   1   2
ATOM      2  C   UNL     1      10.022  23.725  19.387  1.00  0.00     0.228 C 
BRANCH   2   3
ATOM      3  N   UNL     1      10.161  24.895  20.262  1.00  0.00    -0.350 N 
ATOM      4  H   UNL     1      10.383  25.742  19.690  1.00  0.00     0.345 HD
ATOM      5  H   UNL     1      10.946  24.744  20.937  1.00  0.00     0.345 HD
ATOM      6  H   UNL     1       9.277  25.066  20.796  1.00  0.00     0.345 HD
ENDBRANCH   2   3
BRANCH   2   7
ATOM      7  C   UNL     1       9.260  22.641  20.103  1.00  0.00     0.099 C 
ATOM      8  O   UNL     1       8.287  22.936  20.846  1.00  0.00    -0.544 OA
ATOM      9  O   UNL     1       9.626  21.308  19.950  1.00  0.00    -0.544 OA
ENDBRANCH   2   7
ENDBRANCH   1   2
BRANCH   1  10
ATOM     10  C   UNL     1       8.514  22.984  17.431  1.00  0.00     0.076 C 
BRANCH  10  11
ATOM     11  S   UNL     1       7.775  23.491  15.837  1.00  0.00    -0.165 SA
ATOM     12  C   UNL     1       8.318  25.224  15.965  1.00  0.00     0.085 C 
ENDBRANCH  10  11
ENDBRANCH   1  10
TORSDOF 5
ENDMDL
MODEL 9
REMARK VINA RESULT:    -3.291      3.651      4.389
REMARK INTER + INTRA:          -4.232
REMARK INTER:                  -4.157
REMARK INTRA:                  -0.075
REMARK UNBOUND:                -0.074
REMARK SMILES CSCC[C@@H]([NH3+])C(=O)[O-]
REMARK SMILES IDX 4 1 5 2 6 3 7 7 8 8 9 9 3 10 2 11 1 12
REMARK H PARENT 6 4 6 5 6 6
REMARK Flexibility Score: inf
ROOT
ATOM      1  C   UNL     1      10.118  24.939  12.069  1.00  0.00     0.082 C 
ENDROOT
BRANCH   1   2
ATOM      2  C   UNL     1       9.814  25.787  13.327  1.00  0.00     0.228 C 
BRANCH   2   3
ATOM      3  N   UNL     1      10.041  27.210  13.050  1.00  0.00    -0.350 N 
ATOM      4  H   UNL     1       9.596  27.793  13.796  1.00  0.00     0.345 HD
ATOM      5  H   UNL     1       9.606  27.468  12.134  1.00  0.00     0.345 HD
ATOM      6  H   UNL     1      11.066  27.422  13.017  1.00  0.00     0.345 HD
ENDBRANCH   2   3
BRANCH   2   7
ATOM      7  C   UNL     1       8.400  25.580  13.803  1.00  0.00     0.099 C 
ATOM      8  O   UNL     1       7.473  26.315  13.371  1.00  0.00    -0.544 OA
ATOM      9  O   UNL     1       8.109  24.578  14.723  1.00  0.00    -0.544 OA
ENDBRANCH   2   7
ENDBRANCH   1   2
BRANCH   1  10
ATOM     10  C   UNL     1       9.704  25.622  10.755  1.00  0.00     0.076 C 
BRANCH  10  11
ATOM     11  S   UNL     1      10.719  25.044   9.349  1.00  0.00    -0.165 SA
ATOM     12  C   UNL     1      10.420  23.276   9.666  1.00  0.00     0.085 C 
ENDBRANCH  10  11
ENDBRANCH   1  10
TORSDOF 5
ENDMDL
