MODEL 1
REMARK VINA RESULT:    -4.082      0.000      0.000
REMARK INTER + INTRA:          -5.226
REMARK INTER:                  -4.917
REMARK INTRA:                  -0.309
REMARK UNBOUND:                -0.309
REMARK SMILES O=c1c(O)c(-c2ccc(O)c(O)c2)oc2cc(O)cc(O)c12
REMARK SMILES IDX 5 1 3 2 2 3 1 4 22 5 20 6 19 7 17 8 16 9 15 10 14 11 6 12
REMARK SMILES IDX 7 13 8 14 9 15 13 16 11 17 10 18 12 20 4 22 21 24 18 26
REMARK H PARENT 10 19 12 21 4 23 21 25 18 27
REMARK Flexibility Score: inf
ROOT
ATOM      1  C   UNL     1     197.431 196.350 197.154  1.00  0.00     0.180 A 
ATOM      2  C   UNL     1     197.820 197.699 197.093  1.00  0.00     0.208 A 
ATOM      3  C   UNL     1     199.177 198.025 197.250  1.00  0.00     0.238 A 
ATOM      4  O   UNL     1     199.508 199.239 197.269  1.00  0.00    -0.285 OA
ATOM      5  C   UNL     1     200.135 196.994 197.412  1.00  0.00     0.111 A 
ATOM      6  C   UNL     1     201.542 197.206 197.537  1.00  0.00     0.134 A 
ATOM      7  C   UNL     1     202.383 196.117 197.800  1.00  0.00     0.093 A 
ATOM      8  C   UNL     1     201.877 194.818 197.878  1.00  0.00     0.123 A 
ATOM      9  C   UNL     1     200.514 194.595 197.704  1.00  0.00     0.094 A 
ATOM     10  C   UNL     1     199.644 195.664 197.479  1.00  0.00     0.146 A 
ATOM     11  O   UNL     1     198.348 195.409 197.340  1.00  0.00    -0.452 OA
ENDROOT
BRANCH   1  12
ATOM     12  C   UNL     1     196.019 195.929 197.012  1.00  0.00     0.025 A 
ATOM     13  C   UNL     1     195.166 195.987 198.125  1.00  0.00     0.016 A 
ATOM     14  C   UNL     1     193.825 195.615 198.009  1.00  0.00     0.051 A 
ATOM     15  C   UNL     1     193.312 195.195 196.778  1.00  0.00     0.157 A 
ATOM     16  C   UNL     1     195.496 195.526 195.769  1.00  0.00     0.062 A 
ATOM     17  C   UNL     1     194.149 195.154 195.651  1.00  0.00     0.158 A 
BRANCH  15  18
ATOM     18  O   UNL     1     191.969 194.826 196.694  1.00  0.00    -0.504 OA
ATOM     19  H   UNL     1     191.508 194.300 197.426  1.00  0.00     0.293 HD
ENDBRANCH  15  18
BRANCH  17  20
ATOM     20  O   UNL     1     193.639 194.751 194.418  1.00  0.00    -0.504 OA
ATOM     21  H   UNL     1     193.672 193.782 194.121  1.00  0.00     0.293 HD
ENDBRANCH  17  20
ENDBRANCH   1  12
BRANCH   2  22
ATOM     22  O   UNL     1     196.869 198.696 196.855  1.00  0.00    -0.502 OA
ATOM     23  H   UNL     1     195.963 198.497 196.449  1.00  0.00     0.293 HD
ENDBRANCH   2  22
BRANCH   6  24
ATOM     24  O   UNL     1     202.164 198.450 197.386  1.00  0.00    -0.507 OA
ATOM     25  H   UNL     1     202.106 199.209 198.048  1.00  0.00     0.293 HD
ENDBRANCH   6  24
BRANCH   8  26
ATOM     26  O   UNL     1     202.724 193.739 198.123  1.00  0.00    -0.508 OA
ATOM     27  H   UNL     1     203.186 193.246 197.368  1.00  0.00     0.293 HD
ENDBRANCH   8  26
TORSDOF 6
ENDMDL
MODEL 2
REMARK VINA RESULT:    -3.928      1.862      6.475
REMARK INTER + INTRA:          -5.041
REMARK INTER:                  -4.730
REMARK INTRA:                  -0.311
REMARK UNBOUND:                -0.309
REMARK SMILES O=c1c(O)c(-c2ccc(O)c(O)c2)oc2cc(O)cc(O)c12
REMARK SMILES IDX 5 1 3 2 2 3 1 4 22 5 20 6 19 7 17 8 16 9 15 10 14 11 6 12
REMARK SMILES IDX 7 13 8 14 9 15 13 16 11 17 10 18 12 20 4 22 21 24 18 26
REMARK H PARENT 10 19 12 21 4 23 21 25 18 27
REMARK Flexibility Score: inf
ROOT
ATOM      1  C   UNL     1     200.180 196.508 197.186  1.00  0.00     0.180 A 
ATOM      2  C   UNL     1     200.495 197.871 197.313  1.00  0.00     0.208 A 
ATOM      3  C   UNL     1     199.452 198.801 197.450  1.00  0.00     0.238 A 
ATOM      4  O   UNL     1     199.737 200.027 197.487  1.00  0.00    -0.285 OA
ATOM      5  C   UNL     1     198.111 198.351 197.515  1.00  0.00     0.111 A 
ATOM      6  C   UNL     1     196.977 199.201 197.697  1.00  0.00     0.134 A 
ATOM      7  C   UNL     1     195.688 198.654 197.638  1.00  0.00     0.093 A 
ATOM      8  C   UNL     1     195.495 197.282 197.469  1.00  0.00     0.123 A 
ATOM      9  C   UNL     1     196.595 196.438 197.346  1.00  0.00     0.094 A 
ATOM     10  C   UNL     1     197.892 196.957 197.361  1.00  0.00     0.146 A 
ATOM     11  O   UNL     1     198.912 196.119 197.218  1.00  0.00    -0.452 OA
ENDROOT
BRANCH   1  12
ATOM     12  C   UNL     1     201.224 195.469 197.024  1.00  0.00     0.025 A 
ATOM     13  C   UNL     1     201.588 194.679 198.125  1.00  0.00     0.016 A 
ATOM     14  C   UNL     1     202.555 193.680 197.989  1.00  0.00     0.051 A 
ATOM     15  C   UNL     1     203.160 193.445 196.751  1.00  0.00     0.157 A 
ATOM     16  C   UNL     1     201.819 195.218 195.773  1.00  0.00     0.062 A 
ATOM     17  C   UNL     1     202.789 194.214 195.636  1.00  0.00     0.158 A 
BRANCH  15  18
ATOM     18  O   UNL     1     204.125 192.442 196.648  1.00  0.00    -0.504 OA
ATOM     19  H   UNL     1     204.123 191.630 197.252  1.00  0.00     0.293 HD
ENDBRANCH  15  18
BRANCH  17  20
ATOM     20  O   UNL     1     203.377 193.974 194.396  1.00  0.00    -0.504 OA
ATOM     21  H   UNL     1     203.052 193.230 193.789  1.00  0.00     0.293 HD
ENDBRANCH  17  20
ENDBRANCH   1  12
BRANCH   2  22
ATOM     22  O   UNL     1     201.830 198.288 197.323  1.00  0.00    -0.502 OA
ATOM     23  H   UNL     1     202.530 197.886 196.712  1.00  0.00     0.293 HD
ENDBRANCH   2  22
BRANCH   6  24
ATOM     24  O   UNL     1     197.060 200.572 197.962  1.00  0.00    -0.507 OA
ATOM     25  H   UNL     1     197.515 201.249 197.368  1.00  0.00     0.293 HD
ENDBRANCH   6  24
BRANCH   8  26
ATOM     26  O   UNL     1     194.210 196.745 197.430  1.00  0.00    -0.508 OA
ATOM     27  H   UNL     1     193.904 196.160 196.661  1.00  0.00     0.293 HD
ENDBRANCH   8  26
TORSDOF 6
ENDMDL
MODEL 3
REMARK VINA RESULT:    -3.727      2.741      4.345
REMARK INTER + INTRA:          -4.799
REMARK INTER:                  -4.483
REMARK INTRA:                  -0.316
REMARK UNBOUND:                -0.309
REMARK SMILES O=c1c(O)c(-c2ccc(O)c(O)c2)oc2cc(O)cc(O)c12
REMARK SMILES IDX 5 1 3 2 2 3 1 4 22 5 20 6 19 7 17 8 16 9 15 10 14 11 6 12
REMARK SMILES IDX 7 13 8 14 9 15 13 16 11 17 10 18 12 20 4 22 21 24 18 26
REMARK H PARENT 10 19 12 21 4 23 21 25 18 27
REMARK Flexibility Score: inf
ROOT
ATOM      1  C   UNL     1     200.317 196.638 196.034  1.00  0.00     0.180 A 
ATOM      2  C   UNL     1     200.719 196.700 194.689  1.00  0.00     0.208 A 
ATOM      3  C   UNL     1     201.770 195.877 194.253  1.00  0.00     0.238 A 
ATOM      4  O   UNL     1     202.174 195.991 193.067  1.00  0.00    -0.285 OA
ATOM      5  C   UNL     1     202.370 194.963 195.154  1.00  0.00     0.111 A 
ATOM      6  C   UNL     1     203.413 194.050 194.811  1.00  0.00     0.134 A 
ATOM      7  C   UNL     1     204.002 193.267 195.811  1.00  0.00     0.093 A 
ATOM      8  C   UNL     1     203.544 193.317 197.129  1.00  0.00     0.123 A 
ATOM      9  C   UNL     1     202.490 194.164 197.463  1.00  0.00     0.094 A 
ATOM     10  C   UNL     1     201.907 194.986 196.496  1.00  0.00     0.146 A 
ATOM     11  O   UNL     1     200.920 195.794 196.862  1.00  0.00    -0.452 OA
ENDROOT
BRANCH   1  12
ATOM     12  C   UNL     1     199.227 197.483 196.571  1.00  0.00     0.025 A 
ATOM     13  C   UNL     1     199.538 198.721 197.154  1.00  0.00     0.016 A 
ATOM     14  C   UNL     1     198.523 199.545 197.649  1.00  0.00     0.051 A 
ATOM     15  C   UNL     1     197.185 199.153 197.554  1.00  0.00     0.157 A 
ATOM     16  C   UNL     1     197.877 197.100 196.457  1.00  0.00     0.062 A 
ATOM     17  C   UNL     1     196.858 197.927 196.951  1.00  0.00     0.158 A 
BRANCH  15  18
ATOM     18  O   UNL     1     196.194 199.995 198.059  1.00  0.00    -0.504 OA
ATOM     19  H   UNL     1     195.252 200.001 197.688  1.00  0.00     0.293 HD
ENDBRANCH  15  18
BRANCH  17  20
ATOM     20  O   UNL     1     195.525 197.538 196.840  1.00  0.00    -0.504 OA
ATOM     21  H   UNL     1     195.154 197.154 195.978  1.00  0.00     0.293 HD
ENDBRANCH  17  20
ENDBRANCH   1  12
BRANCH   2  22
ATOM     22  O   UNL     1     200.063 197.553 193.796  1.00  0.00    -0.502 OA
ATOM     23  H   UNL     1     199.797 198.499 194.044  1.00  0.00     0.293 HD
ENDBRANCH   2  22
BRANCH   6  24
ATOM     24  O   UNL     1     203.887 193.855 193.508  1.00  0.00    -0.507 OA
ATOM     25  H   UNL     1     204.847 193.669 193.265  1.00  0.00     0.293 HD
ENDBRANCH   6  24
BRANCH   8  26
ATOM     26  O   UNL     1     204.125 192.522 198.115  1.00  0.00    -0.508 OA
ATOM     27  H   UNL     1     203.595 192.199 198.916  1.00  0.00     0.293 HD
ENDBRANCH   8  26
TORSDOF 6
ENDMDL
MODEL 4
REMARK VINA RESULT:    -3.719      3.580      4.582
REMARK INTER + INTRA:          -4.788
REMARK INTER:                  -4.470
REMARK INTRA:                  -0.318
REMARK UNBOUND:                -0.309
REMARK SMILES O=c1c(O)c(-c2ccc(O)c(O)c2)oc2cc(O)cc(O)c12
REMARK SMILES IDX 5 1 3 2 2 3 1 4 22 5 20 6 19 7 17 8 16 9 15 10 14 11 6 12
REMARK SMILES IDX 7 13 8 14 9 15 13 16 11 17 10 18 12 20 4 22 21 24 18 26
REMARK H PARENT 10 19 12 21 4 23 21 25 18 27
REMARK Flexibility Score: inf
ROOT
ATOM      1  C   UNL     1     199.882 196.980 197.320  1.00  0.00     0.180 A 
ATOM      2  C   UNL     1     201.271 197.098 197.499  1.00  0.00     0.208 A 
ATOM      3  C   UNL     1     202.024 195.943 197.765  1.00  0.00     0.238 A 
ATOM      4  O   UNL     1     203.255 196.066 197.999  1.00  0.00    -0.285 OA
ATOM      5  C   UNL     1     201.388 194.678 197.794  1.00  0.00     0.111 A 
ATOM      6  C   UNL     1     202.060 193.436 198.011  1.00  0.00     0.134 A 
ATOM      7  C   UNL     1     201.311 192.258 198.125  1.00  0.00     0.093 A 
ATOM      8  C   UNL     1     199.925 192.267 197.966  1.00  0.00     0.123 A 
ATOM      9  C   UNL     1     199.266 193.464 197.700  1.00  0.00     0.094 A 
ATOM     10  C   UNL     1     199.980 194.663 197.619  1.00  0.00     0.146 A 
ATOM     11  O   UNL     1     199.310 195.785 197.386  1.00  0.00    -0.452 OA
ENDROOT
BRANCH   1  12
ATOM     12  C   UNL     1     199.020 198.153 197.050  1.00  0.00     0.025 A 
ATOM     13  C   UNL     1     198.539 198.917 198.125  1.00  0.00     0.016 A 
ATOM     14  C   UNL     1     197.740 200.040 197.893  1.00  0.00     0.051 A 
ATOM     15  C   UNL     1     197.423 200.425 196.587  1.00  0.00     0.157 A 
ATOM     16  C   UNL     1     198.717 198.554 195.736  1.00  0.00     0.062 A 
ATOM     17  C   UNL     1     197.917 199.682 195.502  1.00  0.00     0.158 A 
BRANCH  15  18
ATOM     18  O   UNL     1     196.622 201.549 196.388  1.00  0.00    -0.504 OA
ATOM     19  H   UNL     1     196.279 202.110 197.159  1.00  0.00     0.293 HD
ENDBRANCH  15  18
BRANCH  17  20
ATOM     20  O   UNL     1     197.617 200.069 194.197  1.00  0.00    -0.504 OA
ATOM     21  H   UNL     1     196.692 200.392 193.939  1.00  0.00     0.293 HD
ENDBRANCH  17  20
ENDBRANCH   1  12
BRANCH   2  22
ATOM     22  O   UNL     1     201.891 198.346 197.391  1.00  0.00    -0.502 OA
ATOM     23  H   UNL     1     202.854 198.451 197.095  1.00  0.00     0.293 HD
ENDBRANCH   2  22
BRANCH   6  24
ATOM     24  O   UNL     1     203.450 193.301 198.096  1.00  0.00    -0.507 OA
ATOM     25  H   UNL     1     204.104 193.611 197.393  1.00  0.00     0.293 HD
ENDBRANCH   6  24
BRANCH   8  26
ATOM     26  O   UNL     1     199.190 191.087 198.064  1.00  0.00    -0.508 OA
ATOM     27  H   UNL     1     198.574 190.782 197.319  1.00  0.00     0.293 HD
ENDBRANCH   8  26
TORSDOF 6
ENDMDL
MODEL 5
REMARK VINA RESULT:    -3.619      2.601      6.802
REMARK INTER + INTRA:          -4.669
REMARK INTER:                  -4.339
REMARK INTRA:                  -0.330
REMARK UNBOUND:                -0.309
REMARK SMILES O=c1c(O)c(-c2ccc(O)c(O)c2)oc2cc(O)cc(O)c12
REMARK SMILES IDX 5 1 3 2 2 3 1 4 22 5 20 6 19 7 17 8 16 9 15 10 14 11 6 12
REMARK SMILES IDX 7 13 8 14 9 15 13 16 11 17 10 18 12 20 4 22 21 24 18 26
REMARK H PARENT 10 19 12 21 4 23 21 25 18 27
REMARK Flexibility Score: inf
ROOT
ATOM      1  C   UNL     1     199.579 197.037 196.940  1.00  0.00     0.180 A 
ATOM      2  C   UNL     1     198.305 196.530 197.244  1.00  0.00     0.208 A 
ATOM      3  C   UNL     1     197.284 197.423 197.605  1.00  0.00     0.238 A 
ATOM      4  O   UNL     1     196.166 196.956 197.948  1.00  0.00    -0.285 OA
ATOM      5  C   UNL     1     197.534 198.817 197.604  1.00  0.00     0.111 A 
ATOM      6  C   UNL     1     196.561 199.818 197.909  1.00  0.00     0.134 A 
ATOM      7  C   UNL     1     196.951 201.161 197.980  1.00  0.00     0.093 A 
ATOM      8  C   UNL     1     198.262 201.547 197.693  1.00  0.00     0.123 A 
ATOM      9  C   UNL     1     199.205 200.585 197.341  1.00  0.00     0.094 A 
ATOM     10  C   UNL     1     198.857 199.233 197.299  1.00  0.00     0.146 A 
ATOM     11  O   UNL     1     199.792 198.347 196.980  1.00  0.00    -0.452 OA
ENDROOT
BRANCH   1  12
ATOM     12  C   UNL     1     200.710 196.158 196.566  1.00  0.00     0.025 A 
ATOM     13  C   UNL     1     200.932 195.858 195.213  1.00  0.00     0.016 A 
ATOM     14  C   UNL     1     202.005 195.047 194.835  1.00  0.00     0.051 A 
ATOM     15  C   UNL     1     202.880 194.537 195.799  1.00  0.00     0.157 A 
ATOM     16  C   UNL     1     201.604 195.661 197.533  1.00  0.00     0.062 A 
ATOM     17  C   UNL     1     202.682 194.848 197.155  1.00  0.00     0.158 A 
BRANCH  15  18
ATOM     18  O   UNL     1     203.940 193.727 195.391  1.00  0.00    -0.504 OA
ATOM     19  H   UNL     1     204.907 193.984 195.554  1.00  0.00     0.293 HD
ENDBRANCH  15  18
BRANCH  17  20
ATOM     20  O   UNL     1     203.559 194.355 198.118  1.00  0.00    -0.504 OA
ATOM     21  H   UNL     1     204.124 194.974 198.689  1.00  0.00     0.293 HD
ENDBRANCH  17  20
ENDBRANCH   1  12
BRANCH   2  22
ATOM     22  O   UNL     1     198.057 195.156 197.166  1.00  0.00    -0.502 OA
ATOM     23  H   UNL     1     197.218 194.732 197.543  1.00  0.00     0.293 HD
ENDBRANCH   2  22
BRANCH   6  24
ATOM     24  O   UNL     1     195.205 199.552 198.125  1.00  0.00    -0.507 OA
ATOM     25  H   UNL     1     194.846 198.784 198.672  1.00  0.00     0.293 HD
ENDBRANCH   6  24
BRANCH   8  26
ATOM     26  O   UNL     1     198.637 202.888 197.750  1.00  0.00    -0.508 OA
ATOM     27  H   UNL     1     198.249 203.518 198.442  1.00  0.00     0.293 HD
ENDBRANCH   8  26
TORSDOF 6
ENDMDL
MODEL 6
REMARK VINA RESULT:    -3.559      3.210      5.174
REMARK INTER + INTRA:          -4.596
REMARK INTER:                  -4.266
REMARK INTRA:                  -0.330
REMARK UNBOUND:                -0.309
REMARK SMILES O=c1c(O)c(-c2ccc(O)c(O)c2)oc2cc(O)cc(O)c12
REMARK SMILES IDX 5 1 3 2 2 3 1 4 22 5 20 6 19 7 17 8 16 9 15 10 14 11 6 12
REMARK SMILES IDX 7 13 8 14 9 15 13 16 11 17 10 18 12 20 4 22 21 24 18 26
REMARK H PARENT 10 19 12 21 4 23 21 25 18 27
REMARK Flexibility Score: inf
ROOT
ATOM      1  C   UNL     1     200.454 196.218 196.069  1.00  0.00     0.180 A 
ATOM      2  C   UNL     1     200.949 195.134 196.814  1.00  0.00     0.208 A 
ATOM      3  C   UNL     1     201.902 194.284 196.229  1.00  0.00     0.238 A 
ATOM      4  O   UNL     1     202.285 193.273 196.873  1.00  0.00    -0.285 OA
ATOM      5  C   UNL     1     202.389 194.561 194.928  1.00  0.00     0.111 A 
ATOM      6  C   UNL     1     203.388 193.793 194.254  1.00  0.00     0.134 A 
ATOM      7  C   UNL     1     203.714 194.098 192.927  1.00  0.00     0.093 A 
ATOM      8  C   UNL     1     203.126 195.181 192.271  1.00  0.00     0.123 A 
ATOM      9  C   UNL     1     202.192 195.970 192.938  1.00  0.00     0.094 A 
ATOM     10  C   UNL     1     201.816 195.668 194.249  1.00  0.00     0.146 A 
ATOM     11  O   UNL     1     200.906 196.432 194.840  1.00  0.00    -0.452 OA
ENDROOT
BRANCH   1  12
ATOM     12  C   UNL     1     199.439 197.149 196.611  1.00  0.00     0.025 A 
ATOM     13  C   UNL     1     199.855 198.309 197.282  1.00  0.00     0.016 A 
ATOM     14  C   UNL     1     198.914 199.212 197.784  1.00  0.00     0.051 A 
ATOM     15  C   UNL     1     197.546 198.978 197.610  1.00  0.00     0.157 A 
ATOM     16  C   UNL     1     198.062 196.926 196.419  1.00  0.00     0.062 A 
ATOM     17  C   UNL     1     197.117 197.832 196.921  1.00  0.00     0.158 A 
BRANCH  15  18
ATOM     18  O   UNL     1     196.631 199.896 198.125  1.00  0.00    -0.504 OA
ATOM     19  H   UNL     1     196.333 199.874 199.093  1.00  0.00     0.293 HD
ENDBRANCH  15  18
BRANCH  17  20
ATOM     20  O   UNL     1     195.756 197.601 196.731  1.00  0.00    -0.504 OA
ATOM     21  H   UNL     1     195.384 196.663 196.637  1.00  0.00     0.293 HD
ENDBRANCH  17  20
ENDBRANCH   1  12
BRANCH   2  22
ATOM     22  O   UNL     1     200.513 194.923 198.125  1.00  0.00    -0.502 OA
ATOM     23  H   UNL     1     200.212 194.015 198.458  1.00  0.00     0.293 HD
ENDBRANCH   2  22
BRANCH   6  24
ATOM     24  O   UNL     1     204.102 192.745 194.846  1.00  0.00    -0.507 OA
ATOM     25  H   UNL     1     204.178 192.586 195.839  1.00  0.00     0.293 HD
ENDBRANCH   6  24
BRANCH   8  26
ATOM     26  O   UNL     1     203.470 195.488 190.956  1.00  0.00    -0.508 OA
ATOM     27  H   UNL     1     203.788 196.414 190.694  1.00  0.00     0.293 HD
ENDBRANCH   8  26
TORSDOF 6
ENDMDL
MODEL 7
REMARK VINA RESULT:    -3.510      3.254      5.261
REMARK INTER + INTRA:          -4.537
REMARK INTER:                  -4.219
REMARK INTRA:                  -0.318
REMARK UNBOUND:                -0.309
REMARK SMILES O=c1c(O)c(-c2ccc(O)c(O)c2)oc2cc(O)cc(O)c12
REMARK SMILES IDX 5 1 3 2 2 3 1 4 22 5 20 6 19 7 17 8 16 9 15 10 14 11 6 12
REMARK SMILES IDX 7 13 8 14 9 15 13 16 11 17 10 18 12 20 4 22 21 24 18 26
REMARK H PARENT 10 19 12 21 4 23 21 25 18 27
REMARK Flexibility Score: inf
ROOT
ATOM      1  C   UNL     1     199.764 193.524 197.071  1.00  0.00     0.180 A 
ATOM      2  C   UNL     1     201.111 193.876 196.878  1.00  0.00     0.208 A 
ATOM      3  C   UNL     1     201.481 195.228 196.966  1.00  0.00     0.238 A 
ATOM      4  O   UNL     1     202.673 195.544 196.719  1.00  0.00    -0.285 OA
ATOM      5  C   UNL     1     200.510 196.204 197.300  1.00  0.00     0.111 A 
ATOM      6  C   UNL     1     200.781 197.597 197.460  1.00  0.00     0.134 A 
ATOM      7  C   UNL     1     199.721 198.485 197.686  1.00  0.00     0.093 A 
ATOM      8  C   UNL     1     198.411 198.022 197.822  1.00  0.00     0.123 A 
ATOM      9  C   UNL     1     198.144 196.659 197.723  1.00  0.00     0.094 A 
ATOM     10  C   UNL     1     199.174 195.753 197.459  1.00  0.00     0.146 A 
ATOM     11  O   UNL     1     198.871 194.465 197.350  1.00  0.00    -0.452 OA
ENDROOT
BRANCH   1  12
ATOM     12  C   UNL     1     199.295 192.122 196.980  1.00  0.00     0.025 A 
ATOM     13  C   UNL     1     199.352 191.301 198.116  1.00  0.00     0.016 A 
ATOM     14  C   UNL     1     198.896 189.981 198.059  1.00  0.00     0.051 A 
ATOM     15  C   UNL     1     198.363 189.468 196.873  1.00  0.00     0.157 A 
ATOM     16  C   UNL     1     198.740 191.610 195.792  1.00  0.00     0.062 A 
ATOM     17  C   UNL     1     198.280 190.287 195.734  1.00  0.00     0.158 A 
BRANCH  15  18
ATOM     18  O   UNL     1     197.918 188.146 196.845  1.00  0.00    -0.504 OA
ATOM     19  H   UNL     1     197.963 187.581 196.006  1.00  0.00     0.293 HD
ENDBRANCH  15  18
BRANCH  17  20
ATOM     20  O   UNL     1     197.736 189.786 194.553  1.00  0.00    -0.504 OA
ATOM     21  H   UNL     1     197.700 190.342 193.707  1.00  0.00     0.293 HD
ENDBRANCH  17  20
ENDBRANCH   1  12
BRANCH   2  22
ATOM     22  O   UNL     1     202.068 192.888 196.625  1.00  0.00    -0.502 OA
ATOM     23  H   UNL     1     202.544 192.389 197.368  1.00  0.00     0.293 HD
ENDBRANCH   2  22
BRANCH   6  24
ATOM     24  O   UNL     1     202.064 198.154 197.431  1.00  0.00    -0.507 OA
ATOM     25  H   UNL     1     202.416 198.828 198.094  1.00  0.00     0.293 HD
ENDBRANCH   6  24
BRANCH   8  26
ATOM     26  O   UNL     1     197.365 198.911 198.064  1.00  0.00    -0.508 OA
ATOM     27  H   UNL     1     196.656 199.098 197.364  1.00  0.00     0.293 HD
ENDBRANCH   8  26
TORSDOF 6
ENDMDL
MODEL 8
REMARK VINA RESULT:    -3.410      1.567      2.976
REMARK INTER + INTRA:          -4.417
REMARK INTER:                  -4.105
REMARK INTRA:                  -0.312
REMARK UNBOUND:                -0.309
REMARK SMILES O=c1c(O)c(-c2ccc(O)c(O)c2)oc2cc(O)cc(O)c12
REMARK SMILES IDX 5 1 3 2 2 3 1 4 22 5 20 6 19 7 17 8 16 9 15 10 14 11 6 12
REMARK SMILES IDX 7 13 8 14 9 15 13 16 11 17 10 18 12 20 4 22 21 24 18 26
REMARK H PARENT 10 19 12 21 4 23 21 25 18 27
REMARK Flexibility Score: inf
ROOT
ATOM      1  C   UNL     1     197.033 195.550 196.830  1.00  0.00     0.180 A 
ATOM      2  C   UNL     1     197.502 194.252 196.567  1.00  0.00     0.208 A 
ATOM      3  C   UNL     1     198.887 194.022 196.530  1.00  0.00     0.238 A 
ATOM      4  O   UNL     1     199.301 192.874 196.220  1.00  0.00    -0.285 OA
ATOM      5  C   UNL     1     199.785 195.081 196.811  1.00  0.00     0.111 A 
ATOM      6  C   UNL     1     201.207 194.952 196.846  1.00  0.00     0.134 A 
ATOM      7  C   UNL     1     201.999 196.093 197.030  1.00  0.00     0.093 A 
ATOM      8  C   UNL     1     201.420 197.345 197.245  1.00  0.00     0.123 A 
ATOM      9  C   UNL     1     200.033 197.471 197.268  1.00  0.00     0.094 A 
ATOM     10  C   UNL     1     199.216 196.359 197.049  1.00  0.00     0.146 A 
ATOM     11  O   UNL     1     197.900 196.529 197.057  1.00  0.00    -0.452 OA
ENDROOT
BRANCH   1  12
ATOM     12  C   UNL     1     195.589 195.873 196.871  1.00  0.00     0.025 A 
ATOM     13  C   UNL     1     194.869 195.663 198.057  1.00  0.00     0.016 A 
ATOM     14  C   UNL     1     193.509 195.980 198.125  1.00  0.00     0.051 A 
ATOM     15  C   UNL     1     192.854 196.525 197.017  1.00  0.00     0.157 A 
ATOM     16  C   UNL     1     194.933 196.441 195.763  1.00  0.00     0.062 A 
ATOM     17  C   UNL     1     193.569 196.761 195.830  1.00  0.00     0.158 A 
BRANCH  15  18
ATOM     18  O   UNL     1     191.496 196.829 197.114  1.00  0.00    -0.504 OA
ATOM     19  H   UNL     1     191.133 197.446 197.830  1.00  0.00     0.293 HD
ENDBRANCH  15  18
BRANCH  17  20
ATOM     20  O   UNL     1     192.925 197.318 194.727  1.00  0.00    -0.504 OA
ATOM     21  H   UNL     1     193.018 196.918 193.800  1.00  0.00     0.293 HD
ENDBRANCH  17  20
ENDBRANCH   1  12
BRANCH   2  22
ATOM     22  O   UNL     1     196.599 193.203 196.367  1.00  0.00    -0.502 OA
ATOM     23  H   UNL     1     196.899 192.257 196.167  1.00  0.00     0.293 HD
ENDBRANCH   2  22
BRANCH   6  24
ATOM     24  O   UNL     1     201.887 193.735 196.731  1.00  0.00    -0.507 OA
ATOM     25  H   UNL     1     202.503 193.349 197.429  1.00  0.00     0.293 HD
ENDBRANCH   6  24
BRANCH   8  26
ATOM     26  O   UNL     1     202.215 198.471 197.445  1.00  0.00    -0.508 OA
ATOM     27  H   UNL     1     203.216 198.448 197.285  1.00  0.00     0.293 HD
ENDBRANCH   8  26
TORSDOF 6
ENDMDL
MODEL 9
REMARK VINA RESULT:    -3.381      1.545      6.803
REMARK INTER + INTRA:          -4.382
REMARK INTER:                  -4.828
REMARK INTRA:                   0.447
REMARK UNBOUND:                -0.309
REMARK SMILES O=c1c(O)c(-c2ccc(O)c(O)c2)oc2cc(O)cc(O)c12
REMARK SMILES IDX 5 1 3 2 2 3 1 4 22 5 20 6 19 7 17 8 16 9 15 10 14 11 6 12
REMARK SMILES IDX 7 13 8 14 9 15 13 16 11 17 10 18 12 20 4 22 21 24 18 26
REMARK H PARENT 10 19 12 21 4 23 21 25 18 27
REMARK Flexibility Score: inf
ROOT
ATOM      1  C   UNL     1     197.474 196.990 197.570  1.00  0.00     0.180 A 
ATOM      2  C   UNL     1     196.990 198.300 197.412  1.00  0.00     0.208 A 
ATOM      3  C   UNL     1     195.608 198.504 197.273  1.00  0.00     0.238 A 
ATOM      4  O   UNL     1     195.189 199.671 197.058  1.00  0.00    -0.285 OA
ATOM      5  C   UNL     1     194.722 197.402 197.348  1.00  0.00     0.111 A 
ATOM      6  C   UNL     1     193.299 197.496 197.264  1.00  0.00     0.134 A 
ATOM      7  C   UNL     1     192.530 196.326 197.244  1.00  0.00     0.093 A 
ATOM      8  C   UNL     1     193.125 195.070 197.369  1.00  0.00     0.123 A 
ATOM      9  C   UNL     1     194.507 194.970 197.507  1.00  0.00     0.094 A 
ATOM     10  C   UNL     1     195.306 196.116 197.491  1.00  0.00     0.146 A 
ATOM     11  O   UNL     1     196.621 195.974 197.603  1.00  0.00    -0.452 OA
ENDROOT
BRANCH   1  12
ATOM     12  C   UNL     1     198.918 196.694 197.708  1.00  0.00     0.025 A 
ATOM     13  C   UNL     1     199.328 195.386 198.010  1.00  0.00     0.016 A 
ATOM     14  C   UNL     1     200.686 195.079 198.125  1.00  0.00     0.051 A 
ATOM     15  C   UNL     1     201.654 196.068 197.925  1.00  0.00     0.157 A 
ATOM     16  C   UNL     1     199.894 197.683 197.486  1.00  0.00     0.062 A 
ATOM     17  C   UNL     1     201.257 197.376 197.600  1.00  0.00     0.158 A 
BRANCH  15  18
ATOM     18  O   UNL     1     203.002 195.732 198.049  1.00  0.00    -0.504 OA
ATOM     19  H   UNL     1     203.558 196.023 198.845  1.00  0.00     0.293 HD
ENDBRANCH  15  18
BRANCH  17  20
ATOM     20  O   UNL     1     202.218 198.363 197.384  1.00  0.00    -0.504 OA
ATOM     21  H   UNL     1     202.024 199.176 196.811  1.00  0.00     0.293 HD
ENDBRANCH  17  20
ENDBRANCH   1  12
BRANCH   2  22
ATOM     22  O   UNL     1     197.875 199.382 197.418  1.00  0.00    -0.502 OA
ATOM     23  H   UNL     1     197.990 199.995 196.619  1.00  0.00     0.293 HD
ENDBRANCH   2  22
BRANCH   6  24
ATOM     24  O   UNL     1     192.595 198.704 197.225  1.00  0.00    -0.507 OA
ATOM     25  H   UNL     1     192.425 199.301 198.021  1.00  0.00     0.293 HD
ENDBRANCH   6  24
BRANCH   8  26
ATOM     26  O   UNL     1     192.350 193.911 197.365  1.00  0.00    -0.508 OA
ATOM     27  H   UNL     1     191.371 193.930 197.108  1.00  0.00     0.293 HD
ENDBRANCH   8  26
TORSDOF 6
ENDMDL
