MODEL 1
REMARK VINA RESULT:    -3.810      0.000      0.000
REMARK INTER + INTRA:          -5.972
REMARK INTER:                  -5.815
REMARK INTRA:                  -0.157
REMARK UNBOUND:                -0.157
REMARK SMILES CC1=CCC[C@H](C)C(=O)C[C@H](C(C)C)C(=O)C1
REMARK SMILES IDX 8 1 9 2 6 3 7 4 5 5 4 6 3 7 2 8 1 9 10 11 11 12 15 13 16 14
REMARK SMILES IDX 17 15 12 17 13 18 14 19
REMARK H PARENT
REMARK Flexibility Score: 70.00
ROOT
ATOM      1  C   UNL     1      17.090  27.057  28.799  1.00  0.00     0.136 C 
ATOM      2  O   UNL     1      15.943  27.274  29.165  1.00  0.00    -0.299 OA
ENDROOT
BRANCH   1   3
ATOM      3  C   UNL     1      17.534  25.636  28.488  1.00  0.00     0.053 C 
ATOM      4  C   UNL     1      16.467  24.913  27.653  1.00  0.00     0.016 C 
BRANCH   3   5
ATOM      5  C   UNL     1      18.914  25.640  27.767  1.00  0.00     0.015 C 
BRANCH   5   6
ATOM      6  C   UNL     1      20.135  25.442  28.691  1.00  0.00     0.028 C 
BRANCH   6   7
ATOM      7  C   UNL     1      21.424  26.102  28.249  1.00  0.00    -0.028 C 
ATOM      8  C   UNL     1      21.957  27.241  28.749  1.00  0.00    -0.070 CG0
ATOM      9  C   UNL     1      23.185  27.803  28.075  1.00  0.00     0.039 C 
ATOM     10  G   UNL     1      21.394  27.966  29.954  1.00  0.00     0.000 G0
ENDBRANCH   6   7
ENDBRANCH   5   6
ENDBRANCH   3   5
ENDBRANCH   1   3
BRANCH   1  11
ATOM     11  C   UNL     1      18.038  28.218  28.624  1.00  0.00     0.087 C 
BRANCH  11  12
ATOM     12  C   UNL     1      18.813  28.604  29.921  1.00  0.00     0.066 C 
BRANCH  12  13
ATOM     13  C   UNL     1      20.272  28.927  29.598  1.00  0.00     0.140 C 
ATOM     14  O   UNL     1      20.548  29.989  29.061  1.00  0.00    -0.299 OA
BRANCH  13  15
ATOM     15  C   UNL     1      21.402  27.990  29.949  1.00  0.00     0.106 CG0
ATOM     16  G   UNL     1      21.959  27.273  28.737  1.00  0.00     0.000 G0
ENDBRANCH  13  15
ENDBRANCH  12  13
BRANCH  12  17
ATOM     17  C   UNL     1      18.140  29.750  30.753  1.00  0.00    -0.006 C 
ATOM     18  C   UNL     1      17.207  30.635  29.904  1.00  0.00     0.008 C 
ATOM     19  C   UNL     1      17.326  29.170  31.927  1.00  0.00     0.008 C 
ENDBRANCH  12  17
ENDBRANCH  11  12
ENDBRANCH   1  11
TORSDOF 1
ENDMDL
MODEL 2
REMARK VINA RESULT:    -3.769      2.322      4.818
REMARK INTER + INTRA:          -5.910
REMARK INTER:                  -5.747
REMARK INTRA:                  -0.162
REMARK UNBOUND:                -0.157
REMARK SMILES CC1=CCC[C@H](C)C(=O)C[C@H](C(C)C)C(=O)C1
REMARK SMILES IDX 8 1 9 2 6 3 7 4 5 5 4 6 3 7 2 8 1 9 10 11 11 12 15 13 16 14
REMARK SMILES IDX 17 15 12 17 13 18 14 19
REMARK H PARENT
REMARK Flexibility Score: 70.00
ROOT
ATOM      1  C   UNL     1      18.856  25.949  27.942  1.00  0.00     0.136 C 
ATOM      2  O   UNL     1      19.210  25.026  27.223  1.00  0.00    -0.299 OA
ENDROOT
BRANCH   1   3
ATOM      3  C   UNL     1      19.803  26.502  28.995  1.00  0.00     0.053 C 
ATOM      4  C   UNL     1      20.923  25.494  29.289  1.00  0.00     0.016 C 
BRANCH   3   5
ATOM      5  C   UNL     1      20.378  27.876  28.547  1.00  0.00     0.015 C 
BRANCH   5   6
ATOM      6  C   UNL     1      19.674  29.109  29.152  1.00  0.00     0.028 C 
BRANCH   6   7
ATOM      7  C   UNL     1      18.952  28.892  30.465  1.00  0.00    -0.028 C 
ATOM      8  C   UNL     1      17.612  28.831  30.645  1.00  0.00    -0.070 CG0
ATOM      9  C   UNL     1      17.091  28.741  32.059  1.00  0.00     0.039 C 
ATOM     10  G   UNL     1      16.616  28.834  29.504  1.00  0.00     0.000 G0
ENDBRANCH   6   7
ENDBRANCH   5   6
ENDBRANCH   3   5
ENDBRANCH   1   3
BRANCH   1  11
ATOM     11  C   UNL     1      17.488  26.555  27.740  1.00  0.00     0.087 C 
BRANCH  11  12
ATOM     12  C   UNL     1      16.479  26.238  28.887  1.00  0.00     0.066 C 
BRANCH  12  13
ATOM     13  C   UNL     1      15.842  27.525  29.411  1.00  0.00     0.140 C 
ATOM     14  O   UNL     1      14.681  27.508  29.795  1.00  0.00    -0.299 OA
BRANCH  13  15
ATOM     15  C   UNL     1      16.605  28.823  29.505  1.00  0.00     0.106 CG0
ATOM     16  G   UNL     1      17.592  28.834  30.654  1.00  0.00     0.000 G0
ENDBRANCH  13  15
ENDBRANCH  12  13
BRANCH  12  17
ATOM     17  C   UNL     1      15.395  25.169  28.511  1.00  0.00    -0.006 C 
ATOM     18  C   UNL     1      15.773  24.351  27.260  1.00  0.00     0.008 C 
ATOM     19  C   UNL     1      15.160  24.192  29.680  1.00  0.00     0.008 C 
ENDBRANCH  12  17
ENDBRANCH  11  12
ENDBRANCH   1  11
TORSDOF 1
ENDMDL
MODEL 3
REMARK VINA RESULT:    -3.700      2.039      4.313
REMARK INTER + INTRA:          -5.803
REMARK INTER:                  -5.811
REMARK INTRA:                   0.007
REMARK UNBOUND:                -0.157
REMARK SMILES CC1=CCC[C@H](C)C(=O)C[C@H](C(C)C)C(=O)C1
REMARK SMILES IDX 8 1 9 2 6 3 7 4 5 5 4 6 3 7 2 8 1 9 10 11 11 12 15 13 16 14
REMARK SMILES IDX 17 15 12 17 13 18 14 19
REMARK H PARENT
REMARK Flexibility Score: 70.00
ROOT
ATOM      1  C   UNL     1      20.801  25.709  29.081  1.00  0.00     0.136 C 
ATOM      2  O   UNL     1      21.326  24.755  29.636  1.00  0.00    -0.299 OA
ENDROOT
BRANCH   1   3
ATOM      3  C   UNL     1      20.070  25.515  27.762  1.00  0.00     0.053 C 
ATOM      4  C   UNL     1      20.507  24.202  27.096  1.00  0.00     0.016 C 
BRANCH   3   5
ATOM      5  C   UNL     1      18.529  25.556  27.978  1.00  0.00     0.015 C 
BRANCH   5   6
ATOM      6  C   UNL     1      17.848  26.883  27.579  1.00  0.00     0.028 C 
BRANCH   6   7
ATOM      7  C   UNL     1      17.281  27.714  28.711  1.00  0.00    -0.028 C 
ATOM      8  C   UNL     1      17.757  28.900  29.155  1.00  0.00    -0.070 CG0
ATOM      9  C   UNL     1      17.125  29.500  30.387  1.00  0.00     0.039 C 
ATOM     10  G   UNL     1      18.878  29.656  28.473  1.00  0.00     0.000 G0
ENDBRANCH   6   7
ENDBRANCH   5   6
ENDBRANCH   3   5
ENDBRANCH   1   3
BRANCH   1  11
ATOM     11  C   UNL     1      20.854  27.065  29.741  1.00  0.00     0.087 C 
BRANCH  11  12
ATOM     12  C   UNL     1      21.108  28.243  28.750  1.00  0.00     0.066 C 
BRANCH  12  13
ATOM     13  C   UNL     1      20.227  29.442  29.106  1.00  0.00     0.140 C 
ATOM     14  O   UNL     1      20.631  30.266  29.912  1.00  0.00    -0.299 OA
BRANCH  13  15
ATOM     15  C   UNL     1      18.877  29.667  28.470  1.00  0.00     0.106 CG0
ATOM     16  G   UNL     1      17.775  28.886  29.155  1.00  0.00     0.000 G0
ENDBRANCH  13  15
ENDBRANCH  12  13
BRANCH  12  17
ATOM     17  C   UNL     1      22.614  28.655  28.615  1.00  0.00    -0.006 C 
ATOM     18  C   UNL     1      23.297  28.876  29.979  1.00  0.00     0.008 C 
ATOM     19  C   UNL     1      23.408  27.583  27.841  1.00  0.00     0.008 C 
ENDBRANCH  12  17
ENDBRANCH  11  12
ENDBRANCH   1  11
TORSDOF 1
ENDMDL
MODEL 4
REMARK VINA RESULT:    -3.692      2.316      4.864
REMARK INTER + INTRA:          -5.792
REMARK INTER:                  -5.276
REMARK INTRA:                  -0.516
REMARK UNBOUND:                -0.157
REMARK SMILES CC1=CCC[C@H](C)C(=O)C[C@H](C(C)C)C(=O)C1
REMARK SMILES IDX 8 1 9 2 6 3 7 4 5 5 4 6 3 7 2 8 1 9 10 11 11 12 15 13 16 14
REMARK SMILES IDX 17 15 12 17 13 18 14 19
REMARK H PARENT
REMARK Flexibility Score: 70.00
ROOT
ATOM      1  C   UNL     1      19.279  31.471  31.389  1.00  0.00     0.136 C 
ATOM      2  O   UNL     1      19.992  31.659  32.364  1.00  0.00    -0.299 OA
ENDROOT
BRANCH   1   3
ATOM      3  C   UNL     1      19.815  31.734  29.991  1.00  0.00     0.053 C 
ATOM      4  C   UNL     1      20.294  33.188  29.866  1.00  0.00     0.016 C 
BRANCH   3   5
ATOM      5  C   UNL     1      20.951  30.730  29.642  1.00  0.00     0.015 C 
BRANCH   5   6
ATOM      6  C   UNL     1      20.604  29.243  29.871  1.00  0.00     0.028 C 
BRANCH   6   7
ATOM      7  C   UNL     1      19.800  28.566  28.781  1.00  0.00    -0.028 C 
ATOM      8  C   UNL     1      18.575  28.007  28.914  1.00  0.00    -0.070 CG0
ATOM      9  C   UNL     1      18.005  27.262  27.731  1.00  0.00     0.039 C 
ATOM     10  G   UNL     1      17.747  28.104  30.178  1.00  0.00     0.000 G0
ENDBRANCH   6   7
ENDBRANCH   5   6
ENDBRANCH   3   5
ENDBRANCH   1   3
BRANCH   1  11
ATOM     11  C   UNL     1      17.881  30.939  31.592  1.00  0.00     0.087 C 
BRANCH  11  12
ATOM     12  C   UNL     1      17.102  30.682  30.266  1.00  0.00     0.066 C 
BRANCH  12  13
ATOM     13  C   UNL     1      16.723  29.205  30.144  1.00  0.00     0.140 C 
ATOM     14  O   UNL     1      15.551  28.897  29.983  1.00  0.00    -0.299 OA
BRANCH  13  15
ATOM     15  C   UNL     1      17.752  28.103  30.182  1.00  0.00     0.106 CG0
ATOM     16  G   UNL     1      18.559  28.017  28.903  1.00  0.00     0.000 G0
ENDBRANCH  13  15
ENDBRANCH  12  13
BRANCH  12  17
ATOM     17  C   UNL     1      15.859  31.615  30.060  1.00  0.00    -0.006 C 
ATOM     18  C   UNL     1      15.344  32.221  31.380  1.00  0.00     0.008 C 
ATOM     19  C   UNL     1      16.192  32.767  29.091  1.00  0.00     0.008 C 
ENDBRANCH  12  17
ENDBRANCH  11  12
ENDBRANCH   1  11
TORSDOF 1
ENDMDL
MODEL 5
REMARK VINA RESULT:    -3.537      2.193      3.381
REMARK INTER + INTRA:          -5.555
REMARK INTER:                  -5.439
REMARK INTRA:                  -0.116
REMARK UNBOUND:                -0.157
REMARK SMILES CC1=CCC[C@H](C)C(=O)C[C@H](C(C)C)C(=O)C1
REMARK SMILES IDX 8 1 9 2 6 3 7 4 5 5 4 6 3 7 2 8 1 9 10 11 11 12 15 13 16 14
REMARK SMILES IDX 17 15 12 17 13 18 14 19
REMARK H PARENT
REMARK Flexibility Score: 70.00
ROOT
ATOM      1  C   UNL     1      18.940  28.577  28.674  1.00  0.00     0.136 C 
ATOM      2  O   UNL     1      17.994  28.036  28.120  1.00  0.00    -0.299 OA
ENDROOT
BRANCH   1   3
ATOM      3  C   UNL     1      20.080  27.738  29.229  1.00  0.00     0.053 C 
ATOM      4  C   UNL     1      19.810  26.245  28.993  1.00  0.00     0.016 C 
BRANCH   3   5
ATOM      5  C   UNL     1      21.436  28.176  28.604  1.00  0.00     0.015 C 
BRANCH   5   6
ATOM      6  C   UNL     1      22.505  28.639  29.617  1.00  0.00     0.028 C 
BRANCH   6   7
ATOM      7  C   UNL     1      22.032  28.852  31.040  1.00  0.00    -0.028 C 
ATOM      8  C   UNL     1      21.451  29.969  31.536  1.00  0.00    -0.070 CG0
ATOM      9  C   UNL     1      21.176  30.026  33.019  1.00  0.00     0.039 C 
ATOM     10  G   UNL     1      21.053  31.153  30.678  1.00  0.00     0.000 G0
ENDBRANCH   6   7
ENDBRANCH   5   6
ENDBRANCH   3   5
ENDBRANCH   1   3
BRANCH   1  11
ATOM     11  C   UNL     1      18.977  30.084  28.761  1.00  0.00     0.087 C 
BRANCH  11  12
ATOM     12  C   UNL     1      18.490  30.651  30.130  1.00  0.00     0.066 C 
BRANCH  12  13
ATOM     13  C   UNL     1      19.580  31.511  30.772  1.00  0.00     0.140 C 
ATOM     14  O   UNL     1      19.264  32.506  31.407  1.00  0.00    -0.299 OA
BRANCH  13  15
ATOM     15  C   UNL     1      21.044  31.159  30.679  1.00  0.00     0.106 CG0
ATOM     16  G   UNL     1      21.412  29.973  31.546  1.00  0.00     0.000 G0
ENDBRANCH  13  15
ENDBRANCH  12  13
BRANCH  12  17
ATOM     17  C   UNL     1      17.122  31.413  30.058  1.00  0.00    -0.006 C 
ATOM     18  C   UNL     1      17.117  32.531  28.997  1.00  0.00     0.008 C 
ATOM     19  C   UNL     1      15.968  30.440  29.747  1.00  0.00     0.008 C 
ENDBRANCH  12  17
ENDBRANCH  11  12
ENDBRANCH   1  11
TORSDOF 1
ENDMDL
MODEL 6
REMARK VINA RESULT:    -3.516      2.121      3.443
REMARK INTER + INTRA:          -5.523
REMARK INTER:                  -5.377
REMARK INTRA:                  -0.146
REMARK UNBOUND:                -0.157
REMARK SMILES CC1=CCC[C@H](C)C(=O)C[C@H](C(C)C)C(=O)C1
REMARK SMILES IDX 8 1 9 2 6 3 7 4 5 5 4 6 3 7 2 8 1 9 10 11 11 12 15 13 16 14
REMARK SMILES IDX 17 15 12 17 13 18 14 19
REMARK H PARENT
REMARK Flexibility Score: 70.00
ROOT
ATOM      1  C   UNL     1      19.285  26.945  28.241  1.00  0.00     0.136 C 
ATOM      2  O   UNL     1      19.082  26.102  27.379  1.00  0.00    -0.299 OA
ENDROOT
BRANCH   1   3
ATOM      3  C   UNL     1      20.390  26.737  29.264  1.00  0.00     0.053 C 
ATOM      4  C   UNL     1      20.963  25.317  29.152  1.00  0.00     0.016 C 
BRANCH   3   5
ATOM      5  C   UNL     1      21.501  27.814  29.096  1.00  0.00     0.015 C 
BRANCH   5   6
ATOM      6  C   UNL     1      21.748  28.699  30.336  1.00  0.00     0.028 C 
BRANCH   6   7
ATOM      7  C   UNL     1      21.804  30.193  30.095  1.00  0.00    -0.028 C 
ATOM      8  C   UNL     1      20.789  31.072  30.261  1.00  0.00    -0.070 CG0
ATOM      9  C   UNL     1      21.016  32.503  29.835  1.00  0.00     0.039 C 
ATOM     10  G   UNL     1      19.451  30.698  30.863  1.00  0.00     0.000 G0
ENDBRANCH   6   7
ENDBRANCH   5   6
ENDBRANCH   3   5
ENDBRANCH   1   3
BRANCH   1  11
ATOM     11  C   UNL     1      18.453  28.205  28.248  1.00  0.00     0.087 C 
BRANCH  11  12
ATOM     12  C   UNL     1      18.103  28.725  29.676  1.00  0.00     0.066 C 
BRANCH  12  13
ATOM     13  C   UNL     1      18.469  30.203  29.813  1.00  0.00     0.140 C 
ATOM     14  O   UNL     1      17.945  31.023  29.072  1.00  0.00    -0.299 OA
BRANCH  13  15
ATOM     15  C   UNL     1      19.437  30.702  30.857  1.00  0.00     0.106 CG0
ATOM     16  G   UNL     1      20.777  31.090  30.268  1.00  0.00     0.000 G0
ENDBRANCH  13  15
ENDBRANCH  12  13
BRANCH  12  17
ATOM     17  C   UNL     1      16.622  28.454  30.113  1.00  0.00    -0.006 C 
ATOM     18  C   UNL     1      16.054  27.150  29.520  1.00  0.00     0.008 C 
ATOM     19  C   UNL     1      16.507  28.383  31.648  1.00  0.00     0.008 C 
ENDBRANCH  12  17
ENDBRANCH  11  12
ENDBRANCH   1  11
TORSDOF 1
ENDMDL
MODEL 7
REMARK VINA RESULT:    -3.484      2.476      5.094
REMARK INTER + INTRA:          -5.474
REMARK INTER:                  -5.242
REMARK INTRA:                  -0.233
REMARK UNBOUND:                -0.157
REMARK SMILES CC1=CCC[C@H](C)C(=O)C[C@H](C(C)C)C(=O)C1
REMARK SMILES IDX 8 1 9 2 6 3 7 4 5 5 4 6 3 7 2 8 1 9 10 11 11 12 15 13 16 14
REMARK SMILES IDX 17 15 12 17 13 18 14 19
REMARK H PARENT
REMARK Flexibility Score: 70.00
ROOT
ATOM      1  C   UNL     1      16.438  28.745  30.819  1.00  0.00     0.136 C 
ATOM      2  O   UNL     1      15.822  27.794  31.280  1.00  0.00    -0.299 OA
ENDROOT
BRANCH   1   3
ATOM      3  C   UNL     1      15.701  30.020  30.443  1.00  0.00     0.053 C 
ATOM      4  C   UNL     1      14.427  29.688  29.652  1.00  0.00     0.016 C 
BRANCH   3   5
ATOM      5  C   UNL     1      15.378  30.860  31.713  1.00  0.00     0.015 C 
BRANCH   5   6
ATOM      6  C   UNL     1      16.535  31.745  32.224  1.00  0.00     0.028 C 
BRANCH   6   7
ATOM      7  C   UNL     1      17.184  32.657  31.204  1.00  0.00    -0.028 C 
ATOM      8  C   UNL     1      18.420  32.517  30.672  1.00  0.00    -0.070 CG0
ATOM      9  C   UNL     1      18.930  33.614  29.769  1.00  0.00     0.039 C 
ATOM     10  G   UNL     1      19.306  31.315  30.924  1.00  0.00     0.000 G0
ENDBRANCH   6   7
ENDBRANCH   5   6
ENDBRANCH   3   5
ENDBRANCH   1   3
BRANCH   1  11
ATOM     11  C   UNL     1      17.937  28.647  30.669  1.00  0.00     0.087 C 
BRANCH  11  12
ATOM     12  C   UNL     1      18.489  29.318  29.374  1.00  0.00     0.066 C 
BRANCH  12  13
ATOM     13  C   UNL     1      19.488  30.421  29.726  1.00  0.00     0.140 C 
ATOM     14  O   UNL     1      20.450  30.615  28.996  1.00  0.00    -0.299 OA
BRANCH  13  15
ATOM     15  C   UNL     1      19.316  31.310  30.932  1.00  0.00     0.106 CG0
ATOM     16  G   UNL     1      18.426  32.504  30.651  1.00  0.00     0.000 G0
ENDBRANCH  13  15
ENDBRANCH  12  13
BRANCH  12  17
ATOM     17  C   UNL     1      19.086  28.310  28.333  1.00  0.00    -0.006 C 
ATOM     18  C   UNL     1      20.238  27.466  28.913  1.00  0.00     0.008 C 
ATOM     19  C   UNL     1      17.996  27.353  27.809  1.00  0.00     0.008 C 
ENDBRANCH  12  17
ENDBRANCH  11  12
ENDBRANCH   1  11
TORSDOF 1
ENDMDL
MODEL 8
REMARK VINA RESULT:    -3.465      3.251      5.022
REMARK INTER + INTRA:          -5.445
REMARK INTER:                  -5.092
REMARK INTRA:                  -0.352
REMARK UNBOUND:                -0.157
REMARK SMILES CC1=CCC[C@H](C)C(=O)C[C@H](C(C)C)C(=O)C1
REMARK SMILES IDX 8 1 9 2 6 3 7 4 5 5 4 6 3 7 2 8 1 9 10 11 11 12 15 13 16 14
REMARK SMILES IDX 17 15 12 17 13 18 14 19
REMARK H PARENT
REMARK Flexibility Score: 70.00
ROOT
ATOM      1  C   UNL     1      18.721  27.760  29.377  1.00  0.00     0.136 C 
ATOM      2  O   UNL     1      19.788  27.168  29.444  1.00  0.00    -0.299 OA
ENDROOT
BRANCH   1   3
ATOM      3  C   UNL     1      17.710  27.391  28.304  1.00  0.00     0.053 C 
ATOM      4  C   UNL     1      18.369  27.416  26.917  1.00  0.00     0.016 C 
BRANCH   3   5
ATOM      5  C   UNL     1      17.074  26.003  28.605  1.00  0.00     0.015 C 
BRANCH   5   6
ATOM      6  C   UNL     1      15.556  26.026  28.887  1.00  0.00     0.028 C 
BRANCH   6   7
ATOM      7  C   UNL     1      15.139  25.865  30.334  1.00  0.00    -0.028 C 
ATOM      8  C   UNL     1      14.856  26.862  31.204  1.00  0.00    -0.070 CG0
ATOM      9  C   UNL     1      14.590  26.491  32.643  1.00  0.00     0.039 C 
ATOM     10  G   UNL     1      14.779  28.321  30.805  1.00  0.00     0.000 G0
ENDBRANCH   6   7
ENDBRANCH   5   6
ENDBRANCH   3   5
ENDBRANCH   1   3
BRANCH   1  11
ATOM     11  C   UNL     1      18.408  28.830  30.396  1.00  0.00     0.087 C 
BRANCH  11  12
ATOM     12  C   UNL     1      17.049  29.555  30.156  1.00  0.00     0.066 C 
BRANCH  12  13
ATOM     13  C   UNL     1      16.015  29.114  31.194  1.00  0.00     0.140 C 
ATOM     14  O   UNL     1      16.178  29.411  32.368  1.00  0.00    -0.299 OA
BRANCH  13  15
ATOM     15  C   UNL     1      14.772  28.346  30.818  1.00  0.00     0.106 CG0
ATOM     16  G   UNL     1      14.856  26.883  31.200  1.00  0.00     0.000 G0
ENDBRANCH  13  15
ENDBRANCH  12  13
BRANCH  12  17
ATOM     17  C   UNL     1      17.159  31.117  30.080  1.00  0.00    -0.006 C 
ATOM     18  C   UNL     1      18.220  31.591  29.067  1.00  0.00     0.008 C 
ATOM     19  C   UNL     1      15.804  31.744  29.697  1.00  0.00     0.008 C 
ENDBRANCH  12  17
ENDBRANCH  11  12
ENDBRANCH   1  11
TORSDOF 1
ENDMDL
MODEL 9
REMARK VINA RESULT:    -3.449      2.964      6.073
REMARK INTER + INTRA:          -5.420
REMARK INTER:                  -5.011
REMARK INTRA:                  -0.410
REMARK UNBOUND:                -0.157
REMARK SMILES CC1=CCC[C@H](C)C(=O)C[C@H](C(C)C)C(=O)C1
REMARK SMILES IDX 8 1 9 2 6 3 7 4 5 5 4 6 3 7 2 8 1 9 10 11 11 12 15 13 16 14
REMARK SMILES IDX 17 15 12 17 13 18 14 19
REMARK H PARENT
REMARK Flexibility Score: 70.00
ROOT
ATOM      1  C   UNL     1      18.551  31.867  29.825  1.00  0.00     0.136 C 
ATOM      2  O   UNL     1      19.669  32.262  30.122  1.00  0.00    -0.299 OA
ENDROOT
BRANCH   1   3
ATOM      3  C   UNL     1      17.330  32.705  30.172  1.00  0.00     0.053 C 
ATOM      4  C   UNL     1      16.276  32.601  29.060  1.00  0.00     0.016 C 
BRANCH   3   5
ATOM      5  C   UNL     1      16.746  32.277  31.550  1.00  0.00     0.015 C 
BRANCH   5   6
ATOM      6  C   UNL     1      15.365  31.591  31.490  1.00  0.00     0.028 C 
BRANCH   6   7
ATOM      7  C   UNL     1      15.282  30.196  32.075  1.00  0.00    -0.028 C 
ATOM      8  C   UNL     1      15.408  29.032  31.398  1.00  0.00    -0.070 CG0
ATOM      9  C   UNL     1      15.158  27.746  32.149  1.00  0.00     0.039 C 
ATOM     10  G   UNL     1      15.799  28.954  29.937  1.00  0.00     0.000 G0
ENDBRANCH   6   7
ENDBRANCH   5   6
ENDBRANCH   3   5
ENDBRANCH   1   3
BRANCH   1  11
ATOM     11  C   UNL     1      18.405  30.564  29.077  1.00  0.00     0.087 C 
BRANCH  11  12
ATOM     12  C   UNL     1      18.441  29.301  29.991  1.00  0.00     0.066 C 
BRANCH  12  13
ATOM     13  C   UNL     1      17.210  28.427  29.746  1.00  0.00     0.140 C 
ATOM     14  O   UNL     1      17.359  27.261  29.411  1.00  0.00    -0.299 OA
BRANCH  13  15
ATOM     15  C   UNL     1      15.804  28.941  29.934  1.00  0.00     0.106 CG0
ATOM     16  G   UNL     1      15.410  29.034  31.393  1.00  0.00     0.000 G0
ENDBRANCH  13  15
ENDBRANCH  12  13
BRANCH  12  17
ATOM     17  C   UNL     1      19.767  28.472  29.889  1.00  0.00    -0.006 C 
ATOM     18  C   UNL     1      20.439  28.590  28.507  1.00  0.00     0.008 C 
ATOM     19  C   UNL     1      20.778  28.921  30.963  1.00  0.00     0.008 C 
ENDBRANCH  12  17
ENDBRANCH  11  12
ENDBRANCH   1  11
TORSDOF 1
ENDMDL
