MODEL 1
REMARK VINA RESULT:    -3.890      0.000      0.000
REMARK INTER + INTRA:          -3.890
REMARK INTER:                  -3.890
REMARK INTRA:                   0.000
REMARK UNBOUND:                 0.000
REMARK SMILES CC1=CC[C@H]2C[C@@H]1C2(C)C
REMARK SMILES IDX 1 1 2 2 3 3 4 4 5 5 6 6 7 7 8 8 9 9 10 10
REMARK H PARENT
REMARK Flexibility Score: inf
ROOT
ATOM      1  C   UNL     1     133.192 137.868 132.408  1.00  0.00     0.039 C 
ATOM      2  C   UNL     1     133.475 136.710 131.499  1.00  0.00    -0.074 C 
ATOM      3  C   UNL     1     132.505 135.828 131.117  1.00  0.00    -0.027 C 
ATOM      4  C   UNL     1     132.888 134.668 130.176  1.00  0.00     0.031 C 
ATOM      5  C   UNL     1     134.401 134.775 129.778  1.00  0.00    -0.000 C 
ATOM      6  C   UNL     1     134.630 136.252 129.397  1.00  0.00     0.013 C 
ATOM      7  C   UNL     1     134.872 136.505 130.898  1.00  0.00     0.021 C 
ATOM      8  C   UNL     1     135.276 135.013 131.041  1.00  0.00    -0.026 C 
ATOM      9  C   UNL     1     134.904 134.269 132.355  1.00  0.00     0.012 C 
ATOM     10  C   UNL     1     136.782 134.783 130.761  1.00  0.00     0.012 C 
ENDROOT
TORSDOF 0
ENDMDL
MODEL 2
REMARK VINA RESULT:    -3.850      4.546      6.561
REMARK INTER + INTRA:          -3.850
REMARK INTER:                  -3.850
REMARK INTRA:                   0.000
REMARK UNBOUND:                 0.000
REMARK SMILES CC1=CC[C@H]2C[C@@H]1C2(C)C
REMARK SMILES IDX 1 1 2 2 3 3 4 4 5 5 6 6 7 7 8 8 9 9 10 10
REMARK H PARENT
REMARK Flexibility Score: inf
ROOT
ATOM      1  C   UNL     1     140.714 136.027 132.376  1.00  0.00     0.039 C 
ATOM      2  C   UNL     1     140.318 137.147 131.462  1.00  0.00    -0.074 C 
ATOM      3  C   UNL     1     141.212 138.083 131.024  1.00  0.00    -0.027 C 
ATOM      4  C   UNL     1     140.715 139.198 130.083  1.00  0.00     0.031 C 
ATOM      5  C   UNL     1     139.196 138.988 129.755  1.00  0.00    -0.000 C 
ATOM      6  C   UNL     1     139.046 137.493 129.407  1.00  0.00     0.013 C 
ATOM      7  C   UNL     1     138.886 137.253 130.921  1.00  0.00     0.021 C 
ATOM      8  C   UNL     1     138.394 138.718 131.058  1.00  0.00    -0.026 C 
ATOM      9  C   UNL     1     138.773 139.508 132.343  1.00  0.00     0.012 C 
ATOM     10  C   UNL     1     136.865 138.847 130.843  1.00  0.00     0.012 C 
ENDROOT
TORSDOF 0
ENDMDL
MODEL 3
REMARK VINA RESULT:    -3.800      3.365      4.603
REMARK INTER + INTRA:          -3.800
REMARK INTER:                  -3.800
REMARK INTRA:                   0.000
REMARK UNBOUND:                 0.000
REMARK SMILES CC1=CC[C@H]2C[C@@H]1C2(C)C
REMARK SMILES IDX 1 1 2 2 3 3 4 4 5 5 6 6 7 7 8 8 9 9 10 10
REMARK H PARENT
REMARK Flexibility Score: inf
ROOT
ATOM      1  C   UNL     1     137.900 140.465 132.372  1.00  0.00     0.039 C 
ATOM      2  C   UNL     1     136.727 140.197 131.478  1.00  0.00    -0.074 C 
ATOM      3  C   UNL     1     135.837 141.173 131.131  1.00  0.00    -0.027 C 
ATOM      4  C   UNL     1     134.662 140.807 130.202  1.00  0.00     0.031 C 
ATOM      5  C   UNL     1     134.764 139.303 129.773  1.00  0.00    -0.000 C 
ATOM      6  C   UNL     1     136.234 139.084 129.362  1.00  0.00     0.013 C 
ATOM      7  C   UNL     1     136.513 138.813 130.853  1.00  0.00     0.021 C 
ATOM      8  C   UNL     1     135.024 138.404 131.014  1.00  0.00    -0.026 C 
ATOM      9  C   UNL     1     134.303 138.748 132.347  1.00  0.00     0.012 C 
ATOM     10  C   UNL     1     134.791 136.903 130.709  1.00  0.00     0.012 C 
ENDROOT
TORSDOF 0
ENDMDL
MODEL 4
REMARK VINA RESULT:    -3.798      4.755      6.481
REMARK INTER + INTRA:          -3.798
REMARK INTER:                  -3.798
REMARK INTRA:                   0.000
REMARK UNBOUND:                 0.000
REMARK SMILES CC1=CC[C@H]2C[C@@H]1C2(C)C
REMARK SMILES IDX 1 1 2 2 3 3 4 4 5 5 6 6 7 7 8 8 9 9 10 10
REMARK H PARENT
REMARK Flexibility Score: inf
ROOT
ATOM      1  C   UNL     1     140.375 137.841 135.043  1.00  0.00     0.039 C 
ATOM      2  C   UNL     1     140.072 137.244 133.702  1.00  0.00    -0.074 C 
ATOM      3  C   UNL     1     140.362 135.944 133.400  1.00  0.00    -0.027 C 
ATOM      4  C   UNL     1     140.011 135.414 131.995  1.00  0.00     0.031 C 
ATOM      5  C   UNL     1     139.295 136.533 131.162  1.00  0.00    -0.000 C 
ATOM      6  C   UNL     1     138.232 137.139 132.101  1.00  0.00     0.013 C 
ATOM      7  C   UNL     1     139.352 138.061 132.621  1.00  0.00     0.021 C 
ATOM      8  C   UNL     1     140.082 137.870 131.265  1.00  0.00    -0.026 C 
ATOM      9  C   UNL     1     141.636 137.821 131.262  1.00  0.00     0.012 C 
ATOM     10  C   UNL     1     139.626 138.901 130.202  1.00  0.00     0.012 C 
ENDROOT
TORSDOF 0
ENDMDL
MODEL 5
REMARK VINA RESULT:    -3.794      1.501      2.923
REMARK INTER + INTRA:          -3.794
REMARK INTER:                  -3.794
REMARK INTRA:                   0.000
REMARK UNBOUND:                 0.000
REMARK SMILES CC1=CC[C@H]2C[C@@H]1C2(C)C
REMARK SMILES IDX 1 1 2 2 3 3 4 4 5 5 6 6 7 7 8 8 9 9 10 10
REMARK H PARENT
REMARK Flexibility Score: inf
ROOT
ATOM      1  C   UNL     1     133.332 135.899 135.037  1.00  0.00     0.039 C 
ATOM      2  C   UNL     1     133.676 136.485 133.701  1.00  0.00    -0.074 C 
ATOM      3  C   UNL     1     133.428 137.793 133.392  1.00  0.00    -0.027 C 
ATOM      4  C   UNL     1     133.818 138.309 131.993  1.00  0.00     0.031 C 
ATOM      5  C   UNL     1     134.516 137.169 131.173  1.00  0.00    -0.000 C 
ATOM      6  C   UNL     1     135.545 136.535 132.131  1.00  0.00     0.013 C 
ATOM      7  C   UNL     1     134.390 135.646 132.633  1.00  0.00     0.021 C 
ATOM      8  C   UNL     1     133.689 135.856 131.265  1.00  0.00    -0.026 C 
ATOM      9  C   UNL     1     132.137 135.950 131.235  1.00  0.00     0.012 C 
ATOM     10  C   UNL     1     134.133 134.810 130.211  1.00  0.00     0.012 C 
ENDROOT
TORSDOF 0
ENDMDL
MODEL 6
REMARK VINA RESULT:    -3.790      4.080      5.798
REMARK INTER + INTRA:          -3.790
REMARK INTER:                  -3.790
REMARK INTRA:                   0.000
REMARK UNBOUND:                 0.000
REMARK SMILES CC1=CC[C@H]2C[C@@H]1C2(C)C
REMARK SMILES IDX 1 1 2 2 3 3 4 4 5 5 6 6 7 7 8 8 9 9 10 10
REMARK H PARENT
REMARK Flexibility Score: inf
ROOT
ATOM      1  C   UNL     1     138.819 139.119 129.639  1.00  0.00     0.039 C 
ATOM      2  C   UNL     1     138.026 139.584 130.823  1.00  0.00    -0.074 C 
ATOM      3  C   UNL     1     138.612 139.904 132.015  1.00  0.00    -0.027 C 
ATOM      4  C   UNL     1     137.716 140.377 133.177  1.00  0.00     0.031 C 
ATOM      5  C   UNL     1     136.221 140.452 132.709  1.00  0.00    -0.000 C 
ATOM      6  C   UNL     1     136.246 141.172 131.345  1.00  0.00     0.013 C 
ATOM      7  C   UNL     1     136.508 139.786 130.723  1.00  0.00     0.021 C 
ATOM      8  C   UNL     1     135.824 139.148 131.962  1.00  0.00    -0.026 C 
ATOM      9  C   UNL     1     136.370 137.791 132.490  1.00  0.00     0.012 C 
ATOM     10  C   UNL     1     134.291 139.019 131.784  1.00  0.00     0.012 C 
ENDROOT
TORSDOF 0
ENDMDL
MODEL 7
REMARK VINA RESULT:    -3.786      1.158      3.108
REMARK INTER + INTRA:          -3.786
REMARK INTER:                  -3.786
REMARK INTRA:                   0.000
REMARK UNBOUND:                 0.000
REMARK SMILES CC1=CC[C@H]2C[C@@H]1C2(C)C
REMARK SMILES IDX 1 1 2 2 3 3 4 4 5 5 6 6 7 7 8 8 9 9 10 10
REMARK H PARENT
REMARK Flexibility Score: inf
ROOT
ATOM      1  C   UNL     1     135.129 133.635 132.383  1.00  0.00     0.039 C 
ATOM      2  C   UNL     1     134.460 134.642 131.496  1.00  0.00    -0.074 C 
ATOM      3  C   UNL     1     134.461 134.530 130.135  1.00  0.00    -0.027 C 
ATOM      4  C   UNL     1     133.744 135.612 129.303  1.00  0.00     0.031 C 
ATOM      5  C   UNL     1     133.068 136.661 130.252  1.00  0.00    -0.000 C 
ATOM      6  C   UNL     1     132.338 135.838 131.333  1.00  0.00     0.013 C 
ATOM      7  C   UNL     1     133.679 135.820 132.093  1.00  0.00     0.021 C 
ATOM      8  C   UNL     1     134.071 137.123 131.346  1.00  0.00    -0.026 C 
ATOM      9  C   UNL     1     135.561 137.330 130.951  1.00  0.00     0.012 C 
ATOM     10  C   UNL     1     133.584 138.393 132.088  1.00  0.00     0.012 C 
ENDROOT
TORSDOF 0
ENDMDL
MODEL 8
REMARK VINA RESULT:    -3.775      3.619      4.759
REMARK INTER + INTRA:          -3.775
REMARK INTER:                  -3.775
REMARK INTRA:                   0.000
REMARK UNBOUND:                 0.000
REMARK SMILES CC1=CC[C@H]2C[C@@H]1C2(C)C
REMARK SMILES IDX 1 1 2 2 3 3 4 4 5 5 6 6 7 7 8 8 9 9 10 10
REMARK H PARENT
REMARK Flexibility Score: inf
ROOT
ATOM      1  C   UNL     1     133.664 138.505 132.374  1.00  0.00     0.039 C 
ATOM      2  C   UNL     1     134.671 139.186 131.497  1.00  0.00    -0.074 C 
ATOM      3  C   UNL     1     134.580 139.172 130.134  1.00  0.00    -0.027 C 
ATOM      4  C   UNL     1     135.660 139.904 129.312  1.00  0.00     0.031 C 
ATOM      5  C   UNL     1     136.681 140.608 130.271  1.00  0.00    -0.000 C 
ATOM      6  C   UNL     1     135.827 141.330 131.333  1.00  0.00     0.013 C 
ATOM      7  C   UNL     1     135.824 139.996 132.104  1.00  0.00     0.021 C 
ATOM      8  C   UNL     1     137.146 139.624 131.381  1.00  0.00    -0.026 C 
ATOM      9  C   UNL     1     137.388 138.135 131.002  1.00  0.00     0.012 C 
ATOM     10  C   UNL     1     138.395 140.142 132.136  1.00  0.00     0.012 C 
ENDROOT
TORSDOF 0
ENDMDL
MODEL 9
REMARK VINA RESULT:    -3.765      2.895      4.235
REMARK INTER + INTRA:          -3.765
REMARK INTER:                  -3.765
REMARK INTRA:                   0.000
REMARK UNBOUND:                 0.000
REMARK SMILES CC1=CC[C@H]2C[C@@H]1C2(C)C
REMARK SMILES IDX 1 1 2 2 3 3 4 4 5 5 6 6 7 7 8 8 9 9 10 10
REMARK H PARENT
REMARK Flexibility Score: inf
ROOT
ATOM      1  C   UNL     1     137.748 133.273 135.059  1.00  0.00     0.039 C 
ATOM      2  C   UNL     1     137.221 133.653 133.708  1.00  0.00    -0.074 C 
ATOM      3  C   UNL     1     135.917 133.457 133.351  1.00  0.00    -0.027 C 
ATOM      4  C   UNL     1     135.464 133.882 131.940  1.00  0.00     0.031 C 
ATOM      5  C   UNL     1     136.656 134.547 131.169  1.00  0.00    -0.000 C 
ATOM      6  C   UNL     1     137.294 135.541 132.161  1.00  0.00     0.013 C 
ATOM      7  C   UNL     1     138.122 134.349 132.679  1.00  0.00     0.021 C 
ATOM      8  C   UNL     1     137.935 133.672 131.295  1.00  0.00    -0.026 C 
ATOM      9  C   UNL     1     137.786 132.125 131.243  1.00  0.00     0.012 C 
ATOM     10  C   UNL     1     139.032 134.089 130.284  1.00  0.00     0.012 C 
ENDROOT
TORSDOF 0
ENDMDL
