MODEL 1
REMARK VINA RESULT:    -4.539      0.000      0.000
REMARK INTER + INTRA:          -4.539
REMARK INTER:                  -4.539
REMARK INTRA:                   0.000
REMARK UNBOUND:                 0.000
REMARK SMILES CC1=CC(=O)[C@H]2C[C@@H]1C2(C)C
REMARK SMILES IDX 1 1 2 2 3 3 4 4 5 5 6 6 7 7 8 8 9 9 10 10 11 11
REMARK H PARENT
REMARK Flexibility Score: inf
ROOT
ATOM      1  C   UNL     1      75.196  74.619  76.497  1.00  0.00     0.040 C 
ATOM      2  C   UNL     1      75.321  74.597  75.007  1.00  0.00    -0.066 C 
ATOM      3  C   UNL     1      76.144  75.463  74.353  1.00  0.00     0.047 C 
ATOM      4  C   UNL     1      76.160  75.362  72.858  1.00  0.00     0.159 C 
ATOM      5  O   UNL     1      76.848  76.132  72.139  1.00  0.00    -0.295 OA
ATOM      6  C   UNL     1      75.279  74.260  72.268  1.00  0.00     0.067 C 
ATOM      7  C   UNL     1      75.582  73.024  73.143  1.00  0.00     0.021 C 
ATOM      8  C   UNL     1      74.543  73.585  74.140  1.00  0.00     0.022 C 
ATOM      9  C   UNL     1      73.880  74.328  72.945  1.00  0.00    -0.019 C 
ATOM     10  C   UNL     1      72.828  73.454  72.215  1.00  0.00     0.012 C 
ATOM     11  C   UNL     1      73.253  75.728  73.206  1.00  0.00     0.012 C 
ENDROOT
TORSDOF 0
ENDMDL
MODEL 2
REMARK VINA RESULT:    -4.381      2.070      3.042
REMARK INTER + INTRA:          -4.381
REMARK INTER:                  -4.381
REMARK INTRA:                   0.000
REMARK UNBOUND:                 0.000
REMARK SMILES CC1=CC(=O)[C@H]2C[C@@H]1C2(C)C
REMARK SMILES IDX 1 1 2 2 3 3 4 4 5 5 6 6 7 7 8 8 9 9 10 10 11 11
REMARK H PARENT
REMARK Flexibility Score: inf
ROOT
ATOM      1  C   UNL     1      76.940  75.665  75.837  1.00  0.00     0.040 C 
ATOM      2  C   UNL     1      75.692  75.233  75.136  1.00  0.00    -0.066 C 
ATOM      3  C   UNL     1      74.708  74.558  75.794  1.00  0.00     0.047 C 
ATOM      4  C   UNL     1      73.520  74.152  74.975  1.00  0.00     0.159 C 
ATOM      5  O   UNL     1      72.564  73.492  75.458  1.00  0.00    -0.295 OA
ATOM      6  C   UNL     1      73.553  74.595  73.511  1.00  0.00     0.067 C 
ATOM      7  C   UNL     1      73.998  76.073  73.573  1.00  0.00     0.021 C 
ATOM      8  C   UNL     1      75.447  75.541  73.644  1.00  0.00     0.022 C 
ATOM      9  C   UNL     1      74.951  74.255  72.922  1.00  0.00    -0.019 C 
ATOM     10  C   UNL     1      74.990  74.392  71.378  1.00  0.00     0.012 C 
ATOM     11  C   UNL     1      75.605  72.898  73.308  1.00  0.00     0.012 C 
ENDROOT
TORSDOF 0
ENDMDL
MODEL 3
REMARK VINA RESULT:    -4.198      1.807      3.101
REMARK INTER + INTRA:          -4.198
REMARK INTER:                  -4.198
REMARK INTRA:                   0.000
REMARK UNBOUND:                 0.000
REMARK SMILES CC1=CC(=O)[C@H]2C[C@@H]1C2(C)C
REMARK SMILES IDX 1 1 2 2 3 3 4 4 5 5 6 6 7 7 8 8 9 9 10 10 11 11
REMARK H PARENT
REMARK Flexibility Score: inf
ROOT
ATOM      1  C   UNL     1      74.476  74.182  76.449  1.00  0.00     0.040 C 
ATOM      2  C   UNL     1      74.263  74.384  74.982  1.00  0.00    -0.066 C 
ATOM      3  C   UNL     1      73.370  73.627  74.286  1.00  0.00     0.047 C 
ATOM      4  C   UNL     1      73.270  73.905  72.816  1.00  0.00     0.159 C 
ATOM      5  O   UNL     1      72.511  73.247  72.058  1.00  0.00    -0.295 OA
ATOM      6  C   UNL     1      74.156  75.041  72.303  1.00  0.00     0.067 C 
ATOM      7  C   UNL     1      73.953  76.173  73.333  1.00  0.00     0.021 C 
ATOM      8  C   UNL     1      75.027  75.467  74.191  1.00  0.00     0.022 C 
ATOM      9  C   UNL     1      75.588  74.850  72.877  1.00  0.00    -0.019 C 
ATOM     10  C   UNL     1      76.628  75.771  72.189  1.00  0.00     0.012 C 
ATOM     11  C   UNL     1      76.175  73.410  72.934  1.00  0.00     0.012 C 
ENDROOT
TORSDOF 0
ENDMDL
MODEL 4
REMARK VINA RESULT:    -4.158      0.892      3.179
REMARK INTER + INTRA:          -4.158
REMARK INTER:                  -4.158
REMARK INTRA:                   0.000
REMARK UNBOUND:                 0.000
REMARK SMILES CC1=CC(=O)[C@H]2C[C@@H]1C2(C)C
REMARK SMILES IDX 1 1 2 2 3 3 4 4 5 5 6 6 7 7 8 8 9 9 10 10 11 11
REMARK H PARENT
REMARK Flexibility Score: inf
ROOT
ATOM      1  C   UNL     1      72.584  72.926  71.799  1.00  0.00     0.040 C 
ATOM      2  C   UNL     1      73.528  73.926  72.388  1.00  0.00    -0.066 C 
ATOM      3  C   UNL     1      74.430  74.589  71.612  1.00  0.00     0.047 C 
ATOM      4  C   UNL     1      75.341  75.543  72.323  1.00  0.00     0.159 C 
ATOM      5  O   UNL     1      76.242  76.186  71.724  1.00  0.00    -0.295 OA
ATOM      6  C   UNL     1      75.100  75.679  73.828  1.00  0.00     0.067 C 
ATOM      7  C   UNL     1      73.567  75.812  73.954  1.00  0.00     0.021 C 
ATOM      8  C   UNL     1      73.516  74.269  73.892  1.00  0.00     0.022 C 
ATOM      9  C   UNL     1      74.972  74.254  74.439  1.00  0.00    -0.019 C 
ATOM     10  C   UNL     1      75.022  74.271  75.988  1.00  0.00     0.012 C 
ATOM     11  C   UNL     1      75.936  73.144  73.933  1.00  0.00     0.012 C 
ENDROOT
TORSDOF 0
ENDMDL
MODEL 5
REMARK VINA RESULT:    -3.986      1.575      2.069
REMARK INTER + INTRA:          -3.986
REMARK INTER:                  -3.986
REMARK INTRA:                   0.000
REMARK UNBOUND:                 0.000
REMARK SMILES CC1=CC(=O)[C@H]2C[C@@H]1C2(C)C
REMARK SMILES IDX 1 1 2 2 3 3 4 4 5 5 6 6 7 7 8 8 9 9 10 10 11 11
REMARK H PARENT
REMARK Flexibility Score: inf
ROOT
ATOM      1  C   UNL     1      72.569  73.530  75.542  1.00  0.00     0.040 C 
ATOM      2  C   UNL     1      73.854  74.037  74.969  1.00  0.00    -0.066 C 
ATOM      3  C   UNL     1      74.776  74.669  75.747  1.00  0.00     0.047 C 
ATOM      4  C   UNL     1      76.009  75.159  75.050  1.00  0.00     0.159 C 
ATOM      5  O   UNL     1      76.915  75.792  75.652  1.00  0.00    -0.295 OA
ATOM      6  C   UNL     1      76.086  74.839  73.557  1.00  0.00     0.067 C 
ATOM      7  C   UNL     1      75.669  73.355  73.466  1.00  0.00     0.021 C 
ATOM      8  C   UNL     1      74.207  73.857  73.477  1.00  0.00     0.022 C 
ATOM      9  C   UNL     1      74.725  75.206  72.900  1.00  0.00    -0.019 C 
ATOM     10  C   UNL     1      74.796  75.197  71.351  1.00  0.00     0.012 C 
ATOM     11  C   UNL     1      74.019  76.517  73.348  1.00  0.00     0.012 C 
ENDROOT
TORSDOF 0
ENDMDL
MODEL 6
REMARK VINA RESULT:    -3.834      1.763      3.003
REMARK INTER + INTRA:          -3.834
REMARK INTER:                  -3.834
REMARK INTRA:                   0.000
REMARK UNBOUND:                 0.000
REMARK SMILES CC1=CC(=O)[C@H]2C[C@@H]1C2(C)C
REMARK SMILES IDX 1 1 2 2 3 3 4 4 5 5 6 6 7 7 8 8 9 9 10 10 11 11
REMARK H PARENT
REMARK Flexibility Score: inf
ROOT
ATOM      1  C   UNL     1      76.982  75.870  72.121  1.00  0.00     0.040 C 
ATOM      2  C   UNL     1      75.818  75.379  72.920  1.00  0.00    -0.066 C 
ATOM      3  C   UNL     1      75.982  74.882  74.178  1.00  0.00     0.047 C 
ATOM      4  C   UNL     1      74.743  74.393  74.865  1.00  0.00     0.159 C 
ATOM      5  O   UNL     1      74.770  73.877  76.012  1.00  0.00    -0.295 OA
ATOM      6  C   UNL     1      73.446  74.561  74.073  1.00  0.00     0.067 C 
ATOM      7  C   UNL     1      73.524  76.003  73.524  1.00  0.00     0.021 C 
ATOM      8  C   UNL     1      74.376  75.424  72.372  1.00  0.00     0.022 C 
ATOM      9  C   UNL     1      73.682  74.054  72.622  1.00  0.00    -0.019 C 
ATOM     10  C   UNL     1      72.360  73.908  71.826  1.00  0.00     0.012 C 
ATOM     11  C   UNL     1      74.519  72.759  72.419  1.00  0.00     0.012 C 
ENDROOT
TORSDOF 0
ENDMDL
MODEL 7
REMARK VINA RESULT:    -3.605      1.819      3.261
REMARK INTER + INTRA:          -3.605
REMARK INTER:                  -3.605
REMARK INTRA:                   0.000
REMARK UNBOUND:                 0.000
REMARK SMILES CC1=CC(=O)[C@H]2C[C@@H]1C2(C)C
REMARK SMILES IDX 1 1 2 2 3 3 4 4 5 5 6 6 7 7 8 8 9 9 10 10 11 11
REMARK H PARENT
REMARK Flexibility Score: inf
ROOT
ATOM      1  C   UNL     1      72.272  73.148  72.108  1.00  0.00     0.040 C 
ATOM      2  C   UNL     1      73.421  73.572  72.966  1.00  0.00    -0.066 C 
ATOM      3  C   UNL     1      73.309  73.626  74.323  1.00  0.00     0.047 C 
ATOM      4  C   UNL     1      74.521  74.096  75.070  1.00  0.00     0.159 C 
ATOM      5  O   UNL     1      74.531  74.226  76.321  1.00  0.00    -0.295 OA
ATOM      6  C   UNL     1      75.743  74.409  74.204  1.00  0.00     0.067 C 
ATOM      7  C   UNL     1      75.833  73.212  73.231  1.00  0.00     0.021 C 
ATOM      8  C   UNL     1      74.790  73.952  72.363  1.00  0.00     0.022 C 
ATOM      9  C   UNL     1      75.286  75.282  73.001  1.00  0.00    -0.019 C 
ATOM     10  C   UNL     1      76.483  75.896  72.230  1.00  0.00     0.012 C 
ATOM     11  C   UNL     1      74.244  76.407  73.258  1.00  0.00     0.012 C 
ENDROOT
TORSDOF 0
ENDMDL
MODEL 8
REMARK VINA RESULT:    -3.364      1.670      3.229
REMARK INTER + INTRA:          -3.364
REMARK INTER:                  -3.364
REMARK INTRA:                   0.000
REMARK UNBOUND:                 0.000
REMARK SMILES CC1=CC(=O)[C@H]2C[C@@H]1C2(C)C
REMARK SMILES IDX 1 1 2 2 3 3 4 4 5 5 6 6 7 7 8 8 9 9 10 10 11 11
REMARK H PARENT
REMARK Flexibility Score: inf
ROOT
ATOM      1  C   UNL     1      73.171  77.217  73.026  1.00  0.00     0.040 C 
ATOM      2  C   UNL     1      73.894  75.919  73.195  1.00  0.00    -0.066 C 
ATOM      3  C   UNL     1      73.679  74.874  72.348  1.00  0.00     0.047 C 
ATOM      4  C   UNL     1      74.441  73.616  72.641  1.00  0.00     0.159 C 
ATOM      5  O   UNL     1      74.299  72.571  71.955  1.00  0.00    -0.295 OA
ATOM      6  C   UNL     1      75.398  73.693  73.831  1.00  0.00     0.067 C 
ATOM      7  C   UNL     1      76.139  75.034  73.633  1.00  0.00     0.021 C 
ATOM      8  C   UNL     1      74.928  75.704  74.321  1.00  0.00     0.022 C 
ATOM      9  C   UNL     1      74.649  74.346  75.027  1.00  0.00    -0.019 C 
ATOM     10  C   UNL     1      75.429  74.203  76.360  1.00  0.00     0.012 C 
ATOM     11  C   UNL     1      73.170  73.940  75.283  1.00  0.00     0.012 C 
ENDROOT
TORSDOF 0
ENDMDL
MODEL 9
REMARK VINA RESULT:    -2.757      1.550      3.100
REMARK INTER + INTRA:          -2.757
REMARK INTER:                  -2.757
REMARK INTRA:                   0.000
REMARK UNBOUND:                 0.000
REMARK SMILES CC1=CC(=O)[C@H]2C[C@@H]1C2(C)C
REMARK SMILES IDX 1 1 2 2 3 3 4 4 5 5 6 6 7 7 8 8 9 9 10 10 11 11
REMARK H PARENT
REMARK Flexibility Score: inf
ROOT
ATOM      1  C   UNL     1      76.896  74.248  71.748  1.00  0.00     0.040 C 
ATOM      2  C   UNL     1      75.699  74.636  72.555  1.00  0.00    -0.066 C 
ATOM      3  C   UNL     1      75.065  75.825  72.354  1.00  0.00     0.047 C 
ATOM      4  C   UNL     1      73.896  76.112  73.247  1.00  0.00     0.159 C 
ATOM      5  O   UNL     1      73.253  77.192  73.186  1.00  0.00    -0.295 OA
ATOM      6  C   UNL     1      73.542  75.003  74.238  1.00  0.00     0.067 C 
ATOM      7  C   UNL     1      73.587  73.712  73.392  1.00  0.00     0.021 C 
ATOM      8  C   UNL     1      75.112  73.708  73.639  1.00  0.00     0.022 C 
ATOM      9  C   UNL     1      74.848  74.526  74.935  1.00  0.00    -0.019 C 
ATOM     10  C   UNL     1      74.565  73.618  76.160  1.00  0.00     0.012 C 
ATOM     11  C   UNL     1      75.894  75.598  75.355  1.00  0.00     0.012 C 
ENDROOT
TORSDOF 0
ENDMDL
