MODEL 1
REMARK VINA RESULT:    -4.788      0.000      0.000
REMARK INTER + INTRA:         -16.747
REMARK INTER:                 -12.626
REMARK INTRA:                  -4.120
REMARK UNBOUND:                -4.120
REMARK SMILES CCCCCCCCCCCCCCCCCCCCCCCCCCCCCC(=O)[O-]
REMARK SMILES IDX 16 1 17 2 18 3 19 4 20 5 21 6 22 7 23 8 24 9 25 10 26 11
REMARK SMILES IDX 27 12 28 13 29 14 30 15 31 16 32 17 15 18 14 19 13 20 12 21
REMARK SMILES IDX 11 22 10 23 9 24 8 25 7 26 6 27 5 28 4 29 3 30 2 31 1 32
REMARK H PARENT
REMARK Flexibility Score: inf
ROOT
ATOM      1  C   UNL     1       8.253   7.386  20.997  1.00  0.00     0.000 C 
ENDROOT
BRANCH   1   2
ATOM      2  C   UNL     1       8.373   8.661  21.847  1.00  0.00     0.000 C 
BRANCH   2   3
ATOM      3  C   UNL     1       9.383   9.669  21.270  1.00  0.00     0.000 C 
BRANCH   3   4
ATOM      4  C   UNL     1       9.905   9.259  19.883  1.00  0.00     0.000 C 
BRANCH   4   5
ATOM      5  C   UNL     1      11.435   9.082  19.871  1.00  0.00     0.000 C 
BRANCH   5   6
ATOM      6  C   UNL     1      11.889   7.781  20.554  1.00  0.00     0.000 C 
BRANCH   6   7
ATOM      7  C   UNL     1      13.152   7.968  21.417  1.00  0.00     0.000 C 
BRANCH   7   8
ATOM      8  C   UNL     1      12.806   8.114  22.905  1.00  0.00     0.000 C 
BRANCH   8   9
ATOM      9  C   UNL     1      11.623   7.216  23.314  1.00  0.00     0.000 C 
BRANCH   9  10
ATOM     10  C   UNL     1      10.708   7.887  24.350  1.00  0.00     0.000 C 
BRANCH  10  11
ATOM     11  C   UNL     1      11.396   8.013  25.722  1.00  0.00     0.000 C 
BRANCH  11  12
ATOM     12  C   UNL     1      11.728   6.651  26.350  1.00  0.00     0.000 C 
BRANCH  12  13
ATOM     13  C   UNL     1      11.035   6.442  27.709  1.00  0.00     0.006 C 
BRANCH  13  14
ATOM     14  C   UNL     1       9.745   5.620  27.575  1.00  0.00     0.053 C 
BRANCH  14  15
ATOM     15  C   UNL     1       9.935   4.206  28.035  1.00  0.00     0.041 C 
ATOM     16  O   UNL     1       9.597   3.246  27.294  1.00  0.00    -0.550 OA
ATOM     17  O   UNL     1      10.500   3.949  29.277  1.00  0.00    -0.550 OA
ENDBRANCH  14  15
ENDBRANCH  13  14
ENDBRANCH  12  13
ENDBRANCH  11  12
ENDBRANCH  10  11
ENDBRANCH   9  10
ENDBRANCH   8   9
ENDBRANCH   7   8
ENDBRANCH   6   7
ENDBRANCH   5   6
ENDBRANCH   4   5
ENDBRANCH   3   4
ENDBRANCH   2   3
ENDBRANCH   1   2
BRANCH   1  18
ATOM     18  C   UNL     1       6.812   7.106  20.537  1.00  0.00     0.000 C 
BRANCH  18  19
ATOM     19  C   UNL     1       6.563   7.520  19.075  1.00  0.00     0.000 C 
BRANCH  19  20
ATOM     20  C   UNL     1       6.113   8.984  18.906  1.00  0.00     0.000 C 
BRANCH  20  21
ATOM     21  C   UNL     1       4.870   9.323  19.749  1.00  0.00     0.000 C 
BRANCH  21  22
ATOM     22  C   UNL     1       3.643   8.472  19.362  1.00  0.00     0.000 C 
BRANCH  22  23
ATOM     23  C   UNL     1       2.824   9.047  18.189  1.00  0.00     0.000 C 
BRANCH  23  24
ATOM     24  C   UNL     1       2.995   8.311  16.849  1.00  0.00    -0.000 C 
BRANCH  24  25
ATOM     25  C   UNL     1       3.642   6.912  16.944  1.00  0.00    -0.000 C 
BRANCH  25  26
ATOM     26  C   UNL     1       4.781   6.680  15.927  1.00  0.00    -0.000 C 
BRANCH  26  27
ATOM     27  C   UNL     1       5.005   7.892  15.008  1.00  0.00    -0.000 C 
BRANCH  27  28
ATOM     28  C   UNL     1       6.377   8.554  15.230  1.00  0.00    -0.000 C 
BRANCH  28  29
ATOM     29  C   UNL     1       7.569   7.584  15.129  1.00  0.00    -0.000 C 
BRANCH  29  30
ATOM     30  C   UNL     1       8.314   7.701  13.793  1.00  0.00    -0.000 C 
BRANCH  30  31
ATOM     31  C   UNL     1       8.023   6.494  12.894  1.00  0.00    -0.003 C 
ATOM     32  C   UNL     1       7.623   5.277  13.722  1.00  0.00     0.004 C 
ENDBRANCH  30  31
ENDBRANCH  29  30
ENDBRANCH  28  29
ENDBRANCH  27  28
ENDBRANCH  26  27
ENDBRANCH  25  26
ENDBRANCH  24  25
ENDBRANCH  23  24
ENDBRANCH  22  23
ENDBRANCH  21  22
ENDBRANCH  20  21
ENDBRANCH  19  20
ENDBRANCH  18  19
ENDBRANCH   1  18
TORSDOF 28
ENDMDL
MODEL 2
REMARK VINA RESULT:    -4.775      4.208     10.460
REMARK INTER + INTRA:         -16.712
REMARK INTER:                 -12.321
REMARK INTRA:                  -4.391
REMARK UNBOUND:                -4.120
REMARK SMILES CCCCCCCCCCCCCCCCCCCCCCCCCCCCCC(=O)[O-]
REMARK SMILES IDX 16 1 17 2 18 3 19 4 20 5 21 6 22 7 23 8 24 9 25 10 26 11
REMARK SMILES IDX 27 12 28 13 29 14 30 15 31 16 32 17 15 18 14 19 13 20 12 21
REMARK SMILES IDX 11 22 10 23 9 24 8 25 7 26 6 27 5 28 4 29 3 30 2 31 1 32
REMARK H PARENT
REMARK Flexibility Score: inf
ROOT
ATOM      1  C   UNL     1      15.743   8.407  26.611  1.00  0.00     0.000 C 
ENDROOT
BRANCH   1   2
ATOM      2  C   UNL     1      17.130   8.265  25.965  1.00  0.00     0.000 C 
BRANCH   2   3
ATOM      3  C   UNL     1      17.326   9.203  24.760  1.00  0.00     0.000 C 
BRANCH   3   4
ATOM      4  C   UNL     1      16.039   9.952  24.375  1.00  0.00     0.000 C 
BRANCH   4   5
ATOM      5  C   UNL     1      15.314   9.284  23.192  1.00  0.00     0.000 C 
BRANCH   5   6
ATOM      6  C   UNL     1      14.100  10.090  22.705  1.00  0.00     0.000 C 
BRANCH   6   7
ATOM      7  C   UNL     1      13.447   9.487  21.446  1.00  0.00     0.000 C 
BRANCH   7   8
ATOM      8  C   UNL     1      13.382   7.956  21.518  1.00  0.00     0.000 C 
BRANCH   8   9
ATOM      9  C   UNL     1      12.249   7.384  20.646  1.00  0.00     0.000 C 
BRANCH   9  10
ATOM     10  C   UNL     1      11.191   6.638  21.474  1.00  0.00     0.000 C 
BRANCH  10  11
ATOM     11  C   UNL     1      10.151   7.602  22.074  1.00  0.00     0.000 C 
BRANCH  11  12
ATOM     12  C   UNL     1       9.691   8.678  21.079  1.00  0.00     0.000 C 
BRANCH  12  13
ATOM     13  C   UNL     1       8.311   8.368  20.471  1.00  0.00     0.006 C 
BRANCH  13  14
ATOM     14  C   UNL     1       7.531   7.346  21.309  1.00  0.00     0.053 C 
BRANCH  14  15
ATOM     15  C   UNL     1       6.065   7.367  20.993  1.00  0.00     0.041 C 
ATOM     16  O   UNL     1       5.663   7.785  19.876  1.00  0.00    -0.550 OA
ATOM     17  O   UNL     1       5.146   6.910  21.927  1.00  0.00    -0.550 OA
ENDBRANCH  14  15
ENDBRANCH  13  14
ENDBRANCH  12  13
ENDBRANCH  11  12
ENDBRANCH  10  11
ENDBRANCH   9  10
ENDBRANCH   8   9
ENDBRANCH   7   8
ENDBRANCH   6   7
ENDBRANCH   5   6
ENDBRANCH   4   5
ENDBRANCH   3   4
ENDBRANCH   2   3
ENDBRANCH   1   2
BRANCH   1  18
ATOM     18  C   UNL     1      15.334   7.172  27.432  1.00  0.00     0.000 C 
BRANCH  18  19
ATOM     19  C   UNL     1      14.029   6.528  26.928  1.00  0.00     0.000 C 
BRANCH  19  20
ATOM     20  C   UNL     1      13.877   6.539  25.394  1.00  0.00     0.000 C 
BRANCH  20  21
ATOM     21  C   UNL     1      12.445   6.883  24.945  1.00  0.00     0.000 C 
BRANCH  21  22
ATOM     22  C   UNL     1      12.048   8.333  25.291  1.00  0.00     0.000 C 
BRANCH  22  23
ATOM     23  C   UNL     1      10.772   8.449  26.147  1.00  0.00     0.000 C 
BRANCH  23  24
ATOM     24  C   UNL     1      10.921   7.990  27.609  1.00  0.00    -0.000 C 
BRANCH  24  25
ATOM     25  C   UNL     1       9.997   8.702  28.620  1.00  0.00    -0.000 C 
BRANCH  25  26
ATOM     26  C   UNL     1       8.870   7.805  29.176  1.00  0.00    -0.000 C 
BRANCH  26  27
ATOM     27  C   UNL     1       9.129   7.365  30.626  1.00  0.00    -0.000 C 
BRANCH  27  28
ATOM     28  C   UNL     1       9.276   5.839  30.762  1.00  0.00    -0.000 C 
BRANCH  28  29
ATOM     29  C   UNL     1      10.731   5.338  30.711  1.00  0.00    -0.000 C 
BRANCH  29  30
ATOM     30  C   UNL     1      11.061   4.616  29.397  1.00  0.00    -0.000 C 
BRANCH  30  31
ATOM     31  C   UNL     1       9.783   4.188  28.669  1.00  0.00    -0.003 C 
ATOM     32  C   UNL     1       9.852   4.541  27.186  1.00  0.00     0.004 C 
ENDBRANCH  30  31
ENDBRANCH  29  30
ENDBRANCH  28  29
ENDBRANCH  27  28
ENDBRANCH  26  27
ENDBRANCH  25  26
ENDBRANCH  24  25
ENDBRANCH  23  24
ENDBRANCH  22  23
ENDBRANCH  21  22
ENDBRANCH  20  21
ENDBRANCH  19  20
ENDBRANCH  18  19
ENDBRANCH   1  18
TORSDOF 28
ENDMDL
MODEL 3
REMARK VINA RESULT:    -4.679      3.923     11.277
REMARK INTER + INTRA:         -16.457
REMARK INTER:                 -12.761
REMARK INTRA:                  -3.696
REMARK UNBOUND:                -4.120
REMARK SMILES CCCCCCCCCCCCCCCCCCCCCCCCCCCCCC(=O)[O-]
REMARK SMILES IDX 16 1 17 2 18 3 19 4 20 5 21 6 22 7 23 8 24 9 25 10 26 11
REMARK SMILES IDX 27 12 28 13 29 14 30 15 31 16 32 17 15 18 14 19 13 20 12 21
REMARK SMILES IDX 11 22 10 23 9 24 8 25 7 26 6 27 5 28 4 29 3 30 2 31 1 32
REMARK H PARENT
REMARK Flexibility Score: inf
ROOT
ATOM      1  C   UNL     1      11.783   9.036  21.016  1.00  0.00     0.000 C 
ENDROOT
BRANCH   1   2
ATOM      2  C   UNL     1      11.102   9.299  19.663  1.00  0.00     0.000 C 
BRANCH   2   3
ATOM      3  C   UNL     1       9.570   9.387  19.772  1.00  0.00     0.000 C 
BRANCH   3   4
ATOM      4  C   UNL     1       9.090   9.611  21.217  1.00  0.00     0.000 C 
BRANCH   4   5
ATOM      5  C   UNL     1       7.847   8.764  21.550  1.00  0.00     0.000 C 
BRANCH   5   6
ATOM      6  C   UNL     1       7.907   7.354  20.940  1.00  0.00     0.000 C 
BRANCH   6   7
ATOM      7  C   UNL     1       6.682   7.030  20.062  1.00  0.00     0.000 C 
BRANCH   7   8
ATOM      8  C   UNL     1       5.764   8.249  19.895  1.00  0.00     0.000 C 
BRANCH   8   9
ATOM      9  C   UNL     1       5.497   8.572  18.413  1.00  0.00     0.000 C 
BRANCH   9  10
ATOM     10  C   UNL     1       6.788   8.630  17.583  1.00  0.00     0.000 C 
BRANCH  10  11
ATOM     11  C   UNL     1       6.693   7.760  16.316  1.00  0.00     0.000 C 
BRANCH  11  12
ATOM     12  C   UNL     1       5.255   7.628  15.790  1.00  0.00     0.000 C 
BRANCH  12  13
ATOM     13  C   UNL     1       5.145   6.640  14.616  1.00  0.00     0.006 C 
BRANCH  13  14
ATOM     14  C   UNL     1       6.189   6.922  13.527  1.00  0.00     0.053 C 
BRANCH  14  15
ATOM     15  C   UNL     1       6.927   5.681  13.125  1.00  0.00     0.041 C 
ATOM     16  O   UNL     1       6.961   5.324  11.918  1.00  0.00    -0.550 OA
ATOM     17  O   UNL     1       7.590   4.927  14.083  1.00  0.00    -0.550 OA
ENDBRANCH  14  15
ENDBRANCH  13  14
ENDBRANCH  12  13
ENDBRANCH  11  12
ENDBRANCH  10  11
ENDBRANCH   9  10
ENDBRANCH   8   9
ENDBRANCH   7   8
ENDBRANCH   6   7
ENDBRANCH   5   6
ENDBRANCH   4   5
ENDBRANCH   3   4
ENDBRANCH   2   3
ENDBRANCH   1   2
BRANCH   1  18
ATOM     18  C   UNL     1      12.224   7.573  21.191  1.00  0.00     0.000 C 
BRANCH  18  19
ATOM     19  C   UNL     1      11.264   6.765  22.084  1.00  0.00     0.000 C 
BRANCH  19  20
ATOM     20  C   UNL     1      11.631   6.787  23.581  1.00  0.00     0.000 C 
BRANCH  20  21
ATOM     21  C   UNL     1      11.056   8.013  24.314  1.00  0.00     0.000 C 
BRANCH  21  22
ATOM     22  C   UNL     1      12.025   8.576  25.374  1.00  0.00     0.000 C 
BRANCH  22  23
ATOM     23  C   UNL     1      13.509   8.522  24.962  1.00  0.00     0.000 C 
BRANCH  23  24
ATOM     24  C   UNL     1      14.317   7.367  25.578  1.00  0.00    -0.000 C 
BRANCH  24  25
ATOM     25  C   UNL     1      13.792   6.845  26.933  1.00  0.00    -0.000 C 
BRANCH  25  26
ATOM     26  C   UNL     1      13.061   5.488  26.841  1.00  0.00    -0.000 C 
BRANCH  26  27
ATOM     27  C   UNL     1      11.817   5.428  27.742  1.00  0.00    -0.000 C 
BRANCH  27  28
ATOM     28  C   UNL     1      10.505   5.490  26.940  1.00  0.00    -0.000 C 
BRANCH  28  29
ATOM     29  C   UNL     1       9.239   5.605  27.809  1.00  0.00    -0.000 C 
BRANCH  29  30
ATOM     30  C   UNL     1       8.991   7.036  28.306  1.00  0.00    -0.000 C 
BRANCH  30  31
ATOM     31  C   UNL     1       8.983   7.092  29.837  1.00  0.00    -0.003 C 
ATOM     32  C   UNL     1       9.380   5.746  30.438  1.00  0.00     0.004 C 
ENDBRANCH  30  31
ENDBRANCH  29  30
ENDBRANCH  28  29
ENDBRANCH  27  28
ENDBRANCH  26  27
ENDBRANCH  25  26
ENDBRANCH  24  25
ENDBRANCH  23  24
ENDBRANCH  22  23
ENDBRANCH  21  22
ENDBRANCH  20  21
ENDBRANCH  19  20
ENDBRANCH  18  19
ENDBRANCH   1  18
TORSDOF 28
ENDMDL
MODEL 4
REMARK VINA RESULT:    -4.649      4.296     10.912
REMARK INTER + INTRA:         -16.380
REMARK INTER:                 -13.019
REMARK INTRA:                  -3.361
REMARK UNBOUND:                -4.120
REMARK SMILES CCCCCCCCCCCCCCCCCCCCCCCCCCCCCC(=O)[O-]
REMARK SMILES IDX 16 1 17 2 18 3 19 4 20 5 21 6 22 7 23 8 24 9 25 10 26 11
REMARK SMILES IDX 27 12 28 13 29 14 30 15 31 16 32 17 15 18 14 19 13 20 12 21
REMARK SMILES IDX 11 22 10 23 9 24 8 25 7 26 6 27 5 28 4 29 3 30 2 31 1 32
REMARK H PARENT
REMARK Flexibility Score: inf
ROOT
ATOM      1  C   UNL     1       8.527   6.759  21.000  1.00  0.00     0.000 C 
ENDROOT
BRANCH   1   2
ATOM      2  C   UNL     1       7.248   7.592  20.812  1.00  0.00     0.000 C 
BRANCH   2   3
ATOM      3  C   UNL     1       5.965   6.779  21.059  1.00  0.00     0.000 C 
BRANCH   3   4
ATOM      4  C   UNL     1       5.037   7.434  22.096  1.00  0.00     0.000 C 
BRANCH   4   5
ATOM      5  C   UNL     1       4.934   8.957  21.898  1.00  0.00     0.000 C 
BRANCH   5   6
ATOM      6  C   UNL     1       3.524   9.410  21.488  1.00  0.00     0.000 C 
BRANCH   6   7
ATOM      7  C   UNL     1       3.399   9.685  19.977  1.00  0.00     0.000 C 
BRANCH   7   8
ATOM      8  C   UNL     1       2.700   8.531  19.245  1.00  0.00     0.000 C 
BRANCH   8   9
ATOM      9  C   UNL     1       3.505   8.048  18.024  1.00  0.00     0.000 C 
BRANCH   9  10
ATOM     10  C   UNL     1       4.953   8.561  18.037  1.00  0.00     0.000 C 
BRANCH  10  11
ATOM     11  C   UNL     1       5.905   7.604  17.296  1.00  0.00     0.000 C 
BRANCH  11  12
ATOM     12  C   UNL     1       6.477   8.211  16.006  1.00  0.00     0.000 C 
BRANCH  12  13
ATOM     13  C   UNL     1       7.078   7.149  15.069  1.00  0.00     0.006 C 
BRANCH  13  14
ATOM     14  C   UNL     1       8.354   7.648  14.377  1.00  0.00     0.053 C 
BRANCH  14  15
ATOM     15  C   UNL     1       8.260   7.539  12.885  1.00  0.00     0.041 C 
ATOM     16  O   UNL     1       7.847   6.476  12.351  1.00  0.00    -0.550 OA
ATOM     17  O   UNL     1       8.612   8.617  12.086  1.00  0.00    -0.550 OA
ENDBRANCH  14  15
ENDBRANCH  13  14
ENDBRANCH  12  13
ENDBRANCH  11  12
ENDBRANCH  10  11
ENDBRANCH   9  10
ENDBRANCH   8   9
ENDBRANCH   7   8
ENDBRANCH   6   7
ENDBRANCH   5   6
ENDBRANCH   4   5
ENDBRANCH   3   4
ENDBRANCH   2   3
ENDBRANCH   1   2
BRANCH   1  18
ATOM     18  C   UNL     1       9.663   7.547  21.674  1.00  0.00     0.000 C 
BRANCH  18  19
ATOM     19  C   UNL     1      11.020   6.825  21.589  1.00  0.00     0.000 C 
BRANCH  19  20
ATOM     20  C   UNL     1      12.019   7.480  20.615  1.00  0.00     0.000 C 
BRANCH  20  21
ATOM     21  C   UNL     1      11.683   8.954  20.325  1.00  0.00     0.000 C 
BRANCH  21  22
ATOM     22  C   UNL     1      12.708   9.928  20.943  1.00  0.00     0.000 C 
BRANCH  22  23
ATOM     23  C   UNL     1      13.855   9.234  21.703  1.00  0.00     0.000 C 
BRANCH  23  24
ATOM     24  C   UNL     1      13.976   9.610  23.190  1.00  0.00    -0.000 C 
BRANCH  24  25
ATOM     25  C   UNL     1      13.230   8.677  24.168  1.00  0.00    -0.000 C 
BRANCH  25  26
ATOM     26  C   UNL     1      11.813   9.166  24.541  1.00  0.00    -0.000 C 
BRANCH  26  27
ATOM     27  C   UNL     1      10.941   8.046  25.131  1.00  0.00    -0.000 C 
BRANCH  27  28
ATOM     28  C   UNL     1      11.749   6.777  25.454  1.00  0.00    -0.000 C 
BRANCH  28  29
ATOM     29  C   UNL     1      11.523   6.228  26.874  1.00  0.00    -0.000 C 
BRANCH  29  30
ATOM     30  C   UNL     1      10.070   5.795  27.115  1.00  0.00    -0.000 C 
BRANCH  30  31
ATOM     31  C   UNL     1       9.989   4.299  27.437  1.00  0.00    -0.003 C 
ATOM     32  C   UNL     1       9.779   4.070  28.931  1.00  0.00     0.004 C 
ENDBRANCH  30  31
ENDBRANCH  29  30
ENDBRANCH  28  29
ENDBRANCH  27  28
ENDBRANCH  26  27
ENDBRANCH  25  26
ENDBRANCH  24  25
ENDBRANCH  23  24
ENDBRANCH  22  23
ENDBRANCH  21  22
ENDBRANCH  20  21
ENDBRANCH  19  20
ENDBRANCH  18  19
ENDBRANCH   1  18
TORSDOF 28
ENDMDL
MODEL 5
REMARK VINA RESULT:    -4.648      1.236      2.164
REMARK INTER + INTRA:         -16.376
REMARK INTER:                 -12.482
REMARK INTRA:                  -3.894
REMARK UNBOUND:                -4.120
REMARK SMILES CCCCCCCCCCCCCCCCCCCCCCCCCCCCCC(=O)[O-]
REMARK SMILES IDX 16 1 17 2 18 3 19 4 20 5 21 6 22 7 23 8 24 9 25 10 26 11
REMARK SMILES IDX 27 12 28 13 29 14 30 15 31 16 32 17 15 18 14 19 13 20 12 21
REMARK SMILES IDX 11 22 10 23 9 24 8 25 7 26 6 27 5 28 4 29 3 30 2 31 1 32
REMARK H PARENT
REMARK Flexibility Score: inf
ROOT
ATOM      1  C   UNL     1       6.755   7.620  19.251  1.00  0.00     0.000 C 
ENDROOT
BRANCH   1   2
ATOM      2  C   UNL     1       7.280   9.033  19.552  1.00  0.00     0.000 C 
BRANCH   2   3
ATOM      3  C   UNL     1       8.717   9.031  20.101  1.00  0.00     0.000 C 
BRANCH   3   4
ATOM      4  C   UNL     1       8.771   9.234  21.625  1.00  0.00     0.000 C 
BRANCH   4   5
ATOM      5  C   UNL     1       9.738   8.247  22.305  1.00  0.00     0.000 C 
BRANCH   5   6
ATOM      6  C   UNL     1      10.131   7.074  21.393  1.00  0.00     0.000 C 
BRANCH   6   7
ATOM      7  C   UNL     1      11.648   6.996  21.137  1.00  0.00     0.000 C 
BRANCH   7   8
ATOM      8  C   UNL     1      12.350   8.319  21.475  1.00  0.00     0.000 C 
BRANCH   8   9
ATOM      9  C   UNL     1      13.847   8.119  21.773  1.00  0.00     0.000 C 
BRANCH   9  10
ATOM     10  C   UNL     1      14.224   8.549  23.198  1.00  0.00     0.000 C 
BRANCH  10  11
ATOM     11  C   UNL     1      12.979   8.836  24.057  1.00  0.00     0.000 C 
BRANCH  11  12
ATOM     12  C   UNL     1      13.028   8.148  25.429  1.00  0.00     0.000 C 
BRANCH  12  13
ATOM     13  C   UNL     1      11.652   8.105  26.118  1.00  0.00     0.006 C 
BRANCH  13  14
ATOM     14  C   UNL     1      10.940   6.763  25.895  1.00  0.00     0.053 C 
BRANCH  14  15
ATOM     15  C   UNL     1      10.587   6.097  27.191  1.00  0.00     0.041 C 
ATOM     16  O   UNL     1      10.182   6.781  28.167  1.00  0.00    -0.550 OA
ATOM     17  O   UNL     1      10.692   4.719  27.314  1.00  0.00    -0.550 OA
ENDBRANCH  14  15
ENDBRANCH  13  14
ENDBRANCH  12  13
ENDBRANCH  11  12
ENDBRANCH  10  11
ENDBRANCH   9  10
ENDBRANCH   8   9
ENDBRANCH   7   8
ENDBRANCH   6   7
ENDBRANCH   5   6
ENDBRANCH   4   5
ENDBRANCH   3   4
ENDBRANCH   2   3
ENDBRANCH   1   2
BRANCH   1  18
ATOM     18  C   UNL     1       5.922   7.031  20.403  1.00  0.00     0.000 C 
BRANCH  18  19
ATOM     19  C   UNL     1       5.277   8.116  21.286  1.00  0.00     0.000 C 
BRANCH  19  20
ATOM     20  C   UNL     1       3.761   8.283  21.067  1.00  0.00     0.000 C 
BRANCH  20  21
ATOM     21  C   UNL     1       3.432   9.298  19.957  1.00  0.00     0.000 C 
BRANCH  21  22
ATOM     22  C   UNL     1       2.668   8.660  18.778  1.00  0.00     0.000 C 
BRANCH  22  23
ATOM     23  C   UNL     1       3.530   8.428  17.522  1.00  0.00     0.000 C 
BRANCH  23  24
ATOM     24  C   UNL     1       3.718   6.954  17.122  1.00  0.00    -0.000 C 
BRANCH  24  25
ATOM     25  C   UNL     1       4.835   6.690  16.089  1.00  0.00    -0.000 C 
BRANCH  25  26
ATOM     26  C   UNL     1       5.258   7.943  15.291  1.00  0.00    -0.000 C 
BRANCH  26  27
ATOM     27  C   UNL     1       6.761   8.243  15.422  1.00  0.00    -0.000 C 
BRANCH  27  28
ATOM     28  C   UNL     1       7.388   8.703  14.094  1.00  0.00    -0.000 C 
BRANCH  28  29
ATOM     29  C   UNL     1       8.240   7.629  13.394  1.00  0.00    -0.000 C 
BRANCH  29  30
ATOM     30  C   UNL     1       7.491   6.934  12.249  1.00  0.00    -0.000 C 
BRANCH  30  31
ATOM     31  C   UNL     1       7.034   5.531  12.663  1.00  0.00    -0.003 C 
ATOM     32  C   UNL     1       7.787   5.052  13.901  1.00  0.00     0.004 C 
ENDBRANCH  30  31
ENDBRANCH  29  30
ENDBRANCH  28  29
ENDBRANCH  27  28
ENDBRANCH  26  27
ENDBRANCH  25  26
ENDBRANCH  24  25
ENDBRANCH  23  24
ENDBRANCH  22  23
ENDBRANCH  21  22
ENDBRANCH  20  21
ENDBRANCH  19  20
ENDBRANCH  18  19
ENDBRANCH   1  18
TORSDOF 28
ENDMDL
MODEL 6
REMARK VINA RESULT:    -4.637      4.234     11.435
REMARK INTER + INTRA:         -16.347
REMARK INTER:                 -13.224
REMARK INTRA:                  -3.124
REMARK UNBOUND:                -4.120
REMARK SMILES CCCCCCCCCCCCCCCCCCCCCCCCCCCCCC(=O)[O-]
REMARK SMILES IDX 16 1 17 2 18 3 19 4 20 5 21 6 22 7 23 8 24 9 25 10 26 11
REMARK SMILES IDX 27 12 28 13 29 14 30 15 31 16 32 17 15 18 14 19 13 20 12 21
REMARK SMILES IDX 11 22 10 23 9 24 8 25 7 26 6 27 5 28 4 29 3 30 2 31 1 32
REMARK H PARENT
REMARK Flexibility Score: inf
ROOT
ATOM      1  C   UNL     1      11.255   6.972  22.335  1.00  0.00     0.000 C 
ENDROOT
BRANCH   1   2
ATOM      2  C   UNL     1      10.040   7.012  21.394  1.00  0.00     0.000 C 
BRANCH   2   3
ATOM      3  C   UNL     1       9.411   8.412  21.290  1.00  0.00     0.000 C 
BRANCH   3   4
ATOM      4  C   UNL     1       7.873   8.376  21.313  1.00  0.00     0.000 C 
BRANCH   4   5
ATOM      5  C   UNL     1       7.321   7.022  20.830  1.00  0.00     0.000 C 
BRANCH   5   6
ATOM      6  C   UNL     1       5.925   6.713  21.394  1.00  0.00     0.000 C 
BRANCH   6   7
ATOM      7  C   UNL     1       5.247   7.947  22.023  1.00  0.00     0.000 C 
BRANCH   7   8
ATOM      8  C   UNL     1       4.005   8.377  21.231  1.00  0.00     0.000 C 
BRANCH   8   9
ATOM      9  C   UNL     1       4.372   9.194  19.979  1.00  0.00     0.000 C 
BRANCH   9  10
ATOM     10  C   UNL     1       4.363   8.343  18.700  1.00  0.00     0.000 C 
BRANCH  10  11
ATOM     11  C   UNL     1       5.512   8.727  17.750  1.00  0.00     0.000 C 
BRANCH  11  12
ATOM     12  C   UNL     1       6.353   7.518  17.312  1.00  0.00     0.000 C 
BRANCH  12  13
ATOM     13  C   UNL     1       6.023   7.058  15.880  1.00  0.00     0.006 C 
BRANCH  13  14
ATOM     14  C   UNL     1       4.640   6.397  15.794  1.00  0.00     0.053 C 
BRANCH  14  15
ATOM     15  C   UNL     1       3.747   7.100  14.816  1.00  0.00     0.041 C 
ATOM     16  O   UNL     1       2.890   7.928  15.221  1.00  0.00    -0.550 OA
ATOM     17  O   UNL     1       3.872   6.850  13.457  1.00  0.00    -0.550 OA
ENDBRANCH  14  15
ENDBRANCH  13  14
ENDBRANCH  12  13
ENDBRANCH  11  12
ENDBRANCH  10  11
ENDBRANCH   9  10
ENDBRANCH   8   9
ENDBRANCH   7   8
ENDBRANCH   6   7
ENDBRANCH   5   6
ENDBRANCH   4   5
ENDBRANCH   3   4
ENDBRANCH   2   3
ENDBRANCH   1   2
BRANCH   1  18
ATOM     18  C   UNL     1      11.983   8.324  22.432  1.00  0.00     0.000 C 
BRANCH  18  19
ATOM     19  C   UNL     1      13.451   8.243  21.973  1.00  0.00     0.000 C 
BRANCH  19  20
ATOM     20  C   UNL     1      14.254   9.537  22.210  1.00  0.00     0.000 C 
BRANCH  20  21
ATOM     21  C   UNL     1      14.999   9.534  23.557  1.00  0.00     0.000 C 
BRANCH  21  22
ATOM     22  C   UNL     1      15.412   8.115  24.002  1.00  0.00     0.000 C 
BRANCH  22  23
ATOM     23  C   UNL     1      14.985   7.758  25.439  1.00  0.00     0.000 C 
BRANCH  23  24
ATOM     24  C   UNL     1      13.465   7.667  25.666  1.00  0.00    -0.000 C 
BRANCH  24  25
ATOM     25  C   UNL     1      12.886   6.236  25.681  1.00  0.00    -0.000 C 
BRANCH  25  26
ATOM     26  C   UNL     1      11.959   5.949  26.883  1.00  0.00    -0.000 C 
BRANCH  26  27
ATOM     27  C   UNL     1      10.708   6.843  26.887  1.00  0.00    -0.000 C 
BRANCH  27  28
ATOM     28  C   UNL     1       9.560   6.248  27.721  1.00  0.00    -0.000 C 
BRANCH  28  29
ATOM     29  C   UNL     1       9.564   4.710  27.792  1.00  0.00    -0.000 C 
BRANCH  29  30
ATOM     30  C   UNL     1       9.406   4.184  29.225  1.00  0.00    -0.000 C 
BRANCH  30  31
ATOM     31  C   UNL     1      10.191   5.049  30.217  1.00  0.00    -0.003 C 
ATOM     32  C   UNL     1      11.619   4.537  30.380  1.00  0.00     0.004 C 
ENDBRANCH  30  31
ENDBRANCH  29  30
ENDBRANCH  28  29
ENDBRANCH  27  28
ENDBRANCH  26  27
ENDBRANCH  25  26
ENDBRANCH  24  25
ENDBRANCH  23  24
ENDBRANCH  22  23
ENDBRANCH  21  22
ENDBRANCH  20  21
ENDBRANCH  19  20
ENDBRANCH  18  19
ENDBRANCH   1  18
TORSDOF 28
ENDMDL
MODEL 7
REMARK VINA RESULT:    -4.625      1.506      2.177
REMARK INTER + INTRA:         -16.317
REMARK INTER:                 -13.365
REMARK INTRA:                  -2.951
REMARK UNBOUND:                -4.120
REMARK SMILES CCCCCCCCCCCCCCCCCCCCCCCCCCCCCC(=O)[O-]
REMARK SMILES IDX 16 1 17 2 18 3 19 4 20 5 21 6 22 7 23 8 24 9 25 10 26 11
REMARK SMILES IDX 27 12 28 13 29 14 30 15 31 16 32 17 15 18 14 19 13 20 12 21
REMARK SMILES IDX 11 22 10 23 9 24 8 25 7 26 6 27 5 28 4 29 3 30 2 31 1 32
REMARK H PARENT
REMARK Flexibility Score: inf
ROOT
ATOM      1  C   UNL     1       9.429   6.763  21.359  1.00  0.00     0.000 C 
ENDROOT
BRANCH   1   2
ATOM      2  C   UNL     1      10.423   7.392  22.349  1.00  0.00     0.000 C 
BRANCH   2   3
ATOM      3  C   UNL     1      11.848   7.496  21.777  1.00  0.00     0.000 C 
BRANCH   3   4
ATOM      4  C   UNL     1      12.210   8.926  21.341  1.00  0.00     0.000 C 
BRANCH   4   5
ATOM      5  C   UNL     1      13.675   9.274  21.663  1.00  0.00     0.000 C 
BRANCH   5   6
ATOM      6  C   UNL     1      14.344   8.240  22.582  1.00  0.00     0.000 C 
BRANCH   6   7
ATOM      7  C   UNL     1      14.550   8.761  24.018  1.00  0.00     0.000 C 
BRANCH   7   8
ATOM      8  C   UNL     1      14.625   7.613  25.034  1.00  0.00     0.000 C 
BRANCH   8   9
ATOM      9  C   UNL     1      13.237   7.020  25.339  1.00  0.00     0.000 C 
BRANCH   9  10
ATOM     10  C   UNL     1      12.216   8.094  25.742  1.00  0.00     0.000 C 
BRANCH  10  11
ATOM     11  C   UNL     1      10.921   7.472  26.296  1.00  0.00     0.000 C 
BRANCH  11  12
ATOM     12  C   UNL     1      11.094   6.004  26.711  1.00  0.00     0.000 C 
BRANCH  12  13
ATOM     13  C   UNL     1       9.799   5.393  27.276  1.00  0.00     0.006 C 
BRANCH  13  14
ATOM     14  C   UNL     1       8.904   6.452  27.935  1.00  0.00     0.053 C 
BRANCH  14  15
ATOM     15  C   UNL     1       8.983   6.398  29.431  1.00  0.00     0.041 C 
ATOM     16  O   UNL     1       8.746   7.426  30.117  1.00  0.00    -0.550 OA
ATOM     17  O   UNL     1       9.304   5.206  30.067  1.00  0.00    -0.550 OA
ENDBRANCH  14  15
ENDBRANCH  13  14
ENDBRANCH  12  13
ENDBRANCH  11  12
ENDBRANCH  10  11
ENDBRANCH   9  10
ENDBRANCH   8   9
ENDBRANCH   7   8
ENDBRANCH   6   7
ENDBRANCH   5   6
ENDBRANCH   4   5
ENDBRANCH   3   4
ENDBRANCH   2   3
ENDBRANCH   1   2
BRANCH   1  18
ATOM     18  C   UNL     1       8.470   7.792  20.735  1.00  0.00     0.000 C 
BRANCH  18  19
ATOM     19  C   UNL     1       7.046   7.239  20.542  1.00  0.00     0.000 C 
BRANCH  19  20
ATOM     20  C   UNL     1       6.466   7.478  19.135  1.00  0.00     0.000 C 
BRANCH  20  21
ATOM     21  C   UNL     1       5.095   8.177  19.171  1.00  0.00     0.000 C 
BRANCH  21  22
ATOM     22  C   UNL     1       5.019   9.380  18.208  1.00  0.00     0.000 C 
BRANCH  22  23
ATOM     23  C   UNL     1       3.756   9.399  17.324  1.00  0.00     0.000 C 
BRANCH  23  24
ATOM     24  C   UNL     1       3.498   8.110  16.525  1.00  0.00    -0.000 C 
BRANCH  24  25
ATOM     25  C   UNL     1       4.050   8.106  15.084  1.00  0.00    -0.000 C 
BRANCH  25  26
ATOM     26  C   UNL     1       4.779   6.801  14.697  1.00  0.00    -0.000 C 
BRANCH  26  27
ATOM     27  C   UNL     1       6.089   6.605  15.477  1.00  0.00    -0.000 C 
BRANCH  27  28
ATOM     28  C   UNL     1       7.024   7.823  15.375  1.00  0.00    -0.000 C 
BRANCH  28  29
ATOM     29  C   UNL     1       8.319   7.560  14.586  1.00  0.00    -0.000 C 
BRANCH  29  30
ATOM     30  C   UNL     1       8.079   7.457  13.073  1.00  0.00    -0.000 C 
BRANCH  30  31
ATOM     31  C   UNL     1       7.917   5.996  12.641  1.00  0.00    -0.003 C 
ATOM     32  C   UNL     1       6.986   5.880  11.437  1.00  0.00     0.004 C 
ENDBRANCH  30  31
ENDBRANCH  29  30
ENDBRANCH  28  29
ENDBRANCH  27  28
ENDBRANCH  26  27
ENDBRANCH  25  26
ENDBRANCH  24  25
ENDBRANCH  23  24
ENDBRANCH  22  23
ENDBRANCH  21  22
ENDBRANCH  20  21
ENDBRANCH  19  20
ENDBRANCH  18  19
ENDBRANCH   1  18
TORSDOF 28
ENDMDL
MODEL 8
REMARK VINA RESULT:    -4.604      1.515      2.903
REMARK INTER + INTRA:         -16.260
REMARK INTER:                 -13.002
REMARK INTRA:                  -3.259
REMARK UNBOUND:                -4.120
REMARK SMILES CCCCCCCCCCCCCCCCCCCCCCCCCCCCCC(=O)[O-]
REMARK SMILES IDX 16 1 17 2 18 3 19 4 20 5 21 6 22 7 23 8 24 9 25 10 26 11
REMARK SMILES IDX 27 12 28 13 29 14 30 15 31 16 32 17 15 18 14 19 13 20 12 21
REMARK SMILES IDX 11 22 10 23 9 24 8 25 7 26 6 27 5 28 4 29 3 30 2 31 1 32
REMARK H PARENT
REMARK Flexibility Score: inf
ROOT
ATOM      1  C   UNL     1      10.041   6.837  21.753  1.00  0.00     0.000 C 
ENDROOT
BRANCH   1   2
ATOM      2  C   UNL     1      11.575   6.785  21.843  1.00  0.00     0.000 C 
BRANCH   2   3
ATOM      3  C   UNL     1      12.204   8.163  22.114  1.00  0.00     0.000 C 
BRANCH   3   4
ATOM      4  C   UNL     1      13.706   8.206  21.785  1.00  0.00     0.000 C 
BRANCH   4   5
ATOM      5  C   UNL     1      14.373   9.496  22.297  1.00  0.00     0.000 C 
BRANCH   5   6
ATOM      6  C   UNL     1      14.881   9.369  23.742  1.00  0.00     0.000 C 
BRANCH   6   7
ATOM      7  C   UNL     1      15.271   7.926  24.115  1.00  0.00     0.000 C 
BRANCH   7   8
ATOM      8  C   UNL     1      14.691   7.514  25.475  1.00  0.00     0.000 C 
BRANCH   8   9
ATOM      9  C   UNL     1      13.447   6.619  25.325  1.00  0.00     0.000 C 
BRANCH   9  10
ATOM     10  C   UNL     1      12.156   7.330  25.759  1.00  0.00     0.000 C 
BRANCH  10  11
ATOM     11  C   UNL     1      11.649   6.815  27.119  1.00  0.00     0.000 C 
BRANCH  11  12
ATOM     12  C   UNL     1      10.310   6.071  27.013  1.00  0.00     0.000 C 
BRANCH  12  13
ATOM     13  C   UNL     1      10.459   4.554  27.225  1.00  0.00     0.006 C 
BRANCH  13  14
ATOM     14  C   UNL     1       9.611   4.052  28.402  1.00  0.00     0.053 C 
BRANCH  14  15
ATOM     15  C   UNL     1      10.114   4.575  29.714  1.00  0.00     0.041 C 
ATOM     16  O   UNL     1      11.230   4.203  30.161  1.00  0.00    -0.550 OA
ATOM     17  O   UNL     1       9.355   5.487  30.435  1.00  0.00    -0.550 OA
ENDBRANCH  14  15
ENDBRANCH  13  14
ENDBRANCH  12  13
ENDBRANCH  11  12
ENDBRANCH  10  11
ENDBRANCH   9  10
ENDBRANCH   8   9
ENDBRANCH   7   8
ENDBRANCH   6   7
ENDBRANCH   5   6
ENDBRANCH   4   5
ENDBRANCH   3   4
ENDBRANCH   2   3
ENDBRANCH   1   2
BRANCH   1  18
ATOM     18  C   UNL     1       9.528   8.049  20.956  1.00  0.00     0.000 C 
BRANCH  18  19
ATOM     19  C   UNL     1       8.023   8.302  21.161  1.00  0.00     0.000 C 
BRANCH  19  20
ATOM     20  C   UNL     1       7.124   7.134  20.711  1.00  0.00     0.000 C 
BRANCH  20  21
ATOM     21  C   UNL     1       6.122   7.546  19.616  1.00  0.00     0.000 C 
BRANCH  21  22
ATOM     22  C   UNL     1       6.789   8.340  18.473  1.00  0.00     0.000 C 
BRANCH  22  23
ATOM     23  C   UNL     1       6.165   9.726  18.224  1.00  0.00     0.000 C 
BRANCH  23  24
ATOM     24  C   UNL     1       5.305   9.837  16.952  1.00  0.00    -0.000 C 
BRANCH  24  25
ATOM     25  C   UNL     1       3.781   9.740  17.177  1.00  0.00    -0.000 C 
BRANCH  25  26
ATOM     26  C   UNL     1       3.110   8.574  16.419  1.00  0.00    -0.000 C 
BRANCH  26  27
ATOM     27  C   UNL     1       3.565   7.199  16.936  1.00  0.00    -0.000 C 
BRANCH  27  28
ATOM     28  C   UNL     1       4.170   6.322  15.825  1.00  0.00    -0.000 C 
BRANCH  28  29
ATOM     29  C   UNL     1       4.497   7.084  14.528  1.00  0.00    -0.000 C 
BRANCH  29  30
ATOM     30  C   UNL     1       5.907   6.780  14.004  1.00  0.00    -0.000 C 
BRANCH  30  31
ATOM     31  C   UNL     1       6.965   7.064  15.076  1.00  0.00    -0.003 C 
ATOM     32  C   UNL     1       8.308   7.416  14.442  1.00  0.00     0.004 C 
ENDBRANCH  30  31
ENDBRANCH  29  30
ENDBRANCH  28  29
ENDBRANCH  27  28
ENDBRANCH  26  27
ENDBRANCH  25  26
ENDBRANCH  24  25
ENDBRANCH  23  24
ENDBRANCH  22  23
ENDBRANCH  21  22
ENDBRANCH  20  21
ENDBRANCH  19  20
ENDBRANCH  18  19
ENDBRANCH   1  18
TORSDOF 28
ENDMDL
MODEL 9
REMARK VINA RESULT:    -4.577      4.377     11.160
REMARK INTER + INTRA:         -16.190
REMARK INTER:                 -12.793
REMARK INTRA:                  -3.397
REMARK UNBOUND:                -4.120
REMARK SMILES CCCCCCCCCCCCCCCCCCCCCCCCCCCCCC(=O)[O-]
REMARK SMILES IDX 16 1 17 2 18 3 19 4 20 5 21 6 22 7 23 8 24 9 25 10 26 11
REMARK SMILES IDX 27 12 28 13 29 14 30 15 31 16 32 17 15 18 14 19 13 20 12 21
REMARK SMILES IDX 11 22 10 23 9 24 8 25 7 26 6 27 5 28 4 29 3 30 2 31 1 32
REMARK H PARENT
REMARK Flexibility Score: inf
ROOT
ATOM      1  C   UNL     1       5.102   8.159  21.986  1.00  0.00     0.000 C 
ENDROOT
BRANCH   1   2
ATOM      2  C   UNL     1       5.625   6.843  21.387  1.00  0.00     0.000 C 
BRANCH   2   3
ATOM      3  C   UNL     1       6.604   7.066  20.221  1.00  0.00     0.000 C 
BRANCH   3   4
ATOM      4  C   UNL     1       5.894   7.485  18.922  1.00  0.00     0.000 C 
BRANCH   4   5
ATOM      5  C   UNL     1       6.236   8.932  18.519  1.00  0.00     0.000 C 
BRANCH   5   6
ATOM      6  C   UNL     1       4.997   9.838  18.446  1.00  0.00     0.000 C 
BRANCH   6   7
ATOM      7  C   UNL     1       4.377   9.891  17.037  1.00  0.00     0.000 C 
BRANCH   7   8
ATOM      8  C   UNL     1       3.029   9.159  16.981  1.00  0.00     0.000 C 
BRANCH   8   9
ATOM      9  C   UNL     1       2.915   8.251  15.743  1.00  0.00     0.000 C 
BRANCH   9  10
ATOM     10  C   UNL     1       3.771   6.981  15.866  1.00  0.00     0.000 C 
BRANCH  10  11
ATOM     11  C   UNL     1       4.888   6.939  14.807  1.00  0.00     0.000 C 
BRANCH  11  12
ATOM     12  C   UNL     1       6.260   6.587  15.401  1.00  0.00     0.000 C 
BRANCH  12  13
ATOM     13  C   UNL     1       7.328   7.651  15.091  1.00  0.00     0.006 C 
BRANCH  13  14
ATOM     14  C   UNL     1       8.414   7.117  14.146  1.00  0.00     0.053 C 
BRANCH  14  15
ATOM     15  C   UNL     1       8.123   7.455  12.715  1.00  0.00     0.041 C 
ATOM     16  O   UNL     1       7.412   6.689  12.013  1.00  0.00    -0.550 OA
ATOM     17  O   UNL     1       8.625   8.625  12.161  1.00  0.00    -0.550 OA
ENDBRANCH  14  15
ENDBRANCH  13  14
ENDBRANCH  12  13
ENDBRANCH  11  12
ENDBRANCH  10  11
ENDBRANCH   9  10
ENDBRANCH   8   9
ENDBRANCH   7   8
ENDBRANCH   6   7
ENDBRANCH   5   6
ENDBRANCH   4   5
ENDBRANCH   3   4
ENDBRANCH   2   3
ENDBRANCH   1   2
BRANCH   1  18
ATOM     18  C   UNL     1       6.001   8.708  23.106  1.00  0.00     0.000 C 
BRANCH  18  19
ATOM     19  C   UNL     1       6.978   9.790  22.608  1.00  0.00     0.000 C 
BRANCH  19  20
ATOM     20  C   UNL     1       8.463   9.449  22.841  1.00  0.00     0.000 C 
BRANCH  20  21
ATOM     21  C   UNL     1       9.239   9.256  21.525  1.00  0.00     0.000 C 
BRANCH  21  22
ATOM     22  C   UNL     1       9.834   7.839  21.391  1.00  0.00     0.000 C 
BRANCH  22  23
ATOM     23  C   UNL     1      11.313   7.736  21.811  1.00  0.00     0.000 C 
BRANCH  23  24
ATOM     24  C   UNL     1      11.601   6.750  22.958  1.00  0.00    -0.000 C 
BRANCH  24  25
ATOM     25  C   UNL     1      12.398   7.334  24.144  1.00  0.00    -0.000 C 
BRANCH  25  26
ATOM     26  C   UNL     1      11.558   7.535  25.424  1.00  0.00    -0.000 C 
BRANCH  26  27
ATOM     27  C   UNL     1      12.309   7.104  26.694  1.00  0.00    -0.000 C 
BRANCH  27  28
ATOM     28  C   UNL     1      11.668   5.880  27.372  1.00  0.00    -0.000 C 
BRANCH  28  29
ATOM     29  C   UNL     1      10.151   5.755  27.143  1.00  0.00    -0.000 C 
BRANCH  29  30
ATOM     30  C   UNL     1       9.375   5.516  28.446  1.00  0.00    -0.000 C 
BRANCH  30  31
ATOM     31  C   UNL     1       8.660   6.792  28.902  1.00  0.00    -0.003 C 
ATOM     32  C   UNL     1       9.000   7.124  30.352  1.00  0.00     0.004 C 
ENDBRANCH  30  31
ENDBRANCH  29  30
ENDBRANCH  28  29
ENDBRANCH  27  28
ENDBRANCH  26  27
ENDBRANCH  25  26
ENDBRANCH  24  25
ENDBRANCH  23  24
ENDBRANCH  22  23
ENDBRANCH  21  22
ENDBRANCH  20  21
ENDBRANCH  19  20
ENDBRANCH  18  19
ENDBRANCH   1  18
TORSDOF 28
ENDMDL
