MODEL 1
REMARK VINA RESULT:    -7.656      0.000      0.000
REMARK INTER + INTRA:         -11.144
REMARK INTER:                 -10.565
REMARK INTRA:                  -0.579
REMARK UNBOUND:                -0.579
REMARK SMILES O=C([O-])[C@H]1O[C@@H](Oc2cc3oc(-c4ccccc4)cc(=O)c3c(O)c2O)[C@H](O)[C@@H](O)[C@@H]1O
REMARK SMILES IDX 7 1 6 2 4 3 31 4 5 5 29 6 27 7 2 8 1 9 3 10 32 11 30 13
REMARK SMILES IDX 28 15 8 17 25 18 9 19 23 20 10 21 22 22 11 23 20 24 12 25
REMARK SMILES IDX 19 26 21 27 26 28 24 30 13 32 14 33 18 34 15 35 17 36 16 37
REMARK H PARENT 32 12 30 14 28 16 26 29 24 31
REMARK Flexibility Score: inf
ROOT
ATOM      1  O   UNL     1      18.292  27.990  29.922  1.00  0.00    -0.458 OA
ENDROOT
BRANCH   1   2
ATOM      2  C   UNL     1      19.267  27.145  29.301  1.00  0.00     0.339 C 
ATOM      3  C   UNL     1      20.163  28.812  27.853  1.00  0.00     0.199 C 
ATOM      4  C   UNL     1      19.605  28.128  26.574  1.00  0.00     0.180 C 
ATOM      5  O   UNL     1      20.411  27.891  28.908  1.00  0.00    -0.328 OA
ATOM      6  C   UNL     1      18.420  27.187  26.873  1.00  0.00     0.181 C 
ATOM      7  C   UNL     1      18.652  26.333  28.137  1.00  0.00     0.214 C 
BRANCH   3   8
ATOM      8  C   UNL     1      19.398  30.030  28.320  1.00  0.00     0.073 C 
ATOM      9  O   UNL     1      18.306  30.354  27.781  1.00  0.00    -0.547 OA
ATOM     10  O   UNL     1      19.959  30.873  29.272  1.00  0.00    -0.547 OA
ENDBRANCH   3   8
BRANCH   4  11
ATOM     11  O   UNL     1      20.630  27.383  25.963  1.00  0.00    -0.387 OA
ATOM     12  H   UNL     1      21.432  27.968  25.923  1.00  0.00     0.211 HD
ENDBRANCH   4  11
BRANCH   6  13
ATOM     13  O   UNL     1      17.206  27.894  26.941  1.00  0.00    -0.387 OA
ATOM     14  H   UNL     1      16.887  28.052  26.018  1.00  0.00     0.211 HD
ENDBRANCH   6  13
BRANCH   7  15
ATOM     15  O   UNL     1      19.449  25.211  27.836  1.00  0.00    -0.384 OA
ATOM     16  H   UNL     1      19.361  25.023  26.866  1.00  0.00     0.211 HD
ENDBRANCH   7  15
ENDBRANCH   1   2
BRANCH   1  17
ATOM     17  C   UNL     1      18.381  28.424  31.251  1.00  0.00     0.172 A 
ATOM     18  C   UNL     1      19.133  27.712  32.203  1.00  0.00     0.201 A 
ATOM     19  C   UNL     1      17.738  29.608  31.610  1.00  0.00     0.098 A 
ATOM     20  C   UNL     1      19.167  28.156  33.549  1.00  0.00     0.176 A 
ATOM     21  C   UNL     1      17.789  30.075  32.921  1.00  0.00     0.146 A 
ATOM     22  C   UNL     1      18.497  29.353  33.908  1.00  0.00     0.111 A 
ATOM     23  O   UNL     1      17.157  31.203  33.228  1.00  0.00    -0.456 OA
ATOM     24  C   UNL     1      18.493  29.873  35.221  1.00  0.00     0.197 A 
ATOM     25  C   UNL     1      17.144  31.726  34.451  1.00  0.00     0.138 A 
ATOM     26  C   UNL     1      17.814  31.062  35.491  1.00  0.00     0.100 A 
ATOM     27  O   UNL     1      19.090  29.287  36.163  1.00  0.00    -0.289 OA
BRANCH  18  28
ATOM     28  O   UNL     1      19.862  26.601  31.770  1.00  0.00    -0.502 OA
ATOM     29  H   UNL     1      20.438  26.027  32.370  1.00  0.00     0.293 HD
ENDBRANCH  18  28
BRANCH  20  30
ATOM     30  O   UNL     1      19.845  27.432  34.537  1.00  0.00    -0.504 OA
ATOM     31  H   UNL     1      20.474  26.664  34.350  1.00  0.00     0.293 HD
ENDBRANCH  20  30
BRANCH  25  32
ATOM     32  C   UNL     1      16.405  32.993  34.678  1.00  0.00     0.017 A 
ATOM     33  C   UNL     1      16.313  33.580  35.957  1.00  0.00     0.012 A 
ATOM     34  C   UNL     1      15.801  33.648  33.588  1.00  0.00     0.012 A 
ATOM     35  C   UNL     1      15.618  34.780  36.137  1.00  0.00     0.001 A 
ATOM     36  C   UNL     1      15.106  34.847  33.775  1.00  0.00     0.001 A 
ATOM     37  C   UNL     1      15.013  35.411  35.049  1.00  0.00     0.000 A 
ENDBRANCH  25  32
ENDBRANCH   1  17
TORSDOF 9
ENDMDL
MODEL 2
REMARK VINA RESULT:    -7.650      0.778      2.378
REMARK INTER + INTRA:         -11.136
REMARK INTER:                  -9.554
REMARK INTRA:                  -1.583
REMARK UNBOUND:                -0.579
REMARK SMILES O=C([O-])[C@H]1O[C@@H](Oc2cc3oc(-c4ccccc4)cc(=O)c3c(O)c2O)[C@H](O)[C@@H](O)[C@@H]1O
REMARK SMILES IDX 7 1 6 2 4 3 31 4 5 5 29 6 27 7 2 8 1 9 3 10 32 11 30 13
REMARK SMILES IDX 28 15 8 17 25 18 9 19 23 20 10 21 22 22 11 23 20 24 12 25
REMARK SMILES IDX 19 26 21 27 26 28 24 30 13 32 14 33 18 34 15 35 17 36 16 37
REMARK H PARENT 32 12 30 14 28 16 26 29 24 31
REMARK Flexibility Score: inf
ROOT
ATOM      1  O   UNL     1      18.289  28.075  29.641  1.00  0.00    -0.458 OA
ENDROOT
BRANCH   1   2
ATOM      2  C   UNL     1      18.382  28.989  28.543  1.00  0.00     0.339 C 
ATOM      3  C   UNL     1      19.498  27.494  27.061  1.00  0.00     0.199 C 
ATOM      4  C   UNL     1      20.822  28.307  27.094  1.00  0.00     0.180 C 
ATOM      5  O   UNL     1      18.350  28.298  27.301  1.00  0.00    -0.328 OA
ATOM      6  C   UNL     1      20.937  29.202  28.346  1.00  0.00     0.181 C 
ATOM      7  C   UNL     1      19.612  29.917  28.681  1.00  0.00     0.214 C 
BRANCH   3   8
ATOM      8  C   UNL     1      19.497  26.228  27.887  1.00  0.00     0.073 C 
ATOM      9  O   UNL     1      20.485  25.924  28.607  1.00  0.00    -0.547 OA
ATOM     10  O   UNL     1      18.448  25.324  27.762  1.00  0.00    -0.547 OA
ENDBRANCH   3   8
BRANCH   4  11
ATOM     11  O   UNL     1      20.895  29.121  25.950  1.00  0.00    -0.387 OA
ATOM     12  H   UNL     1      21.303  28.574  25.228  1.00  0.00     0.211 HD
ENDBRANCH   4  11
BRANCH   6  13
ATOM     13  O   UNL     1      21.431  28.482  29.449  1.00  0.00    -0.387 OA
ATOM     14  H   UNL     1      21.189  28.974  30.273  1.00  0.00     0.211 HD
ENDBRANCH   6  13
BRANCH   7  15
ATOM     15  O   UNL     1      19.458  31.070  27.888  1.00  0.00    -0.384 OA
ATOM     16  H   UNL     1      18.782  31.653  28.320  1.00  0.00     0.211 HD
ENDBRANCH   7  15
ENDBRANCH   1   2
BRANCH   1  17
ATOM     17  C   UNL     1      18.363  28.472  30.982  1.00  0.00     0.172 A 
ATOM     18  C   UNL     1      19.098  27.729  31.925  1.00  0.00     0.201 A 
ATOM     19  C   UNL     1      17.723  29.650  31.365  1.00  0.00     0.098 A 
ATOM     20  C   UNL     1      19.116  28.136  33.283  1.00  0.00     0.176 A 
ATOM     21  C   UNL     1      17.758  30.081  32.689  1.00  0.00     0.146 A 
ATOM     22  C   UNL     1      18.449  29.327  33.665  1.00  0.00     0.111 A 
ATOM     23  O   UNL     1      17.129  31.204  33.018  1.00  0.00    -0.456 OA
ATOM     24  C   UNL     1      18.429  29.811  34.992  1.00  0.00     0.197 A 
ATOM     25  C   UNL     1      17.103  31.693  34.255  1.00  0.00     0.138 A 
ATOM     26  C   UNL     1      17.754  30.996  35.285  1.00  0.00     0.100 A 
ATOM     27  O   UNL     1      19.010  29.196  35.926  1.00  0.00    -0.289 OA
BRANCH  18  28
ATOM     28  O   UNL     1      19.826  26.626  31.472  1.00  0.00    -0.502 OA
ATOM     29  H   UNL     1      20.806  26.472  31.662  1.00  0.00     0.293 HD
ENDBRANCH  18  28
BRANCH  20  30
ATOM     30  O   UNL     1      19.776  27.381  34.259  1.00  0.00    -0.504 OA
ATOM     31  H   UNL     1      20.700  26.988  34.148  1.00  0.00     0.293 HD
ENDBRANCH  20  30
BRANCH  25  32
ATOM     32  C   UNL     1      16.367  32.958  34.507  1.00  0.00     0.017 A 
ATOM     33  C   UNL     1      16.250  33.503  35.802  1.00  0.00     0.012 A 
ATOM     34  C   UNL     1      15.796  33.654  33.425  1.00  0.00     0.012 A 
ATOM     35  C   UNL     1      15.560  34.702  36.005  1.00  0.00     0.001 A 
ATOM     36  C   UNL     1      15.106  34.852  33.635  1.00  0.00     0.001 A 
ATOM     37  C   UNL     1      14.986  35.375  34.924  1.00  0.00     0.000 A 
ENDBRANCH  25  32
ENDBRANCH   1  17
TORSDOF 9
ENDMDL
MODEL 3
REMARK VINA RESULT:    -7.544      2.467      8.543
REMARK INTER + INTRA:         -10.990
REMARK INTER:                  -9.563
REMARK INTRA:                  -1.427
REMARK UNBOUND:                -0.579
REMARK SMILES O=C([O-])[C@H]1O[C@@H](Oc2cc3oc(-c4ccccc4)cc(=O)c3c(O)c2O)[C@H](O)[C@@H](O)[C@@H]1O
REMARK SMILES IDX 7 1 6 2 4 3 31 4 5 5 29 6 27 7 2 8 1 9 3 10 32 11 30 13
REMARK SMILES IDX 28 15 8 17 25 18 9 19 23 20 10 21 22 22 11 23 20 24 12 25
REMARK SMILES IDX 19 26 21 27 26 28 24 30 13 32 14 33 18 34 15 35 17 36 16 37
REMARK H PARENT 32 12 30 14 28 16 26 29 24 31
REMARK Flexibility Score: inf
ROOT
ATOM      1  O   UNL     1      17.574  32.235  35.215  1.00  0.00    -0.458 OA
ENDROOT
BRANCH   1   2
ATOM      2  C   UNL     1      16.192  32.405  35.549  1.00  0.00     0.339 C 
ATOM      3  C   UNL     1      16.322  34.742  35.993  1.00  0.00     0.199 C 
ATOM      4  C   UNL     1      16.068  34.558  37.516  1.00  0.00     0.180 C 
ATOM      5  O   UNL     1      15.742  33.709  35.207  1.00  0.00    -0.328 OA
ATOM      6  C   UNL     1      16.407  33.135  38.005  1.00  0.00     0.181 C 
ATOM      7  C   UNL     1      15.919  32.045  37.028  1.00  0.00     0.214 C 
BRANCH   3   8
ATOM      8  C   UNL     1      17.757  35.021  35.608  1.00  0.00     0.073 C 
ATOM      9  O   UNL     1      18.661  35.089  36.483  1.00  0.00    -0.547 OA
ATOM     10  O   UNL     1      18.070  35.327  34.288  1.00  0.00    -0.547 OA
ENDBRANCH   3   8
BRANCH   4  11
ATOM     11  O   UNL     1      14.715  34.821  37.794  1.00  0.00    -0.387 OA
ATOM     12  H   UNL     1      14.322  35.225  36.976  1.00  0.00     0.211 HD
ENDBRANCH   4  11
BRANCH   6  13
ATOM     13  O   UNL     1      17.779  33.001  38.288  1.00  0.00    -0.387 OA
ATOM     14  H   UNL     1      17.877  32.397  39.065  1.00  0.00     0.211 HD
ENDBRANCH   6  13
BRANCH   7  15
ATOM     15  O   UNL     1      14.552  31.775  37.232  1.00  0.00    -0.384 OA
ATOM     16  H   UNL     1      14.147  32.560  37.682  1.00  0.00     0.211 HD
ENDBRANCH   7  15
ENDBRANCH   1   2
BRANCH   1  17
ATOM     17  C   UNL     1      18.117  31.023  34.771  1.00  0.00     0.172 A 
ATOM     18  C   UNL     1      18.787  30.155  35.652  1.00  0.00     0.201 A 
ATOM     19  C   UNL     1      17.946  30.667  33.434  1.00  0.00     0.098 A 
ATOM     20  C   UNL     1      19.362  28.956  35.160  1.00  0.00     0.176 A 
ATOM     21  C   UNL     1      18.475  29.477  32.941  1.00  0.00     0.146 A 
ATOM     22  C   UNL     1      19.195  28.610  33.796  1.00  0.00     0.111 A 
ATOM     23  O   UNL     1      18.300  29.174  31.659  1.00  0.00    -0.456 OA
ATOM     24  C   UNL     1      19.721  27.429  33.228  1.00  0.00     0.197 A 
ATOM     25  C   UNL     1      18.771  28.064  31.097  1.00  0.00     0.138 A 
ATOM     26  C   UNL     1      19.509  27.158  31.875  1.00  0.00     0.100 A 
ATOM     27  O   UNL     1      20.384  26.606  33.914  1.00  0.00    -0.289 OA
BRANCH  18  28
ATOM     28  O   UNL     1      18.826  30.494  37.007  1.00  0.00    -0.502 OA
ATOM     29  H   UNL     1      19.438  31.193  37.403  1.00  0.00     0.293 HD
ENDBRANCH  18  28
BRANCH  20  30
ATOM     30  O   UNL     1      20.097  28.106  35.995  1.00  0.00    -0.504 OA
ATOM     31  H   UNL     1      20.043  28.111  37.003  1.00  0.00     0.293 HD
ENDBRANCH  20  30
BRANCH  25  32
ATOM     32  C   UNL     1      18.513  27.830  29.654  1.00  0.00     0.017 A 
ATOM     33  C   UNL     1      18.213  28.888  28.772  1.00  0.00     0.012 A 
ATOM     34  C   UNL     1      18.598  26.523  29.139  1.00  0.00     0.012 A 
ATOM     35  C   UNL     1      17.985  28.636  27.416  1.00  0.00     0.001 A 
ATOM     36  C   UNL     1      18.368  26.277  27.782  1.00  0.00     0.001 A 
ATOM     37  C   UNL     1      18.059  27.333  26.921  1.00  0.00     0.000 A 
ENDBRANCH  25  32
ENDBRANCH   1  17
TORSDOF 9
ENDMDL
MODEL 4
REMARK VINA RESULT:    -7.486      2.224      8.690
REMARK INTER + INTRA:         -10.910
REMARK INTER:                  -9.426
REMARK INTRA:                  -1.485
REMARK UNBOUND:                -0.579
REMARK SMILES O=C([O-])[C@H]1O[C@@H](Oc2cc3oc(-c4ccccc4)cc(=O)c3c(O)c2O)[C@H](O)[C@@H](O)[C@@H]1O
REMARK SMILES IDX 7 1 6 2 4 3 31 4 5 5 29 6 27 7 2 8 1 9 3 10 32 11 30 13
REMARK SMILES IDX 28 15 8 17 25 18 9 19 23 20 10 21 22 22 11 23 20 24 12 25
REMARK SMILES IDX 19 26 21 27 26 28 24 30 13 32 14 33 18 34 15 35 17 36 16 37
REMARK H PARENT 32 12 30 14 28 16 26 29 24 31
REMARK Flexibility Score: inf
ROOT
ATOM      1  O   UNL     1      18.085  30.966  32.490  1.00  0.00    -0.458 OA
ENDROOT
BRANCH   1   2
ATOM      2  C   UNL     1      16.916  30.681  33.266  1.00  0.00     0.339 C 
ATOM      3  C   UNL     1      16.728  32.845  34.246  1.00  0.00     0.199 C 
ATOM      4  C   UNL     1      17.089  32.331  35.668  1.00  0.00     0.180 C 
ATOM      5  O   UNL     1      16.121  31.848  33.436  1.00  0.00    -0.328 OA
ATOM      6  C   UNL     1      17.860  30.995  35.638  1.00  0.00     0.181 C 
ATOM      7  C   UNL     1      17.279  30.004  34.609  1.00  0.00     0.214 C 
BRANCH   3   8
ATOM      8  C   UNL     1      17.837  33.577  33.525  1.00  0.00     0.073 C 
ATOM      9  O   UNL     1      18.957  33.758  34.073  1.00  0.00    -0.547 OA
ATOM     10  O   UNL     1      17.587  34.163  32.290  1.00  0.00    -0.547 OA
ENDBRANCH   3   8
BRANCH   4  11
ATOM     11  O   UNL     1      15.907  32.152  36.409  1.00  0.00    -0.387 OA
ATOM     12  H   UNL     1      15.417  31.393  35.999  1.00  0.00     0.211 HD
ENDBRANCH   4  11
BRANCH   6  13
ATOM     13  O   UNL     1      19.237  31.201  35.438  1.00  0.00    -0.387 OA
ATOM     14  H   UNL     1      19.462  32.114  35.745  1.00  0.00     0.211 HD
ENDBRANCH   6  13
BRANCH   7  15
ATOM     15  O   UNL     1      16.163  29.331  35.146  1.00  0.00    -0.384 OA
ATOM     16  H   UNL     1      16.398  28.372  35.238  1.00  0.00     0.211 HD
ENDBRANCH   7  15
ENDBRANCH   1   2
BRANCH   1  17
ATOM     17  C   UNL     1      18.360  30.357  31.259  1.00  0.00     0.172 A 
ATOM     18  C   UNL     1      18.464  31.113  30.077  1.00  0.00     0.201 A 
ATOM     19  C   UNL     1      18.569  28.979  31.229  1.00  0.00     0.098 A 
ATOM     20  C   UNL     1      18.700  30.459  28.841  1.00  0.00     0.176 A 
ATOM     21  C   UNL     1      18.835  28.326  30.028  1.00  0.00     0.146 A 
ATOM     22  C   UNL     1      18.897  29.056  28.819  1.00  0.00     0.111 A 
ATOM     23  O   UNL     1      19.021  27.010  30.037  1.00  0.00    -0.456 OA
ATOM     24  C   UNL     1      19.152  28.329  27.635  1.00  0.00     0.197 A 
ATOM     25  C   UNL     1      19.275  26.299  28.943  1.00  0.00     0.138 A 
ATOM     26  C   UNL     1      19.340  26.948  27.699  1.00  0.00     0.100 A 
ATOM     27  O   UNL     1      19.214  28.899  26.513  1.00  0.00    -0.289 OA
BRANCH  18  28
ATOM     28  O   UNL     1      18.370  32.504  30.175  1.00  0.00    -0.502 OA
ATOM     29  H   UNL     1      19.108  33.145  29.918  1.00  0.00     0.293 HD
ENDBRANCH  18  28
BRANCH  20  30
ATOM     30  O   UNL     1      18.738  31.173  27.637  1.00  0.00    -0.504 OA
ATOM     31  H   UNL     1      17.931  31.359  27.060  1.00  0.00     0.293 HD
ENDBRANCH  20  30
BRANCH  25  32
ATOM     32  C   UNL     1      19.467  24.832  29.072  1.00  0.00     0.017 A 
ATOM     33  C   UNL     1      18.764  23.917  28.262  1.00  0.00     0.012 A 
ATOM     34  C   UNL     1      20.396  24.335  30.006  1.00  0.00     0.012 A 
ATOM     35  C   UNL     1      18.974  22.542  28.401  1.00  0.00     0.001 A 
ATOM     36  C   UNL     1      20.600  22.959  30.141  1.00  0.00     0.001 A 
ATOM     37  C   UNL     1      19.888  22.062  29.341  1.00  0.00     0.000 A 
ENDBRANCH  25  32
ENDBRANCH   1  17
TORSDOF 9
ENDMDL
MODEL 5
REMARK VINA RESULT:    -7.380      2.281      8.152
REMARK INTER + INTRA:         -10.764
REMARK INTER:                  -9.235
REMARK INTRA:                  -1.528
REMARK UNBOUND:                -0.579
REMARK SMILES O=C([O-])[C@H]1O[C@@H](Oc2cc3oc(-c4ccccc4)cc(=O)c3c(O)c2O)[C@H](O)[C@@H](O)[C@@H]1O
REMARK SMILES IDX 7 1 6 2 4 3 31 4 5 5 29 6 27 7 2 8 1 9 3 10 32 11 30 13
REMARK SMILES IDX 28 15 8 17 25 18 9 19 23 20 10 21 22 22 11 23 20 24 12 25
REMARK SMILES IDX 19 26 21 27 26 28 24 30 13 32 14 33 18 34 15 35 17 36 16 37
REMARK H PARENT 32 12 30 14 28 16 26 29 24 31
REMARK Flexibility Score: inf
ROOT
ATOM      1  O   UNL     1      16.833  32.245  34.583  1.00  0.00    -0.458 OA
ENDROOT
BRANCH   1   2
ATOM      2  C   UNL     1      16.664  33.319  33.652  1.00  0.00     0.339 C 
ATOM      3  C   UNL     1      18.119  34.847  34.759  1.00  0.00     0.199 C 
ATOM      4  C   UNL     1      16.957  35.794  35.171  1.00  0.00     0.180 C 
ATOM      5  O   UNL     1      17.840  34.114  33.573  1.00  0.00    -0.328 OA
ATOM      6  C   UNL     1      15.589  35.082  35.185  1.00  0.00     0.181 C 
ATOM      7  C   UNL     1      15.399  34.150  33.969  1.00  0.00     0.214 C 
BRANCH   3   8
ATOM      8  C   UNL     1      18.659  33.969  35.865  1.00  0.00     0.073 C 
ATOM      9  O   UNL     1      18.094  33.923  36.990  1.00  0.00    -0.547 OA
ATOM     10  O   UNL     1      19.861  33.294  35.684  1.00  0.00    -0.547 OA
ENDBRANCH   3   8
BRANCH   4  11
ATOM     11  O   UNL     1      16.897  36.872  34.270  1.00  0.00    -0.387 OA
ATOM     12  H   UNL     1      17.073  36.505  33.364  1.00  0.00     0.211 HD
ENDBRANCH   4  11
BRANCH   6  13
ATOM     13  O   UNL     1      15.374  34.402  36.397  1.00  0.00    -0.387 OA
ATOM     14  H   UNL     1      15.107  35.065  37.081  1.00  0.00     0.211 HD
ENDBRANCH   6  13
BRANCH   7  15
ATOM     15  O   UNL     1      14.990  34.887  32.841  1.00  0.00    -0.384 OA
ATOM     16  H   UNL     1      13.998  34.866  32.803  1.00  0.00     0.211 HD
ENDBRANCH   7  15
ENDBRANCH   1   2
BRANCH   1  17
ATOM     17  C   UNL     1      17.513  31.060  34.278  1.00  0.00     0.172 A 
ATOM     18  C   UNL     1      18.203  30.337  35.268  1.00  0.00     0.201 A 
ATOM     19  C   UNL     1      17.461  30.580  32.970  1.00  0.00     0.098 A 
ATOM     20  C   UNL     1      18.917  29.163  34.916  1.00  0.00     0.176 A 
ATOM     21  C   UNL     1      18.130  29.412  32.614  1.00  0.00     0.146 A 
ATOM     22  C   UNL     1      18.872  28.693  33.579  1.00  0.00     0.111 A 
ATOM     23  O   UNL     1      18.066  28.990  31.355  1.00  0.00    -0.456 OA
ATOM     24  C   UNL     1      19.541  27.526  33.147  1.00  0.00     0.197 A 
ATOM     25  C   UNL     1      18.673  27.889  30.920  1.00  0.00     0.138 A 
ATOM     26  C   UNL     1      19.441  27.126  31.814  1.00  0.00     0.100 A 
ATOM     27  O   UNL     1      20.232  26.832  33.939  1.00  0.00    -0.289 OA
BRANCH  18  28
ATOM     28  O   UNL     1      18.123  30.788  36.589  1.00  0.00    -0.502 OA
ATOM     29  H   UNL     1      17.440  30.467  37.260  1.00  0.00     0.293 HD
ENDBRANCH  18  28
BRANCH  20  30
ATOM     30  O   UNL     1      19.674  28.461  35.861  1.00  0.00    -0.504 OA
ATOM     31  H   UNL     1      19.883  27.475  35.805  1.00  0.00     0.293 HD
ENDBRANCH  20  30
BRANCH  25  32
ATOM     32  C   UNL     1      18.531  27.514  29.490  1.00  0.00     0.017 A 
ATOM     33  C   UNL     1      18.826  26.213  29.032  1.00  0.00     0.012 A 
ATOM     34  C   UNL     1      18.061  28.466  28.567  1.00  0.00     0.012 A 
ATOM     35  C   UNL     1      18.672  25.887  27.681  1.00  0.00     0.001 A 
ATOM     36  C   UNL     1      17.910  28.135  27.218  1.00  0.00     0.001 A 
ATOM     37  C   UNL     1      18.217  26.847  26.774  1.00  0.00     0.000 A 
ENDBRANCH  25  32
ENDBRANCH   1  17
TORSDOF 9
ENDMDL
MODEL 6
REMARK VINA RESULT:    -7.301      2.601      8.848
REMARK INTER + INTRA:         -10.654
REMARK INTER:                  -9.259
REMARK INTRA:                  -1.396
REMARK UNBOUND:                -0.579
REMARK SMILES O=C([O-])[C@H]1O[C@@H](Oc2cc3oc(-c4ccccc4)cc(=O)c3c(O)c2O)[C@H](O)[C@@H](O)[C@@H]1O
REMARK SMILES IDX 7 1 6 2 4 3 31 4 5 5 29 6 27 7 2 8 1 9 3 10 32 11 30 13
REMARK SMILES IDX 28 15 8 17 25 18 9 19 23 20 10 21 22 22 11 23 20 24 12 25
REMARK SMILES IDX 19 26 21 27 26 28 24 30 13 32 14 33 18 34 15 35 17 36 16 37
REMARK H PARENT 32 12 30 14 28 16 26 29 24 31
REMARK Flexibility Score: inf
ROOT
ATOM      1  O   UNL     1      18.241  32.962  34.025  1.00  0.00    -0.458 OA
ENDROOT
BRANCH   1   2
ATOM      2  C   UNL     1      17.867  31.897  34.906  1.00  0.00     0.339 C 
ATOM      3  C   UNL     1      15.940  32.974  35.803  1.00  0.00     0.199 C 
ATOM      4  C   UNL     1      16.577  33.137  37.212  1.00  0.00     0.180 C 
ATOM      5  O   UNL     1      16.458  31.859  35.089  1.00  0.00    -0.328 OA
ATOM      6  C   UNL     1      18.118  33.079  37.176  1.00  0.00     0.181 C 
ATOM      7  C   UNL     1      18.643  31.969  36.242  1.00  0.00     0.214 C 
BRANCH   3   8
ATOM      8  C   UNL     1      15.904  34.230  34.962  1.00  0.00     0.073 C 
ATOM      9  O   UNL     1      16.362  35.318  35.403  1.00  0.00    -0.547 OA
ATOM     10  O   UNL     1      15.251  34.219  33.735  1.00  0.00    -0.547 OA
ENDBRANCH   3   8
BRANCH   4  11
ATOM     11  O   UNL     1      16.106  32.114  38.054  1.00  0.00    -0.387 OA
ATOM     12  H   UNL     1      15.426  31.604  37.541  1.00  0.00     0.211 HD
ENDBRANCH   4  11
BRANCH   6  13
ATOM     13  O   UNL     1      18.673  34.331  36.856  1.00  0.00    -0.387 OA
ATOM     14  H   UNL     1      18.068  34.785  36.218  1.00  0.00     0.211 HD
ENDBRANCH   6  13
BRANCH   7  15
ATOM     15  O   UNL     1      18.624  30.722  36.897  1.00  0.00    -0.384 OA
ATOM     16  H   UNL     1      19.540  30.343  36.863  1.00  0.00     0.211 HD
ENDBRANCH   7  15
ENDBRANCH   1   2
BRANCH   1  17
ATOM     17  C   UNL     1      18.318  32.821  32.634  1.00  0.00     0.172 A 
ATOM     18  C   UNL     1      18.388  33.943  31.788  1.00  0.00     0.201 A 
ATOM     19  C   UNL     1      18.364  31.535  32.097  1.00  0.00     0.098 A 
ATOM     20  C   UNL     1      18.421  33.764  30.381  1.00  0.00     0.176 A 
ATOM     21  C   UNL     1      18.429  31.342  30.719  1.00  0.00     0.146 A 
ATOM     22  C   UNL     1      18.452  32.452  29.844  1.00  0.00     0.111 A 
ATOM     23  O   UNL     1      18.462  30.102  30.242  1.00  0.00    -0.456 OA
ATOM     24  C   UNL     1      18.500  32.186  28.458  1.00  0.00     0.197 A 
ATOM     25  C   UNL     1      18.521  29.817  28.944  1.00  0.00     0.138 A 
ATOM     26  C   UNL     1      18.534  30.865  28.009  1.00  0.00     0.100 A 
ATOM     27  O   UNL     1      18.512  33.116  27.608  1.00  0.00    -0.289 OA
BRANCH  18  28
ATOM     28  O   UNL     1      18.465  35.208  32.377  1.00  0.00    -0.502 OA
ATOM     29  H   UNL     1      18.180  36.065  31.925  1.00  0.00     0.293 HD
ENDBRANCH  18  28
BRANCH  20  30
ATOM     30  O   UNL     1      18.418  34.859  29.509  1.00  0.00    -0.504 OA
ATOM     31  H   UNL     1      18.449  34.786  28.503  1.00  0.00     0.293 HD
ENDBRANCH  20  30
BRANCH  25  32
ATOM     32  C   UNL     1      18.555  28.393  28.527  1.00  0.00     0.017 A 
ATOM     33  C   UNL     1      18.943  27.368  29.414  1.00  0.00     0.012 A 
ATOM     34  C   UNL     1      18.161  28.045  27.221  1.00  0.00     0.012 A 
ATOM     35  C   UNL     1      18.954  26.035  28.993  1.00  0.00     0.001 A 
ATOM     36  C   UNL     1      18.176  26.710  26.806  1.00  0.00     0.001 A 
ATOM     37  C   UNL     1      18.574  25.705  27.691  1.00  0.00     0.000 A 
ENDBRANCH  25  32
ENDBRANCH   1  17
TORSDOF 9
ENDMDL
MODEL 7
REMARK VINA RESULT:    -7.040      2.250      8.739
REMARK INTER + INTRA:         -10.294
REMARK INTER:                  -9.112
REMARK INTRA:                  -1.182
REMARK UNBOUND:                -0.579
REMARK SMILES O=C([O-])[C@H]1O[C@@H](Oc2cc3oc(-c4ccccc4)cc(=O)c3c(O)c2O)[C@H](O)[C@@H](O)[C@@H]1O
REMARK SMILES IDX 7 1 6 2 4 3 31 4 5 5 29 6 27 7 2 8 1 9 3 10 32 11 30 13
REMARK SMILES IDX 28 15 8 17 25 18 9 19 23 20 10 21 22 22 11 23 20 24 12 25
REMARK SMILES IDX 19 26 21 27 26 28 24 30 13 32 14 33 18 34 15 35 17 36 16 37
REMARK H PARENT 32 12 30 14 28 16 26 29 24 31
REMARK Flexibility Score: inf
ROOT
ATOM      1  O   UNL     1      18.041  30.981  32.495  1.00  0.00    -0.458 OA
ENDROOT
BRANCH   1   2
ATOM      2  C   UNL     1      18.992  31.756  33.233  1.00  0.00     0.339 C 
ATOM      3  C   UNL     1      18.502  30.802  35.361  1.00  0.00     0.199 C 
ATOM      4  C   UNL     1      17.878  32.117  35.906  1.00  0.00     0.180 C 
ATOM      5  O   UNL     1      19.480  31.031  34.354  1.00  0.00    -0.328 OA
ATOM      6  C   UNL     1      17.407  33.061  34.781  1.00  0.00     0.181 C 
ATOM      7  C   UNL     1      18.418  33.140  33.618  1.00  0.00     0.214 C 
BRANCH   3   8
ATOM      8  C   UNL     1      17.510  29.732  34.966  1.00  0.00     0.073 C 
ATOM      9  O   UNL     1      16.270  29.955  34.999  1.00  0.00    -0.547 OA
ATOM     10  O   UNL     1      17.958  28.449  34.678  1.00  0.00    -0.547 OA
ENDBRANCH   3   8
BRANCH   4  11
ATOM     11  O   UNL     1      18.831  32.790  36.692  1.00  0.00    -0.387 OA
ATOM     12  H   UNL     1      18.332  33.309  37.375  1.00  0.00     0.211 HD
ENDBRANCH   4  11
BRANCH   6  13
ATOM     13  O   UNL     1      16.120  32.720  34.327  1.00  0.00    -0.387 OA
ATOM     14  H   UNL     1      15.580  33.547  34.276  1.00  0.00     0.211 HD
ENDBRANCH   6  13
BRANCH   7  15
ATOM     15  O   UNL     1      19.454  34.043  33.923  1.00  0.00    -0.384 OA
ATOM     16  H   UNL     1      19.663  34.560  33.103  1.00  0.00     0.211 HD
ENDBRANCH   7  15
ENDBRANCH   1   2
BRANCH   1  17
ATOM     17  C   UNL     1      18.329  30.373  31.267  1.00  0.00     0.172 A 
ATOM     18  C   UNL     1      18.426  31.126  30.082  1.00  0.00     0.201 A 
ATOM     19  C   UNL     1      18.560  28.998  31.242  1.00  0.00     0.098 A 
ATOM     20  C   UNL     1      18.677  30.473  28.849  1.00  0.00     0.176 A 
ATOM     21  C   UNL     1      18.840  28.345  30.044  1.00  0.00     0.146 A 
ATOM     22  C   UNL     1      18.895  29.073  28.833  1.00  0.00     0.111 A 
ATOM     23  O   UNL     1      19.047  27.033  30.057  1.00  0.00    -0.456 OA
ATOM     24  C   UNL     1      19.165  28.346  27.652  1.00  0.00     0.197 A 
ATOM     25  C   UNL     1      19.316  26.322  28.966  1.00  0.00     0.138 A 
ATOM     26  C   UNL     1      19.375  26.968  27.720  1.00  0.00     0.100 A 
ATOM     27  O   UNL     1      19.222  28.913  26.528  1.00  0.00    -0.289 OA
BRANCH  18  28
ATOM     28  O   UNL     1      18.310  32.516  30.175  1.00  0.00    -0.502 OA
ATOM     29  H   UNL     1      17.579  32.995  30.682  1.00  0.00     0.293 HD
ENDBRANCH  18  28
BRANCH  20  30
ATOM     30  O   UNL     1      18.707  31.183  27.643  1.00  0.00    -0.504 OA
ATOM     31  H   UNL     1      18.099  31.000  26.859  1.00  0.00     0.293 HD
ENDBRANCH  20  30
BRANCH  25  32
ATOM     32  C   UNL     1      19.530  24.859  29.101  1.00  0.00     0.017 A 
ATOM     33  C   UNL     1      20.426  24.324  30.049  1.00  0.00     0.012 A 
ATOM     34  C   UNL     1      18.799  23.975  28.285  1.00  0.00     0.012 A 
ATOM     35  C   UNL     1      20.597  22.941  30.159  1.00  0.00     0.001 A 
ATOM     36  C   UNL     1      18.977  22.592  28.399  1.00  0.00     0.001 A 
ATOM     37  C   UNL     1      19.876  22.076  29.333  1.00  0.00     0.000 A 
ENDBRANCH  25  32
ENDBRANCH   1  17
TORSDOF 9
ENDMDL
MODEL 8
REMARK VINA RESULT:    -6.982      1.487      2.447
REMARK INTER + INTRA:         -10.214
REMARK INTER:                  -8.637
REMARK INTRA:                  -1.577
REMARK UNBOUND:                -0.579
REMARK SMILES O=C([O-])[C@H]1O[C@@H](Oc2cc3oc(-c4ccccc4)cc(=O)c3c(O)c2O)[C@H](O)[C@@H](O)[C@@H]1O
REMARK SMILES IDX 7 1 6 2 4 3 31 4 5 5 29 6 27 7 2 8 1 9 3 10 32 11 30 13
REMARK SMILES IDX 28 15 8 17 25 18 9 19 23 20 10 21 22 22 11 23 20 24 12 25
REMARK SMILES IDX 19 26 21 27 26 28 24 30 13 32 14 33 18 34 15 35 17 36 16 37
REMARK H PARENT 32 12 30 14 28 16 26 29 24 31
REMARK Flexibility Score: inf
ROOT
ATOM      1  O   UNL     1      19.016  29.463  30.369  1.00  0.00    -0.458 OA
ENDROOT
BRANCH   1   2
ATOM      2  C   UNL     1      18.472  28.414  29.560  1.00  0.00     0.339 C 
ATOM      3  C   UNL     1      20.549  27.339  29.106  1.00  0.00     0.199 C 
ATOM      4  C   UNL     1      20.522  27.724  27.601  1.00  0.00     0.180 C 
ATOM      5  O   UNL     1      19.250  27.229  29.672  1.00  0.00    -0.328 OA
ATOM      6  C   UNL     1      19.613  28.937  27.315  1.00  0.00     0.181 C 
ATOM      7  C   UNL     1      18.282  28.871  28.095  1.00  0.00     0.214 C 
BRANCH   3   8
ATOM      8  C   UNL     1      21.484  28.160  29.966  1.00  0.00     0.073 C 
ATOM      9  O   UNL     1      22.125  29.130  29.481  1.00  0.00    -0.547 OA
ATOM     10  O   UNL     1      21.735  27.772  31.276  1.00  0.00    -0.547 OA
ENDBRANCH   3   8
BRANCH   4  11
ATOM     11  O   UNL     1      20.061  26.628  26.851  1.00  0.00    -0.387 OA
ATOM     12  H   UNL     1      19.087  26.543  27.025  1.00  0.00     0.211 HD
ENDBRANCH   4  11
BRANCH   6  13
ATOM     13  O   UNL     1      20.286  30.151  27.543  1.00  0.00    -0.387 OA
ATOM     14  H   UNL     1      19.636  30.889  27.446  1.00  0.00     0.211 HD
ENDBRANCH   6  13
BRANCH   7  15
ATOM     15  O   UNL     1      17.361  28.040  27.429  1.00  0.00    -0.384 OA
ATOM     16  H   UNL     1      17.721  27.842  26.526  1.00  0.00     0.211 HD
ENDBRANCH   7  15
ENDBRANCH   1   2
BRANCH   1  17
ATOM     17  C   UNL     1      18.479  29.840  31.606  1.00  0.00     0.172 A 
ATOM     18  C   UNL     1      18.607  29.019  32.741  1.00  0.00     0.201 A 
ATOM     19  C   UNL     1      17.840  31.076  31.705  1.00  0.00     0.098 A 
ATOM     20  C   UNL     1      18.013  29.412  33.967  1.00  0.00     0.176 A 
ATOM     21  C   UNL     1      17.280  31.493  32.910  1.00  0.00     0.146 A 
ATOM     22  C   UNL     1      17.353  30.664  34.053  1.00  0.00     0.111 A 
ATOM     23  O   UNL     1      16.672  32.673  32.965  1.00  0.00    -0.456 OA
ATOM     24  C   UNL     1      16.748  31.139  35.238  1.00  0.00     0.197 A 
ATOM     25  C   UNL     1      16.105  33.154  34.068  1.00  0.00     0.138 A 
ATOM     26  C   UNL     1      16.122  32.386  35.243  1.00  0.00     0.100 A 
ATOM     27  O   UNL     1      16.757  30.460  36.300  1.00  0.00    -0.289 OA
BRANCH  18  28
ATOM     28  O   UNL     1      19.361  27.849  32.624  1.00  0.00    -0.502 OA
ATOM     29  H   UNL     1      19.803  27.537  31.770  1.00  0.00     0.293 HD
ENDBRANCH  18  28
BRANCH  20  30
ATOM     30  O   UNL     1      18.059  28.586  35.095  1.00  0.00    -0.504 OA
ATOM     31  H   UNL     1      17.271  28.068  35.455  1.00  0.00     0.293 HD
ENDBRANCH  20  30
BRANCH  25  32
ATOM     32  C   UNL     1      15.454  34.487  34.013  1.00  0.00     0.017 A 
ATOM     33  C   UNL     1      14.909  34.999  32.817  1.00  0.00     0.012 A 
ATOM     34  C   UNL     1      15.346  35.255  35.188  1.00  0.00     0.012 A 
ATOM     35  C   UNL     1      14.294  36.254  32.799  1.00  0.00     0.001 A 
ATOM     36  C   UNL     1      14.730  36.510  35.163  1.00  0.00     0.001 A 
ATOM     37  C   UNL     1      14.206  37.010  33.970  1.00  0.00     0.000 A 
ENDBRANCH  25  32
ENDBRANCH   1  17
TORSDOF 9
ENDMDL
MODEL 9
REMARK VINA RESULT:    -6.947      2.764      8.969
REMARK INTER + INTRA:         -10.165
REMARK INTER:                  -8.572
REMARK INTRA:                  -1.593
REMARK UNBOUND:                -0.579
REMARK SMILES O=C([O-])[C@H]1O[C@@H](Oc2cc3oc(-c4ccccc4)cc(=O)c3c(O)c2O)[C@H](O)[C@@H](O)[C@@H]1O
REMARK SMILES IDX 7 1 6 2 4 3 31 4 5 5 29 6 27 7 2 8 1 9 3 10 32 11 30 13
REMARK SMILES IDX 28 15 8 17 25 18 9 19 23 20 10 21 22 22 11 23 20 24 12 25
REMARK SMILES IDX 19 26 21 27 26 28 24 30 13 32 14 33 18 34 15 35 17 36 16 37
REMARK H PARENT 32 12 30 14 28 16 26 29 24 31
REMARK Flexibility Score: inf
ROOT
ATOM      1  O   UNL     1      18.276  32.406  34.391  1.00  0.00    -0.458 OA
ENDROOT
BRANCH   1   2
ATOM      2  C   UNL     1      17.132  32.862  35.121  1.00  0.00     0.339 C 
ATOM      3  C   UNL     1      18.336  34.243  36.644  1.00  0.00     0.199 C 
ATOM      4  C   UNL     1      18.024  33.328  37.861  1.00  0.00     0.180 C 
ATOM      5  O   UNL     1      17.342  34.172  35.631  1.00  0.00    -0.328 OA
ATOM      6  C   UNL     1      17.660  31.888  37.443  1.00  0.00     0.181 C 
ATOM      7  C   UNL     1      16.721  31.851  36.218  1.00  0.00     0.214 C 
BRANCH   3   8
ATOM      8  C   UNL     1      19.736  34.121  36.087  1.00  0.00     0.073 C 
ATOM      9  O   UNL     1      20.571  33.329  36.602  1.00  0.00    -0.547 OA
ATOM     10  O   UNL     1      20.151  34.974  35.071  1.00  0.00    -0.547 OA
ENDBRANCH   3   8
BRANCH   4  11
ATOM     11  O   UNL     1      16.949  33.872  38.586  1.00  0.00    -0.387 OA
ATOM     12  H   UNL     1      16.117  33.622  38.106  1.00  0.00     0.211 HD
ENDBRANCH   4  11
BRANCH   6  13
ATOM     13  O   UNL     1      18.811  31.106  37.236  1.00  0.00    -0.387 OA
ATOM     14  H   UNL     1      18.914  30.496  38.008  1.00  0.00     0.211 HD
ENDBRANCH   6  13
BRANCH   7  15
ATOM     15  O   UNL     1      15.386  32.059  36.614  1.00  0.00    -0.384 OA
ATOM     16  H   UNL     1      15.383  32.726  37.348  1.00  0.00     0.211 HD
ENDBRANCH   7  15
ENDBRANCH   1   2
BRANCH   1  17
ATOM     17  C   UNL     1      18.334  32.372  32.992  1.00  0.00     0.172 A 
ATOM     18  C   UNL     1      18.419  33.555  32.235  1.00  0.00     0.201 A 
ATOM     19  C   UNL     1      18.346  31.132  32.356  1.00  0.00     0.098 A 
ATOM     20  C   UNL     1      18.432  33.486  30.819  1.00  0.00     0.176 A 
ATOM     21  C   UNL     1      18.392  31.045  30.966  1.00  0.00     0.146 A 
ATOM     22  C   UNL     1      18.429  32.220  30.181  1.00  0.00     0.111 A 
ATOM     23  O   UNL     1      18.394  29.846  30.394  1.00  0.00    -0.456 OA
ATOM     24  C   UNL     1      18.456  32.062  28.777  1.00  0.00     0.197 A 
ATOM     25  C   UNL     1      18.432  29.663  29.078  1.00  0.00     0.138 A 
ATOM     26  C   UNL     1      18.457  30.779  28.227  1.00  0.00     0.100 A 
ATOM     27  O   UNL     1      18.479  33.055  28.003  1.00  0.00    -0.289 OA
BRANCH  18  28
ATOM     28  O   UNL     1      18.529  34.768  32.919  1.00  0.00    -0.502 OA
ATOM     29  H   UNL     1      18.257  35.664  32.540  1.00  0.00     0.293 HD
ENDBRANCH  18  28
BRANCH  20  30
ATOM     30  O   UNL     1      18.443  34.645  30.035  1.00  0.00    -0.504 OA
ATOM     31  H   UNL     1      18.704  34.672  29.060  1.00  0.00     0.293 HD
ENDBRANCH  20  30
BRANCH  25  32
ATOM     32  C   UNL     1      18.431  28.275  28.550  1.00  0.00     0.017 A 
ATOM     33  C   UNL     1      18.036  27.984  27.227  1.00  0.00     0.012 A 
ATOM     34  C   UNL     1      18.862  27.220  29.375  1.00  0.00     0.012 A 
ATOM     35  C   UNL     1      18.056  26.668  26.756  1.00  0.00     0.001 A 
ATOM     36  C   UNL     1      18.878  25.905  28.899  1.00  0.00     0.001 A 
ATOM     37  C   UNL     1      18.473  25.629  27.591  1.00  0.00     0.000 A 
ENDBRANCH  25  32
ENDBRANCH   1  17
TORSDOF 9
ENDMDL
