MODEL 1
REMARK VINA RESULT:    -4.353      0.000      0.000
REMARK INTER + INTRA:          -4.608
REMARK INTER:                  -4.608
REMARK INTRA:                   0.000
REMARK UNBOUND:                 0.000
REMARK SMILES O=c1ccc2cc(O)c(O)cc2o1
REMARK SMILES IDX 4 1 3 2 2 3 1 4 13 5 12 6 11 7 9 8 7 9 6 10 5 11 8 12 10 14
REMARK H PARENT 8 13 10 15
REMARK Flexibility Score: inf
ROOT
ATOM      1  C   UNL     1      -3.668  -2.746 -31.849  1.00  0.00     0.019 A 
ATOM      2  C   UNL     1      -4.270  -2.814 -33.105  1.00  0.00     0.094 A 
ATOM      3  C   UNL     1      -4.581  -4.067 -33.642  1.00  0.00     0.336 A 
ATOM      4  O   UNL     1      -5.125  -4.149 -34.775  1.00  0.00    -0.246 OA
ATOM      5  O   UNL     1      -4.306  -5.177 -32.963  1.00  0.00    -0.423 OA
ATOM      6  C   UNL     1      -3.734  -5.158 -31.761  1.00  0.00     0.142 A 
ATOM      7  C   UNL     1      -3.468  -6.358 -31.094  1.00  0.00     0.098 A 
ATOM      8  C   UNL     1      -2.865  -6.346 -29.830  1.00  0.00     0.161 A 
ATOM      9  C   UNL     1      -2.524  -5.122 -29.226  1.00  0.00     0.158 A 
ATOM     10  C   UNL     1      -2.788  -3.916 -29.892  1.00  0.00     0.062 A 
ATOM     11  C   UNL     1      -3.392  -3.929 -31.157  1.00  0.00     0.022 A 
ENDROOT
BRANCH   9  12
ATOM     12  O   UNL     1      -1.923  -5.109 -27.968  1.00  0.00    -0.504 OA
ATOM     13  H   UNL     1      -2.472  -5.077 -27.117  1.00  0.00     0.293 HD
ENDBRANCH   9  12
BRANCH   8  14
ATOM     14  O   UNL     1      -2.614  -7.560 -29.190  1.00  0.00    -0.504 OA
ATOM     15  H   UNL     1      -1.679  -7.844 -28.925  1.00  0.00     0.293 HD
ENDBRANCH   8  14
TORSDOF 2
ENDMDL
MODEL 2
REMARK VINA RESULT:    -4.295      6.256      7.625
REMARK INTER + INTRA:          -4.546
REMARK INTER:                  -4.546
REMARK INTRA:                   0.000
REMARK UNBOUND:                 0.000
REMARK SMILES O=c1ccc2cc(O)c(O)cc2o1
REMARK SMILES IDX 4 1 3 2 2 3 1 4 13 5 12 6 11 7 9 8 7 9 6 10 5 11 8 12 10 14
REMARK H PARENT 8 13 10 15
REMARK Flexibility Score: inf
ROOT
ATOM      1  C   UNL     1      -1.563  -2.221 -35.207  1.00  0.00     0.019 A 
ATOM      2  C   UNL     1      -2.098  -3.151 -36.099  1.00  0.00     0.094 A 
ATOM      3  C   UNL     1      -1.435  -3.392 -37.307  1.00  0.00     0.336 A 
ATOM      4  O   UNL     1      -1.902  -4.228 -38.125  1.00  0.00    -0.246 OA
ATOM      5  O   UNL     1      -0.312  -2.741 -37.600  1.00  0.00    -0.423 OA
ATOM      6  C   UNL     1       0.232  -1.846 -36.778  1.00  0.00     0.142 A 
ATOM      7  C   UNL     1       1.415  -1.193 -37.140  1.00  0.00     0.098 A 
ATOM      8  C   UNL     1       1.993  -0.250 -36.281  1.00  0.00     0.161 A 
ATOM      9  C   UNL     1       1.383   0.043 -35.048  1.00  0.00     0.158 A 
ATOM     10  C   UNL     1       0.197  -0.609 -34.681  1.00  0.00     0.062 A 
ATOM     11  C   UNL     1      -0.381  -1.553 -35.541  1.00  0.00     0.022 A 
ENDROOT
BRANCH   9  12
ATOM     12  O   UNL     1       1.957   0.982 -34.192  1.00  0.00    -0.504 OA
ATOM     13  H   UNL     1       2.354   1.847 -34.540  1.00  0.00     0.293 HD
ENDBRANCH   9  12
BRANCH   8  14
ATOM     14  O   UNL     1       3.173   0.384 -36.670  1.00  0.00    -0.504 OA
ATOM     15  H   UNL     1       3.384   1.338 -36.403  1.00  0.00     0.293 HD
ENDBRANCH   8  14
TORSDOF 2
ENDMDL
MODEL 3
REMARK VINA RESULT:    -4.252      6.017      7.672
REMARK INTER + INTRA:          -4.501
REMARK INTER:                  -4.501
REMARK INTRA:                   0.000
REMARK UNBOUND:                 0.000
REMARK SMILES O=c1ccc2cc(O)c(O)cc2o1
REMARK SMILES IDX 4 1 3 2 2 3 1 4 13 5 12 6 11 7 9 8 7 9 6 10 5 11 8 12 10 14
REMARK H PARENT 8 13 10 15
REMARK Flexibility Score: inf
ROOT
ATOM      1  C   UNL     1      -1.442  -3.082 -36.424  1.00  0.00     0.019 A 
ATOM      2  C   UNL     1      -2.469  -2.954 -35.489  1.00  0.00     0.094 A 
ATOM      3  C   UNL     1      -2.354  -1.991 -34.481  1.00  0.00     0.336 A 
ATOM      4  O   UNL     1      -3.272  -1.860 -33.629  1.00  0.00    -0.246 OA
ATOM      5  O   UNL     1      -1.279  -1.210 -34.416  1.00  0.00    -0.423 OA
ATOM      6  C   UNL     1      -0.276  -1.298 -35.287  1.00  0.00     0.142 A 
ATOM      7  C   UNL     1       0.830  -0.451 -35.168  1.00  0.00     0.098 A 
ATOM      8  C   UNL     1       1.889  -0.537 -36.079  1.00  0.00     0.161 A 
ATOM      9  C   UNL     1       1.843  -1.482 -37.121  1.00  0.00     0.158 A 
ATOM     10  C   UNL     1       0.736  -2.335 -37.244  1.00  0.00     0.062 A 
ATOM     11  C   UNL     1      -0.324  -2.247 -36.331  1.00  0.00     0.022 A 
ENDROOT
BRANCH   9  12
ATOM     12  O   UNL     1       2.897  -1.570 -38.030  1.00  0.00    -0.504 OA
ATOM     13  H   UNL     1       3.267  -2.464 -38.329  1.00  0.00     0.293 HD
ENDBRANCH   9  12
BRANCH   8  14
ATOM     14  O   UNL     1       2.978   0.322 -35.935  1.00  0.00    -0.504 OA
ATOM     15  H   UNL     1       3.841   0.187 -36.446  1.00  0.00     0.293 HD
ENDBRANCH   8  14
TORSDOF 2
ENDMDL
MODEL 4
REMARK VINA RESULT:    -4.206      6.031      7.714
REMARK INTER + INTRA:          -4.452
REMARK INTER:                  -4.452
REMARK INTRA:                   0.000
REMARK UNBOUND:                 0.000
REMARK SMILES O=c1ccc2cc(O)c(O)cc2o1
REMARK SMILES IDX 4 1 3 2 2 3 1 4 13 5 12 6 11 7 9 8 7 9 6 10 5 11 8 12 10 14
REMARK H PARENT 8 13 10 15
REMARK Flexibility Score: inf
ROOT
ATOM      1  C   UNL     1       0.448  -0.128 -34.645  1.00  0.00     0.019 A 
ATOM      2  C   UNL     1       1.588   0.524 -35.114  1.00  0.00     0.094 A 
ATOM      3  C   UNL     1       2.106   0.171 -36.364  1.00  0.00     0.336 A 
ATOM      4  O   UNL     1       3.135   0.749 -36.804  1.00  0.00    -0.246 OA
ATOM      5  O   UNL     1       1.519  -0.774 -37.094  1.00  0.00    -0.423 OA
ATOM      6  C   UNL     1       0.430  -1.421 -36.685  1.00  0.00     0.142 A 
ATOM      7  C   UNL     1      -0.144  -2.406 -37.495  1.00  0.00     0.098 A 
ATOM      8  C   UNL     1      -1.289  -3.091 -37.072  1.00  0.00     0.161 A 
ATOM      9  C   UNL     1      -1.867  -2.789 -35.825  1.00  0.00     0.158 A 
ATOM     10  C   UNL     1      -1.295  -1.802 -35.009  1.00  0.00     0.062 A 
ATOM     11  C   UNL     1      -0.149  -1.117 -35.434  1.00  0.00     0.022 A 
ENDROOT
BRANCH   9  12
ATOM     12  O   UNL     1      -3.007  -3.471 -35.402  1.00  0.00    -0.504 OA
ATOM     13  H   UNL     1      -3.180  -3.661 -34.422  1.00  0.00     0.293 HD
ENDBRANCH   9  12
BRANCH   8  14
ATOM     14  O   UNL     1      -1.838  -4.068 -37.903  1.00  0.00    -0.504 OA
ATOM     15  H   UNL     1      -2.831  -4.264 -37.919  1.00  0.00     0.293 HD
ENDBRANCH   8  14
TORSDOF 2
ENDMDL
MODEL 5
REMARK VINA RESULT:    -4.124      1.088      5.034
REMARK INTER + INTRA:          -4.365
REMARK INTER:                  -4.365
REMARK INTRA:                   0.000
REMARK UNBOUND:                 0.000
REMARK SMILES O=c1ccc2cc(O)c(O)cc2o1
REMARK SMILES IDX 4 1 3 2 2 3 1 4 13 5 12 6 11 7 9 8 7 9 6 10 5 11 8 12 10 14
REMARK H PARENT 8 13 10 15
REMARK Flexibility Score: inf
ROOT
ATOM      1  C   UNL     1      -3.362  -6.515 -30.682  1.00  0.00     0.019 A 
ATOM      2  C   UNL     1      -2.763  -6.442 -29.425  1.00  0.00     0.094 A 
ATOM      3  C   UNL     1      -2.392  -5.191 -28.922  1.00  0.00     0.336 A 
ATOM      4  O   UNL     1      -1.850  -5.104 -27.788  1.00  0.00    -0.246 OA
ATOM      5  O   UNL     1      -2.606  -4.088 -29.635  1.00  0.00    -0.423 OA
ATOM      6  C   UNL     1      -3.175  -4.112 -30.838  1.00  0.00     0.142 A 
ATOM      7  C   UNL     1      -3.375  -2.920 -31.541  1.00  0.00     0.098 A 
ATOM      8  C   UNL     1      -3.972  -2.938 -32.807  1.00  0.00     0.161 A 
ATOM      9  C   UNL     1      -4.373  -4.160 -33.378  1.00  0.00     0.158 A 
ATOM     10  C   UNL     1      -4.173  -5.358 -32.677  1.00  0.00     0.062 A 
ATOM     11  C   UNL     1      -3.576  -5.340 -31.409  1.00  0.00     0.022 A 
ENDROOT
BRANCH   9  12
ATOM     12  O   UNL     1      -4.967  -4.180 -34.639  1.00  0.00    -0.504 OA
ATOM     13  H   UNL     1      -4.580  -4.724 -35.401  1.00  0.00     0.293 HD
ENDBRANCH   9  12
BRANCH   8  14
ATOM     14  O   UNL     1      -4.159  -1.733 -33.484  1.00  0.00    -0.504 OA
ATOM     15  H   UNL     1      -3.381  -1.144 -33.758  1.00  0.00     0.293 HD
ENDBRANCH   8  14
TORSDOF 2
ENDMDL
MODEL 6
REMARK VINA RESULT:    -4.090      1.684      2.491
REMARK INTER + INTRA:          -4.329
REMARK INTER:                  -4.329
REMARK INTRA:                   0.000
REMARK UNBOUND:                 0.000
REMARK SMILES O=c1ccc2cc(O)c(O)cc2o1
REMARK SMILES IDX 4 1 3 2 2 3 1 4 13 5 12 6 11 7 9 8 7 9 6 10 5 11 8 12 10 14
REMARK H PARENT 8 13 10 15
REMARK Flexibility Score: inf
ROOT
ATOM      1  C   UNL     1      -3.233  -3.796 -30.435  1.00  0.00     0.019 A 
ATOM      2  C   UNL     1      -3.562  -2.685 -31.211  1.00  0.00     0.094 A 
ATOM      3  C   UNL     1      -3.869  -2.868 -32.563  1.00  0.00     0.336 A 
ATOM      4  O   UNL     1      -4.168  -1.877 -33.280  1.00  0.00    -0.246 OA
ATOM      5  O   UNL     1      -3.846  -4.085 -33.099  1.00  0.00    -0.423 OA
ATOM      6  C   UNL     1      -3.539  -5.173 -32.395  1.00  0.00     0.142 A 
ATOM      7  C   UNL     1      -3.531  -6.427 -33.013  1.00  0.00     0.098 A 
ATOM      8  C   UNL     1      -3.209  -7.575 -32.279  1.00  0.00     0.161 A 
ATOM      9  C   UNL     1      -2.889  -7.468 -30.913  1.00  0.00     0.158 A 
ATOM     10  C   UNL     1      -2.895  -6.212 -30.289  1.00  0.00     0.062 A 
ATOM     11  C   UNL     1      -3.219  -5.063 -31.025  1.00  0.00     0.022 A 
ENDROOT
BRANCH   9  12
ATOM     12  O   UNL     1      -2.567  -8.610 -30.181  1.00  0.00    -0.504 OA
ATOM     13  H   UNL     1      -1.989  -8.564 -29.350  1.00  0.00     0.293 HD
ENDBRANCH   9  12
BRANCH   8  14
ATOM     14  O   UNL     1      -3.210  -8.812 -32.924  1.00  0.00    -0.504 OA
ATOM     15  H   UNL     1      -2.355  -9.257 -33.235  1.00  0.00     0.293 HD
ENDBRANCH   8  14
TORSDOF 2
ENDMDL
MODEL 7
REMARK VINA RESULT:    -4.030      1.143      4.475
REMARK INTER + INTRA:          -4.265
REMARK INTER:                  -4.265
REMARK INTRA:                   0.000
REMARK UNBOUND:                 0.000
REMARK SMILES O=c1ccc2cc(O)c(O)cc2o1
REMARK SMILES IDX 4 1 3 2 2 3 1 4 13 5 12 6 11 7 9 8 7 9 6 10 5 11 8 12 10 14
REMARK H PARENT 8 13 10 15
REMARK Flexibility Score: inf
ROOT
ATOM      1  C   UNL     1      -2.820  -4.237 -29.442  1.00  0.00     0.019 A 
ATOM      2  C   UNL     1      -2.738  -5.464 -28.784  1.00  0.00     0.094 A 
ATOM      3  C   UNL     1      -3.110  -6.626 -29.466  1.00  0.00     0.336 A 
ATOM      4  O   UNL     1      -3.043  -7.743 -28.889  1.00  0.00    -0.246 OA
ATOM      5  O   UNL     1      -3.537  -6.561 -30.725  1.00  0.00    -0.423 OA
ATOM      6  C   UNL     1      -3.630  -5.412 -31.391  1.00  0.00     0.142 A 
ATOM      7  C   UNL     1      -4.086  -5.404 -32.713  1.00  0.00     0.098 A 
ATOM      8  C   UNL     1      -4.187  -4.200 -33.419  1.00  0.00     0.161 A 
ATOM      9  C   UNL     1      -3.829  -2.989 -32.798  1.00  0.00     0.158 A 
ATOM     10  C   UNL     1      -3.372  -2.992 -31.472  1.00  0.00     0.062 A 
ATOM     11  C   UNL     1      -3.271  -4.198 -30.765  1.00  0.00     0.022 A 
ENDROOT
BRANCH   9  12
ATOM     12  O   UNL     1      -3.929  -1.789 -33.500  1.00  0.00    -0.504 OA
ATOM     13  H   UNL     1      -3.700  -1.728 -34.484  1.00  0.00     0.293 HD
ENDBRANCH   9  12
BRANCH   8  14
ATOM     14  O   UNL     1      -4.644  -4.225 -34.736  1.00  0.00    -0.504 OA
ATOM     15  H   UNL     1      -4.248  -4.846 -35.431  1.00  0.00     0.293 HD
ENDBRANCH   8  14
TORSDOF 2
ENDMDL
MODEL 8
REMARK VINA RESULT:    -3.966      1.185      2.281
REMARK INTER + INTRA:          -4.198
REMARK INTER:                  -4.198
REMARK INTRA:                   0.000
REMARK UNBOUND:                 0.000
REMARK SMILES O=c1ccc2cc(O)c(O)cc2o1
REMARK SMILES IDX 4 1 3 2 2 3 1 4 13 5 12 6 11 7 9 8 7 9 6 10 5 11 8 12 10 14
REMARK H PARENT 8 13 10 15
REMARK Flexibility Score: inf
ROOT
ATOM      1  C   UNL     1      -4.043  -5.168 -33.176  1.00  0.00     0.019 A 
ATOM      2  C   UNL     1      -4.265  -3.924 -33.767  1.00  0.00     0.094 A 
ATOM      3  C   UNL     1      -4.012  -2.766 -33.026  1.00  0.00     0.336 A 
ATOM      4  O   UNL     1      -4.206  -1.634 -33.542  1.00  0.00    -0.246 OA
ATOM      5  O   UNL     1      -3.567  -2.851 -31.775  1.00  0.00    -0.423 OA
ATOM      6  C   UNL     1      -3.340  -4.017 -31.173  1.00  0.00     0.142 A 
ATOM      7  C   UNL     1      -2.872  -4.045 -29.856  1.00  0.00     0.098 A 
ATOM      8  C   UNL     1      -2.632  -5.267 -29.216  1.00  0.00     0.161 A 
ATOM      9  C   UNL     1      -2.864  -6.475 -29.900  1.00  0.00     0.158 A 
ATOM     10  C   UNL     1      -3.334  -6.452 -31.221  1.00  0.00     0.062 A 
ATOM     11  C   UNL     1      -3.573  -5.227 -31.861  1.00  0.00     0.022 A 
ENDROOT
BRANCH   9  12
ATOM     12  O   UNL     1      -2.626  -7.692 -29.264  1.00  0.00    -0.504 OA
ATOM     13  H   UNL     1      -3.242  -8.487 -29.390  1.00  0.00     0.293 HD
ENDBRANCH   9  12
BRANCH   8  14
ATOM     14  O   UNL     1      -2.165  -5.261 -27.902  1.00  0.00    -0.504 OA
ATOM     15  H   UNL     1      -2.487  -4.586 -27.220  1.00  0.00     0.293 HD
ENDBRANCH   8  14
TORSDOF 2
ENDMDL
MODEL 9
REMARK VINA RESULT:    -3.937     19.793     21.518
REMARK INTER + INTRA:          -4.168
REMARK INTER:                  -4.168
REMARK INTRA:                   0.000
REMARK UNBOUND:                 0.000
REMARK SMILES O=c1ccc2cc(O)c(O)cc2o1
REMARK SMILES IDX 4 1 3 2 2 3 1 4 13 5 12 6 11 7 9 8 7 9 6 10 5 11 8 12 10 14
REMARK H PARENT 8 13 10 15
REMARK Flexibility Score: inf
ROOT
ATOM      1  C   UNL     1       9.133   9.899 -22.398  1.00  0.00     0.019 A 
ATOM      2  C   UNL     1      10.493   9.908 -22.089  1.00  0.00     0.094 A 
ATOM      3  C   UNL     1      10.900   9.538 -20.803  1.00  0.00     0.336 A 
ATOM      4  O   UNL     1      12.124   9.540 -20.506  1.00  0.00    -0.246 OA
ATOM      5  O   UNL     1      10.001   9.185 -19.888  1.00  0.00    -0.423 OA
ATOM      6  C   UNL     1       8.694   9.162 -20.140  1.00  0.00     0.142 A 
ATOM      7  C   UNL     1       7.795   8.781 -19.138  1.00  0.00     0.098 A 
ATOM      8  C   UNL     1       6.420   8.755 -19.395  1.00  0.00     0.161 A 
ATOM      9  C   UNL     1       5.935   9.113 -20.667  1.00  0.00     0.158 A 
ATOM     10  C   UNL     1       6.833   9.496 -21.675  1.00  0.00     0.062 A 
ATOM     11  C   UNL     1       8.211   9.521 -21.417  1.00  0.00     0.022 A 
ENDROOT
BRANCH   9  12
ATOM     12  O   UNL     1       4.566   9.088 -20.924  1.00  0.00    -0.504 OA
ATOM     13  H   UNL     1       4.189   8.648 -21.756  1.00  0.00     0.293 HD
ENDBRANCH   9  12
BRANCH   8  14
ATOM     14  O   UNL     1       5.549   8.371 -18.376  1.00  0.00    -0.504 OA
ATOM     15  H   UNL     1       5.869   7.869 -17.556  1.00  0.00     0.293 HD
ENDBRANCH   8  14
TORSDOF 2
ENDMDL
