MODEL 1
REMARK VINA RESULT:    -4.323      0.000      0.000
REMARK INTER + INTRA:          -4.598
REMARK INTER:                  -4.576
REMARK INTRA:                  -0.022
REMARK UNBOUND:                -0.022
REMARK SMILES O=C([O-])c1cccnc1
REMARK SMILES IDX 4 1 5 2 9 3 6 4 8 5 7 6 2 7 1 8 3 9
REMARK H PARENT
REMARK Flexibility Score: inf
ROOT
ATOM      1  C   UNL     1     -10.593  17.333 -11.786  1.00  0.00     0.016 A 
ATOM      2  C   UNL     1      -9.763  18.235 -12.471  1.00  0.00     0.013 A 
ATOM      3  C   UNL     1     -10.237  16.957 -10.479  1.00  0.00     0.120 A 
ATOM      4  C   UNL     1      -8.615  18.738 -11.855  1.00  0.00     0.021 A 
ATOM      5  N   UNL     1      -9.113  17.462  -9.902  1.00  0.00    -0.264 NA
ATOM      6  C   UNL     1      -8.303  18.335 -10.557  1.00  0.00     0.111 A 
ENDROOT
BRANCH   1   7
ATOM      7  C   UNL     1     -11.813  16.788 -12.420  1.00  0.00     0.073 C 
ATOM      8  O   UNL     1     -11.897  16.697 -13.674  1.00  0.00    -0.545 OA
ATOM      9  O   UNL     1     -12.884  16.369 -11.640  1.00  0.00    -0.545 OA
ENDBRANCH   1   7
TORSDOF 1
ENDMDL
MODEL 2
REMARK VINA RESULT:    -4.250      1.499      2.274
REMARK INTER + INTRA:          -4.521
REMARK INTER:                  -4.498
REMARK INTRA:                  -0.023
REMARK UNBOUND:                -0.022
REMARK SMILES O=C([O-])c1cccnc1
REMARK SMILES IDX 4 1 5 2 9 3 6 4 8 5 7 6 2 7 1 8 3 9
REMARK H PARENT
REMARK Flexibility Score: inf
ROOT
ATOM      1  C   UNL     1     -10.814  17.535 -10.919  1.00  0.00     0.016 A 
ATOM      2  C   UNL     1      -9.794  17.703  -9.968  1.00  0.00     0.013 A 
ATOM      3  C   UNL     1     -10.578  17.966 -12.235  1.00  0.00     0.120 A 
ATOM      4  C   UNL     1      -8.580  18.287 -10.338  1.00  0.00     0.021 A 
ATOM      5  N   UNL     1      -9.387  18.532 -12.569  1.00  0.00    -0.264 NA
ATOM      6  C   UNL     1      -8.393  18.699 -11.657  1.00  0.00     0.111 A 
ENDROOT
BRANCH   1   7
ATOM      7  C   UNL     1     -12.106  16.919 -10.548  1.00  0.00     0.073 C 
ATOM      8  O   UNL     1     -12.482  16.896  -9.346  1.00  0.00    -0.545 OA
ATOM      9  O   UNL     1     -12.925  16.360 -11.522  1.00  0.00    -0.545 OA
ENDBRANCH   1   7
TORSDOF 1
ENDMDL
MODEL 3
REMARK VINA RESULT:    -4.208      2.384      2.899
REMARK INTER + INTRA:          -4.476
REMARK INTER:                  -4.460
REMARK INTRA:                  -0.016
REMARK UNBOUND:                -0.022
REMARK SMILES O=C([O-])c1cccnc1
REMARK SMILES IDX 4 1 5 2 9 3 6 4 8 5 7 6 2 7 1 8 3 9
REMARK H PARENT
REMARK Flexibility Score: inf
ROOT
ATOM      1  C   UNL     1     -11.081  16.302 -11.939  1.00  0.00     0.016 A 
ATOM      2  C   UNL     1     -10.183  16.686 -10.929  1.00  0.00     0.013 A 
ATOM      3  C   UNL     1     -12.457  16.325 -11.653  1.00  0.00     0.120 A 
ATOM      4  C   UNL     1     -10.661  17.078  -9.678  1.00  0.00     0.021 A 
ATOM      5  N   UNL     1     -12.897  16.711 -10.425  1.00  0.00    -0.264 NA
ATOM      6  C   UNL     1     -12.036  17.084  -9.441  1.00  0.00     0.111 A 
ENDROOT
BRANCH   1   7
ATOM      7  C   UNL     1     -10.596  15.882 -13.271  1.00  0.00     0.073 C 
ATOM      8  O   UNL     1     -10.520  16.713 -14.215  1.00  0.00    -0.545 OA
ATOM      9  O   UNL     1     -10.216  14.565 -13.499  1.00  0.00    -0.545 OA
ENDBRANCH   1   7
TORSDOF 1
ENDMDL
MODEL 4
REMARK VINA RESULT:    -4.179      2.360      3.244
REMARK INTER + INTRA:          -4.446
REMARK INTER:                  -4.422
REMARK INTRA:                  -0.024
REMARK UNBOUND:                -0.022
REMARK SMILES O=C([O-])c1cccnc1
REMARK SMILES IDX 4 1 5 2 9 3 6 4 8 5 7 6 2 7 1 8 3 9
REMARK H PARENT
REMARK Flexibility Score: inf
ROOT
ATOM      1  C   UNL     1     -11.313  17.017 -10.729  1.00  0.00     0.016 A 
ATOM      2  C   UNL     1     -12.177  16.562 -11.739  1.00  0.00     0.013 A 
ATOM      3  C   UNL     1     -10.009  17.401 -11.087  1.00  0.00     0.120 A 
ATOM      4  C   UNL     1     -11.736  16.499 -13.062  1.00  0.00     0.021 A 
ATOM      5  N   UNL     1      -9.605  17.329 -12.384  1.00  0.00    -0.264 NA
ATOM      6  C   UNL     1     -10.432  16.891 -13.369  1.00  0.00     0.111 A 
ENDROOT
BRANCH   1   7
ATOM      7  C   UNL     1     -11.760  17.091  -9.321  1.00  0.00     0.073 C 
ATOM      8  O   UNL     1     -10.979  17.504  -8.423  1.00  0.00    -0.545 OA
ATOM      9  O   UNL     1     -13.049  16.707  -8.970  1.00  0.00    -0.545 OA
ENDBRANCH   1   7
TORSDOF 1
ENDMDL
MODEL 5
REMARK VINA RESULT:    -4.144      2.763      3.767
REMARK INTER + INTRA:          -4.409
REMARK INTER:                  -4.385
REMARK INTRA:                  -0.023
REMARK UNBOUND:                -0.022
REMARK SMILES O=C([O-])c1cccnc1
REMARK SMILES IDX 4 1 5 2 9 3 6 4 8 5 7 6 2 7 1 8 3 9
REMARK H PARENT
REMARK Flexibility Score: inf
ROOT
ATOM      1  C   UNL     1     -10.426  17.556 -11.165  1.00  0.00     0.016 A 
ATOM      2  C   UNL     1     -11.690  16.967 -11.002  1.00  0.00     0.013 A 
ATOM      3  C   UNL     1      -9.841  17.542 -12.443  1.00  0.00     0.120 A 
ATOM      4  C   UNL     1     -12.338  16.385 -12.093  1.00  0.00     0.021 A 
ATOM      5  N   UNL     1     -10.494  16.968 -13.490  1.00  0.00    -0.264 NA
ATOM      6  C   UNL     1     -11.718  16.395 -13.343  1.00  0.00     0.111 A 
ENDROOT
BRANCH   1   7
ATOM      7  C   UNL     1      -9.722  18.178 -10.022  1.00  0.00     0.073 C 
ATOM      8  O   UNL     1      -8.502  18.479 -10.110  1.00  0.00    -0.545 OA
ATOM      9  O   UNL     1     -10.399  18.440  -8.837  1.00  0.00    -0.545 OA
ENDBRANCH   1   7
TORSDOF 1
ENDMDL
MODEL 6
REMARK VINA RESULT:    -4.137      2.837      3.429
REMARK INTER + INTRA:          -4.401
REMARK INTER:                  -4.378
REMARK INTRA:                  -0.022
REMARK UNBOUND:                -0.022
REMARK SMILES O=C([O-])c1cccnc1
REMARK SMILES IDX 4 1 5 2 9 3 6 4 8 5 7 6 2 7 1 8 3 9
REMARK H PARENT
REMARK Flexibility Score: inf
ROOT
ATOM      1  C   UNL     1     -11.251  17.388 -10.514  1.00  0.00     0.016 A 
ATOM      2  C   UNL     1     -10.270  17.959 -11.342  1.00  0.00     0.013 A 
ATOM      3  C   UNL     1     -12.267  16.623 -11.111  1.00  0.00     0.120 A 
ATOM      4  C   UNL     1     -10.318  17.762 -12.724  1.00  0.00     0.021 A 
ATOM      5  N   UNL     1     -12.290  16.446 -12.460  1.00  0.00    -0.264 NA
ATOM      6  C   UNL     1     -11.347  16.994 -13.270  1.00  0.00     0.111 A 
ENDROOT
BRANCH   1   7
ATOM      7  C   UNL     1     -11.218  17.585  -9.048  1.00  0.00     0.073 C 
ATOM      8  O   UNL     1     -10.654  18.596  -8.551  1.00  0.00    -0.545 OA
ATOM      9  O   UNL     1     -11.811  16.657  -8.200  1.00  0.00    -0.545 OA
ENDBRANCH   1   7
TORSDOF 1
ENDMDL
MODEL 7
REMARK VINA RESULT:    -4.032      2.194      3.138
REMARK INTER + INTRA:          -4.290
REMARK INTER:                  -4.271
REMARK INTRA:                  -0.019
REMARK UNBOUND:                -0.022
REMARK SMILES O=C([O-])c1cccnc1
REMARK SMILES IDX 4 1 5 2 9 3 6 4 8 5 7 6 2 7 1 8 3 9
REMARK H PARENT
REMARK Flexibility Score: inf
ROOT
ATOM      1  C   UNL     1     -10.836  17.264 -11.194  1.00  0.00     0.016 A 
ATOM      2  C   UNL     1     -10.301  17.675  -9.962  1.00  0.00     0.013 A 
ATOM      3  C   UNL     1     -12.138  16.736 -11.214  1.00  0.00     0.120 A 
ATOM      4  C   UNL     1     -11.057  17.555  -8.794  1.00  0.00     0.021 A 
ATOM      5  N   UNL     1     -12.853  16.629 -10.062  1.00  0.00    -0.264 NA
ATOM      6  C   UNL     1     -12.345  17.024  -8.865  1.00  0.00     0.111 A 
ENDROOT
BRANCH   1   7
ATOM      7  C   UNL     1     -10.052  17.383 -12.443  1.00  0.00     0.073 C 
ATOM      8  O   UNL     1      -9.521  18.480 -12.763  1.00  0.00    -0.545 OA
ATOM      9  O   UNL     1      -9.890  16.285 -13.279  1.00  0.00    -0.545 OA
ENDBRANCH   1   7
TORSDOF 1
ENDMDL
MODEL 8
REMARK VINA RESULT:    -3.944      1.850      2.899
REMARK INTER + INTRA:          -4.197
REMARK INTER:                  -4.174
REMARK INTRA:                  -0.023
REMARK UNBOUND:                -0.022
REMARK SMILES O=C([O-])c1cccnc1
REMARK SMILES IDX 4 1 5 2 9 3 6 4 8 5 7 6 2 7 1 8 3 9
REMARK H PARENT
REMARK Flexibility Score: inf
ROOT
ATOM      1  C   UNL     1     -11.257  17.168 -11.084  1.00  0.00     0.016 A 
ATOM      2  C   UNL     1     -12.460  16.655 -10.572  1.00  0.00     0.013 A 
ATOM      3  C   UNL     1     -10.371  17.805 -10.198  1.00  0.00     0.120 A 
ATOM      4  C   UNL     1     -12.755  16.784  -9.213  1.00  0.00     0.021 A 
ATOM      5  N   UNL     1     -10.683  17.918  -8.879  1.00  0.00    -0.264 NA
ATOM      6  C   UNL     1     -11.844  17.425  -8.373  1.00  0.00     0.111 A 
ENDROOT
BRANCH   1   7
ATOM      7  C   UNL     1     -10.925  17.042 -12.520  1.00  0.00     0.073 C 
ATOM      8  O   UNL     1      -9.745  17.219 -12.921  1.00  0.00    -0.545 OA
ATOM      9  O   UNL     1     -11.913  16.726 -13.445  1.00  0.00    -0.545 OA
ENDBRANCH   1   7
TORSDOF 1
ENDMDL
MODEL 9
REMARK VINA RESULT:    -3.854      2.748      3.452
REMARK INTER + INTRA:          -4.102
REMARK INTER:                  -4.082
REMARK INTRA:                  -0.020
REMARK UNBOUND:                -0.022
REMARK SMILES O=C([O-])c1cccnc1
REMARK SMILES IDX 4 1 5 2 9 3 6 4 8 5 7 6 2 7 1 8 3 9
REMARK H PARENT
REMARK Flexibility Score: inf
ROOT
ATOM      1  C   UNL     1     -11.351  17.394  -9.979  1.00  0.00     0.016 A 
ATOM      2  C   UNL     1     -10.722  18.220  -9.032  1.00  0.00     0.013 A 
ATOM      3  C   UNL     1     -12.542  16.744  -9.612  1.00  0.00     0.120 A 
ATOM      4  C   UNL     1     -11.278  18.380  -7.762  1.00  0.00     0.021 A 
ATOM      5  N   UNL     1     -13.063  16.917  -8.368  1.00  0.00    -0.264 NA
ATOM      6  C   UNL     1     -12.462  17.714  -7.444  1.00  0.00     0.111 A 
ENDROOT
BRANCH   1   7
ATOM      7  C   UNL     1     -10.778  17.211 -11.330  1.00  0.00     0.073 C 
ATOM      8  O   UNL     1     -10.357  18.201 -11.986  1.00  0.00    -0.545 OA
ATOM      9  O   UNL     1     -10.694  15.943 -11.893  1.00  0.00    -0.545 OA
ENDBRANCH   1   7
TORSDOF 1
ENDMDL
