MODEL 1
REMARK VINA RESULT:    -3.426      0.000      0.000
REMARK INTER + INTRA:         -14.522
REMARK INTER:                  -9.034
REMARK INTRA:                  -5.488
REMARK UNBOUND:                -5.488
REMARK SMILES CCCCCCCCCCCCCCCCCCCCCCCCCCCCCC(=O)[O-]
REMARK SMILES IDX 16 1 17 2 18 3 19 4 20 5 21 6 22 7 23 8 24 9 25 10 26 11
REMARK SMILES IDX 27 12 28 13 29 14 30 15 31 16 32 17 15 18 14 19 13 20 12 21
REMARK SMILES IDX 11 22 10 23 9 24 8 25 7 26 6 27 5 28 4 29 3 30 2 31 1 32
REMARK H PARENT
REMARK Flexibility Score: inf
ROOT
ATOM      1  C   UNL     1      49.856  35.683  87.502  1.00  0.00     0.000 C 
ENDROOT
BRANCH   1   2
ATOM      2  C   UNL     1      48.786  35.374  86.444  1.00  0.00     0.000 C 
BRANCH   2   3
ATOM      3  C   UNL     1      48.642  33.862  86.195  1.00  0.00     0.000 C 
BRANCH   3   4
ATOM      4  C   UNL     1      48.594  33.051  87.502  1.00  0.00     0.000 C 
BRANCH   4   5
ATOM      5  C   UNL     1      49.069  31.595  87.354  1.00  0.00     0.000 C 
BRANCH   5   6
ATOM      6  C   UNL     1      50.500  31.390  87.885  1.00  0.00     0.000 C 
BRANCH   6   7
ATOM      7  C   UNL     1      50.942  32.506  88.845  1.00  0.00     0.000 C 
BRANCH   7   8
ATOM      8  C   UNL     1      51.107  32.013  90.294  1.00  0.00     0.000 C 
BRANCH   8   9
ATOM      9  C   UNL     1      51.300  30.492  90.384  1.00  0.00     0.000 C 
BRANCH   9  10
ATOM     10  C   UNL     1      50.185  29.799  91.187  1.00  0.00     0.000 C 
BRANCH  10  11
ATOM     11  C   UNL     1      49.083  29.218  90.277  1.00  0.00     0.000 C 
BRANCH  11  12
ATOM     12  C   UNL     1      47.661  29.649  90.672  1.00  0.00     0.000 C 
BRANCH  12  13
ATOM     13  C   UNL     1      47.468  31.173  90.649  1.00  0.00     0.006 C 
BRANCH  13  14
ATOM     14  C   UNL     1      46.047  31.572  90.232  1.00  0.00     0.053 C 
BRANCH  14  15
ATOM     15  C   UNL     1      45.046  31.280  91.310  1.00  0.00     0.041 C 
ATOM     16  O   UNL     1      44.555  32.219  91.989  1.00  0.00    -0.550 OA
ATOM     17  O   UNL     1      44.639  29.973  91.545  1.00  0.00    -0.550 OA
ENDBRANCH  14  15
ENDBRANCH  13  14
ENDBRANCH  12  13
ENDBRANCH  11  12
ENDBRANCH  10  11
ENDBRANCH   9  10
ENDBRANCH   8   9
ENDBRANCH   7   8
ENDBRANCH   6   7
ENDBRANCH   5   6
ENDBRANCH   4   5
ENDBRANCH   3   4
ENDBRANCH   2   3
ENDBRANCH   1   2
BRANCH   1  18
ATOM     18  C   UNL     1      51.279  35.389  86.997  1.00  0.00     0.000 C 
BRANCH  18  19
ATOM     19  C   UNL     1      52.351  36.039  87.885  1.00  0.00     0.000 C 
BRANCH  19  20
ATOM     20  C   UNL     1      53.554  35.105  88.103  1.00  0.00     0.000 C 
BRANCH  20  21
ATOM     21  C   UNL     1      53.797  34.798  89.589  1.00  0.00     0.000 C 
BRANCH  21  22
ATOM     22  C   UNL     1      54.484  33.440  89.799  1.00  0.00     0.000 C 
BRANCH  22  23
ATOM     23  C   UNL     1      54.946  32.849  88.459  1.00  0.00     0.000 C 
BRANCH  23  24
ATOM     24  C   UNL     1      54.548  31.373  88.291  1.00  0.00    -0.000 C 
BRANCH  24  25
ATOM     25  C   UNL     1      54.010  31.062  86.883  1.00  0.00    -0.000 C 
BRANCH  25  26
ATOM     26  C   UNL     1      53.723  32.342  86.069  1.00  0.00    -0.000 C 
BRANCH  26  27
ATOM     27  C   UNL     1      53.125  32.062  84.678  1.00  0.00    -0.000 C 
BRANCH  27  28
ATOM     28  C   UNL     1      51.674  32.542  84.500  1.00  0.00    -0.000 C 
BRANCH  28  29
ATOM     29  C   UNL     1      51.593  33.961  83.908  1.00  0.00    -0.000 C 
BRANCH  29  30
ATOM     30  C   UNL     1      51.720  33.969  82.376  1.00  0.00    -0.000 C 
BRANCH  30  31
ATOM     31  C   UNL     1      50.394  34.299  81.674  1.00  0.00    -0.003 C 
ATOM     32  C   UNL     1      49.375  34.864  82.659  1.00  0.00     0.004 C 
ENDBRANCH  30  31
ENDBRANCH  29  30
ENDBRANCH  28  29
ENDBRANCH  27  28
ENDBRANCH  26  27
ENDBRANCH  25  26
ENDBRANCH  24  25
ENDBRANCH  23  24
ENDBRANCH  22  23
ENDBRANCH  21  22
ENDBRANCH  20  21
ENDBRANCH  19  20
ENDBRANCH  18  19
ENDBRANCH   1  18
TORSDOF 28
ENDMDL
MODEL 2
REMARK VINA RESULT:    -3.409      1.553      4.131
REMARK INTER + INTRA:         -14.478
REMARK INTER:                  -8.991
REMARK INTRA:                  -5.486
REMARK UNBOUND:                -5.488
REMARK SMILES CCCCCCCCCCCCCCCCCCCCCCCCCCCCCC(=O)[O-]
REMARK SMILES IDX 16 1 17 2 18 3 19 4 20 5 21 6 22 7 23 8 24 9 25 10 26 11
REMARK SMILES IDX 27 12 28 13 29 14 30 15 31 16 32 17 15 18 14 19 13 20 12 21
REMARK SMILES IDX 11 22 10 23 9 24 8 25 7 26 6 27 5 28 4 29 3 30 2 31 1 32
REMARK H PARENT
REMARK Flexibility Score: inf
ROOT
ATOM      1  C   UNL     1      51.155  34.791  87.572  1.00  0.00     0.000 C 
ENDROOT
BRANCH   1   2
ATOM      2  C   UNL     1      52.501  35.227  86.971  1.00  0.00     0.000 C 
BRANCH   2   3
ATOM      3  C   UNL     1      53.462  34.039  86.787  1.00  0.00     0.000 C 
BRANCH   3   4
ATOM      4  C   UNL     1      52.733  32.751  86.366  1.00  0.00     0.000 C 
BRANCH   4   5
ATOM      5  C   UNL     1      52.761  31.638  87.429  1.00  0.00     0.000 C 
BRANCH   5   6
ATOM      6  C   UNL     1      53.805  31.907  88.529  1.00  0.00     0.000 C 
BRANCH   6   7
ATOM      7  C   UNL     1      53.209  31.830  89.943  1.00  0.00     0.000 C 
BRANCH   7   8
ATOM      8  C   UNL     1      51.826  32.497  90.044  1.00  0.00     0.000 C 
BRANCH   8   9
ATOM      9  C   UNL     1      50.850  31.706  90.927  1.00  0.00     0.000 C 
BRANCH   9  10
ATOM     10  C   UNL     1      49.821  30.907  90.106  1.00  0.00     0.000 C 
BRANCH  10  11
ATOM     11  C   UNL     1      48.414  30.943  90.738  1.00  0.00     0.000 C 
BRANCH  11  12
ATOM     12  C   UNL     1      47.272  30.949  89.709  1.00  0.00     0.000 C 
BRANCH  12  13
ATOM     13  C   UNL     1      45.967  31.542  90.264  1.00  0.00     0.006 C 
BRANCH  13  14
ATOM     14  C   UNL     1      45.135  30.504  91.027  1.00  0.00     0.053 C 
BRANCH  14  15
ATOM     15  C   UNL     1      44.183  31.149  91.990  1.00  0.00     0.041 C 
ATOM     16  O   UNL     1      43.144  30.540  92.355  1.00  0.00    -0.550 OA
ATOM     17  O   UNL     1      44.458  32.411  92.500  1.00  0.00    -0.550 OA
ENDBRANCH  14  15
ENDBRANCH  13  14
ENDBRANCH  12  13
ENDBRANCH  11  12
ENDBRANCH  10  11
ENDBRANCH   9  10
ENDBRANCH   8   9
ENDBRANCH   7   8
ENDBRANCH   6   7
ENDBRANCH   5   6
ENDBRANCH   4   5
ENDBRANCH   3   4
ENDBRANCH   2   3
ENDBRANCH   1   2
BRANCH   1  18
ATOM     18  C   UNL     1      50.016  35.762  87.217  1.00  0.00     0.000 C 
BRANCH  18  19
ATOM     19  C   UNL     1      48.669  35.038  87.067  1.00  0.00     0.000 C 
BRANCH  19  20
ATOM     20  C   UNL     1      48.712  33.625  87.675  1.00  0.00     0.000 C 
BRANCH  20  21
ATOM     21  C   UNL     1      48.163  32.557  86.715  1.00  0.00     0.000 C 
BRANCH  21  22
ATOM     22  C   UNL     1      49.260  31.610  86.207  1.00  0.00     0.000 C 
BRANCH  22  23
ATOM     23  C   UNL     1      48.959  31.142  84.776  1.00  0.00     0.000 C 
BRANCH  23  24
ATOM     24  C   UNL     1      47.454  30.967  84.512  1.00  0.00    -0.000 C 
BRANCH  24  25
ATOM     25  C   UNL     1      46.951  31.849  83.354  1.00  0.00    -0.000 C 
BRANCH  25  26
ATOM     26  C   UNL     1      48.087  32.663  82.700  1.00  0.00    -0.000 C 
BRANCH  26  27
ATOM     27  C   UNL     1      48.012  34.171  83.002  1.00  0.00    -0.000 C 
BRANCH  27  28
ATOM     28  C   UNL     1      49.348  34.920  82.845  1.00  0.00    -0.000 C 
BRANCH  28  29
ATOM     29  C   UNL     1      50.400  34.467  83.874  1.00  0.00    -0.000 C 
BRANCH  29  30
ATOM     30  C   UNL     1      51.755  34.141  83.228  1.00  0.00    -0.000 C 
BRANCH  30  31
ATOM     31  C   UNL     1      51.661  33.010  82.194  1.00  0.00    -0.003 C 
ATOM     32  C   UNL     1      52.109  31.679  82.792  1.00  0.00     0.004 C 
ENDBRANCH  30  31
ENDBRANCH  29  30
ENDBRANCH  28  29
ENDBRANCH  27  28
ENDBRANCH  26  27
ENDBRANCH  25  26
ENDBRANCH  24  25
ENDBRANCH  23  24
ENDBRANCH  22  23
ENDBRANCH  21  22
ENDBRANCH  20  21
ENDBRANCH  19  20
ENDBRANCH  18  19
ENDBRANCH   1  18
TORSDOF 28
ENDMDL
MODEL 3
REMARK VINA RESULT:    -3.379      2.858      5.041
REMARK INTER + INTRA:         -14.398
REMARK INTER:                  -7.797
REMARK INTRA:                  -6.601
REMARK UNBOUND:                -5.488
REMARK SMILES CCCCCCCCCCCCCCCCCCCCCCCCCCCCCC(=O)[O-]
REMARK SMILES IDX 16 1 17 2 18 3 19 4 20 5 21 6 22 7 23 8 24 9 25 10 26 11
REMARK SMILES IDX 27 12 28 13 29 14 30 15 31 16 32 17 15 18 14 19 13 20 12 21
REMARK SMILES IDX 11 22 10 23 9 24 8 25 7 26 6 27 5 28 4 29 3 30 2 31 1 32
REMARK H PARENT
REMARK Flexibility Score: inf
ROOT
ATOM      1  C   UNL     1      51.223  29.689  86.321  1.00  0.00     0.000 C 
ENDROOT
BRANCH   1   2
ATOM      2  C   UNL     1      51.109  30.210  87.763  1.00  0.00     0.000 C 
BRANCH   2   3
ATOM      3  C   UNL     1      51.288  31.736  87.840  1.00  0.00     0.000 C 
BRANCH   3   4
ATOM      4  C   UNL     1      50.806  32.318  89.181  1.00  0.00     0.000 C 
BRANCH   4   5
ATOM      5  C   UNL     1      51.013  31.379  90.383  1.00  0.00     0.000 C 
BRANCH   5   6
ATOM      6  C   UNL     1      49.701  31.102  91.141  1.00  0.00     0.000 C 
BRANCH   6   7
ATOM      7  C   UNL     1      49.016  29.804  90.687  1.00  0.00     0.000 C 
BRANCH   7   8
ATOM      8  C   UNL     1      47.877  30.052  89.682  1.00  0.00     0.000 C 
BRANCH   8   9
ATOM      9  C   UNL     1      47.128  31.366  89.949  1.00  0.00     0.000 C 
BRANCH   9  10
ATOM     10  C   UNL     1      47.069  32.278  88.710  1.00  0.00     0.000 C 
BRANCH  10  11
ATOM     11  C   UNL     1      47.550  31.559  87.431  1.00  0.00     0.000 C 
BRANCH  11  12
ATOM     12  C   UNL     1      48.224  32.492  86.412  1.00  0.00     0.000 C 
BRANCH  12  13
ATOM     13  C   UNL     1      48.179  31.945  84.976  1.00  0.00     0.006 C 
BRANCH  13  14
ATOM     14  C   UNL     1      49.155  32.675  84.046  1.00  0.00     0.053 C 
BRANCH  14  15
ATOM     15  C   UNL     1      48.490  33.802  83.313  1.00  0.00     0.041 C 
ATOM     16  O   UNL     1      47.388  33.618  82.734  1.00  0.00    -0.550 OA
ATOM     17  O   UNL     1      49.079  35.060  83.290  1.00  0.00    -0.550 OA
ENDBRANCH  14  15
ENDBRANCH  13  14
ENDBRANCH  12  13
ENDBRANCH  11  12
ENDBRANCH  10  11
ENDBRANCH   9  10
ENDBRANCH   8   9
ENDBRANCH   7   8
ENDBRANCH   6   7
ENDBRANCH   5   6
ENDBRANCH   4   5
ENDBRANCH   3   4
ENDBRANCH   2   3
ENDBRANCH   1   2
BRANCH   1  18
ATOM     18  C   UNL     1      51.964  30.675  85.402  1.00  0.00     0.000 C 
BRANCH  18  19
ATOM     19  C   UNL     1      53.405  30.223  85.118  1.00  0.00     0.000 C 
BRANCH  19  20
ATOM     20  C   UNL     1      54.434  31.124  85.823  1.00  0.00     0.000 C 
BRANCH  20  21
ATOM     21  C   UNL     1      55.111  30.423  87.012  1.00  0.00     0.000 C 
BRANCH  21  22
ATOM     22  C   UNL     1      54.872  31.162  88.337  1.00  0.00     0.000 C 
BRANCH  22  23
ATOM     23  C   UNL     1      54.821  32.680  88.115  1.00  0.00     0.000 C 
BRANCH  23  24
ATOM     24  C   UNL     1      54.335  33.446  89.357  1.00  0.00    -0.000 C 
BRANCH  24  25
ATOM     25  C   UNL     1      53.571  34.734  88.997  1.00  0.00    -0.000 C 
BRANCH  25  26
ATOM     26  C   UNL     1      53.554  34.999  87.476  1.00  0.00    -0.000 C 
BRANCH  26  27
ATOM     27  C   UNL     1      52.144  35.262  86.916  1.00  0.00    -0.000 C 
BRANCH  27  28
ATOM     28  C   UNL     1      51.855  34.573  85.570  1.00  0.00    -0.000 C 
BRANCH  28  29
ATOM     29  C   UNL     1      53.115  34.437  84.697  1.00  0.00    -0.000 C 
BRANCH  29  30
ATOM     30  C   UNL     1      52.881  33.564  83.454  1.00  0.00    -0.000 C 
BRANCH  30  31
ATOM     31  C   UNL     1      52.367  34.369  82.253  1.00  0.00    -0.003 C 
ATOM     32  C   UNL     1      53.510  35.084  81.539  1.00  0.00     0.004 C 
ENDBRANCH  30  31
ENDBRANCH  29  30
ENDBRANCH  28  29
ENDBRANCH  27  28
ENDBRANCH  26  27
ENDBRANCH  25  26
ENDBRANCH  24  25
ENDBRANCH  23  24
ENDBRANCH  22  23
ENDBRANCH  21  22
ENDBRANCH  20  21
ENDBRANCH  19  20
ENDBRANCH  18  19
ENDBRANCH   1  18
TORSDOF 28
ENDMDL
MODEL 4
REMARK VINA RESULT:    -3.334      1.318      4.091
REMARK INTER + INTRA:         -14.281
REMARK INTER:                  -8.121
REMARK INTRA:                  -6.159
REMARK UNBOUND:                -5.488
REMARK SMILES CCCCCCCCCCCCCCCCCCCCCCCCCCCCCC(=O)[O-]
REMARK SMILES IDX 16 1 17 2 18 3 19 4 20 5 21 6 22 7 23 8 24 9 25 10 26 11
REMARK SMILES IDX 27 12 28 13 29 14 30 15 31 16 32 17 15 18 14 19 13 20 12 21
REMARK SMILES IDX 11 22 10 23 9 24 8 25 7 26 6 27 5 28 4 29 3 30 2 31 1 32
REMARK H PARENT
REMARK Flexibility Score: inf
ROOT
ATOM      1  C   UNL     1      54.056  31.736  88.942  1.00  0.00     0.000 C 
ENDROOT
BRANCH   1   2
ATOM      2  C   UNL     1      53.118  32.630  89.768  1.00  0.00     0.000 C 
BRANCH   2   3
ATOM      3  C   UNL     1      52.814  32.027  91.149  1.00  0.00     0.000 C 
BRANCH   3   4
ATOM      4  C   UNL     1      51.329  32.154  91.534  1.00  0.00     0.000 C 
BRANCH   4   5
ATOM      5  C   UNL     1      50.655  30.815  91.882  1.00  0.00     0.000 C 
BRANCH   5   6
ATOM      6  C   UNL     1      51.387  29.612  91.259  1.00  0.00     0.000 C 
BRANCH   6   7
ATOM      7  C   UNL     1      50.648  29.033  90.042  1.00  0.00     0.000 C 
BRANCH   7   8
ATOM      8  C   UNL     1      51.059  29.707  88.721  1.00  0.00     0.000 C 
BRANCH   8   9
ATOM      9  C   UNL     1      49.856  30.235  87.926  1.00  0.00     0.000 C 
BRANCH   9  10
ATOM     10  C   UNL     1      49.515  31.697  88.267  1.00  0.00     0.000 C 
BRANCH  10  11
ATOM     11  C   UNL     1      48.032  31.876  88.656  1.00  0.00     0.000 C 
BRANCH  11  12
ATOM     12  C   UNL     1      47.662  31.235  90.003  1.00  0.00     0.000 C 
BRANCH  12  13
ATOM     13  C   UNL     1      46.928  29.894  89.849  1.00  0.00     0.006 C 
BRANCH  13  14
ATOM     14  C   UNL     1      46.346  29.394  91.176  1.00  0.00     0.053 C 
BRANCH  14  15
ATOM     15  C   UNL     1      44.906  29.783  91.337  1.00  0.00     0.041 C 
ATOM     16  O   UNL     1      43.996  28.940  91.128  1.00  0.00    -0.550 OA
ATOM     17  O   UNL     1      44.575  31.070  91.741  1.00  0.00    -0.550 OA
ENDBRANCH  14  15
ENDBRANCH  13  14
ENDBRANCH  12  13
ENDBRANCH  11  12
ENDBRANCH  10  11
ENDBRANCH   9  10
ENDBRANCH   8   9
ENDBRANCH   7   8
ENDBRANCH   6   7
ENDBRANCH   5   6
ENDBRANCH   4   5
ENDBRANCH   3   4
ENDBRANCH   2   3
ENDBRANCH   1   2
BRANCH   1  18
ATOM     18  C   UNL     1      54.315  32.303  87.536  1.00  0.00     0.000 C 
BRANCH  18  19
ATOM     19  C   UNL     1      53.274  31.813  86.517  1.00  0.00     0.000 C 
BRANCH  19  20
ATOM     20  C   UNL     1      52.303  32.935  86.110  1.00  0.00     0.000 C 
BRANCH  20  21
ATOM     21  C   UNL     1      53.022  34.272  85.865  1.00  0.00     0.000 C 
BRANCH  21  22
ATOM     22  C   UNL     1      52.479  35.397  86.758  1.00  0.00     0.000 C 
BRANCH  22  23
ATOM     23  C   UNL     1      51.255  34.921  87.553  1.00  0.00     0.000 C 
BRANCH  23  24
ATOM     24  C   UNL     1      50.084  35.917  87.495  1.00  0.00    -0.000 C 
BRANCH  24  25
ATOM     25  C   UNL     1      48.751  35.241  87.127  1.00  0.00    -0.000 C 
BRANCH  25  26
ATOM     26  C   UNL     1      48.611  35.009  85.607  1.00  0.00    -0.000 C 
BRANCH  26  27
ATOM     27  C   UNL     1      48.712  33.528  85.201  1.00  0.00    -0.000 C 
BRANCH  27  28
ATOM     28  C   UNL     1      49.393  33.284  83.843  1.00  0.00    -0.000 C 
BRANCH  28  29
ATOM     29  C   UNL     1      49.993  34.570  83.247  1.00  0.00    -0.000 C 
BRANCH  29  30
ATOM     30  C   UNL     1      51.413  34.361  82.700  1.00  0.00    -0.000 C 
BRANCH  30  31
ATOM     31  C   UNL     1      51.615  32.964  82.097  1.00  0.00    -0.003 C 
ATOM     32  C   UNL     1      52.986  32.401  82.459  1.00  0.00     0.004 C 
ENDBRANCH  30  31
ENDBRANCH  29  30
ENDBRANCH  28  29
ENDBRANCH  27  28
ENDBRANCH  26  27
ENDBRANCH  25  26
ENDBRANCH  24  25
ENDBRANCH  23  24
ENDBRANCH  22  23
ENDBRANCH  21  22
ENDBRANCH  20  21
ENDBRANCH  19  20
ENDBRANCH  18  19
ENDBRANCH   1  18
TORSDOF 28
ENDMDL
MODEL 5
REMARK VINA RESULT:    -3.329      2.745      6.206
REMARK INTER + INTRA:         -14.265
REMARK INTER:                  -7.595
REMARK INTRA:                  -6.670
REMARK UNBOUND:                -5.488
REMARK SMILES CCCCCCCCCCCCCCCCCCCCCCCCCCCCCC(=O)[O-]
REMARK SMILES IDX 16 1 17 2 18 3 19 4 20 5 21 6 22 7 23 8 24 9 25 10 26 11
REMARK SMILES IDX 27 12 28 13 29 14 30 15 31 16 32 17 15 18 14 19 13 20 12 21
REMARK SMILES IDX 11 22 10 23 9 24 8 25 7 26 6 27 5 28 4 29 3 30 2 31 1 32
REMARK H PARENT
REMARK Flexibility Score: inf
ROOT
ATOM      1  C   UNL     1      48.643  34.658  84.007  1.00  0.00     0.000 C 
ENDROOT
BRANCH   1   2
ATOM      2  C   UNL     1      49.896  34.647  83.117  1.00  0.00     0.000 C 
BRANCH   2   3
ATOM      3  C   UNL     1      49.540  34.607  81.621  1.00  0.00     0.000 C 
BRANCH   3   4
ATOM      4  C   UNL     1      50.670  34.011  80.762  1.00  0.00     0.000 C 
BRANCH   4   5
ATOM      5  C   UNL     1      51.875  34.950  80.572  1.00  0.00     0.000 C 
BRANCH   5   6
ATOM      6  C   UNL     1      53.194  34.309  81.041  1.00  0.00     0.000 C 
BRANCH   6   7
ATOM      7  C   UNL     1      53.826  35.053  82.229  1.00  0.00     0.000 C 
BRANCH   7   8
ATOM      8  C   UNL     1      53.404  34.469  83.589  1.00  0.00     0.000 C 
BRANCH   8   9
ATOM      9  C   UNL     1      53.211  32.946  83.545  1.00  0.00     0.000 C 
BRANCH   9  10
ATOM     10  C   UNL     1      52.568  32.393  84.830  1.00  0.00     0.000 C 
BRANCH  10  11
ATOM     11  C   UNL     1      51.420  31.404  84.531  1.00  0.00     0.000 C 
BRANCH  11  12
ATOM     12  C   UNL     1      51.280  31.049  83.042  1.00  0.00     0.000 C 
BRANCH  12  13
ATOM     13  C   UNL     1      49.816  30.934  82.588  1.00  0.00     0.006 C 
BRANCH  13  14
ATOM     14  C   UNL     1      48.860  30.707  83.764  1.00  0.00     0.053 C 
BRANCH  14  15
ATOM     15  C   UNL     1      47.495  31.264  83.490  1.00  0.00     0.041 C 
ATOM     16  O   UNL     1      46.599  31.209  84.373  1.00  0.00    -0.550 OA
ATOM     17  O   UNL     1      47.221  31.865  82.268  1.00  0.00    -0.550 OA
ENDBRANCH  14  15
ENDBRANCH  13  14
ENDBRANCH  12  13
ENDBRANCH  11  12
ENDBRANCH  10  11
ENDBRANCH   9  10
ENDBRANCH   8   9
ENDBRANCH   7   8
ENDBRANCH   6   7
ENDBRANCH   5   6
ENDBRANCH   4   5
ENDBRANCH   3   4
ENDBRANCH   2   3
ENDBRANCH   1   2
BRANCH   1  18
ATOM     18  C   UNL     1      48.937  34.166  85.435  1.00  0.00     0.000 C 
BRANCH  18  19
ATOM     19  C   UNL     1      50.273  34.709  85.966  1.00  0.00     0.000 C 
BRANCH  19  20
ATOM     20  C   UNL     1      50.112  35.363  87.350  1.00  0.00     0.000 C 
BRANCH  20  21
ATOM     21  C   UNL     1      51.383  36.098  87.803  1.00  0.00     0.000 C 
BRANCH  21  22
ATOM     22  C   UNL     1      52.633  35.621  87.048  1.00  0.00     0.000 C 
BRANCH  22  23
ATOM     23  C   UNL     1      53.726  35.173  88.029  1.00  0.00     0.000 C 
BRANCH  23  24
ATOM     24  C   UNL     1      54.362  33.829  87.637  1.00  0.00    -0.000 C 
BRANCH  24  25
ATOM     25  C   UNL     1      53.678  32.630  88.321  1.00  0.00    -0.000 C 
BRANCH  25  26
ATOM     26  C   UNL     1      52.866  33.049  89.565  1.00  0.00    -0.000 C 
BRANCH  26  27
ATOM     27  C   UNL     1      51.494  32.358  89.661  1.00  0.00    -0.000 C 
BRANCH  27  28
ATOM     28  C   UNL     1      50.896  31.937  88.308  1.00  0.00    -0.000 C 
BRANCH  28  29
ATOM     29  C   UNL     1      50.389  30.484  88.315  1.00  0.00    -0.000 C 
BRANCH  29  30
ATOM     30  C   UNL     1      48.873  30.388  88.552  1.00  0.00    -0.000 C 
BRANCH  30  31
ATOM     31  C   UNL     1      48.066  31.249  87.571  1.00  0.00    -0.003 C 
ATOM     32  C   UNL     1      47.393  32.417  88.287  1.00  0.00     0.004 C 
ENDBRANCH  30  31
ENDBRANCH  29  30
ENDBRANCH  28  29
ENDBRANCH  27  28
ENDBRANCH  26  27
ENDBRANCH  25  26
ENDBRANCH  24  25
ENDBRANCH  23  24
ENDBRANCH  22  23
ENDBRANCH  21  22
ENDBRANCH  20  21
ENDBRANCH  19  20
ENDBRANCH  18  19
ENDBRANCH   1  18
TORSDOF 28
ENDMDL
MODEL 6
REMARK VINA RESULT:    -3.328      1.403      1.995
REMARK INTER + INTRA:         -14.263
REMARK INTER:                  -7.835
REMARK INTRA:                  -6.428
REMARK UNBOUND:                -5.488
REMARK SMILES CCCCCCCCCCCCCCCCCCCCCCCCCCCCCC(=O)[O-]
REMARK SMILES IDX 16 1 17 2 18 3 19 4 20 5 21 6 22 7 23 8 24 9 25 10 26 11
REMARK SMILES IDX 27 12 28 13 29 14 30 15 31 16 32 17 15 18 14 19 13 20 12 21
REMARK SMILES IDX 11 22 10 23 9 24 8 25 7 26 6 27 5 28 4 29 3 30 2 31 1 32
REMARK H PARENT
REMARK Flexibility Score: inf
ROOT
ATOM      1  C   UNL     1      48.746  34.731  86.953  1.00  0.00     0.000 C 
ENDROOT
BRANCH   1   2
ATOM      2  C   UNL     1      49.134  33.248  87.062  1.00  0.00     0.000 C 
BRANCH   2   3
ATOM      3  C   UNL     1      48.083  32.328  86.419  1.00  0.00     0.000 C 
BRANCH   3   4
ATOM      4  C   UNL     1      48.712  31.102  85.734  1.00  0.00     0.000 C 
BRANCH   4   5
ATOM      5  C   UNL     1      48.595  29.801  86.549  1.00  0.00     0.000 C 
BRANCH   5   6
ATOM      6  C   UNL     1      49.613  28.736  86.100  1.00  0.00     0.000 C 
BRANCH   6   7
ATOM      7  C   UNL     1      50.795  28.598  87.073  1.00  0.00     0.000 C 
BRANCH   7   8
ATOM      8  C   UNL     1      50.377  28.764  88.545  1.00  0.00     0.000 C 
BRANCH   8   9
ATOM      9  C   UNL     1      51.288  29.733  89.313  1.00  0.00     0.000 C 
BRANCH   9  10
ATOM     10  C   UNL     1      50.650  31.120  89.508  1.00  0.00     0.000 C 
BRANCH  10  11
ATOM     11  C   UNL     1      49.877  31.227  90.839  1.00  0.00     0.000 C 
BRANCH  11  12
ATOM     12  C   UNL     1      48.478  30.592  90.798  1.00  0.00     0.000 C 
BRANCH  12  13
ATOM     13  C   UNL     1      47.506  31.341  89.873  1.00  0.00     0.006 C 
BRANCH  13  14
ATOM     14  C   UNL     1      46.169  30.606  89.717  1.00  0.00     0.053 C 
BRANCH  14  15
ATOM     15  C   UNL     1      45.351  30.662  90.973  1.00  0.00     0.041 C 
ATOM     16  O   UNL     1      44.778  31.731  91.308  1.00  0.00    -0.550 OA
ATOM     17  O   UNL     1      45.203  29.525  91.758  1.00  0.00    -0.550 OA
ENDBRANCH  14  15
ENDBRANCH  13  14
ENDBRANCH  12  13
ENDBRANCH  11  12
ENDBRANCH  10  11
ENDBRANCH   9  10
ENDBRANCH   8   9
ENDBRANCH   7   8
ENDBRANCH   6   7
ENDBRANCH   5   6
ENDBRANCH   4   5
ENDBRANCH   3   4
ENDBRANCH   2   3
ENDBRANCH   1   2
BRANCH   1  18
ATOM     18  C   UNL     1      49.929  35.668  87.256  1.00  0.00     0.000 C 
BRANCH  18  19
ATOM     19  C   UNL     1      51.146  34.899  87.795  1.00  0.00     0.000 C 
BRANCH  19  20
ATOM     20  C   UNL     1      52.447  35.701  87.621  1.00  0.00     0.000 C 
BRANCH  20  21
ATOM     21  C   UNL     1      53.682  34.929  88.114  1.00  0.00     0.000 C 
BRANCH  21  22
ATOM     22  C   UNL     1      53.306  33.740  89.009  1.00  0.00     0.000 C 
BRANCH  22  23
ATOM     23  C   UNL     1      53.971  32.448  88.511  1.00  0.00     0.000 C 
BRANCH  23  24
ATOM     24  C   UNL     1      53.913  32.302  86.981  1.00  0.00    -0.000 C 
BRANCH  24  25
ATOM     25  C   UNL     1      52.606  31.647  86.498  1.00  0.00    -0.000 C 
BRANCH  25  26
ATOM     26  C   UNL     1      52.137  32.207  85.139  1.00  0.00    -0.000 C 
BRANCH  26  27
ATOM     27  C   UNL     1      52.816  33.534  84.755  1.00  0.00    -0.000 C 
BRANCH  27  28
ATOM     28  C   UNL     1      51.905  34.524  84.008  1.00  0.00    -0.000 C 
BRANCH  28  29
ATOM     29  C   UNL     1      50.821  33.813  83.176  1.00  0.00    -0.000 C 
BRANCH  29  30
ATOM     30  C   UNL     1      49.707  34.766  82.719  1.00  0.00    -0.000 C 
BRANCH  30  31
ATOM     31  C   UNL     1      48.368  34.489  83.417  1.00  0.00    -0.003 C 
ATOM     32  C   UNL     1      47.572  33.418  82.676  1.00  0.00     0.004 C 
ENDBRANCH  30  31
ENDBRANCH  29  30
ENDBRANCH  28  29
ENDBRANCH  27  28
ENDBRANCH  26  27
ENDBRANCH  25  26
ENDBRANCH  24  25
ENDBRANCH  23  24
ENDBRANCH  22  23
ENDBRANCH  21  22
ENDBRANCH  20  21
ENDBRANCH  19  20
ENDBRANCH  18  19
ENDBRANCH   1  18
TORSDOF 28
ENDMDL
MODEL 7
REMARK VINA RESULT:    -3.320      3.063      6.520
REMARK INTER + INTRA:         -14.243
REMARK INTER:                  -7.568
REMARK INTRA:                  -6.675
REMARK UNBOUND:                -5.488
REMARK SMILES CCCCCCCCCCCCCCCCCCCCCCCCCCCCCC(=O)[O-]
REMARK SMILES IDX 16 1 17 2 18 3 19 4 20 5 21 6 22 7 23 8 24 9 25 10 26 11
REMARK SMILES IDX 27 12 28 13 29 14 30 15 31 16 32 17 15 18 14 19 13 20 12 21
REMARK SMILES IDX 11 22 10 23 9 24 8 25 7 26 6 27 5 28 4 29 3 30 2 31 1 32
REMARK H PARENT
REMARK Flexibility Score: inf
ROOT
ATOM      1  C   UNL     1      47.370  31.362  88.437  1.00  0.00     0.000 C 
ENDROOT
BRANCH   1   2
ATOM      2  C   UNL     1      47.505  31.384  86.906  1.00  0.00     0.000 C 
BRANCH   2   3
ATOM      3  C   UNL     1      48.239  32.641  86.409  1.00  0.00     0.000 C 
BRANCH   3   4
ATOM      4  C   UNL     1      48.343  33.730  87.492  1.00  0.00     0.000 C 
BRANCH   4   5
ATOM      5  C   UNL     1      48.329  35.166  86.939  1.00  0.00     0.000 C 
BRANCH   5   6
ATOM      6  C   UNL     1      49.623  35.932  87.270  1.00  0.00     0.000 C 
BRANCH   6   7
ATOM      7  C   UNL     1      50.766  35.004  87.712  1.00  0.00     0.000 C 
BRANCH   7   8
ATOM      8  C   UNL     1      52.121  35.729  87.799  1.00  0.00     0.000 C 
BRANCH   8   9
ATOM      9  C   UNL     1      53.189  35.098  86.894  1.00  0.00     0.000 C 
BRANCH   9  10
ATOM     10  C   UNL     1      52.635  33.948  86.034  1.00  0.00     0.000 C 
BRANCH  10  11
ATOM     11  C   UNL     1      53.149  34.005  84.580  1.00  0.00     0.000 C 
BRANCH  11  12
ATOM     12  C   UNL     1      52.074  34.410  83.557  1.00  0.00     0.000 C 
BRANCH  12  13
ATOM     13  C   UNL     1      50.643  34.211  84.080  1.00  0.00     0.006 C 
BRANCH  13  14
ATOM     14  C   UNL     1      49.822  33.275  83.184  1.00  0.00     0.053 C 
BRANCH  14  15
ATOM     15  C   UNL     1      48.828  34.029  82.351  1.00  0.00     0.041 C 
ATOM     16  O   UNL     1      47.600  33.963  82.618  1.00  0.00    -0.550 OA
ATOM     17  O   UNL     1      49.263  34.822  81.297  1.00  0.00    -0.550 OA
ENDBRANCH  14  15
ENDBRANCH  13  14
ENDBRANCH  12  13
ENDBRANCH  11  12
ENDBRANCH  10  11
ENDBRANCH   9  10
ENDBRANCH   8   9
ENDBRANCH   7   8
ENDBRANCH   6   7
ENDBRANCH   5   6
ENDBRANCH   4   5
ENDBRANCH   3   4
ENDBRANCH   2   3
ENDBRANCH   1   2
BRANCH   1  18
ATOM     18  C   UNL     1      47.702  29.983  89.032  1.00  0.00     0.000 C 
BRANCH  18  19
ATOM     19  C   UNL     1      48.561  30.096  90.301  1.00  0.00     0.000 C 
BRANCH  19  20
ATOM     20  C   UNL     1      49.499  31.315  90.246  1.00  0.00     0.000 C 
BRANCH  20  21
ATOM     21  C   UNL     1      50.906  30.951  89.745  1.00  0.00     0.000 C 
BRANCH  21  22
ATOM     22  C   UNL     1      51.154  31.428  88.307  1.00  0.00     0.000 C 
BRANCH  22  23
ATOM     23  C   UNL     1      51.129  30.246  87.327  1.00  0.00     0.000 C 
BRANCH  23  24
ATOM     24  C   UNL     1      51.225  30.689  85.858  1.00  0.00    -0.000 C 
BRANCH  24  25
ATOM     25  C   UNL     1      52.078  29.732  85.005  1.00  0.00    -0.000 C 
BRANCH  25  26
ATOM     26  C   UNL     1      53.396  30.382  84.536  1.00  0.00    -0.000 C 
BRANCH  26  27
ATOM     27  C   UNL     1      54.580  30.123  85.486  1.00  0.00    -0.000 C 
BRANCH  27  28
ATOM     28  C   UNL     1      54.754  31.182  86.589  1.00  0.00    -0.000 C 
BRANCH  28  29
ATOM     29  C   UNL     1      55.310  30.586  87.895  1.00  0.00    -0.000 C 
BRANCH  29  30
ATOM     30  C   UNL     1      54.624  31.159  89.145  1.00  0.00    -0.000 C 
BRANCH  30  31
ATOM     31  C   UNL     1      54.608  32.694  89.160  1.00  0.00    -0.003 C 
ATOM     32  C   UNL     1      53.901  33.226  90.403  1.00  0.00     0.004 C 
ENDBRANCH  30  31
ENDBRANCH  29  30
ENDBRANCH  28  29
ENDBRANCH  27  28
ENDBRANCH  26  27
ENDBRANCH  25  26
ENDBRANCH  24  25
ENDBRANCH  23  24
ENDBRANCH  22  23
ENDBRANCH  21  22
ENDBRANCH  20  21
ENDBRANCH  19  20
ENDBRANCH  18  19
ENDBRANCH   1  18
TORSDOF 28
ENDMDL
MODEL 8
REMARK VINA RESULT:    -3.287      3.420      7.441
REMARK INTER + INTRA:         -14.155
REMARK INTER:                  -7.099
REMARK INTRA:                  -7.056
REMARK UNBOUND:                -5.488
REMARK SMILES CCCCCCCCCCCCCCCCCCCCCCCCCCCCCC(=O)[O-]
REMARK SMILES IDX 16 1 17 2 18 3 19 4 20 5 21 6 22 7 23 8 24 9 25 10 26 11
REMARK SMILES IDX 27 12 28 13 29 14 30 15 31 16 32 17 15 18 14 19 13 20 12 21
REMARK SMILES IDX 11 22 10 23 9 24 8 25 7 26 6 27 5 28 4 29 3 30 2 31 1 32
REMARK H PARENT
REMARK Flexibility Score: inf
ROOT
ATOM      1  C   UNL     1      50.088  35.751  87.492  1.00  0.00     0.000 C 
ENDROOT
BRANCH   1   2
ATOM      2  C   UNL     1      51.327  34.885  87.775  1.00  0.00     0.000 C 
BRANCH   2   3
ATOM      3  C   UNL     1      52.568  35.390  87.019  1.00  0.00     0.000 C 
BRANCH   3   4
ATOM      4  C   UNL     1      53.548  34.256  86.670  1.00  0.00     0.000 C 
BRANCH   4   5
ATOM      5  C   UNL     1      53.077  32.860  87.119  1.00  0.00     0.000 C 
BRANCH   5   6
ATOM      6  C   UNL     1      53.195  31.814  85.996  1.00  0.00     0.000 C 
BRANCH   6   7
ATOM      7  C   UNL     1      51.846  31.167  85.644  1.00  0.00     0.000 C 
BRANCH   7   8
ATOM      8  C   UNL     1      51.149  31.852  84.456  1.00  0.00     0.000 C 
BRANCH   8   9
ATOM      9  C   UNL     1      52.138  32.555  83.514  1.00  0.00     0.000 C 
BRANCH   9  10
ATOM     10  C   UNL     1      51.756  34.020  83.238  1.00  0.00     0.000 C 
BRANCH  10  11
ATOM     11  C   UNL     1      50.562  34.485  84.097  1.00  0.00     0.000 C 
BRANCH  11  12
ATOM     12  C   UNL     1      49.301  34.814  83.281  1.00  0.00     0.000 C 
BRANCH  12  13
ATOM     13  C   UNL     1      48.200  33.751  83.424  1.00  0.00     0.006 C 
BRANCH  13  14
ATOM     14  C   UNL     1      47.582  33.369  82.073  1.00  0.00     0.053 C 
BRANCH  14  15
ATOM     15  C   UNL     1      48.630  33.040  81.052  1.00  0.00     0.041 C 
ATOM     16  O   UNL     1      48.765  33.760  80.029  1.00  0.00    -0.550 OA
ATOM     17  O   UNL     1      49.472  31.952  81.245  1.00  0.00    -0.550 OA
ENDBRANCH  14  15
ENDBRANCH  13  14
ENDBRANCH  12  13
ENDBRANCH  11  12
ENDBRANCH  10  11
ENDBRANCH   9  10
ENDBRANCH   8   9
ENDBRANCH   7   8
ENDBRANCH   6   7
ENDBRANCH   5   6
ENDBRANCH   4   5
ENDBRANCH   3   4
ENDBRANCH   2   3
ENDBRANCH   1   2
BRANCH   1  18
ATOM     18  C   UNL     1      48.813  34.907  87.325  1.00  0.00     0.000 C 
BRANCH  18  19
ATOM     19  C   UNL     1      49.121  33.402  87.285  1.00  0.00     0.000 C 
BRANCH  19  20
ATOM     20  C   UNL     1      47.874  32.575  86.926  1.00  0.00     0.000 C 
BRANCH  20  21
ATOM     21  C   UNL     1      48.218  31.120  86.569  1.00  0.00     0.000 C 
BRANCH  21  22
ATOM     22  C   UNL     1      47.226  30.119  87.178  1.00  0.00     0.000 C 
BRANCH  22  23
ATOM     23  C   UNL     1      46.314  30.809  88.203  1.00  0.00     0.000 C 
BRANCH  23  24
ATOM     24  C   UNL     1      46.547  30.309  89.638  1.00  0.00    -0.000 C 
BRANCH  24  25
ATOM     25  C   UNL     1      47.467  31.242  90.448  1.00  0.00    -0.000 C 
BRANCH  25  26
ATOM     26  C   UNL     1      48.843  30.605  90.734  1.00  0.00    -0.000 C 
BRANCH  26  27
ATOM     27  C   UNL     1      50.024  31.418  90.173  1.00  0.00    -0.000 C 
BRANCH  27  28
ATOM     28  C   UNL     1      50.897  30.658  89.160  1.00  0.00    -0.000 C 
BRANCH  28  29
ATOM     29  C   UNL     1      50.688  29.134  89.230  1.00  0.00    -0.000 C 
BRANCH  29  30
ATOM     30  C   UNL     1      50.533  28.495  87.841  1.00  0.00    -0.000 C 
BRANCH  30  31
ATOM     31  C   UNL     1      49.552  27.314  87.840  1.00  0.00    -0.003 C 
ATOM     32  C   UNL     1      48.736  27.274  89.129  1.00  0.00     0.004 C 
ENDBRANCH  30  31
ENDBRANCH  29  30
ENDBRANCH  28  29
ENDBRANCH  27  28
ENDBRANCH  26  27
ENDBRANCH  25  26
ENDBRANCH  24  25
ENDBRANCH  23  24
ENDBRANCH  22  23
ENDBRANCH  21  22
ENDBRANCH  20  21
ENDBRANCH  19  20
ENDBRANCH  18  19
ENDBRANCH   1  18
TORSDOF 28
ENDMDL
MODEL 9
REMARK VINA RESULT:    -3.277      1.948      3.456
REMARK INTER + INTRA:         -14.130
REMARK INTER:                  -8.961
REMARK INTRA:                  -5.169
REMARK UNBOUND:                -5.488
REMARK SMILES CCCCCCCCCCCCCCCCCCCCCCCCCCCCCC(=O)[O-]
REMARK SMILES IDX 16 1 17 2 18 3 19 4 20 5 21 6 22 7 23 8 24 9 25 10 26 11
REMARK SMILES IDX 27 12 28 13 29 14 30 15 31 16 32 17 15 18 14 19 13 20 12 21
REMARK SMILES IDX 11 22 10 23 9 24 8 25 7 26 6 27 5 28 4 29 3 30 2 31 1 32
REMARK H PARENT
REMARK Flexibility Score: inf
ROOT
ATOM      1  C   UNL     1      48.250  33.301  87.193  1.00  0.00     0.000 C 
ENDROOT
BRANCH   1   2
ATOM      2  C   UNL     1      49.251  32.582  86.275  1.00  0.00     0.000 C 
BRANCH   2   3
ATOM      3  C   UNL     1      49.000  31.065  86.223  1.00  0.00     0.000 C 
BRANCH   3   4
ATOM      4  C   UNL     1      50.288  30.247  86.424  1.00  0.00     0.000 C 
BRANCH   4   5
ATOM      5  C   UNL     1      51.508  31.091  86.839  1.00  0.00     0.000 C 
BRANCH   5   6
ATOM      6  C   UNL     1      52.181  30.556  88.116  1.00  0.00     0.000 C 
BRANCH   6   7
ATOM      7  C   UNL     1      52.139  31.563  89.276  1.00  0.00     0.000 C 
BRANCH   7   8
ATOM      8  C   UNL     1      50.712  32.043  89.595  1.00  0.00     0.000 C 
BRANCH   8   9
ATOM      9  C   UNL     1      49.984  31.122  90.584  1.00  0.00     0.000 C 
BRANCH   9  10
ATOM     10  C   UNL     1      48.953  30.209  89.897  1.00  0.00     0.000 C 
BRANCH  10  11
ATOM     11  C   UNL     1      47.540  30.367  90.496  1.00  0.00     0.000 C 
BRANCH  11  12
ATOM     12  C   UNL     1      46.760  31.568  89.935  1.00  0.00     0.000 C 
BRANCH  12  13
ATOM     13  C   UNL     1      45.354  31.706  90.541  1.00  0.00     0.006 C 
BRANCH  13  14
ATOM     14  C   UNL     1      44.999  30.530  91.458  1.00  0.00     0.053 C 
BRANCH  14  15
ATOM     15  C   UNL     1      43.777  30.812  92.281  1.00  0.00     0.041 C 
ATOM     16  O   UNL     1      42.799  30.020  92.254  1.00  0.00    -0.550 OA
ATOM     17  O   UNL     1      43.730  31.937  93.094  1.00  0.00    -0.550 OA
ENDBRANCH  14  15
ENDBRANCH  13  14
ENDBRANCH  12  13
ENDBRANCH  11  12
ENDBRANCH  10  11
ENDBRANCH   9  10
ENDBRANCH   8   9
ENDBRANCH   7   8
ENDBRANCH   6   7
ENDBRANCH   5   6
ENDBRANCH   4   5
ENDBRANCH   3   4
ENDBRANCH   2   3
ENDBRANCH   1   2
BRANCH   1  18
ATOM     18  C   UNL     1      48.414  34.830  87.151  1.00  0.00     0.000 C 
BRANCH  18  19
ATOM     19  C   UNL     1      49.750  35.247  86.517  1.00  0.00     0.000 C 
BRANCH  19  20
ATOM     20  C   UNL     1      50.775  35.678  87.580  1.00  0.00     0.000 C 
BRANCH  20  21
ATOM     21  C   UNL     1      52.102  34.911  87.461  1.00  0.00     0.000 C 
BRANCH  21  22
ATOM     22  C   UNL     1      52.789  35.144  86.107  1.00  0.00     0.000 C 
BRANCH  22  23
ATOM     23  C   UNL     1      52.797  33.857  85.269  1.00  0.00     0.000 C 
BRANCH  23  24
ATOM     24  C   UNL     1      52.090  34.025  83.914  1.00  0.00    -0.000 C 
BRANCH  24  25
ATOM     25  C   UNL     1      51.580  32.690  83.343  1.00  0.00    -0.000 C 
BRANCH  25  26
ATOM     26  C   UNL     1      50.296  32.864  82.503  1.00  0.00    -0.000 C 
BRANCH  26  27
ATOM     27  C   UNL     1      49.690  34.276  82.595  1.00  0.00    -0.000 C 
BRANCH  27  28
ATOM     28  C   UNL     1      48.306  34.333  83.266  1.00  0.00    -0.000 C 
BRANCH  28  29
ATOM     29  C   UNL     1      47.496  33.042  83.052  1.00  0.00    -0.000 C 
BRANCH  29  30
ATOM     30  C   UNL     1      46.542  33.135  81.850  1.00  0.00    -0.000 C 
BRANCH  30  31
ATOM     31  C   UNL     1      45.306  32.238  82.005  1.00  0.00    -0.003 C 
ATOM     32  C   UNL     1      44.048  33.069  82.240  1.00  0.00     0.004 C 
ENDBRANCH  30  31
ENDBRANCH  29  30
ENDBRANCH  28  29
ENDBRANCH  27  28
ENDBRANCH  26  27
ENDBRANCH  25  26
ENDBRANCH  24  25
ENDBRANCH  23  24
ENDBRANCH  22  23
ENDBRANCH  21  22
ENDBRANCH  20  21
ENDBRANCH  19  20
ENDBRANCH  18  19
ENDBRANCH   1  18
TORSDOF 28
ENDMDL
