MODEL 1
REMARK VINA RESULT:    -7.385      0.000      0.000
REMARK INTER + INTRA:          -8.966
REMARK INTER:                  -8.680
REMARK INTRA:                  -0.286
REMARK UNBOUND:                -0.286
REMARK SMILES O=c1cc(-c2ccc(O)c(O)c2)oc2cc(O)cc(O)c12
REMARK SMILES IDX 4 1 3 2 2 3 1 4 21 5 19 6 18 7 16 8 15 9 14 10 13 11 5 12
REMARK SMILES IDX 6 13 7 14 8 15 12 16 10 17 9 18 11 20 20 22 17 24
REMARK H PARENT 9 19 11 21 20 23 17 25
REMARK Flexibility Score: inf
ROOT
ATOM      1  C   UNL     1      77.069  -8.153  17.694  1.00  0.00     0.138 A 
ATOM      2  C   UNL     1      78.024  -7.263  17.183  1.00  0.00     0.100 A 
ATOM      3  C   UNL     1      77.736  -6.528  16.031  1.00  0.00     0.197 A 
ATOM      4  O   UNL     1      78.635  -5.780  15.566  1.00  0.00    -0.289 OA
ATOM      5  C   UNL     1      76.472  -6.660  15.409  1.00  0.00     0.107 A 
ATOM      6  C   UNL     1      76.055  -5.938  14.251  1.00  0.00     0.134 A 
ATOM      7  C   UNL     1      74.814  -6.225  13.669  1.00  0.00     0.093 A 
ATOM      8  C   UNL     1      73.952  -7.168  14.235  1.00  0.00     0.123 A 
ATOM      9  C   UNL     1      74.329  -7.842  15.394  1.00  0.00     0.094 A 
ATOM     10  C   UNL     1      75.575  -7.602  15.979  1.00  0.00     0.146 A 
ATOM     11  O   UNL     1      75.901  -8.282  17.073  1.00  0.00    -0.456 OA
ENDROOT
BRANCH   1  12
ATOM     12  C   UNL     1      77.320  -8.956  18.917  1.00  0.00     0.021 A 
ATOM     13  C   UNL     1      76.690 -10.198  19.131  1.00  0.00     0.016 A 
ATOM     14  C   UNL     1      76.938 -10.928  20.296  1.00  0.00     0.051 A 
ATOM     15  C   UNL     1      77.812 -10.429  21.270  1.00  0.00     0.157 A 
ATOM     16  C   UNL     1      78.186  -8.458  19.906  1.00  0.00     0.062 A 
ATOM     17  C   UNL     1      78.437  -9.188  21.074  1.00  0.00     0.158 A 
BRANCH  15  18
ATOM     18  O   UNL     1      78.058 -11.162  22.430  1.00  0.00    -0.504 OA
ATOM     19  H   UNL     1      78.548 -10.757  23.220  1.00  0.00     0.293 HD
ENDBRANCH  15  18
BRANCH  17  20
ATOM     20  O   UNL     1      79.309  -8.662  22.026  1.00  0.00    -0.504 OA
ATOM     21  H   UNL     1      80.314  -8.781  21.961  1.00  0.00     0.293 HD
ENDBRANCH  17  20
ENDBRANCH   1  12
BRANCH   6  22
ATOM     22  O   UNL     1      76.801  -4.919  13.651  1.00  0.00    -0.507 OA
ATOM     23  H   UNL     1      77.310  -4.204  14.148  1.00  0.00     0.293 HD
ENDBRANCH   6  22
BRANCH   8  24
ATOM     24  O   UNL     1      72.713  -7.436  13.656  1.00  0.00    -0.508 OA
ATOM     25  H   UNL     1      72.442  -8.378  13.397  1.00  0.00     0.293 HD
ENDBRANCH   8  24
TORSDOF 5
ENDMDL
MODEL 2
REMARK VINA RESULT:    -7.318      9.260     10.594
REMARK INTER + INTRA:          -8.888
REMARK INTER:                  -8.591
REMARK INTRA:                  -0.297
REMARK UNBOUND:                -0.286
REMARK SMILES O=c1cc(-c2ccc(O)c(O)c2)oc2cc(O)cc(O)c12
REMARK SMILES IDX 4 1 3 2 2 3 1 4 21 5 19 6 18 7 16 8 15 9 14 10 13 11 5 12
REMARK SMILES IDX 6 13 7 14 8 15 12 16 10 17 9 18 11 20 20 22 17 24
REMARK H PARENT 9 19 11 21 20 23 17 25
REMARK Flexibility Score: inf
ROOT
ATOM      1  C   UNL     1      73.908  -2.729  24.438  1.00  0.00     0.138 A 
ATOM      2  C   UNL     1      74.307  -3.634  23.444  1.00  0.00     0.100 A 
ATOM      3  C   UNL     1      75.503  -3.421  22.756  1.00  0.00     0.197 A 
ATOM      4  O   UNL     1      75.806  -4.221  21.834  1.00  0.00    -0.289 OA
ATOM      5  C   UNL     1      76.321  -2.315  23.091  1.00  0.00     0.107 A 
ATOM      6  C   UNL     1      77.576  -2.017  22.481  1.00  0.00     0.134 A 
ATOM      7  C   UNL     1      78.249  -0.838  22.827  1.00  0.00     0.093 A 
ATOM      8  C   UNL     1      77.739   0.024  23.802  1.00  0.00     0.123 A 
ATOM      9  C   UNL     1      76.540  -0.284  24.438  1.00  0.00     0.094 A 
ATOM     10  C   UNL     1      75.827  -1.435  24.090  1.00  0.00     0.146 A 
ATOM     11  O   UNL     1      74.678  -1.680  24.710  1.00  0.00    -0.456 OA
ENDROOT
BRANCH   1  12
ATOM     12  C   UNL     1      72.648  -2.907  25.202  1.00  0.00     0.021 A 
ATOM     13  C   UNL     1      71.453  -3.311  24.577  1.00  0.00     0.016 A 
ATOM     14  C   UNL     1      70.279  -3.461  25.321  1.00  0.00     0.051 A 
ATOM     15  C   UNL     1      70.277  -3.205  26.698  1.00  0.00     0.157 A 
ATOM     16  C   UNL     1      72.633  -2.639  26.582  1.00  0.00     0.062 A 
ATOM     17  C   UNL     1      71.460  -2.790  27.330  1.00  0.00     0.158 A 
BRANCH  15  18
ATOM     18  O   UNL     1      69.104  -3.357  27.436  1.00  0.00    -0.504 OA
ATOM     19  H   UNL     1      68.580  -4.225  27.427  1.00  0.00     0.293 HD
ENDBRANCH  15  18
BRANCH  17  20
ATOM     20  O   UNL     1      71.490  -2.523  28.698  1.00  0.00    -0.504 OA
ATOM     21  H   UNL     1      71.923  -1.687  29.074  1.00  0.00     0.293 HD
ENDBRANCH  17  20
ENDBRANCH   1  12
BRANCH   6  22
ATOM     22  O   UNL     1      78.215  -2.847  21.555  1.00  0.00    -0.507 OA
ATOM     23  H   UNL     1      78.201  -3.856  21.575  1.00  0.00     0.293 HD
ENDBRANCH   6  22
BRANCH   8  24
ATOM     24  O   UNL     1      78.424   1.187  24.150  1.00  0.00    -0.508 OA
ATOM     25  H   UNL     1      79.309   1.153  24.643  1.00  0.00     0.293 HD
ENDBRANCH   8  24
TORSDOF 5
ENDMDL
MODEL 3
REMARK VINA RESULT:    -7.309      9.849     11.741
REMARK INTER + INTRA:          -8.878
REMARK INTER:                  -8.583
REMARK INTRA:                  -0.295
REMARK UNBOUND:                -0.286
REMARK SMILES O=c1cc(-c2ccc(O)c(O)c2)oc2cc(O)cc(O)c12
REMARK SMILES IDX 4 1 3 2 2 3 1 4 21 5 19 6 18 7 16 8 15 9 14 10 13 11 5 12
REMARK SMILES IDX 6 13 7 14 8 15 12 16 10 17 9 18 11 20 20 22 17 24
REMARK H PARENT 9 19 11 21 20 23 17 25
REMARK Flexibility Score: inf
ROOT
ATOM      1  C   UNL     1      72.093  -2.631  23.663  1.00  0.00     0.138 A 
ATOM      2  C   UNL     1      73.213  -2.127  24.339  1.00  0.00     0.100 A 
ATOM      3  C   UNL     1      73.184  -2.003  25.729  1.00  0.00     0.197 A 
ATOM      4  O   UNL     1      74.184  -1.496  26.299  1.00  0.00    -0.289 OA
ATOM      5  C   UNL     1      72.038  -2.420  26.449  1.00  0.00     0.107 A 
ATOM      6  C   UNL     1      71.908  -2.372  27.869  1.00  0.00     0.134 A 
ATOM      7  C   UNL     1      70.688  -2.721  28.462  1.00  0.00     0.093 A 
ATOM      8  C   UNL     1      69.613  -3.170  27.691  1.00  0.00     0.123 A 
ATOM      9  C   UNL     1      69.747  -3.267  26.308  1.00  0.00     0.094 A 
ATOM     10  C   UNL     1      70.940  -2.894  25.683  1.00  0.00     0.146 A 
ATOM     11  O   UNL     1      71.018  -2.985  24.360  1.00  0.00    -0.456 OA
ENDROOT
BRANCH   1  12
ATOM     12  C   UNL     1      72.070  -2.787  22.187  1.00  0.00     0.021 A 
ATOM     13  C   UNL     1      70.969  -3.357  21.519  1.00  0.00     0.016 A 
ATOM     14  C   UNL     1      70.980  -3.501  20.129  1.00  0.00     0.051 A 
ATOM     15  C   UNL     1      72.090  -3.085  19.384  1.00  0.00     0.157 A 
ATOM     16  C   UNL     1      73.185  -2.384  21.432  1.00  0.00     0.062 A 
ATOM     17  C   UNL     1      73.198  -2.526  20.040  1.00  0.00     0.158 A 
BRANCH  15  18
ATOM     18  O   UNL     1      72.096  -3.228  17.997  1.00  0.00    -0.504 OA
ATOM     19  H   UNL     1      72.709  -3.889  17.534  1.00  0.00     0.293 HD
ENDBRANCH  15  18
BRANCH  17  20
ATOM     20  O   UNL     1      74.321  -2.105  19.327  1.00  0.00    -0.504 OA
ATOM     21  H   UNL     1      74.793  -2.707  18.662  1.00  0.00     0.293 HD
ENDBRANCH  17  20
ENDBRANCH   1  12
BRANCH   6  22
ATOM     22  O   UNL     1      72.942  -2.016  28.740  1.00  0.00    -0.507 OA
ATOM     23  H   UNL     1      72.819  -1.548  29.625  1.00  0.00     0.293 HD
ENDBRANCH   6  22
BRANCH   8  24
ATOM     24  O   UNL     1      68.408  -3.529  28.291  1.00  0.00    -0.508 OA
ATOM     25  H   UNL     1      68.375  -4.191  29.057  1.00  0.00     0.293 HD
ENDBRANCH   8  24
TORSDOF 5
ENDMDL
MODEL 4
REMARK VINA RESULT:    -7.268      8.691     10.702
REMARK INTER + INTRA:          -8.830
REMARK INTER:                  -8.535
REMARK INTRA:                  -0.294
REMARK UNBOUND:                -0.286
REMARK SMILES O=c1cc(-c2ccc(O)c(O)c2)oc2cc(O)cc(O)c12
REMARK SMILES IDX 4 1 3 2 2 3 1 4 21 5 19 6 18 7 16 8 15 9 14 10 13 11 5 12
REMARK SMILES IDX 6 13 7 14 8 15 12 16 10 17 9 18 11 20 20 22 17 24
REMARK H PARENT 9 19 11 21 20 23 17 25
REMARK Flexibility Score: inf
ROOT
ATOM      1  C   UNL     1      75.573  -2.249  23.261  1.00  0.00     0.138 A 
ATOM      2  C   UNL     1      74.481  -2.817  22.590  1.00  0.00     0.100 A 
ATOM      3  C   UNL     1      73.319  -3.126  23.300  1.00  0.00     0.197 A 
ATOM      4  O   UNL     1      72.378  -3.686  22.680  1.00  0.00    -0.289 OA
ATOM      5  C   UNL     1      73.239  -2.832  24.682  1.00  0.00     0.107 A 
ATOM      6  C   UNL     1      72.095  -3.071  25.501  1.00  0.00     0.134 A 
ATOM      7  C   UNL     1      72.169  -2.829  26.878  1.00  0.00     0.093 A 
ATOM      8  C   UNL     1      73.325  -2.302  27.457  1.00  0.00     0.123 A 
ATOM      9  C   UNL     1      74.431  -2.017  26.658  1.00  0.00     0.094 A 
ATOM     10  C   UNL     1      74.401  -2.281  25.287  1.00  0.00     0.146 A 
ATOM     11  O   UNL     1      75.484  -2.012  24.566  1.00  0.00    -0.456 OA
ENDROOT
BRANCH   1  12
ATOM     12  C   UNL     1      76.831  -1.897  22.556  1.00  0.00     0.021 A 
ATOM     13  C   UNL     1      77.429  -2.770  21.626  1.00  0.00     0.016 A 
ATOM     14  C   UNL     1      78.619  -2.416  20.985  1.00  0.00     0.051 A 
ATOM     15  C   UNL     1      79.236  -1.190  21.266  1.00  0.00     0.157 A 
ATOM     16  C   UNL     1      77.465  -0.675  22.841  1.00  0.00     0.062 A 
ATOM     17  C   UNL     1      78.657  -0.318  22.200  1.00  0.00     0.158 A 
BRANCH  15  18
ATOM     18  O   UNL     1      80.422  -0.841  20.622  1.00  0.00    -0.504 OA
ATOM     19  H   UNL     1      81.287  -0.711  21.136  1.00  0.00     0.293 HD
ENDBRANCH  15  18
BRANCH  17  20
ATOM     20  O   UNL     1      79.248   0.908  22.504  1.00  0.00    -0.504 OA
ATOM     21  H   UNL     1      79.509   1.160  23.451  1.00  0.00     0.293 HD
ENDBRANCH  17  20
ENDBRANCH   1  12
BRANCH   6  22
ATOM     22  O   UNL     1      70.863  -3.521  25.015  1.00  0.00    -0.507 OA
ATOM     23  H   UNL     1      69.995  -3.011  25.076  1.00  0.00     0.293 HD
ENDBRANCH   6  22
BRANCH   8  24
ATOM     24  O   UNL     1      73.384  -2.049  28.826  1.00  0.00    -0.508 OA
ATOM     25  H   UNL     1      73.980  -1.323  29.206  1.00  0.00     0.293 HD
ENDBRANCH   8  24
TORSDOF 5
ENDMDL
MODEL 5
REMARK VINA RESULT:    -7.192     11.145     12.403
REMARK INTER + INTRA:          -8.739
REMARK INTER:                  -8.447
REMARK INTRA:                  -0.292
REMARK UNBOUND:                -0.286
REMARK SMILES O=c1cc(-c2ccc(O)c(O)c2)oc2cc(O)cc(O)c12
REMARK SMILES IDX 4 1 3 2 2 3 1 4 21 5 19 6 18 7 16 8 15 9 14 10 13 11 5 12
REMARK SMILES IDX 6 13 7 14 8 15 12 16 10 17 9 18 11 20 20 22 17 24
REMARK H PARENT 9 19 11 21 20 23 17 25
REMARK Flexibility Score: inf
ROOT
ATOM      1  C   UNL     1      73.259  -0.933  26.185  1.00  0.00     0.138 A 
ATOM      2  C   UNL     1      73.603   0.337  26.671  1.00  0.00     0.100 A 
ATOM      3  C   UNL     1      74.788   0.941  26.248  1.00  0.00     0.197 A 
ATOM      4  O   UNL     1      75.094   2.055  26.744  1.00  0.00    -0.289 OA
ATOM      5  C   UNL     1      75.616   0.284  25.305  1.00  0.00     0.107 A 
ATOM      6  C   UNL     1      76.829   0.818  24.776  1.00  0.00     0.134 A 
ATOM      7  C   UNL     1      77.613   0.032  23.923  1.00  0.00     0.093 A 
ATOM      8  C   UNL     1      77.201  -1.244  23.534  1.00  0.00     0.123 A 
ATOM      9  C   UNL     1      75.993  -1.754  24.005  1.00  0.00     0.094 A 
ATOM     10  C   UNL     1      75.205  -1.009  24.886  1.00  0.00     0.146 A 
ATOM     11  O   UNL     1      74.070  -1.542  25.325  1.00  0.00    -0.456 OA
ENDROOT
BRANCH   1  12
ATOM     12  C   UNL     1      72.011  -1.621  26.598  1.00  0.00     0.021 A 
ATOM     13  C   UNL     1      71.808  -2.995  26.364  1.00  0.00     0.016 A 
ATOM     14  C   UNL     1      70.618  -3.613  26.756  1.00  0.00     0.051 A 
ATOM     15  C   UNL     1      69.608  -2.871  27.380  1.00  0.00     0.157 A 
ATOM     16  C   UNL     1      70.985  -0.881  27.214  1.00  0.00     0.062 A 
ATOM     17  C   UNL     1      69.792  -1.499  27.608  1.00  0.00     0.158 A 
BRANCH  15  18
ATOM     18  O   UNL     1      68.422  -3.493  27.770  1.00  0.00    -0.504 OA
ATOM     19  H   UNL     1      67.860  -3.132  28.532  1.00  0.00     0.293 HD
ENDBRANCH  15  18
BRANCH  17  20
ATOM     20  O   UNL     1      68.804  -0.731  28.223  1.00  0.00    -0.504 OA
ATOM     21  H   UNL     1      67.822  -0.838  27.999  1.00  0.00     0.293 HD
ENDBRANCH  17  20
ENDBRANCH   1  12
BRANCH   6  22
ATOM     22  O   UNL     1      77.295   2.110  25.034  1.00  0.00    -0.507 OA
ATOM     23  H   UNL     1      77.039   2.934  24.511  1.00  0.00     0.293 HD
ENDBRANCH   6  22
BRANCH   8  24
ATOM     24  O   UNL     1      77.981  -2.013  22.672  1.00  0.00    -0.508 OA
ATOM     25  H   UNL     1      77.695  -2.941  22.384  1.00  0.00     0.293 HD
ENDBRANCH   8  24
TORSDOF 5
ENDMDL
MODEL 6
REMARK VINA RESULT:    -7.178      9.839     11.245
REMARK INTER + INTRA:          -8.723
REMARK INTER:                  -8.405
REMARK INTRA:                  -0.318
REMARK UNBOUND:                -0.286
REMARK SMILES O=c1cc(-c2ccc(O)c(O)c2)oc2cc(O)cc(O)c12
REMARK SMILES IDX 4 1 3 2 2 3 1 4 21 5 19 6 18 7 16 8 15 9 14 10 13 11 5 12
REMARK SMILES IDX 6 13 7 14 8 15 12 16 10 17 9 18 11 20 20 22 17 24
REMARK H PARENT 9 19 11 21 20 23 17 25
REMARK Flexibility Score: inf
ROOT
ATOM      1  C   UNL     1      72.029  -2.501  22.968  1.00  0.00     0.138 A 
ATOM      2  C   UNL     1      72.422  -1.175  23.202  1.00  0.00     0.100 A 
ATOM      3  C   UNL     1      72.072  -0.553  24.401  1.00  0.00     0.197 A 
ATOM      4  O   UNL     1      72.392   0.654  24.556  1.00  0.00    -0.289 OA
ATOM      5  C   UNL     1      71.356  -1.273  25.386  1.00  0.00     0.107 A 
ATOM      6  C   UNL     1      70.974  -0.753  26.659  1.00  0.00     0.134 A 
ATOM      7  C   UNL     1      70.180  -1.530  27.512  1.00  0.00     0.093 A 
ATOM      8  C   UNL     1      69.803  -2.829  27.163  1.00  0.00     0.123 A 
ATOM      9  C   UNL     1      70.213  -3.364  25.944  1.00  0.00     0.094 A 
ATOM     10  C   UNL     1      70.976  -2.602  25.056  1.00  0.00     0.146 A 
ATOM     11  O   UNL     1      71.329  -3.146  23.896  1.00  0.00    -0.456 OA
ENDROOT
BRANCH   1  12
ATOM     12  C   UNL     1      72.376  -3.214  21.713  1.00  0.00     0.021 A 
ATOM     13  C   UNL     1      73.079  -2.579  20.670  1.00  0.00     0.016 A 
ATOM     14  C   UNL     1      73.383  -3.272  19.496  1.00  0.00     0.051 A 
ATOM     15  C   UNL     1      72.986  -4.606  19.339  1.00  0.00     0.157 A 
ATOM     16  C   UNL     1      71.971  -4.549  21.541  1.00  0.00     0.062 A 
ATOM     17  C   UNL     1      72.275  -5.245  20.366  1.00  0.00     0.158 A 
BRANCH  15  18
ATOM     18  O   UNL     1      73.293  -5.294  18.165  1.00  0.00    -0.504 OA
ATOM     19  H   UNL     1      74.031  -5.989  18.135  1.00  0.00     0.293 HD
ENDBRANCH  15  18
BRANCH  17  20
ATOM     20  O   UNL     1      71.862  -6.571  20.239  1.00  0.00    -0.504 OA
ATOM     21  H   UNL     1      70.893  -6.821  20.077  1.00  0.00     0.293 HD
ENDBRANCH  17  20
ENDBRANCH   1  12
BRANCH   6  22
ATOM     22  O   UNL     1      71.362   0.500  27.142  1.00  0.00    -0.507 OA
ATOM     23  H   UNL     1      70.798   1.094  27.732  1.00  0.00     0.293 HD
ENDBRANCH   6  22
BRANCH   8  24
ATOM     24  O   UNL     1      69.026  -3.600  28.025  1.00  0.00    -0.508 OA
ATOM     25  H   UNL     1      68.544  -4.431  27.703  1.00  0.00     0.293 HD
ENDBRANCH   8  24
TORSDOF 5
ENDMDL
MODEL 7
REMARK VINA RESULT:    -7.039      9.453     10.324
REMARK INTER + INTRA:          -8.560
REMARK INTER:                  -8.282
REMARK INTRA:                  -0.277
REMARK UNBOUND:                -0.286
REMARK SMILES O=c1cc(-c2ccc(O)c(O)c2)oc2cc(O)cc(O)c12
REMARK SMILES IDX 4 1 3 2 2 3 1 4 21 5 19 6 18 7 16 8 15 9 14 10 13 11 5 12
REMARK SMILES IDX 6 13 7 14 8 15 12 16 10 17 9 18 11 20 20 22 17 24
REMARK H PARENT 9 19 11 21 20 23 17 25
REMARK Flexibility Score: inf
ROOT
ATOM      1  C   UNL     1      71.751  -3.116  23.991  1.00  0.00     0.138 A 
ATOM      2  C   UNL     1      71.014  -3.518  22.867  1.00  0.00     0.100 A 
ATOM      3  C   UNL     1      71.684  -3.944  21.719  1.00  0.00     0.197 A 
ATOM      4  O   UNL     1      70.995  -4.245  20.710  1.00  0.00    -0.289 OA
ATOM      5  C   UNL     1      73.098  -4.003  21.709  1.00  0.00     0.107 A 
ATOM      6  C   UNL     1      73.886  -4.452  20.607  1.00  0.00     0.134 A 
ATOM      7  C   UNL     1      75.282  -4.372  20.680  1.00  0.00     0.093 A 
ATOM      8  C   UNL     1      75.920  -3.912  21.835  1.00  0.00     0.123 A 
ATOM      9  C   UNL     1      75.160  -3.517  22.934  1.00  0.00     0.094 A 
ATOM     10  C   UNL     1      73.764  -3.553  22.880  1.00  0.00     0.146 A 
ATOM     11  O   UNL     1      73.079  -3.150  23.944  1.00  0.00    -0.456 OA
ENDROOT
BRANCH   1  12
ATOM     12  C   UNL     1      71.092  -2.657  25.239  1.00  0.00     0.021 A 
ATOM     13  C   UNL     1      70.220  -3.489  25.967  1.00  0.00     0.016 A 
ATOM     14  C   UNL     1      69.606  -3.026  27.133  1.00  0.00     0.051 A 
ATOM     15  C   UNL     1      69.846  -1.724  27.589  1.00  0.00     0.157 A 
ATOM     16  C   UNL     1      71.317  -1.347  25.697  1.00  0.00     0.062 A 
ATOM     17  C   UNL     1      70.704  -0.880  26.866  1.00  0.00     0.158 A 
BRANCH  15  18
ATOM     18  O   UNL     1      69.232  -1.266  28.755  1.00  0.00    -0.504 OA
ATOM     19  H   UNL     1      69.551  -0.429  29.229  1.00  0.00     0.293 HD
ENDBRANCH  15  18
BRANCH  17  20
ATOM     20  O   UNL     1      70.960   0.422  27.292  1.00  0.00    -0.504 OA
ATOM     21  H   UNL     1      71.444   0.620  28.160  1.00  0.00     0.293 HD
ENDBRANCH  17  20
ENDBRANCH   1  12
BRANCH   6  22
ATOM     22  O   UNL     1      73.356  -5.005  19.438  1.00  0.00    -0.507 OA
ATOM     23  H   UNL     1      73.816  -5.694  18.862  1.00  0.00     0.293 HD
ENDBRANCH   6  22
BRANCH   8  24
ATOM     24  O   UNL     1      77.310  -3.849  21.903  1.00  0.00    -0.508 OA
ATOM     25  H   UNL     1      77.841  -3.215  21.317  1.00  0.00     0.293 HD
ENDBRANCH   8  24
TORSDOF 5
ENDMDL
MODEL 8
REMARK VINA RESULT:    -7.039      9.483     10.010
REMARK INTER + INTRA:          -8.559
REMARK INTER:                  -8.294
REMARK INTRA:                  -0.265
REMARK UNBOUND:                -0.286
REMARK SMILES O=c1cc(-c2ccc(O)c(O)c2)oc2cc(O)cc(O)c12
REMARK SMILES IDX 4 1 3 2 2 3 1 4 21 5 19 6 18 7 16 8 15 9 14 10 13 11 5 12
REMARK SMILES IDX 6 13 7 14 8 15 12 16 10 17 9 18 11 20 20 22 17 24
REMARK H PARENT 9 19 11 21 20 23 17 25
REMARK Flexibility Score: inf
ROOT
ATOM      1  C   UNL     1      72.246  -3.019  24.334  1.00  0.00     0.138 A 
ATOM      2  C   UNL     1      73.638  -3.162  24.425  1.00  0.00     0.100 A 
ATOM      3  C   UNL     1      74.360  -3.605  23.316  1.00  0.00     0.197 A 
ATOM      4  O   UNL     1      75.600  -3.776  23.448  1.00  0.00    -0.289 OA
ATOM      5  C   UNL     1      73.689  -3.873  22.099  1.00  0.00     0.107 A 
ATOM      6  C   UNL     1      74.326  -4.298  20.895  1.00  0.00     0.134 A 
ATOM      7  C   UNL     1      73.544  -4.627  19.781  1.00  0.00     0.093 A 
ATOM      8  C   UNL     1      72.154  -4.492  19.809  1.00  0.00     0.123 A 
ATOM      9  C   UNL     1      71.527  -4.031  20.964  1.00  0.00     0.094 A 
ATOM     10  C   UNL     1      72.276  -3.727  22.104  1.00  0.00     0.146 A 
ATOM     11  O   UNL     1      71.636  -3.308  23.189  1.00  0.00    -0.456 OA
ENDROOT
BRANCH   1  12
ATOM     12  C   UNL     1      71.428  -2.549  25.480  1.00  0.00     0.021 A 
ATOM     13  C   UNL     1      70.475  -3.379  26.101  1.00  0.00     0.016 A 
ATOM     14  C   UNL     1      69.712  -2.906  27.172  1.00  0.00     0.051 A 
ATOM     15  C   UNL     1      69.882  -1.595  27.636  1.00  0.00     0.157 A 
ATOM     16  C   UNL     1      71.582  -1.231  25.944  1.00  0.00     0.062 A 
ATOM     17  C   UNL     1      70.820  -0.754  27.018  1.00  0.00     0.158 A 
BRANCH  15  18
ATOM     18  O   UNL     1      69.120  -1.127  28.706  1.00  0.00    -0.504 OA
ATOM     19  H   UNL     1      68.215  -1.527  28.929  1.00  0.00     0.293 HD
ENDBRANCH  15  18
BRANCH  17  20
ATOM     20  O   UNL     1      71.010   0.557  27.453  1.00  0.00    -0.504 OA
ATOM     21  H   UNL     1      70.756   0.856  28.388  1.00  0.00     0.293 HD
ENDBRANCH  17  20
ENDBRANCH   1  12
BRANCH   6  22
ATOM     22  O   UNL     1      75.711  -4.390  20.731  1.00  0.00    -0.507 OA
ATOM     23  H   UNL     1      76.267  -3.786  20.144  1.00  0.00     0.293 HD
ENDBRANCH   6  22
BRANCH   8  24
ATOM     24  O   UNL     1      71.386  -4.808  18.690  1.00  0.00    -0.508 OA
ATOM     25  H   UNL     1      70.374  -4.768  18.714  1.00  0.00     0.293 HD
ENDBRANCH   8  24
TORSDOF 5
ENDMDL
MODEL 9
REMARK VINA RESULT:    -7.025     10.209     11.958
REMARK INTER + INTRA:          -8.544
REMARK INTER:                  -8.277
REMARK INTRA:                  -0.267
REMARK UNBOUND:                -0.286
REMARK SMILES O=c1cc(-c2ccc(O)c(O)c2)oc2cc(O)cc(O)c12
REMARK SMILES IDX 4 1 3 2 2 3 1 4 21 5 19 6 18 7 16 8 15 9 14 10 13 11 5 12
REMARK SMILES IDX 6 13 7 14 8 15 12 16 10 17 9 18 11 20 20 22 17 24
REMARK H PARENT 9 19 11 21 20 23 17 25
REMARK Flexibility Score: inf
ROOT
ATOM      1  C   UNL     1      75.205  -0.960  25.207  1.00  0.00     0.138 A 
ATOM      2  C   UNL     1      75.132  -0.720  26.586  1.00  0.00     0.100 A 
ATOM      3  C   UNL     1      74.039  -1.196  27.314  1.00  0.00     0.197 A 
ATOM      4  O   UNL     1      73.977  -0.915  28.538  1.00  0.00    -0.289 OA
ATOM      5  C   UNL     1      73.033  -1.948  26.662  1.00  0.00     0.107 A 
ATOM      6  C   UNL     1      71.892  -2.512  27.307  1.00  0.00     0.134 A 
ATOM      7  C   UNL     1      70.912  -3.153  26.539  1.00  0.00     0.093 A 
ATOM      8  C   UNL     1      71.060  -3.301  25.157  1.00  0.00     0.123 A 
ATOM      9  C   UNL     1      72.195  -2.797  24.526  1.00  0.00     0.094 A 
ATOM     10  C   UNL     1      73.173  -2.122  25.259  1.00  0.00     0.146 A 
ATOM     11  O   UNL     1      74.230  -1.642  24.613  1.00  0.00    -0.456 OA
ENDROOT
BRANCH   1  12
ATOM     12  C   UNL     1      76.344  -0.481  24.385  1.00  0.00     0.021 A 
ATOM     13  C   UNL     1      77.139  -1.366  23.631  1.00  0.00     0.016 A 
ATOM     14  C   UNL     1      78.211  -0.887  22.875  1.00  0.00     0.051 A 
ATOM     15  C   UNL     1      78.513   0.481  22.863  1.00  0.00     0.157 A 
ATOM     16  C   UNL     1      76.662   0.889  24.377  1.00  0.00     0.062 A 
ATOM     17  C   UNL     1      77.735   1.372  23.619  1.00  0.00     0.158 A 
BRANCH  15  18
ATOM     18  O   UNL     1      79.583   0.955  22.105  1.00  0.00    -0.504 OA
ATOM     19  H   UNL     1      79.440   1.410  21.210  1.00  0.00     0.293 HD
ENDBRANCH  15  18
BRANCH  17  20
ATOM     20  O   UNL     1      78.012   2.738  23.632  1.00  0.00    -0.504 OA
ATOM     21  H   UNL     1      77.282   3.436  23.545  1.00  0.00     0.293 HD
ENDBRANCH  17  20
ENDBRANCH   1  12
BRANCH   6  22
ATOM     22  O   UNL     1      71.683  -2.493  28.689  1.00  0.00    -0.507 OA
ATOM     23  H   UNL     1      71.324  -3.264  29.231  1.00  0.00     0.293 HD
ENDBRANCH   6  22
BRANCH   8  24
ATOM     24  O   UNL     1      70.087  -3.954  24.403  1.00  0.00    -0.508 OA
ATOM     25  H   UNL     1      69.951  -4.956  24.468  1.00  0.00     0.293 HD
ENDBRANCH   8  24
TORSDOF 5
ENDMDL
