MODEL 1
REMARK VINA RESULT:    -7.496      0.000      0.000
REMARK INTER + INTRA:         -10.550
REMARK INTER:                 -10.126
REMARK INTRA:                  -0.424
REMARK UNBOUND:                -0.424
REMARK SMILES COc1ccc(-c2cc(=O)c3c(OC)c(OC)c(OC)cc3o2)cc1OC
REMARK SMILES IDX 7 1 8 2 9 3 10 4 11 5 12 6 15 7 18 8 21 9 22 10 23 11 6 12
REMARK SMILES IDX 3 13 25 14 4 15 24 16 5 17 2 18 1 19 26 20 27 21 13 22 14 23
REMARK SMILES IDX 19 24 20 25 16 26 17 27
REMARK H PARENT
REMARK Flexibility Score: inf
ROOT
ATOM      1  C   UNL     1     169.842 145.795 153.106  1.00  0.00     0.138 A 
ATOM      2  C   UNL     1     170.687 144.699 152.870  1.00  0.00     0.100 A 
ATOM      3  C   UNL     1     171.653 144.360 153.817  1.00  0.00     0.197 A 
ATOM      4  O   UNL     1     172.404 143.371 153.596  1.00  0.00    -0.289 OA
ATOM      5  C   UNL     1     171.764 145.117 155.003  1.00  0.00     0.111 A 
ATOM      6  C   UNL     1     172.728 144.851 156.004  1.00  0.00     0.179 A 
ATOM      7  C   UNL     1     172.735 145.619 157.190  1.00  0.00     0.204 A 
ATOM      8  C   UNL     1     171.862 146.706 157.334  1.00  0.00     0.168 A 
ATOM      9  C   UNL     1     170.935 146.992 156.317  1.00  0.00     0.098 A 
ATOM     10  C   UNL     1     170.872 146.201 155.170  1.00  0.00     0.146 A 
ATOM     11  O   UNL     1     169.969 146.485 154.238  1.00  0.00    -0.456 OA
ENDROOT
BRANCH   1  12
ATOM     12  C   UNL     1     168.795 146.202 152.136  1.00  0.00     0.021 A 
ATOM     13  C   UNL     1     166.771 146.998 150.336  1.00  0.00     0.160 A 
ATOM     14  C   UNL     1     168.079 146.792 149.871  1.00  0.00     0.161 A 
ATOM     15  C   UNL     1     166.484 146.815 151.700  1.00  0.00     0.051 A 
ATOM     16  C   UNL     1     169.086 146.399 150.773  1.00  0.00     0.062 A 
ATOM     17  C   UNL     1     167.486 146.427 152.589  1.00  0.00     0.016 A 
BRANCH  13  18
ATOM     18  O   UNL     1     165.787 147.386 149.411  1.00  0.00    -0.493 OA
ATOM     19  C   UNL     1     164.523 147.938 149.763  1.00  0.00     0.278 C 
ENDBRANCH  13  18
BRANCH  14  20
ATOM     20  O   UNL     1     168.337 146.992 148.505  1.00  0.00    -0.493 OA
ATOM     21  C   UNL     1     169.554 146.644 147.853  1.00  0.00     0.278 C 
ENDBRANCH  14  20
ENDBRANCH   1  12
BRANCH   6  22
ATOM     22  O   UNL     1     173.680 143.846 155.806  1.00  0.00    -0.492 OA
ATOM     23  C   UNL     1     174.990 144.130 155.328  1.00  0.00     0.278 C 
ENDBRANCH   6  22
BRANCH   8  24
ATOM     24  O   UNL     1     171.936 147.470 158.509  1.00  0.00    -0.493 OA
ATOM     25  C   UNL     1     171.566 148.842 158.606  1.00  0.00     0.278 C 
ENDBRANCH   8  24
BRANCH   7  26
ATOM     26  O   UNL     1     173.596 145.321 158.253  1.00  0.00    -0.490 OA
ATOM     27  C   UNL     1     174.883 145.915 158.392  1.00  0.00     0.278 C 
ENDBRANCH   7  26
TORSDOF 6
ENDMDL
MODEL 2
REMARK VINA RESULT:    -7.456      1.853      3.113
REMARK INTER + INTRA:         -10.495
REMARK INTER:                  -9.867
REMARK INTRA:                  -0.628
REMARK UNBOUND:                -0.424
REMARK SMILES COc1ccc(-c2cc(=O)c3c(OC)c(OC)c(OC)cc3o2)cc1OC
REMARK SMILES IDX 7 1 8 2 9 3 10 4 11 5 12 6 15 7 18 8 21 9 22 10 23 11 6 12
REMARK SMILES IDX 3 13 25 14 4 15 24 16 5 17 2 18 1 19 26 20 27 21 13 22 14 23
REMARK SMILES IDX 19 24 20 25 16 26 17 27
REMARK H PARENT
REMARK Flexibility Score: inf
ROOT
ATOM      1  C   UNL     1     169.002 145.617 153.406  1.00  0.00     0.138 A 
ATOM      2  C   UNL     1     168.560 145.530 154.735  1.00  0.00     0.100 A 
ATOM      3  C   UNL     1     169.422 145.037 155.715  1.00  0.00     0.197 A 
ATOM      4  O   UNL     1     169.016 144.967 156.906  1.00  0.00    -0.289 OA
ATOM      5  C   UNL     1     170.728 144.639 155.358  1.00  0.00     0.111 A 
ATOM      6  C   UNL     1     171.657 144.112 156.286  1.00  0.00     0.179 A 
ATOM      7  C   UNL     1     172.967 143.793 155.860  1.00  0.00     0.204 A 
ATOM      8  C   UNL     1     173.315 143.898 154.507  1.00  0.00     0.168 A 
ATOM      9  C   UNL     1     172.375 144.382 153.582  1.00  0.00     0.098 A 
ATOM     10  C   UNL     1     171.100 144.765 154.000  1.00  0.00     0.146 A 
ATOM     11  O   UNL     1     170.241 145.240 153.104  1.00  0.00    -0.456 OA
ENDROOT
BRANCH   1  12
ATOM     12  C   UNL     1     168.130 146.136 152.322  1.00  0.00     0.021 A 
ATOM     13  C   UNL     1     166.436 147.147 150.302  1.00  0.00     0.160 A 
ATOM     14  C   UNL     1     167.768 146.823 150.001  1.00  0.00     0.161 A 
ATOM     15  C   UNL     1     165.960 146.973 151.614  1.00  0.00     0.051 A 
ATOM     16  C   UNL     1     168.610 146.323 151.012  1.00  0.00     0.062 A 
ATOM     17  C   UNL     1     166.801 146.478 152.612  1.00  0.00     0.016 A 
BRANCH  13  18
ATOM     18  O   UNL     1     165.619 147.641 149.271  1.00  0.00    -0.493 OA
ATOM     19  C   UNL     1     164.248 147.988 149.426  1.00  0.00     0.278 C 
ENDBRANCH  13  18
BRANCH  14  20
ATOM     20  O   UNL     1     168.216 147.017 148.684  1.00  0.00    -0.493 OA
ATOM     21  C   UNL     1     169.462 146.550 148.177  1.00  0.00     0.278 C 
ENDBRANCH  14  20
ENDBRANCH   1  12
BRANCH   6  22
ATOM     22  O   UNL     1     171.270 143.890 157.611  1.00  0.00    -0.492 OA
ATOM     23  C   UNL     1     171.022 142.583 158.116  1.00  0.00     0.278 C 
ENDBRANCH   6  22
BRANCH   8  24
ATOM     24  O   UNL     1     174.613 143.525 154.122  1.00  0.00    -0.493 OA
ATOM     25  C   UNL     1     174.964 142.251 153.590  1.00  0.00     0.278 C 
ENDBRANCH   8  24
BRANCH   7  26
ATOM     26  O   UNL     1     173.951 143.374 156.763  1.00  0.00    -0.490 OA
ATOM     27  C   UNL     1     174.749 144.285 157.513  1.00  0.00     0.278 C 
ENDBRANCH   7  26
TORSDOF 6
ENDMDL
MODEL 3
REMARK VINA RESULT:    -6.960      1.371      1.654
REMARK INTER + INTRA:          -9.825
REMARK INTER:                  -9.245
REMARK INTRA:                  -0.580
REMARK UNBOUND:                -0.424
REMARK SMILES COc1ccc(-c2cc(=O)c3c(OC)c(OC)c(OC)cc3o2)cc1OC
REMARK SMILES IDX 7 1 8 2 9 3 10 4 11 5 12 6 15 7 18 8 21 9 22 10 23 11 6 12
REMARK SMILES IDX 3 13 25 14 4 15 24 16 5 17 2 18 1 19 26 20 27 21 13 22 14 23
REMARK SMILES IDX 19 24 20 25 16 26 17 27
REMARK H PARENT
REMARK Flexibility Score: inf
ROOT
ATOM      1  C   UNL     1     170.441 145.038 152.734  1.00  0.00     0.138 A 
ATOM      2  C   UNL     1     171.432 144.215 152.174  1.00  0.00     0.100 A 
ATOM      3  C   UNL     1     172.424 143.680 152.995  1.00  0.00     0.197 A 
ATOM      4  O   UNL     1     173.306 142.940 152.481  1.00  0.00    -0.289 OA
ATOM      5  C   UNL     1     172.416 143.965 154.376  1.00  0.00     0.111 A 
ATOM      6  C   UNL     1     173.396 143.478 155.273  1.00  0.00     0.179 A 
ATOM      7  C   UNL     1     173.283 143.760 156.654  1.00  0.00     0.204 A 
ATOM      8  C   UNL     1     172.267 144.605 157.122  1.00  0.00     0.168 A 
ATOM      9  C   UNL     1     171.321 145.121 156.220  1.00  0.00     0.098 A 
ATOM     10  C   UNL     1     171.381 144.795 154.865  1.00  0.00     0.146 A 
ATOM     11  O   UNL     1     170.458 145.282 154.042  1.00  0.00    -0.456 OA
ENDROOT
BRANCH   1  12
ATOM     12  C   UNL     1     169.359 145.634 151.911  1.00  0.00     0.021 A 
ATOM     13  C   UNL     1     167.274 146.787 150.395  1.00  0.00     0.160 A 
ATOM     14  C   UNL     1     168.520 146.541 149.797  1.00  0.00     0.161 A 
ATOM     15  C   UNL     1     167.080 146.464 151.749  1.00  0.00     0.051 A 
ATOM     16  C   UNL     1     169.559 145.970 150.559  1.00  0.00     0.062 A 
ATOM     17  C   UNL     1     168.113 145.899 152.498  1.00  0.00     0.016 A 
BRANCH  13  18
ATOM     18  O   UNL     1     166.257 147.354 149.609  1.00  0.00    -0.493 OA
ATOM     19  C   UNL     1     165.058 147.918 150.128  1.00  0.00     0.278 C 
ENDBRANCH  13  18
BRANCH  14  20
ATOM     20  O   UNL     1     168.687 146.883 148.446  1.00  0.00    -0.493 OA
ATOM     21  C   UNL     1     169.719 146.378 147.605  1.00  0.00     0.278 C 
ENDBRANCH  14  20
ENDBRANCH   1  12
BRANCH   6  22
ATOM     22  O   UNL     1     174.479 142.738 154.789  1.00  0.00    -0.492 OA
ATOM     23  C   UNL     1     175.789 143.288 154.700  1.00  0.00     0.278 C 
ENDBRANCH   6  22
BRANCH   8  24
ATOM     24  O   UNL     1     172.221 144.896 158.495  1.00  0.00    -0.493 OA
ATOM     25  C   UNL     1     172.573 146.151 159.067  1.00  0.00     0.278 C 
ENDBRANCH   8  24
BRANCH   7  26
ATOM     26  O   UNL     1     174.164 143.208 157.591  1.00  0.00    -0.490 OA
ATOM     27  C   UNL     1     174.080 141.854 158.024  1.00  0.00     0.278 C 
ENDBRANCH   7  26
TORSDOF 6
ENDMDL
MODEL 4
REMARK VINA RESULT:    -6.906      2.869      3.411
REMARK INTER + INTRA:          -9.753
REMARK INTER:                  -9.422
REMARK INTRA:                  -0.331
REMARK UNBOUND:                -0.424
REMARK SMILES COc1ccc(-c2cc(=O)c3c(OC)c(OC)c(OC)cc3o2)cc1OC
REMARK SMILES IDX 7 1 8 2 9 3 10 4 11 5 12 6 15 7 18 8 21 9 22 10 23 11 6 12
REMARK SMILES IDX 3 13 25 14 4 15 24 16 5 17 2 18 1 19 26 20 27 21 13 22 14 23
REMARK SMILES IDX 19 24 20 25 16 26 17 27
REMARK H PARENT
REMARK Flexibility Score: inf
ROOT
ATOM      1  C   UNL     1     168.671 145.808 154.100  1.00  0.00     0.138 A 
ATOM      2  C   UNL     1     169.830 146.474 154.532  1.00  0.00     0.100 A 
ATOM      3  C   UNL     1     170.512 146.006 155.655  1.00  0.00     0.197 A 
ATOM      4  O   UNL     1     171.554 146.609 156.030  1.00  0.00    -0.289 OA
ATOM      5  C   UNL     1     170.035 144.868 156.337  1.00  0.00     0.111 A 
ATOM      6  C   UNL     1     170.658 144.341 157.494  1.00  0.00     0.179 A 
ATOM      7  C   UNL     1     170.151 143.161 158.085  1.00  0.00     0.204 A 
ATOM      8  C   UNL     1     168.977 142.572 157.595  1.00  0.00     0.168 A 
ATOM      9  C   UNL     1     168.339 143.124 156.471  1.00  0.00     0.098 A 
ATOM     10  C   UNL     1     168.866 144.249 155.837  1.00  0.00     0.146 A 
ATOM     11  O   UNL     1     168.250 144.734 154.763  1.00  0.00    -0.456 OA
ENDROOT
BRANCH   1  12
ATOM     12  C   UNL     1     167.905 146.259 152.912  1.00  0.00     0.021 A 
ATOM     13  C   UNL     1     166.404 147.136 150.687  1.00  0.00     0.160 A 
ATOM     14  C   UNL     1     167.790 146.956 150.568  1.00  0.00     0.161 A 
ATOM     15  C   UNL     1     165.776 146.886 151.920  1.00  0.00     0.051 A 
ATOM     16  C   UNL     1     168.535 146.523 151.682  1.00  0.00     0.062 A 
ATOM     17  C   UNL     1     166.520 146.458 153.019  1.00  0.00     0.016 A 
BRANCH  13  18
ATOM     18  O   UNL     1     165.687 147.566 149.558  1.00  0.00    -0.493 OA
ATOM     19  C   UNL     1     164.326 147.982 149.577  1.00  0.00     0.278 C 
ENDBRANCH  13  18
BRANCH  14  20
ATOM     20  O   UNL     1     168.390 147.223 149.327  1.00  0.00    -0.493 OA
ATOM     21  C   UNL     1     168.988 146.239 148.490  1.00  0.00     0.278 C 
ENDBRANCH  14  20
ENDBRANCH   1  12
BRANCH   6  22
ATOM     22  O   UNL     1     171.755 145.000 158.057  1.00  0.00    -0.492 OA
ATOM     23  C   UNL     1     173.087 144.534 157.879  1.00  0.00     0.278 C 
ENDBRANCH   6  22
BRANCH   8  24
ATOM     24  O   UNL     1     168.485 141.428 158.242  1.00  0.00    -0.493 OA
ATOM     25  C   UNL     1     167.582 141.449 159.343  1.00  0.00     0.278 C 
ENDBRANCH   8  24
BRANCH   7  26
ATOM     26  O   UNL     1     170.798 142.543 159.162  1.00  0.00    -0.490 OA
ATOM     27  C   UNL     1     171.687 141.442 158.998  1.00  0.00     0.278 C 
ENDBRANCH   7  26
TORSDOF 6
ENDMDL
MODEL 5
REMARK VINA RESULT:    -6.688      1.771      3.423
REMARK INTER + INTRA:          -9.458
REMARK INTER:                  -8.836
REMARK INTRA:                  -0.622
REMARK UNBOUND:                -0.424
REMARK SMILES COc1ccc(-c2cc(=O)c3c(OC)c(OC)c(OC)cc3o2)cc1OC
REMARK SMILES IDX 7 1 8 2 9 3 10 4 11 5 12 6 15 7 18 8 21 9 22 10 23 11 6 12
REMARK SMILES IDX 3 13 25 14 4 15 24 16 5 17 2 18 1 19 26 20 27 21 13 22 14 23
REMARK SMILES IDX 19 24 20 25 16 26 17 27
REMARK H PARENT
REMARK Flexibility Score: inf
ROOT
ATOM      1  C   UNL     1     170.199 145.204 152.604  1.00  0.00     0.138 A 
ATOM      2  C   UNL     1     169.201 145.178 153.591  1.00  0.00     0.100 A 
ATOM      3  C   UNL     1     169.565 145.048 154.932  1.00  0.00     0.197 A 
ATOM      4  O   UNL     1     168.661 145.030 155.810  1.00  0.00    -0.289 OA
ATOM      5  C   UNL     1     170.929 144.950 155.278  1.00  0.00     0.111 A 
ATOM      6  C   UNL     1     171.381 144.798 156.610  1.00  0.00     0.179 A 
ATOM      7  C   UNL     1     172.768 144.767 156.880  1.00  0.00     0.204 A 
ATOM      8  C   UNL     1     173.693 144.783 155.827  1.00  0.00     0.168 A 
ATOM      9  C   UNL     1     173.238 144.893 154.503  1.00  0.00     0.098 A 
ATOM     10  C   UNL     1     171.874 144.991 154.227  1.00  0.00     0.146 A 
ATOM     11  O   UNL     1     171.477 145.116 152.964  1.00  0.00    -0.456 OA
ENDROOT
BRANCH   1  12
ATOM     12  C   UNL     1     169.873 145.343 151.162  1.00  0.00     0.021 A 
ATOM     13  C   UNL     1     169.283 145.557 148.409  1.00  0.00     0.160 A 
ATOM     14  C   UNL     1     168.441 146.163 149.354  1.00  0.00     0.161 A 
ATOM     15  C   UNL     1     170.410 144.839 148.846  1.00  0.00     0.051 A 
ATOM     16  C   UNL     1     168.736 146.050 150.726  1.00  0.00     0.062 A 
ATOM     17  C   UNL     1     170.697 144.730 150.207  1.00  0.00     0.016 A 
BRANCH  13  18
ATOM     18  O   UNL     1     168.965 145.691 147.048  1.00  0.00    -0.493 OA
ATOM     19  C   UNL     1     169.088 144.650 146.085  1.00  0.00     0.278 C 
ENDBRANCH  13  18
BRANCH  14  20
ATOM     20  O   UNL     1     167.318 146.866 148.888  1.00  0.00    -0.493 OA
ATOM     21  C   UNL     1     166.417 147.593 149.718  1.00  0.00     0.278 C 
ENDBRANCH  14  20
ENDBRANCH   1  12
BRANCH   6  22
ATOM     22  O   UNL     1     170.455 144.656 157.649  1.00  0.00    -0.492 OA
ATOM     23  C   UNL     1     170.205 143.401 158.271  1.00  0.00     0.278 C 
ENDBRANCH   6  22
BRANCH   8  24
ATOM     24  O   UNL     1     175.060 144.704 156.140  1.00  0.00    -0.493 OA
ATOM     25  C   UNL     1     175.990 145.769 155.973  1.00  0.00     0.278 C 
ENDBRANCH   8  24
BRANCH   7  26
ATOM     26  O   UNL     1     173.261 144.729 158.190  1.00  0.00    -0.490 OA
ATOM     27  C   UNL     1     173.478 145.903 158.967  1.00  0.00     0.278 C 
ENDBRANCH   7  26
TORSDOF 6
ENDMDL
MODEL 6
REMARK VINA RESULT:    -6.518      2.163      8.040
REMARK INTER + INTRA:          -9.228
REMARK INTER:                  -8.991
REMARK INTRA:                  -0.237
REMARK UNBOUND:                -0.424
REMARK SMILES COc1ccc(-c2cc(=O)c3c(OC)c(OC)c(OC)cc3o2)cc1OC
REMARK SMILES IDX 7 1 8 2 9 3 10 4 11 5 12 6 15 7 18 8 21 9 22 10 23 11 6 12
REMARK SMILES IDX 3 13 25 14 4 15 24 16 5 17 2 18 1 19 26 20 27 21 13 22 14 23
REMARK SMILES IDX 19 24 20 25 16 26 17 27
REMARK H PARENT
REMARK Flexibility Score: inf
ROOT
ATOM      1  C   UNL     1     171.146 144.908 153.456  1.00  0.00     0.138 A 
ATOM      2  C   UNL     1     171.908 144.033 152.666  1.00  0.00     0.100 A 
ATOM      3  C   UNL     1     171.664 143.956 151.295  1.00  0.00     0.197 A 
ATOM      4  O   UNL     1     172.357 143.169 150.596  1.00  0.00    -0.289 OA
ATOM      5  C   UNL     1     170.660 144.762 150.719  1.00  0.00     0.111 A 
ATOM      6  C   UNL     1     170.338 144.730 149.341  1.00  0.00     0.179 A 
ATOM      7  C   UNL     1     169.359 145.614 148.832  1.00  0.00     0.204 A 
ATOM      8  C   UNL     1     168.636 146.445 149.699  1.00  0.00     0.168 A 
ATOM      9  C   UNL     1     168.931 146.441 151.072  1.00  0.00     0.098 A 
ATOM     10  C   UNL     1     169.941 145.623 151.579  1.00  0.00     0.146 A 
ATOM     11  O   UNL     1     170.211 145.660 152.880  1.00  0.00    -0.456 OA
ENDROOT
BRANCH   1  12
ATOM     12  C   UNL     1     171.362 145.035 154.919  1.00  0.00     0.021 A 
ATOM     13  C   UNL     1     171.799 145.329 157.693  1.00  0.00     0.160 A 
ATOM     14  C   UNL     1     170.797 144.462 157.231  1.00  0.00     0.161 A 
ATOM     15  C   UNL     1     172.571 146.051 156.767  1.00  0.00     0.051 A 
ATOM     16  C   UNL     1     170.579 144.322 155.846  1.00  0.00     0.062 A 
ATOM     17  C   UNL     1     172.350 145.909 155.396  1.00  0.00     0.016 A 
BRANCH  13  18
ATOM     18  O   UNL     1     171.994 145.445 159.079  1.00  0.00    -0.493 OA
ATOM     19  C   UNL     1     172.595 146.566 159.717  1.00  0.00     0.278 C 
ENDBRANCH  13  18
BRANCH  14  20
ATOM     20  O   UNL     1     170.035 143.761 158.180  1.00  0.00    -0.493 OA
ATOM     21  C   UNL     1     168.884 142.980 157.877  1.00  0.00     0.278 C 
ENDBRANCH  14  20
ENDBRANCH   1  12
BRANCH   6  22
ATOM     22  O   UNL     1     170.971 143.813 148.497  1.00  0.00    -0.492 OA
ATOM     23  C   UNL     1     172.090 144.174 147.696  1.00  0.00     0.278 C 
ENDBRANCH   6  22
BRANCH   8  24
ATOM     24  O   UNL     1     167.641 147.272 149.154  1.00  0.00    -0.493 OA
ATOM     25  C   UNL     1     166.422 147.608 149.809  1.00  0.00     0.278 C 
ENDBRANCH   8  24
BRANCH   7  26
ATOM     26  O   UNL     1     169.086 145.696 147.461  1.00  0.00    -0.490 OA
ATOM     27  C   UNL     1     169.855 146.496 146.568  1.00  0.00     0.278 C 
ENDBRANCH   7  26
TORSDOF 6
ENDMDL
MODEL 7
REMARK VINA RESULT:    -6.412      2.372      3.294
REMARK INTER + INTRA:          -9.085
REMARK INTER:                  -8.518
REMARK INTRA:                  -0.567
REMARK UNBOUND:                -0.424
REMARK SMILES COc1ccc(-c2cc(=O)c3c(OC)c(OC)c(OC)cc3o2)cc1OC
REMARK SMILES IDX 7 1 8 2 9 3 10 4 11 5 12 6 15 7 18 8 21 9 22 10 23 11 6 12
REMARK SMILES IDX 3 13 25 14 4 15 24 16 5 17 2 18 1 19 26 20 27 21 13 22 14 23
REMARK SMILES IDX 19 24 20 25 16 26 17 27
REMARK H PARENT
REMARK Flexibility Score: inf
ROOT
ATOM      1  C   UNL     1     170.997 144.270 151.918  1.00  0.00     0.138 A 
ATOM      2  C   UNL     1     171.396 143.072 151.304  1.00  0.00     0.100 A 
ATOM      3  C   UNL     1     172.524 142.401 151.776  1.00  0.00     0.197 A 
ATOM      4  O   UNL     1     172.871 141.324 151.219  1.00  0.00    -0.289 OA
ATOM      5  C   UNL     1     173.245 142.930 152.868  1.00  0.00     0.111 A 
ATOM      6  C   UNL     1     174.409 142.321 153.395  1.00  0.00     0.179 A 
ATOM      7  C   UNL     1     175.039 142.882 154.529  1.00  0.00     0.204 A 
ATOM      8  C   UNL     1     174.579 144.091 155.068  1.00  0.00     0.168 A 
ATOM      9  C   UNL     1     173.447 144.713 154.514  1.00  0.00     0.098 A 
ATOM     10  C   UNL     1     172.775 144.135 153.437  1.00  0.00     0.146 A 
ATOM     11  O   UNL     1     171.695 144.738 152.950  1.00  0.00    -0.456 OA
ENDROOT
BRANCH   1  12
ATOM     12  C   UNL     1     169.805 145.027 151.461  1.00  0.00     0.021 A 
ATOM     13  C   UNL     1     167.527 146.483 150.647  1.00  0.00     0.160 A 
ATOM     14  C   UNL     1     168.540 146.194 149.720  1.00  0.00     0.161 A 
ATOM     15  C   UNL     1     167.662 146.051 151.978  1.00  0.00     0.051 A 
ATOM     16  C   UNL     1     169.677 145.471 150.131  1.00  0.00     0.062 A 
ATOM     17  C   UNL     1     168.791 145.336 152.379  1.00  0.00     0.016 A 
BRANCH  13  18
ATOM     18  O   UNL     1     166.404 147.202 150.206  1.00  0.00    -0.493 OA
ATOM     19  C   UNL     1     165.977 148.445 150.754  1.00  0.00     0.278 C 
ENDBRANCH  13  18
BRANCH  14  20
ATOM     20  O   UNL     1     168.381 146.647 148.400  1.00  0.00    -0.493 OA
ATOM     21  C   UNL     1     169.261 146.334 147.326  1.00  0.00     0.278 C 
ENDBRANCH  14  20
ENDBRANCH   1  12
BRANCH   6  22
ATOM     22  O   UNL     1     174.940 141.183 152.780  1.00  0.00    -0.492 OA
ATOM     23  C   UNL     1     176.124 141.234 151.992  1.00  0.00     0.278 C 
ENDBRANCH   6  22
BRANCH   8  24
ATOM     24  O   UNL     1     175.264 144.636 156.165  1.00  0.00    -0.493 OA
ATOM     25  C   UNL     1     175.760 145.969 156.228  1.00  0.00     0.278 C 
ENDBRANCH   8  24
BRANCH   7  26
ATOM     26  O   UNL     1     176.125 142.255 155.151  1.00  0.00    -0.490 OA
ATOM     27  C   UNL     1     175.969 141.303 156.199  1.00  0.00     0.278 C 
ENDBRANCH   7  26
TORSDOF 6
ENDMDL
MODEL 8
REMARK VINA RESULT:    -6.394      2.160      3.512
REMARK INTER + INTRA:          -9.061
REMARK INTER:                  -8.447
REMARK INTRA:                  -0.614
REMARK UNBOUND:                -0.424
REMARK SMILES COc1ccc(-c2cc(=O)c3c(OC)c(OC)c(OC)cc3o2)cc1OC
REMARK SMILES IDX 7 1 8 2 9 3 10 4 11 5 12 6 15 7 18 8 21 9 22 10 23 11 6 12
REMARK SMILES IDX 3 13 25 14 4 15 24 16 5 17 2 18 1 19 26 20 27 21 13 22 14 23
REMARK SMILES IDX 19 24 20 25 16 26 17 27
REMARK H PARENT
REMARK Flexibility Score: inf
ROOT
ATOM      1  C   UNL     1     170.239 145.223 152.353  1.00  0.00     0.138 A 
ATOM      2  C   UNL     1     169.180 145.226 153.275  1.00  0.00     0.100 A 
ATOM      3  C   UNL     1     169.455 145.088 154.636  1.00  0.00     0.197 A 
ATOM      4  O   UNL     1     168.496 145.096 155.454  1.00  0.00    -0.289 OA
ATOM      5  C   UNL     1     170.791 144.954 155.068  1.00  0.00     0.111 A 
ATOM      6  C   UNL     1     171.153 144.791 156.426  1.00  0.00     0.179 A 
ATOM      7  C   UNL     1     172.519 144.724 156.783  1.00  0.00     0.204 A 
ATOM      8  C   UNL     1     173.509 144.713 155.792  1.00  0.00     0.168 A 
ATOM      9  C   UNL     1     173.142 144.833 154.441  1.00  0.00     0.098 A 
ATOM     10  C   UNL     1     171.801 144.968 154.079  1.00  0.00     0.146 A 
ATOM     11  O   UNL     1     171.489 145.102 152.794  1.00  0.00    -0.456 OA
ENDROOT
BRANCH   1  12
ATOM     12  C   UNL     1     170.009 145.369 150.894  1.00  0.00     0.021 A 
ATOM     13  C   UNL     1     169.532 145.692 148.129  1.00  0.00     0.160 A 
ATOM     14  C   UNL     1     170.717 145.081 148.568  1.00  0.00     0.161 A 
ATOM     15  C   UNL     1     168.596 146.147 149.074  1.00  0.00     0.051 A 
ATOM     16  C   UNL     1     170.952 144.926 149.948  1.00  0.00     0.062 A 
ATOM     17  C   UNL     1     168.836 145.992 150.440  1.00  0.00     0.016 A 
BRANCH  13  18
ATOM     18  O   UNL     1     169.324 145.829 146.747  1.00  0.00    -0.493 OA
ATOM     19  C   UNL     1     168.708 144.845 145.923  1.00  0.00     0.278 C 
ENDBRANCH  13  18
BRANCH  14  20
ATOM     20  O   UNL     1     171.637 144.644 147.601  1.00  0.00    -0.493 OA
ATOM     21  C   UNL     1     172.702 143.734 147.850  1.00  0.00     0.278 C 
ENDBRANCH  14  20
ENDBRANCH   1  12
BRANCH   6  22
ATOM     22  O   UNL     1     170.159 144.676 157.403  1.00  0.00    -0.492 OA
ATOM     23  C   UNL     1     169.857 143.435 158.030  1.00  0.00     0.278 C 
ENDBRANCH   6  22
BRANCH   8  24
ATOM     24  O   UNL     1     174.850 144.598 156.190  1.00  0.00    -0.493 OA
ATOM     25  C   UNL     1     175.826 145.625 156.051  1.00  0.00     0.278 C 
ENDBRANCH   8  24
BRANCH   7  26
ATOM     26  O   UNL     1     172.926 144.674 158.122  1.00  0.00    -0.490 OA
ATOM     27  C   UNL     1     173.099 145.841 158.919  1.00  0.00     0.278 C 
ENDBRANCH   7  26
TORSDOF 6
ENDMDL
MODEL 9
REMARK VINA RESULT:    -6.292      2.413      8.384
REMARK INTER + INTRA:          -8.922
REMARK INTER:                  -8.448
REMARK INTRA:                  -0.475
REMARK UNBOUND:                -0.424
REMARK SMILES COc1ccc(-c2cc(=O)c3c(OC)c(OC)c(OC)cc3o2)cc1OC
REMARK SMILES IDX 7 1 8 2 9 3 10 4 11 5 12 6 15 7 18 8 21 9 22 10 23 11 6 12
REMARK SMILES IDX 3 13 25 14 4 15 24 16 5 17 2 18 1 19 26 20 27 21 13 22 14 23
REMARK SMILES IDX 19 24 20 25 16 26 17 27
REMARK H PARENT
REMARK Flexibility Score: inf
ROOT
ATOM      1  C   UNL     1     170.701 145.481 153.877  1.00  0.00     0.138 A 
ATOM      2  C   UNL     1     169.525 146.085 153.404  1.00  0.00     0.100 A 
ATOM      3  C   UNL     1     169.166 145.931 152.065  1.00  0.00     0.197 A 
ATOM      4  O   UNL     1     168.105 146.474 151.652  1.00  0.00    -0.289 OA
ATOM      5  C   UNL     1     169.983 145.166 151.206  1.00  0.00     0.111 A 
ATOM      6  C   UNL     1     169.699 144.976 149.833  1.00  0.00     0.179 A 
ATOM      7  C   UNL     1     170.537 144.146 149.054  1.00  0.00     0.204 A 
ATOM      8  C   UNL     1     171.701 143.596 149.608  1.00  0.00     0.168 A 
ATOM      9  C   UNL     1     172.000 143.822 150.962  1.00  0.00     0.098 A 
ATOM     10  C   UNL     1     171.146 144.584 151.760  1.00  0.00     0.146 A 
ATOM     11  O   UNL     1     171.447 144.761 153.043  1.00  0.00    -0.456 OA
ENDROOT
BRANCH   1  12
ATOM     12  C   UNL     1     171.134 145.608 155.292  1.00  0.00     0.021 A 
ATOM     13  C   UNL     1     171.923 145.901 157.987  1.00  0.00     0.160 A 
ATOM     14  C   UNL     1     171.967 144.637 157.378  1.00  0.00     0.161 A 
ATOM     15  C   UNL     1     171.475 147.010 157.248  1.00  0.00     0.051 A 
ATOM     16  C   UNL     1     171.568 144.495 156.035  1.00  0.00     0.062 A 
ATOM     17  C   UNL     1     171.080 146.862 155.918  1.00  0.00     0.016 A 
BRANCH  13  18
ATOM     18  O   UNL     1     172.330 146.011 159.327  1.00  0.00    -0.493 OA
ATOM     19  C   UNL     1     173.556 146.597 159.751  1.00  0.00     0.278 C 
ENDBRANCH  13  18
BRANCH  14  20
ATOM     20  O   UNL     1     172.410 143.546 158.144  1.00  0.00    -0.493 OA
ATOM     21  C   UNL     1     171.569 142.508 158.634  1.00  0.00     0.278 C 
ENDBRANCH  14  20
ENDBRANCH   1  12
BRANCH   6  22
ATOM     22  O   UNL     1     168.607 145.626 149.250  1.00  0.00    -0.492 OA
ATOM     23  C   UNL     1     168.753 146.837 148.516  1.00  0.00     0.278 C 
ENDBRANCH   6  22
BRANCH   8  24
ATOM     24  O   UNL     1     172.528 142.816 148.784  1.00  0.00    -0.493 OA
ATOM     25  C   UNL     1     173.663 142.085 149.238  1.00  0.00     0.278 C 
ENDBRANCH   8  24
BRANCH   7  26
ATOM     26  O   UNL     1     170.235 143.841 147.721  1.00  0.00    -0.490 OA
ATOM     27  C   UNL     1     170.750 144.589 146.623  1.00  0.00     0.278 C 
ENDBRANCH   7  26
TORSDOF 6
ENDMDL
