MODEL 1
REMARK VINA RESULT:    -2.701      0.000      0.000
REMARK INTER + INTRA:          -2.701
REMARK INTER:                  -2.701
REMARK INTRA:                   0.000
REMARK UNBOUND:                 0.000
REMARK SMILES C[C@H]1CCC=C2CC[C@@H]3[C@@H](C3(C)C)[C@@]21C
REMARK SMILES IDX 1 1 2 2 3 3 4 4 5 5 6 6 14 7 10 8 9 9 11 10 12 11 13 12 8 13
REMARK SMILES IDX 7 14 15 15
REMARK H PARENT
REMARK Flexibility Score: inf
ROOT
ATOM      1  C   UNL     1     165.992 171.045 139.849  1.00  0.00     0.008 C 
ATOM      2  C   UNL     1     165.430 172.436 139.499  1.00  0.00    -0.004 C 
ATOM      3  C   UNL     1     164.245 172.776 140.420  1.00  0.00     0.008 C 
ATOM      4  C   UNL     1     163.581 174.079 139.984  1.00  0.00     0.027 C 
ATOM      5  C   UNL     1     164.564 175.164 139.638  1.00  0.00    -0.027 C 
ATOM      6  C   UNL     1     165.854 174.940 139.302  1.00  0.00    -0.068 C 
ATOM      7  C   UNL     1     166.527 173.569 139.479  1.00  0.00    -0.005 C 
ATOM      8  C   UNL     1     167.434 173.287 138.214  1.00  0.00     0.009 C 
ATOM      9  C   UNL     1     168.189 174.502 137.620  1.00  0.00    -0.000 C 
ATOM     10  C   UNL     1     168.978 173.269 138.088  1.00  0.00    -0.028 C 
ATOM     11  C   UNL     1     169.952 173.354 139.278  1.00  0.00     0.012 C 
ATOM     12  C   UNL     1     169.490 172.390 136.938  1.00  0.00     0.012 C 
ATOM     13  C   UNL     1     168.100 175.788 138.453  1.00  0.00     0.009 C 
ATOM     14  C   UNL     1     166.645 176.125 138.779  1.00  0.00     0.031 C 
ATOM     15  C   UNL     1     167.282 173.581 140.834  1.00  0.00     0.017 C 
ENDROOT
TORSDOF 0
ENDMDL
MODEL 2
REMARK VINA RESULT:    -2.701     13.159     16.266
REMARK INTER + INTRA:          -2.701
REMARK INTER:                  -2.701
REMARK INTRA:                   0.000
REMARK UNBOUND:                 0.000
REMARK SMILES C[C@H]1CCC=C2CC[C@@H]3[C@@H](C3(C)C)[C@@]21C
REMARK SMILES IDX 1 1 2 2 3 3 4 4 5 5 6 6 14 7 10 8 9 9 11 10 12 11 13 12 8 13
REMARK SMILES IDX 7 14 15 15
REMARK H PARENT
REMARK Flexibility Score: inf
ROOT
ATOM      1  C   UNL     1     165.898 160.903 140.052  1.00  0.00     0.008 C 
ATOM      2  C   UNL     1     166.466 159.527 139.659  1.00  0.00    -0.004 C 
ATOM      3  C   UNL     1     167.626 159.145 140.595  1.00  0.00     0.008 C 
ATOM      4  C   UNL     1     168.299 157.860 140.121  1.00  0.00     0.027 C 
ATOM      5  C   UNL     1     167.324 156.793 139.705  1.00  0.00    -0.027 C 
ATOM      6  C   UNL     1     166.043 157.034 139.346  1.00  0.00    -0.068 C 
ATOM      7  C   UNL     1     165.368 158.398 139.563  1.00  0.00    -0.005 C 
ATOM      8  C   UNL     1     164.494 158.736 138.288  1.00  0.00     0.009 C 
ATOM      9  C   UNL     1     163.752 157.550 137.625  1.00  0.00    -0.000 C 
ATOM     10  C   UNL     1     162.954 158.764 138.124  1.00  0.00    -0.028 C 
ATOM     11  C   UNL     1     161.950 158.632 139.284  1.00  0.00     0.012 C 
ATOM     12  C   UNL     1     162.473 159.692 136.998  1.00  0.00     0.012 C 
ATOM     13  C   UNL     1     163.818 156.229 138.405  1.00  0.00     0.009 C 
ATOM     14  C   UNL     1     165.264 155.875 138.754  1.00  0.00     0.031 C 
ATOM     15  C   UNL     1     164.579 158.333 140.896  1.00  0.00     0.017 C 
ENDROOT
TORSDOF 0
ENDMDL
MODEL 3
REMARK VINA RESULT:    -2.501      1.377      4.042
REMARK INTER + INTRA:          -2.501
REMARK INTER:                  -2.501
REMARK INTRA:                   0.000
REMARK UNBOUND:                 0.000
REMARK SMILES C[C@H]1CCC=C2CC[C@@H]3[C@@H](C3(C)C)[C@@]21C
REMARK SMILES IDX 1 1 2 2 3 3 4 4 5 5 6 6 14 7 10 8 9 9 11 10 12 11 13 12 8 13
REMARK SMILES IDX 7 14 15 15
REMARK H PARENT
REMARK Flexibility Score: inf
ROOT
ATOM      1  C   UNL     1     166.895 170.901 140.344  1.00  0.00     0.008 C 
ATOM      2  C   UNL     1     167.813 171.794 139.488  1.00  0.00    -0.004 C 
ATOM      3  C   UNL     1     168.304 171.019 138.252  1.00  0.00     0.008 C 
ATOM      4  C   UNL     1     169.336 171.836 137.480  1.00  0.00     0.027 C 
ATOM      5  C   UNL     1     168.956 173.283 137.323  1.00  0.00    -0.027 C 
ATOM      6  C   UNL     1     168.071 173.926 138.117  1.00  0.00    -0.068 C 
ATOM      7  C   UNL     1     167.166 173.183 139.114  1.00  0.00    -0.005 C 
ATOM      8  C   UNL     1     167.104 174.019 140.456  1.00  0.00     0.009 C 
ATOM      9  C   UNL     1     167.072 175.561 140.309  1.00  0.00    -0.000 C 
ATOM     10  C   UNL     1     165.936 174.843 141.054  1.00  0.00    -0.028 C 
ATOM     11  C   UNL     1     164.498 174.847 140.503  1.00  0.00     0.012 C 
ATOM     12  C   UNL     1     166.009 174.992 142.581  1.00  0.00     0.012 C 
ATOM     13  C   UNL     1     166.920 176.069 138.868  1.00  0.00     0.009 C 
ATOM     14  C   UNL     1     167.965 175.430 137.953  1.00  0.00     0.031 C 
ATOM     15  C   UNL     1     165.795 172.946 138.428  1.00  0.00     0.017 C 
ENDROOT
TORSDOF 0
ENDMDL
MODEL 4
REMARK VINA RESULT:    -2.456     13.356     16.044
REMARK INTER + INTRA:          -2.456
REMARK INTER:                  -2.456
REMARK INTRA:                   0.000
REMARK UNBOUND:                 0.000
REMARK SMILES C[C@H]1CCC=C2CC[C@@H]3[C@@H](C3(C)C)[C@@]21C
REMARK SMILES IDX 1 1 2 2 3 3 4 4 5 5 6 6 14 7 10 8 9 9 11 10 12 11 13 12 8 13
REMARK SMILES IDX 7 14 15 15
REMARK H PARENT
REMARK Flexibility Score: inf
ROOT
ATOM      1  C   UNL     1     165.249 160.809 140.903  1.00  0.00     0.008 C 
ATOM      2  C   UNL     1     164.294 160.013 139.993  1.00  0.00    -0.004 C 
ATOM      3  C   UNL     1     163.717 160.929 138.900  1.00  0.00     0.008 C 
ATOM      4  C   UNL     1     162.652 160.195 138.090  1.00  0.00     0.027 C 
ATOM      5  C   UNL     1     163.044 158.790 137.724  1.00  0.00    -0.027 C 
ATOM      6  C   UNL     1     163.986 158.070 138.374  1.00  0.00    -0.068 C 
ATOM      7  C   UNL     1     164.938 158.699 139.405  1.00  0.00    -0.005 C 
ATOM      8  C   UNL     1     165.095 157.699 140.621  1.00  0.00     0.009 C 
ATOM      9  C   UNL     1     165.142 156.190 140.273  1.00  0.00    -0.000 C 
ATOM     10  C   UNL     1     166.310 156.832 141.038  1.00  0.00    -0.028 C 
ATOM     11  C   UNL     1     167.711 156.932 140.408  1.00  0.00     0.012 C 
ATOM     12  C   UNL     1     166.333 156.486 142.534  1.00  0.00     0.012 C 
ATOM     13  C   UNL     1     165.213 155.875 138.772  1.00  0.00     0.009 C 
ATOM     14  C   UNL     1     164.105 156.603 138.010  1.00  0.00     0.031 C 
ATOM     15  C   UNL     1     166.261 159.054 138.677  1.00  0.00     0.017 C 
ENDROOT
TORSDOF 0
ENDMDL
MODEL 5
REMARK VINA RESULT:    -2.292     12.860     15.890
REMARK INTER + INTRA:          -2.292
REMARK INTER:                  -2.292
REMARK INTRA:                   0.000
REMARK UNBOUND:                 0.000
REMARK SMILES C[C@H]1CCC=C2CC[C@@H]3[C@@H](C3(C)C)[C@@]21C
REMARK SMILES IDX 1 1 2 2 3 3 4 4 5 5 6 6 14 7 10 8 9 9 11 10 12 11 13 12 8 13
REMARK SMILES IDX 7 14 15 15
REMARK H PARENT
REMARK Flexibility Score: inf
ROOT
ATOM      1  C   UNL     1     165.736 159.893 142.121  1.00  0.00     0.008 C 
ATOM      2  C   UNL     1     165.832 158.547 141.380  1.00  0.00    -0.004 C 
ATOM      3  C   UNL     1     165.810 157.384 142.388  1.00  0.00     0.008 C 
ATOM      4  C   UNL     1     166.062 156.054 141.682  1.00  0.00     0.027 C 
ATOM      5  C   UNL     1     165.300 155.909 140.393  1.00  0.00    -0.027 C 
ATOM      6  C   UNL     1     164.808 156.948 139.681  1.00  0.00    -0.068 C 
ATOM      7  C   UNL     1     164.756 158.380 140.239  1.00  0.00    -0.005 C 
ATOM      8  C   UNL     1     165.170 159.383 139.088  1.00  0.00     0.009 C 
ATOM      9  C   UNL     1     164.676 159.040 137.661  1.00  0.00    -0.000 C 
ATOM     10  C   UNL     1     164.300 160.389 138.293  1.00  0.00    -0.028 C 
ATOM     11  C   UNL     1     162.835 160.729 138.625  1.00  0.00     0.012 C 
ATOM     12  C   UNL     1     165.093 161.577 137.731  1.00  0.00     0.012 C 
ATOM     13  C   UNL     1     163.692 157.863 137.583  1.00  0.00     0.009 C 
ATOM     14  C   UNL     1     164.254 156.637 138.304  1.00  0.00     0.031 C 
ATOM     15  C   UNL     1     163.340 158.610 140.828  1.00  0.00     0.017 C 
ENDROOT
TORSDOF 0
ENDMDL
MODEL 6
REMARK VINA RESULT:    -2.252     14.853     17.595
REMARK INTER + INTRA:          -2.252
REMARK INTER:                  -2.252
REMARK INTRA:                   0.000
REMARK UNBOUND:                 0.000
REMARK SMILES C[C@H]1CCC=C2CC[C@@H]3[C@@H](C3(C)C)[C@@]21C
REMARK SMILES IDX 1 1 2 2 3 3 4 4 5 5 6 6 14 7 10 8 9 9 11 10 12 11 13 12 8 13
REMARK SMILES IDX 7 14 15 15
REMARK H PARENT
REMARK Flexibility Score: inf
ROOT
ATOM      1  C   UNL     1     157.769 158.117 142.148  1.00  0.00     0.008 C 
ATOM      2  C   UNL     1     157.666 157.456 140.761  1.00  0.00    -0.004 C 
ATOM      3  C   UNL     1     156.353 156.663 140.647  1.00  0.00     0.008 C 
ATOM      4  C   UNL     1     156.310 155.877 139.340  1.00  0.00     0.027 C 
ATOM      5  C   UNL     1     156.783 156.667 138.151  1.00  0.00    -0.027 C 
ATOM      6  C   UNL     1     157.573 157.762 138.233  1.00  0.00    -0.068 C 
ATOM      7  C   UNL     1     157.870 158.467 139.567  1.00  0.00    -0.005 C 
ATOM      8  C   UNL     1     159.398 158.878 139.589  1.00  0.00     0.009 C 
ATOM      9  C   UNL     1     160.000 159.368 138.249  1.00  0.00    -0.000 C 
ATOM     10  C   UNL     1     160.045 160.282 139.483  1.00  0.00    -0.028 C 
ATOM     11  C   UNL     1     159.264 161.609 139.517  1.00  0.00     0.012 C 
ATOM     12  C   UNL     1     161.431 160.369 140.137  1.00  0.00     0.012 C 
ATOM     13  C   UNL     1     158.983 159.563 137.115  1.00  0.00     0.009 C 
ATOM     14  C   UNL     1     158.127 158.310 136.932  1.00  0.00     0.031 C 
ATOM     15  C   UNL     1     156.874 159.646 139.714  1.00  0.00     0.017 C 
ENDROOT
TORSDOF 0
ENDMDL
MODEL 7
REMARK VINA RESULT:    -2.246      1.741      4.545
REMARK INTER + INTRA:          -2.246
REMARK INTER:                  -2.246
REMARK INTRA:                   0.000
REMARK UNBOUND:                 0.000
REMARK SMILES C[C@H]1CCC=C2CC[C@@H]3[C@@H](C3(C)C)[C@@]21C
REMARK SMILES IDX 1 1 2 2 3 3 4 4 5 5 6 6 14 7 10 8 9 9 11 10 12 11 13 12 8 13
REMARK SMILES IDX 7 14 15 15
REMARK H PARENT
REMARK Flexibility Score: inf
ROOT
ATOM      1  C   UNL     1     167.763 172.704 142.450  1.00  0.00     0.008 C 
ATOM      2  C   UNL     1     169.012 172.695 141.549  1.00  0.00    -0.004 C 
ATOM      3  C   UNL     1     170.000 171.615 142.024  1.00  0.00     0.008 C 
ATOM      4  C   UNL     1     171.307 171.699 141.240  1.00  0.00     0.027 C 
ATOM      5  C   UNL     1     171.106 171.896 139.763  1.00  0.00    -0.027 C 
ATOM      6  C   UNL     1     169.977 172.392 139.210  1.00  0.00    -0.068 C 
ATOM      7  C   UNL     1     168.677 172.576 140.012  1.00  0.00    -0.005 C 
ATOM      8  C   UNL     1     168.018 173.952 139.593  1.00  0.00     0.009 C 
ATOM      9  C   UNL     1     168.122 174.341 138.098  1.00  0.00    -0.000 C 
ATOM     10  C   UNL     1     166.741 174.224 138.761  1.00  0.00    -0.028 C 
ATOM     11  C   UNL     1     165.739 173.140 138.320  1.00  0.00     0.012 C 
ATOM     12  C   UNL     1     166.085 175.578 139.066  1.00  0.00     0.012 C 
ATOM     13  C   UNL     1     168.694 173.248 137.184  1.00  0.00     0.009 C 
ATOM     14  C   UNL     1     170.021 172.722 137.730  1.00  0.00     0.031 C 
ATOM     15  C   UNL     1     167.789 171.327 139.773  1.00  0.00     0.017 C 
ENDROOT
TORSDOF 0
ENDMDL
MODEL 8
REMARK VINA RESULT:    -2.244      1.692      3.078
REMARK INTER + INTRA:          -2.244
REMARK INTER:                  -2.244
REMARK INTRA:                   0.000
REMARK UNBOUND:                 0.000
REMARK SMILES C[C@H]1CCC=C2CC[C@@H]3[C@@H](C3(C)C)[C@@]21C
REMARK SMILES IDX 1 1 2 2 3 3 4 4 5 5 6 6 14 7 10 8 9 9 11 10 12 11 13 12 8 13
REMARK SMILES IDX 7 14 15 15
REMARK H PARENT
REMARK Flexibility Score: inf
ROOT
ATOM      1  C   UNL     1     168.074 173.142 142.073  1.00  0.00     0.008 C 
ATOM      2  C   UNL     1     167.477 172.850 140.684  1.00  0.00    -0.004 C 
ATOM      3  C   UNL     1     166.136 173.587 140.518  1.00  0.00     0.008 C 
ATOM      4  C   UNL     1     165.458 173.183 139.211  1.00  0.00     0.027 C 
ATOM      5  C   UNL     1     166.402 173.126 138.042  1.00  0.00    -0.027 C 
ATOM      6  C   UNL     1     167.743 172.993 138.153  1.00  0.00    -0.068 C 
ATOM      7  C   UNL     1     168.477 173.137 139.497  1.00  0.00    -0.005 C 
ATOM      8  C   UNL     1     169.596 172.022 139.581  1.00  0.00     0.009 C 
ATOM      9  C   UNL     1     170.347 171.697 138.266  1.00  0.00    -0.000 C 
ATOM     10  C   UNL     1     171.137 172.160 139.500  1.00  0.00    -0.028 C 
ATOM     11  C   UNL     1     171.895 173.500 139.500  1.00  0.00     0.012 C 
ATOM     12  C   UNL     1     171.893 171.027 140.210  1.00  0.00     0.012 C 
ATOM     13  C   UNL     1     170.029 172.633 137.091  1.00  0.00     0.009 C 
ATOM     14  C   UNL     1     168.519 172.740 136.875  1.00  0.00     0.031 C 
ATOM     15  C   UNL     1     168.997 174.594 139.602  1.00  0.00     0.017 C 
ENDROOT
TORSDOF 0
ENDMDL
MODEL 9
REMARK VINA RESULT:    -2.231      1.141      1.224
REMARK INTER + INTRA:          -2.231
REMARK INTER:                  -2.231
REMARK INTRA:                   0.000
REMARK UNBOUND:                 0.000
REMARK SMILES C[C@H]1CCC=C2CC[C@@H]3[C@@H](C3(C)C)[C@@]21C
REMARK SMILES IDX 1 1 2 2 3 3 4 4 5 5 6 6 14 7 10 8 9 9 11 10 12 11 13 12 8 13
REMARK SMILES IDX 7 14 15 15
REMARK H PARENT
REMARK Flexibility Score: inf
ROOT
ATOM      1  C   UNL     1     164.878 171.809 139.993  1.00  0.00     0.008 C 
ATOM      2  C   UNL     1     165.041 173.340 140.011  1.00  0.00    -0.004 C 
ATOM      3  C   UNL     1     164.213 173.949 141.157  1.00  0.00     0.008 C 
ATOM      4  C   UNL     1     164.240 175.473 141.090  1.00  0.00     0.027 C 
ATOM      5  C   UNL     1     165.607 176.034 140.808  1.00  0.00    -0.027 C 
ATOM      6  C   UNL     1     166.612 175.335 140.235  1.00  0.00    -0.068 C 
ATOM      7  C   UNL     1     166.547 173.811 140.036  1.00  0.00    -0.005 C 
ATOM      8  C   UNL     1     167.144 173.464 138.612  1.00  0.00     0.009 C 
ATOM      9  C   UNL     1     168.362 174.301 138.151  1.00  0.00    -0.000 C 
ATOM     10  C   UNL     1     168.479 172.772 138.242  1.00  0.00    -0.028 C 
ATOM     11  C   UNL     1     169.428 172.107 139.256  1.00  0.00     0.012 C 
ATOM     12  C   UNL     1     168.448 172.068 136.878  1.00  0.00     0.012 C 
ATOM     13  C   UNL     1     168.945 175.237 139.220  1.00  0.00     0.009 C 
ATOM     14  C   UNL     1     167.850 176.112 139.831  1.00  0.00     0.031 C 
ATOM     15  C   UNL     1     167.276 173.143 141.230  1.00  0.00     0.017 C 
ENDROOT
TORSDOF 0
ENDMDL
