MODEL 1
REMARK VINA RESULT:    -7.036      0.000      0.000
REMARK INTER + INTRA:          -8.757
REMARK INTER:                  -8.476
REMARK INTRA:                  -0.281
REMARK UNBOUND:                -0.281
REMARK SMILES O=c1c(O)c(-c2ccc(O)c(O)c2)oc2cc(O)cc(O)c12
REMARK SMILES IDX 5 1 3 2 2 3 1 4 22 5 20 6 19 7 17 8 16 9 15 10 14 11 6 12
REMARK SMILES IDX 7 13 8 14 9 15 13 16 11 17 10 18 12 20 4 22 21 24 18 26
REMARK H PARENT 10 19 12 21 4 23 21 25 18 27
REMARK Flexibility Score: inf
ROOT
ATOM      1  C   UNL     1      16.107 -21.041  12.813  1.00  0.00     0.180 A 
ATOM      2  C   UNL     1      17.372 -21.099  12.196  1.00  0.00     0.208 A 
ATOM      3  C   UNL     1      18.498 -21.383  12.983  1.00  0.00     0.238 A 
ATOM      4  O   UNL     1      19.635 -21.448  12.438  1.00  0.00    -0.285 OA
ATOM      5  C   UNL     1      18.347 -21.584  14.370  1.00  0.00     0.111 A 
ATOM      6  C   UNL     1      19.431 -21.871  15.234  1.00  0.00     0.134 A 
ATOM      7  C   UNL     1      19.200 -22.048  16.606  1.00  0.00     0.093 A 
ATOM      8  C   UNL     1      17.909 -21.945  17.130  1.00  0.00     0.123 A 
ATOM      9  C   UNL     1      16.834 -21.663  16.281  1.00  0.00     0.094 A 
ATOM     10  C   UNL     1      17.044 -21.483  14.911  1.00  0.00     0.146 A 
ATOM     11  O   UNL     1      16.005 -21.221  14.126  1.00  0.00    -0.452 OA
ENDROOT
BRANCH   1  12
ATOM     12  C   UNL     1      14.870 -20.766  12.047  1.00  0.00     0.025 A 
ATOM     13  C   UNL     1      14.282 -21.744  11.231  1.00  0.00     0.016 A 
ATOM     14  C   UNL     1      13.102 -21.468  10.537  1.00  0.00     0.051 A 
ATOM     15  C   UNL     1      12.481 -20.221  10.653  1.00  0.00     0.157 A 
ATOM     16  C   UNL     1      14.237 -19.521  12.183  1.00  0.00     0.062 A 
ATOM     17  C   UNL     1      13.053 -19.234  11.491  1.00  0.00     0.158 A 
BRANCH  15  18
ATOM     18  O   UNL     1      11.304 -20.007   9.931  1.00  0.00    -0.504 OA
ATOM     19  H   UNL     1      10.513 -19.487  10.280  1.00  0.00     0.293 HD
ENDBRANCH  15  18
BRANCH  17  20
ATOM     20  O   UNL     1      12.486 -17.970  11.664  1.00  0.00    -0.504 OA
ATOM     21  H   UNL     1      13.003 -17.156  11.967  1.00  0.00     0.293 HD
ENDBRANCH  17  20
ENDBRANCH   1  12
BRANCH   2  22
ATOM     22  O   UNL     1      17.502 -20.847  10.826  1.00  0.00    -0.502 OA
ATOM     23  H   UNL     1      18.374 -20.987  10.330  1.00  0.00     0.293 HD
ENDBRANCH   2  22
BRANCH   6  24
ATOM     24  O   UNL     1      20.732 -21.979  14.742  1.00  0.00    -0.507 OA
ATOM     25  H   UNL     1      21.447 -22.502  15.235  1.00  0.00     0.293 HD
ENDBRANCH   6  24
BRANCH   8  26
ATOM     26  O   UNL     1      17.706 -22.125  18.496  1.00  0.00    -0.508 OA
ATOM     27  H   UNL     1      16.845 -21.837  18.946  1.00  0.00     0.293 HD
ENDBRANCH   8  26
TORSDOF 6
ENDMDL
MODEL 2
REMARK VINA RESULT:    -6.204      1.635      2.563
REMARK INTER + INTRA:          -7.754
REMARK INTER:                  -7.461
REMARK INTRA:                  -0.293
REMARK UNBOUND:                -0.281
REMARK SMILES O=c1c(O)c(-c2ccc(O)c(O)c2)oc2cc(O)cc(O)c12
REMARK SMILES IDX 5 1 3 2 2 3 1 4 22 5 20 6 19 7 17 8 16 9 15 10 14 11 6 12
REMARK SMILES IDX 7 13 8 14 9 15 13 16 11 17 10 18 12 20 4 22 21 24 18 26
REMARK H PARENT 10 19 12 21 4 23 21 25 18 27
REMARK Flexibility Score: inf
ROOT
ATOM      1  C   UNL     1      14.453 -20.190  11.220  1.00  0.00     0.180 A 
ATOM      2  C   UNL     1      15.554 -20.193  10.341  1.00  0.00     0.208 A 
ATOM      3  C   UNL     1      16.803 -20.619  10.819  1.00  0.00     0.238 A 
ATOM      4  O   UNL     1      17.793 -20.636  10.037  1.00  0.00    -0.285 OA
ATOM      5  C   UNL     1      16.936 -21.013  12.165  1.00  0.00     0.111 A 
ATOM      6  C   UNL     1      18.160 -21.451  12.727  1.00  0.00     0.134 A 
ATOM      7  C   UNL     1      18.214 -21.818  14.080  1.00  0.00     0.093 A 
ATOM      8  C   UNL     1      17.072 -21.755  14.881  1.00  0.00     0.123 A 
ATOM      9  C   UNL     1      15.860 -21.324  14.331  1.00  0.00     0.094 A 
ATOM     10  C   UNL     1      15.785 -20.956  12.985  1.00  0.00     0.146 A 
ATOM     11  O   UNL     1      14.621 -20.554  12.488  1.00  0.00    -0.452 OA
ENDROOT
BRANCH   1  12
ATOM     12  C   UNL     1      13.101 -19.774  10.786  1.00  0.00     0.025 A 
ATOM     13  C   UNL     1      12.282 -20.624  10.026  1.00  0.00     0.016 A 
ATOM     14  C   UNL     1      11.001 -20.218   9.649  1.00  0.00     0.051 A 
ATOM     15  C   UNL     1      10.507 -18.966  10.030  1.00  0.00     0.157 A 
ATOM     16  C   UNL     1      12.600 -18.526  11.188  1.00  0.00     0.062 A 
ATOM     17  C   UNL     1      11.316 -18.109  10.815  1.00  0.00     0.158 A 
BRANCH  15  18
ATOM     18  O   UNL     1       9.219 -18.618   9.618  1.00  0.00    -0.504 OA
ATOM     19  H   UNL     1       8.972 -18.392   8.665  1.00  0.00     0.293 HD
ENDBRANCH  15  18
BRANCH  17  20
ATOM     20  O   UNL     1      10.890 -16.850  11.241  1.00  0.00    -0.504 OA
ATOM     21  H   UNL     1       9.924 -16.609  11.415  1.00  0.00     0.293 HD
ENDBRANCH  17  20
ENDBRANCH   1  12
BRANCH   2  22
ATOM     22  O   UNL     1      15.406 -19.751   9.023  1.00  0.00    -0.502 OA
ATOM     23  H   UNL     1      16.106 -19.183   8.559  1.00  0.00     0.293 HD
ENDBRANCH   2  22
BRANCH   6  24
ATOM     24  O   UNL     1      19.320 -21.523  11.954  1.00  0.00    -0.507 OA
ATOM     25  H   UNL     1      19.928 -22.333  11.980  1.00  0.00     0.293 HD
ENDBRANCH   6  24
BRANCH   8  26
ATOM     26  O   UNL     1      17.151 -22.124  16.222  1.00  0.00    -0.508 OA
ATOM     27  H   UNL     1      16.419 -22.664  16.667  1.00  0.00     0.293 HD
ENDBRANCH   8  26
TORSDOF 6
ENDMDL
MODEL 3
REMARK VINA RESULT:    -5.933     11.270     14.276
REMARK INTER + INTRA:          -7.428
REMARK INTER:                  -7.458
REMARK INTRA:                   0.030
REMARK UNBOUND:                -0.281
REMARK SMILES O=c1c(O)c(-c2ccc(O)c(O)c2)oc2cc(O)cc(O)c12
REMARK SMILES IDX 5 1 3 2 2 3 1 4 22 5 20 6 19 7 17 8 16 9 15 10 14 11 6 12
REMARK SMILES IDX 7 13 8 14 9 15 13 16 11 17 10 18 12 20 4 22 21 24 18 26
REMARK H PARENT 10 19 12 21 4 23 21 25 18 27
REMARK Flexibility Score: inf
ROOT
ATOM      1  C   UNL     1      12.247  -8.581  10.827  1.00  0.00     0.180 A 
ATOM      2  C   UNL     1      12.089  -7.951   9.576  1.00  0.00     0.208 A 
ATOM      3  C   UNL     1      12.902  -6.851   9.263  1.00  0.00     0.238 A 
ATOM      4  O   UNL     1      12.777  -6.287   8.142  1.00  0.00    -0.285 OA
ATOM      5  C   UNL     1      13.841  -6.388  10.207  1.00  0.00     0.111 A 
ATOM      6  C   UNL     1      14.695  -5.283   9.972  1.00  0.00     0.134 A 
ATOM      7  C   UNL     1      15.598  -4.876  10.966  1.00  0.00     0.093 A 
ATOM      8  C   UNL     1      15.662  -5.550  12.188  1.00  0.00     0.123 A 
ATOM      9  C   UNL     1      14.821  -6.642  12.425  1.00  0.00     0.094 A 
ATOM     10  C   UNL     1      13.916  -7.063  11.447  1.00  0.00     0.146 A 
ATOM     11  O   UNL     1      13.132  -8.106  11.697  1.00  0.00    -0.452 OA
ENDROOT
BRANCH   1  12
ATOM     12  C   UNL     1      11.441  -9.758  11.222  1.00  0.00     0.025 A 
ATOM     13  C   UNL     1      12.039 -10.910  11.755  1.00  0.00     0.016 A 
ATOM     14  C   UNL     1      11.255 -11.998  12.143  1.00  0.00     0.051 A 
ATOM     15  C   UNL     1       9.863 -11.954  12.019  1.00  0.00     0.157 A 
ATOM     16  C   UNL     1      10.042  -9.703  11.117  1.00  0.00     0.062 A 
ATOM     17  C   UNL     1       9.246 -10.790  11.503  1.00  0.00     0.158 A 
BRANCH  15  18
ATOM     18  O   UNL     1       9.135 -13.077  12.421  1.00  0.00    -0.504 OA
ATOM     19  H   UNL     1       9.236 -13.523  13.321  1.00  0.00     0.293 HD
ENDBRANCH  15  18
BRANCH  17  20
ATOM     20  O   UNL     1       7.863 -10.668  11.358  1.00  0.00    -0.504 OA
ATOM     21  H   UNL     1       7.240 -11.450  11.211  1.00  0.00     0.293 HD
ENDBRANCH  17  20
ENDBRANCH   1  12
BRANCH   2  22
ATOM     22  O   UNL     1      11.117  -8.400   8.677  1.00  0.00    -0.502 OA
ATOM     23  H   UNL     1      10.832  -9.371   8.626  1.00  0.00     0.293 HD
ENDBRANCH   2  22
BRANCH   6  24
ATOM     24  O   UNL     1      14.655  -4.589   8.762  1.00  0.00    -0.507 OA
ATOM     25  H   UNL     1      14.860  -5.043   7.880  1.00  0.00     0.293 HD
ENDBRANCH   6  24
BRANCH   8  26
ATOM     26  O   UNL     1      16.566  -5.126  13.159  1.00  0.00    -0.508 OA
ATOM     27  H   UNL     1      16.522  -4.194  13.554  1.00  0.00     0.293 HD
ENDBRANCH   8  26
TORSDOF 6
ENDMDL
MODEL 4
REMARK VINA RESULT:    -5.915      2.975      8.192
REMARK INTER + INTRA:          -7.407
REMARK INTER:                  -7.893
REMARK INTRA:                   0.486
REMARK UNBOUND:                -0.281
REMARK SMILES O=c1c(O)c(-c2ccc(O)c(O)c2)oc2cc(O)cc(O)c12
REMARK SMILES IDX 5 1 3 2 2 3 1 4 22 5 20 6 19 7 17 8 16 9 15 10 14 11 6 12
REMARK SMILES IDX 7 13 8 14 9 15 13 16 11 17 10 18 12 20 4 22 21 24 18 26
REMARK H PARENT 10 19 12 21 4 23 21 25 18 27
REMARK Flexibility Score: inf
ROOT
ATOM      1  C   UNL     1      19.997 -21.485  17.084  1.00  0.00     0.180 A 
ATOM      2  C   UNL     1      20.956 -21.208  16.090  1.00  0.00     0.208 A 
ATOM      3  C   UNL     1      20.544 -21.143  14.750  1.00  0.00     0.238 A 
ATOM      4  O   UNL     1      21.393 -20.885  13.853  1.00  0.00    -0.285 OA
ATOM      5  C   UNL     1      19.192 -21.375  14.424  1.00  0.00     0.111 A 
ATOM      6  C   UNL     1      18.697 -21.333  13.098  1.00  0.00     0.134 A 
ATOM      7  C   UNL     1      17.339 -21.585  12.854  1.00  0.00     0.093 A 
ATOM      8  C   UNL     1      16.469 -21.878  13.906  1.00  0.00     0.123 A 
ATOM      9  C   UNL     1      16.952 -21.920  15.217  1.00  0.00     0.094 A 
ATOM     10  C   UNL     1      18.302 -21.671  15.482  1.00  0.00     0.146 A 
ATOM     11  O   UNL     1      18.734 -21.713  16.737  1.00  0.00    -0.452 OA
ENDROOT
BRANCH   1  12
ATOM     12  C   UNL     1      20.349 -21.550  18.520  1.00  0.00     0.025 A 
ATOM     13  C   UNL     1      19.361 -21.550  19.517  1.00  0.00     0.016 A 
ATOM     14  C   UNL     1      19.718 -21.637  20.864  1.00  0.00     0.051 A 
ATOM     15  C   UNL     1      21.061 -21.738  21.242  1.00  0.00     0.157 A 
ATOM     16  C   UNL     1      21.696 -21.673  18.896  1.00  0.00     0.062 A 
ATOM     17  C   UNL     1      22.064 -21.760  20.245  1.00  0.00     0.158 A 
BRANCH  15  18
ATOM     18  O   UNL     1      21.352 -21.817  22.606  1.00  0.00    -0.504 OA
ATOM     19  H   UNL     1      22.274 -21.694  22.995  1.00  0.00     0.293 HD
ENDBRANCH  15  18
BRANCH  17  20
ATOM     20  O   UNL     1      23.424 -21.868  20.543  1.00  0.00    -0.504 OA
ATOM     21  H   UNL     1      23.820 -22.600  21.116  1.00  0.00     0.293 HD
ENDBRANCH  17  20
ENDBRANCH   1  12
BRANCH   2  22
ATOM     22  O   UNL     1      22.299 -21.030  16.434  1.00  0.00    -0.502 OA
ATOM     23  H   UNL     1      22.801 -21.689  17.017  1.00  0.00     0.293 HD
ENDBRANCH   2  22
BRANCH   6  24
ATOM     24  O   UNL     1      19.542 -21.044  12.025  1.00  0.00    -0.507 OA
ATOM     25  H   UNL     1      20.047 -20.168  11.965  1.00  0.00     0.293 HD
ENDBRANCH   6  24
BRANCH   8  26
ATOM     26  O   UNL     1      15.124 -22.125  13.637  1.00  0.00    -0.508 OA
ATOM     27  H   UNL     1      14.837 -22.862  13.005  1.00  0.00     0.293 HD
ENDBRANCH   8  26
TORSDOF 6
ENDMDL
MODEL 5
REMARK VINA RESULT:    -5.797      2.227      4.004
REMARK INTER + INTRA:          -7.265
REMARK INTER:                  -6.998
REMARK INTRA:                  -0.266
REMARK UNBOUND:                -0.281
REMARK SMILES O=c1c(O)c(-c2ccc(O)c(O)c2)oc2cc(O)cc(O)c12
REMARK SMILES IDX 5 1 3 2 2 3 1 4 22 5 20 6 19 7 17 8 16 9 15 10 14 11 6 12
REMARK SMILES IDX 7 13 8 14 9 15 13 16 11 17 10 18 12 20 4 22 21 24 18 26
REMARK H PARENT 10 19 12 21 4 23 21 25 18 27
REMARK Flexibility Score: inf
ROOT
ATOM      1  C   UNL     1      15.610 -20.715  11.314  1.00  0.00     0.180 A 
ATOM      2  C   UNL     1      16.003 -21.334  12.517  1.00  0.00     0.208 A 
ATOM      3  C   UNL     1      17.366 -21.581  12.740  1.00  0.00     0.238 A 
ATOM      4  O   UNL     1      17.729 -22.125  13.818  1.00  0.00    -0.285 OA
ATOM      5  C   UNL     1      18.308 -21.225  11.754  1.00  0.00     0.111 A 
ATOM      6  C   UNL     1      19.700 -21.443  11.898  1.00  0.00     0.134 A 
ATOM      7  C   UNL     1      20.574 -21.070  10.866  1.00  0.00     0.093 A 
ATOM      8  C   UNL     1      20.085 -20.485   9.696  1.00  0.00     0.123 A 
ATOM      9  C   UNL     1      18.712 -20.267   9.548  1.00  0.00     0.094 A 
ATOM     10  C   UNL     1      17.825 -20.630  10.565  1.00  0.00     0.146 A 
ATOM     11  O   UNL     1      16.525 -20.407  10.401  1.00  0.00    -0.452 OA
ENDROOT
BRANCH   1  12
ATOM     12  C   UNL     1      14.194 -20.404  11.015  1.00  0.00     0.025 A 
ATOM     13  C   UNL     1      13.436 -21.205  10.146  1.00  0.00     0.016 A 
ATOM     14  C   UNL     1      12.095 -20.905   9.899  1.00  0.00     0.051 A 
ATOM     15  C   UNL     1      11.481 -19.813  10.521  1.00  0.00     0.157 A 
ATOM     16  C   UNL     1      13.574 -19.321  11.658  1.00  0.00     0.062 A 
ATOM     17  C   UNL     1      12.229 -19.012  11.416  1.00  0.00     0.158 A 
BRANCH  15  18
ATOM     18  O   UNL     1      10.138 -19.565  10.229  1.00  0.00    -0.504 OA
ATOM     19  H   UNL     1       9.481 -20.275   9.942  1.00  0.00     0.293 HD
ENDBRANCH  15  18
BRANCH  17  20
ATOM     20  O   UNL     1      11.684 -17.912  12.081  1.00  0.00    -0.504 OA
ATOM     21  H   UNL     1      10.981 -17.303  11.684  1.00  0.00     0.293 HD
ENDBRANCH  17  20
ENDBRANCH   1  12
BRANCH   2  22
ATOM     22  O   UNL     1      15.043 -21.721  13.458  1.00  0.00    -0.502 OA
ATOM     23  H   UNL     1      14.525 -22.587  13.379  1.00  0.00     0.293 HD
ENDBRANCH   2  22
BRANCH   6  24
ATOM     24  O   UNL     1      20.219 -22.027  13.054  1.00  0.00    -0.507 OA
ATOM     25  H   UNL     1      19.641 -22.208  13.866  1.00  0.00     0.293 HD
ENDBRANCH   6  24
BRANCH   8  26
ATOM     26  O   UNL     1      20.974 -20.124   8.685  1.00  0.00    -0.508 OA
ATOM     27  H   UNL     1      21.875 -19.712   8.894  1.00  0.00     0.293 HD
ENDBRANCH   8  26
TORSDOF 6
ENDMDL
MODEL 6
REMARK VINA RESULT:    -5.784      1.635      6.595
REMARK INTER + INTRA:          -7.249
REMARK INTER:                  -7.561
REMARK INTRA:                   0.312
REMARK UNBOUND:                -0.281
REMARK SMILES O=c1c(O)c(-c2ccc(O)c(O)c2)oc2cc(O)cc(O)c12
REMARK SMILES IDX 5 1 3 2 2 3 1 4 22 5 20 6 19 7 17 8 16 9 15 10 14 11 6 12
REMARK SMILES IDX 7 13 8 14 9 15 13 16 11 17 10 18 12 20 4 22 21 24 18 26
REMARK H PARENT 10 19 12 21 4 23 21 25 18 27
REMARK Flexibility Score: inf
ROOT
ATOM      1  C   UNL     1      17.674 -21.308  13.962  1.00  0.00     0.180 A 
ATOM      2  C   UNL     1      18.656 -21.153  12.963  1.00  0.00     0.208 A 
ATOM      3  C   UNL     1      18.257 -21.118  11.619  1.00  0.00     0.238 A 
ATOM      4  O   UNL     1      19.127 -20.968  10.718  1.00  0.00    -0.285 OA
ATOM      5  C   UNL     1      16.893 -21.259  11.292  1.00  0.00     0.111 A 
ATOM      6  C   UNL     1      16.409 -21.241   9.962  1.00  0.00     0.134 A 
ATOM      7  C   UNL     1      15.036 -21.398   9.718  1.00  0.00     0.093 A 
ATOM      8  C   UNL     1      14.141 -21.573  10.776  1.00  0.00     0.123 A 
ATOM      9  C   UNL     1      14.614 -21.592  12.092  1.00  0.00     0.094 A 
ATOM     10  C   UNL     1      15.977 -21.436  12.355  1.00  0.00     0.146 A 
ATOM     11  O   UNL     1      16.399 -21.453  13.615  1.00  0.00    -0.452 OA
ENDROOT
BRANCH   1  12
ATOM     12  C   UNL     1      18.014 -21.334  15.402  1.00  0.00     0.025 A 
ATOM     13  C   UNL     1      17.271 -22.098  16.316  1.00  0.00     0.016 A 
ATOM     14  C   UNL     1      17.626 -22.125  17.666  1.00  0.00     0.051 A 
ATOM     15  C   UNL     1      18.732 -21.405  18.128  1.00  0.00     0.157 A 
ATOM     16  C   UNL     1      19.137 -20.628  15.859  1.00  0.00     0.062 A 
ATOM     17  C   UNL     1      19.501 -20.649  17.212  1.00  0.00     0.158 A 
BRANCH  15  18
ATOM     18  O   UNL     1      19.032 -21.470  19.491  1.00  0.00    -0.504 OA
ATOM     19  H   UNL     1      18.342 -21.418  20.224  1.00  0.00     0.293 HD
ENDBRANCH  15  18
BRANCH  17  20
ATOM     20  O   UNL     1      20.623 -19.912  17.596  1.00  0.00    -0.504 OA
ATOM     21  H   UNL     1      20.669 -18.902  17.579  1.00  0.00     0.293 HD
ENDBRANCH  17  20
ENDBRANCH   1  12
BRANCH   2  22
ATOM     22  O   UNL     1      20.008 -21.064  13.311  1.00  0.00    -0.502 OA
ATOM     23  H   UNL     1      20.586 -20.276  13.043  1.00  0.00     0.293 HD
ENDBRANCH   2  22
BRANCH   6  24
ATOM     24  O   UNL     1      17.278 -21.068   8.884  1.00  0.00    -0.507 OA
ATOM     25  H   UNL     1      18.003 -21.743   8.671  1.00  0.00     0.293 HD
ENDBRANCH   6  24
BRANCH   8  26
ATOM     26  O   UNL     1      12.783 -21.727  10.507  1.00  0.00    -0.508 OA
ATOM     27  H   UNL     1      12.244 -20.995  10.061  1.00  0.00     0.293 HD
ENDBRANCH   8  26
TORSDOF 6
ENDMDL
MODEL 7
REMARK VINA RESULT:    -5.747      2.662      8.389
REMARK INTER + INTRA:          -7.204
REMARK INTER:                  -6.872
REMARK INTRA:                  -0.332
REMARK UNBOUND:                -0.281
REMARK SMILES O=c1c(O)c(-c2ccc(O)c(O)c2)oc2cc(O)cc(O)c12
REMARK SMILES IDX 5 1 3 2 2 3 1 4 22 5 20 6 19 7 17 8 16 9 15 10 14 11 6 12
REMARK SMILES IDX 7 13 8 14 9 15 13 16 11 17 10 18 12 20 4 22 21 24 18 26
REMARK H PARENT 10 19 12 21 4 23 21 25 18 27
REMARK Flexibility Score: inf
ROOT
ATOM      1  C   UNL     1      12.975 -19.474  10.621  1.00  0.00     0.180 A 
ATOM      2  C   UNL     1      12.066 -20.359  10.009  1.00  0.00     0.208 A 
ATOM      3  C   UNL     1      10.833 -19.861   9.560  1.00  0.00     0.238 A 
ATOM      4  O   UNL     1      10.016 -20.643   9.000  1.00  0.00    -0.285 OA
ATOM      5  C   UNL     1      10.521 -18.499   9.746  1.00  0.00     0.111 A 
ATOM      6  C   UNL     1       9.299 -17.920   9.327  1.00  0.00     0.134 A 
ATOM      7  C   UNL     1       9.059 -16.557   9.558  1.00  0.00     0.093 A 
ATOM      8  C   UNL     1      10.014 -15.764  10.199  1.00  0.00     0.123 A 
ATOM      9  C   UNL     1      11.223 -16.331  10.615  1.00  0.00     0.094 A 
ATOM     10  C   UNL     1      11.481 -17.687  10.393  1.00  0.00     0.146 A 
ATOM     11  O   UNL     1      12.640 -18.199  10.794  1.00  0.00    -0.452 OA
ENDROOT
BRANCH   1  12
ATOM     12  C   UNL     1      14.302 -19.918  11.103  1.00  0.00     0.025 A 
ATOM     13  C   UNL     1      15.435 -19.871  10.276  1.00  0.00     0.016 A 
ATOM     14  C   UNL     1      16.680 -20.273  10.761  1.00  0.00     0.051 A 
ATOM     15  C   UNL     1      16.824 -20.718  12.080  1.00  0.00     0.157 A 
ATOM     16  C   UNL     1      14.447 -20.343  12.433  1.00  0.00     0.062 A 
ATOM     17  C   UNL     1      15.693 -20.749  12.929  1.00  0.00     0.158 A 
BRANCH  15  18
ATOM     18  O   UNL     1      18.096 -21.110  12.503  1.00  0.00    -0.504 OA
ATOM     19  H   UNL     1      18.883 -21.235  11.884  1.00  0.00     0.293 HD
ENDBRANCH  15  18
BRANCH  17  20
ATOM     20  O   UNL     1      15.758 -21.171  14.259  1.00  0.00    -0.504 OA
ATOM     21  H   UNL     1      16.620 -21.280  14.775  1.00  0.00     0.293 HD
ENDBRANCH  17  20
ENDBRANCH   1  12
BRANCH   2  22
ATOM     22  O   UNL     1      12.379 -21.715   9.879  1.00  0.00    -0.502 OA
ATOM     23  H   UNL     1      12.520 -22.155   8.978  1.00  0.00     0.293 HD
ENDBRANCH   2  22
BRANCH   6  24
ATOM     24  O   UNL     1       8.325 -18.685   8.685  1.00  0.00    -0.507 OA
ATOM     25  H   UNL     1       8.515 -19.624   8.356  1.00  0.00     0.293 HD
ENDBRANCH   6  24
BRANCH   8  26
ATOM     26  O   UNL     1       9.752 -14.414  10.417  1.00  0.00    -0.508 OA
ATOM     27  H   UNL     1      10.495 -13.754  10.613  1.00  0.00     0.293 HD
ENDBRANCH   8  26
TORSDOF 6
ENDMDL
MODEL 8
REMARK VINA RESULT:    -5.733      2.336      4.247
REMARK INTER + INTRA:          -7.187
REMARK INTER:                  -6.863
REMARK INTRA:                  -0.324
REMARK UNBOUND:                -0.281
REMARK SMILES O=c1c(O)c(-c2ccc(O)c(O)c2)oc2cc(O)cc(O)c12
REMARK SMILES IDX 5 1 3 2 2 3 1 4 22 5 20 6 19 7 17 8 16 9 15 10 14 11 6 12
REMARK SMILES IDX 7 13 8 14 9 15 13 16 11 17 10 18 12 20 4 22 21 24 18 26
REMARK H PARENT 10 19 12 21 4 23 21 25 18 27
REMARK Flexibility Score: inf
ROOT
ATOM      1  C   UNL     1      13.376 -19.811  10.350  1.00  0.00     0.180 A 
ATOM      2  C   UNL     1      14.256 -20.246   9.339  1.00  0.00     0.208 A 
ATOM      3  C   UNL     1      15.460 -20.865   9.708  1.00  0.00     0.238 A 
ATOM      4  O   UNL     1      16.250 -21.267   8.811  1.00  0.00    -0.285 OA
ATOM      5  C   UNL     1      15.773 -21.022  11.074  1.00  0.00     0.111 A 
ATOM      6  C   UNL     1      16.968 -21.630  11.529  1.00  0.00     0.134 A 
ATOM      7  C   UNL     1      17.212 -21.741  12.906  1.00  0.00     0.093 A 
ATOM      8  C   UNL     1      16.288 -21.255  13.834  1.00  0.00     0.123 A 
ATOM      9  C   UNL     1      15.107 -20.653  13.390  1.00  0.00     0.094 A 
ATOM     10  C   UNL     1      14.845 -20.535  12.022  1.00  0.00     0.146 A 
ATOM     11  O   UNL     1      13.712 -19.963  11.628  1.00  0.00    -0.452 OA
ENDROOT
BRANCH   1  12
ATOM     12  C   UNL     1      12.079 -19.168  10.041  1.00  0.00     0.025 A 
ATOM     13  C   UNL     1      11.970 -17.777   9.890  1.00  0.00     0.016 A 
ATOM     14  C   UNL     1      10.740 -17.195   9.575  1.00  0.00     0.051 A 
ATOM     15  C   UNL     1       9.602 -17.987   9.391  1.00  0.00     0.157 A 
ATOM     16  C   UNL     1      10.943 -19.966   9.836  1.00  0.00     0.062 A 
ATOM     17  C   UNL     1       9.705 -19.393   9.519  1.00  0.00     0.158 A 
BRANCH  15  18
ATOM     18  O   UNL     1       8.402 -17.344   9.081  1.00  0.00    -0.504 OA
ATOM     19  H   UNL     1       7.616 -17.280   9.710  1.00  0.00     0.293 HD
ENDBRANCH  15  18
BRANCH  17  20
ATOM     20  O   UNL     1       8.616 -20.249   9.342  1.00  0.00    -0.504 OA
ATOM     21  H   UNL     1       8.696 -21.253   9.255  1.00  0.00     0.293 HD
ENDBRANCH  17  20
ENDBRANCH   1  12
BRANCH   2  22
ATOM     22  O   UNL     1      13.944 -20.034   7.993  1.00  0.00    -0.502 OA
ATOM     23  H   UNL     1      14.142 -19.160   7.521  1.00  0.00     0.293 HD
ENDBRANCH   2  22
BRANCH   6  24
ATOM     24  O   UNL     1      17.911 -22.125  10.627  1.00  0.00    -0.507 OA
ATOM     25  H   UNL     1      18.159 -23.107  10.600  1.00  0.00     0.293 HD
ENDBRANCH   6  24
BRANCH   8  26
ATOM     26  O   UNL     1      16.555 -21.376  15.196  1.00  0.00    -0.508 OA
ATOM     27  H   UNL     1      16.243 -20.678  15.861  1.00  0.00     0.293 HD
ENDBRANCH   8  26
TORSDOF 6
ENDMDL
