MODEL 1
REMARK VINA RESULT:    -3.690      0.000      0.000
REMARK INTER + INTRA:          -5.150
REMARK INTER:                  -4.876
REMARK INTRA:                  -0.274
REMARK UNBOUND:                -0.274
REMARK SMILES CCCCC=CC=CCO
REMARK SMILES IDX 5 1 6 2 4 3 3 4 2 5 1 6 7 7 8 8 9 9 10 10
REMARK H PARENT 10 11
REMARK Flexibility Score: inf
ROOT
ATOM      1  C   UNL     1       5.599  -9.478  28.795  1.00  0.00    -0.027 C 
ATOM      2  C   UNL     1       4.543  -8.801  28.332  1.00  0.00    -0.005 C 
ENDROOT
BRANCH   1   3
ATOM      3  C   UNL     1       6.958  -9.337  28.171  1.00  0.00     0.027 C 
BRANCH   3   4
ATOM      4  C   UNL     1       7.078  -8.014  27.398  1.00  0.00     0.004 C 
BRANCH   4   5
ATOM      5  C   UNL     1       8.392  -7.911  26.609  1.00  0.00    -0.003 C 
ATOM      6  C   UNL     1       9.603  -8.383  27.414  1.00  0.00     0.004 C 
ENDBRANCH   4   5
ENDBRANCH   3   4
ENDBRANCH   1   3
BRANCH   2   7
ATOM      7  C   UNL     1       3.212  -8.962  28.950  1.00  0.00    -0.002 C 
ATOM      8  C   UNL     1       2.119  -9.342  28.276  1.00  0.00     0.001 C 
BRANCH   8   9
ATOM      9  C   UNL     1       2.100  -9.652  26.807  1.00  0.00     0.183 C 
BRANCH   9  10
ATOM     10  O   UNL     1       1.173  -8.826  26.159  1.00  0.00    -0.392 OA
ATOM     11  H   UNL     1       0.532  -8.534  26.858  1.00  0.00     0.210 HD
ENDBRANCH   9  10
ENDBRANCH   8   9
ENDBRANCH   2   7
TORSDOF 6
ENDMDL
MODEL 2
REMARK VINA RESULT:    -3.664      1.131      1.799
REMARK INTER + INTRA:          -5.116
REMARK INTER:                  -4.719
REMARK INTRA:                  -0.397
REMARK UNBOUND:                -0.274
REMARK SMILES CCCCC=CC=CCO
REMARK SMILES IDX 5 1 6 2 4 3 3 4 2 5 1 6 7 7 8 8 9 9 10 10
REMARK H PARENT 10 11
REMARK Flexibility Score: inf
ROOT
ATOM      1  C   UNL     1       5.352  -8.149  28.063  1.00  0.00    -0.027 C 
ATOM      2  C   UNL     1       4.583  -9.212  28.314  1.00  0.00    -0.005 C 
ENDROOT
BRANCH   1   3
ATOM      3  C   UNL     1       6.716  -8.293  27.450  1.00  0.00     0.027 C 
BRANCH   3   4
ATOM      4  C   UNL     1       7.562  -9.321  28.216  1.00  0.00     0.004 C 
BRANCH   4   5
ATOM      5  C   UNL     1       8.097  -8.770  29.546  1.00  0.00    -0.003 C 
ATOM      6  C   UNL     1       7.767  -9.673  30.735  1.00  0.00     0.004 C 
ENDBRANCH   4   5
ENDBRANCH   3   4
ENDBRANCH   1   3
BRANCH   2   7
ATOM      7  C   UNL     1       3.249  -9.053  28.928  1.00  0.00    -0.002 C 
ATOM      8  C   UNL     1       2.099  -9.250  28.272  1.00  0.00     0.001 C 
BRANCH   8   9
ATOM      9  C   UNL     1       2.011  -9.655  26.829  1.00  0.00     0.183 C 
BRANCH   9  10
ATOM     10  O   UNL     1       1.205  -8.748  26.129  1.00  0.00    -0.392 OA
ATOM     11  H   UNL     1       1.663  -8.586  25.263  1.00  0.00     0.210 HD
ENDBRANCH   9  10
ENDBRANCH   8   9
ENDBRANCH   2   7
TORSDOF 6
ENDMDL
MODEL 3
REMARK VINA RESULT:    -3.655      1.412      1.923
REMARK INTER + INTRA:          -5.104
REMARK INTER:                  -4.784
REMARK INTRA:                  -0.320
REMARK UNBOUND:                -0.274
REMARK SMILES CCCCC=CC=CCO
REMARK SMILES IDX 5 1 6 2 4 3 3 4 2 5 1 6 7 7 8 8 9 9 10 10
REMARK H PARENT 10 11
REMARK Flexibility Score: inf
ROOT
ATOM      1  C   UNL     1       6.323  -9.266  28.280  1.00  0.00    -0.027 C 
ATOM      2  C   UNL     1       5.334  -8.414  27.990  1.00  0.00    -0.005 C 
ENDROOT
BRANCH   1   3
ATOM      3  C   UNL     1       6.826  -9.436  29.685  1.00  0.00     0.027 C 
BRANCH   3   4
ATOM      4  C   UNL     1       8.358  -9.545  29.716  1.00  0.00     0.004 C 
BRANCH   4   5
ATOM      5  C   UNL     1       9.004  -9.145  28.380  1.00  0.00    -0.003 C 
ATOM      6  C   UNL     1       9.723  -7.798  28.453  1.00  0.00     0.004 C 
ENDBRANCH   4   5
ENDBRANCH   3   4
ENDBRANCH   1   3
BRANCH   2   7
ATOM      7  C   UNL     1       4.861  -8.250  26.601  1.00  0.00    -0.002 C 
ATOM      8  C   UNL     1       3.585  -8.407  26.227  1.00  0.00     0.001 C 
BRANCH   8   9
ATOM      9  C   UNL     1       2.470  -8.771  27.164  1.00  0.00     0.183 C 
BRANCH   9  10
ATOM     10  O   UNL     1       1.269  -8.886  26.452  1.00  0.00    -0.392 OA
ATOM     11  H   UNL     1       1.297  -9.773  26.009  1.00  0.00     0.210 HD
ENDBRANCH   9  10
ENDBRANCH   8   9
ENDBRANCH   2   7
TORSDOF 6
ENDMDL
MODEL 4
REMARK VINA RESULT:    -3.523      3.281      5.662
REMARK INTER + INTRA:          -4.930
REMARK INTER:                  -4.617
REMARK INTRA:                  -0.312
REMARK UNBOUND:                -0.274
REMARK SMILES CCCCC=CC=CCO
REMARK SMILES IDX 5 1 6 2 4 3 3 4 2 5 1 6 7 7 8 8 9 9 10 10
REMARK H PARENT 10 11
REMARK Flexibility Score: inf
ROOT
ATOM      1  C   UNL     1       5.386  -8.320  28.004  1.00  0.00    -0.027 C 
ATOM      2  C   UNL     1       6.142  -9.363  28.361  1.00  0.00    -0.005 C 
ENDROOT
BRANCH   1   3
ATOM      3  C   UNL     1       4.716  -8.258  26.661  1.00  0.00     0.027 C 
BRANCH   3   4
ATOM      4  C   UNL     1       3.200  -8.058  26.806  1.00  0.00     0.004 C 
BRANCH   4   5
ATOM      5  C   UNL     1       2.512  -9.250  27.490  1.00  0.00    -0.003 C 
ATOM      6  C   UNL     1       1.947  -8.894  28.865  1.00  0.00     0.004 C 
ENDBRANCH   4   5
ENDBRANCH   3   4
ENDBRANCH   1   3
BRANCH   2   7
ATOM      7  C   UNL     1       6.801  -9.402  29.681  1.00  0.00    -0.002 C 
ATOM      8  C   UNL     1       8.130  -9.422  29.849  1.00  0.00     0.001 C 
BRANCH   8   9
ATOM      9  C   UNL     1       9.122  -9.411  28.722  1.00  0.00     0.183 C 
BRANCH   9  10
ATOM     10  O   UNL     1      10.135  -8.482  28.990  1.00  0.00    -0.392 OA
ATOM     11  H   UNL     1      10.953  -9.013  29.173  1.00  0.00     0.210 HD
ENDBRANCH   9  10
ENDBRANCH   8   9
ENDBRANCH   2   7
TORSDOF 6
ENDMDL
MODEL 5
REMARK VINA RESULT:    -3.475      3.010      5.687
REMARK INTER + INTRA:          -4.867
REMARK INTER:                  -4.463
REMARK INTRA:                  -0.403
REMARK UNBOUND:                -0.274
REMARK SMILES CCCCC=CC=CCO
REMARK SMILES IDX 5 1 6 2 4 3 3 4 2 5 1 6 7 7 8 8 9 9 10 10
REMARK H PARENT 10 11
REMARK Flexibility Score: inf
ROOT
ATOM      1  C   UNL     1       6.194  -9.524  28.290  1.00  0.00    -0.027 C 
ATOM      2  C   UNL     1       6.583  -8.302  27.916  1.00  0.00    -0.005 C 
ENDROOT
BRANCH   1   3
ATOM      3  C   UNL     1       5.074  -9.727  29.270  1.00  0.00     0.027 C 
BRANCH   3   4
ATOM      4  C   UNL     1       3.778  -9.069  28.773  1.00  0.00     0.004 C 
BRANCH   4   5
ATOM      5  C   UNL     1       3.017  -9.950  27.770  1.00  0.00    -0.003 C 
ATOM      6  C   UNL     1       2.881  -9.295  26.395  1.00  0.00     0.004 C 
ENDBRANCH   4   5
ENDBRANCH   3   4
ENDBRANCH   1   3
BRANCH   2   7
ATOM      7  C   UNL     1       7.694  -8.121  26.960  1.00  0.00    -0.002 C 
ATOM      8  C   UNL     1       8.979  -8.019  27.323  1.00  0.00     0.001 C 
BRANCH   8   9
ATOM      9  C   UNL     1       9.459  -8.070  28.745  1.00  0.00     0.183 C 
BRANCH   9  10
ATOM     10  O   UNL     1       9.788  -9.388  29.088  1.00  0.00    -0.392 OA
ATOM     11  H   UNL     1       9.035  -9.723  29.640  1.00  0.00     0.210 HD
ENDBRANCH   9  10
ENDBRANCH   8   9
ENDBRANCH   2   7
TORSDOF 6
ENDMDL
MODEL 6
REMARK VINA RESULT:    -3.396      0.874      1.456
REMARK INTER + INTRA:          -4.762
REMARK INTER:                  -4.411
REMARK INTRA:                  -0.350
REMARK UNBOUND:                -0.274
REMARK SMILES CCCCC=CC=CCO
REMARK SMILES IDX 5 1 6 2 4 3 3 4 2 5 1 6 7 7 8 8 9 9 10 10
REMARK H PARENT 10 11
REMARK Flexibility Score: inf
ROOT
ATOM      1  C   UNL     1       5.674  -8.923  28.890  1.00  0.00    -0.027 C 
ATOM      2  C   UNL     1       4.536  -9.332  28.321  1.00  0.00    -0.005 C 
ENDROOT
BRANCH   1   3
ATOM      3  C   UNL     1       7.014  -9.281  28.311  1.00  0.00     0.027 C 
BRANCH   3   4
ATOM      4  C   UNL     1       7.473  -8.234  27.286  1.00  0.00     0.004 C 
BRANCH   4   5
ATOM      5  C   UNL     1       7.191  -6.796  27.746  1.00  0.00    -0.003 C 
ATOM      6  C   UNL     1       6.450  -5.973  26.692  1.00  0.00     0.004 C 
ENDBRANCH   4   5
ENDBRANCH   3   4
ENDBRANCH   1   3
BRANCH   2   7
ATOM      7  C   UNL     1       3.228  -8.979  28.910  1.00  0.00    -0.002 C 
ATOM      8  C   UNL     1       2.063  -9.098  28.261  1.00  0.00     0.001 C 
BRANCH   8   9
ATOM      9  C   UNL     1       1.931  -9.600  26.852  1.00  0.00     0.183 C 
BRANCH   9  10
ATOM     10  O   UNL     1       1.142  -8.716  26.105  1.00  0.00    -0.392 OA
ATOM     11  H   UNL     1       1.126  -9.077  25.181  1.00  0.00     0.210 HD
ENDBRANCH   9  10
ENDBRANCH   8   9
ENDBRANCH   2   7
TORSDOF 6
ENDMDL
MODEL 7
REMARK VINA RESULT:    -3.284      3.893      5.041
REMARK INTER + INTRA:          -4.614
REMARK INTER:                  -4.326
REMARK INTRA:                  -0.287
REMARK UNBOUND:                -0.274
REMARK SMILES CCCCC=CC=CCO
REMARK SMILES IDX 5 1 6 2 4 3 3 4 2 5 1 6 7 7 8 8 9 9 10 10
REMARK H PARENT 10 11
REMARK Flexibility Score: inf
ROOT
ATOM      1  C   UNL     1       2.546  -6.536  25.875  1.00  0.00    -0.027 C 
ATOM      2  C   UNL     1       3.204  -7.593  26.361  1.00  0.00    -0.005 C 
ENDROOT
BRANCH   1   3
ATOM      3  C   UNL     1       3.118  -5.150  25.955  1.00  0.00     0.027 C 
BRANCH   3   4
ATOM      4  C   UNL     1       2.021  -4.114  26.245  1.00  0.00     0.004 C 
BRANCH   4   5
ATOM      5  C   UNL     1       2.538  -2.921  27.064  1.00  0.00    -0.003 C 
ATOM      6  C   UNL     1       3.843  -3.232  27.799  1.00  0.00     0.004 C 
ENDBRANCH   4   5
ENDBRANCH   3   4
ENDBRANCH   1   3
BRANCH   2   7
ATOM      7  C   UNL     1       2.621  -8.947  26.283  1.00  0.00    -0.002 C 
ATOM      8  C   UNL     1       2.274  -9.671  27.355  1.00  0.00     0.001 C 
BRANCH   8   9
ATOM      9  C   UNL     1       2.434  -9.205  28.774  1.00  0.00     0.183 C 
BRANCH   9  10
ATOM     10  O   UNL     1       1.252  -8.595  29.210  1.00  0.00    -0.392 OA
ATOM     11  H   UNL     1       0.642  -8.588  28.427  1.00  0.00     0.210 HD
ENDBRANCH   9  10
ENDBRANCH   8   9
ENDBRANCH   2   7
TORSDOF 6
ENDMDL
