MODEL 1
REMARK VINA RESULT:    -4.827      0.000      0.000
REMARK INTER + INTRA:         -10.055
REMARK INTER:                  -8.495
REMARK INTRA:                  -1.560
REMARK UNBOUND:                -1.560
REMARK SMILES CCCCCCCCCCCCCCC(=O)[O-]
REMARK SMILES IDX 9 1 10 2 11 3 12 4 13 5 14 6 15 7 16 8 17 9 8 10 7 11 6 12
REMARK SMILES IDX 5 13 4 14 3 15 2 16 1 17
REMARK H PARENT
REMARK Flexibility Score: inf
ROOT
ATOM      1  C   UNL     1     253.789 259.416 247.713  1.00  0.00     0.000 C 
ENDROOT
BRANCH   1   2
ATOM      2  C   UNL     1     254.076 260.850 248.181  1.00  0.00     0.000 C 
BRANCH   2   3
ATOM      3  C   UNL     1     255.149 260.867 249.276  1.00  0.00     0.000 C 
BRANCH   3   4
ATOM      4  C   UNL     1     256.490 260.350 248.742  1.00  0.00     0.000 C 
BRANCH   4   5
ATOM      5  C   UNL     1     257.606 261.377 248.968  1.00  0.00     0.006 C 
BRANCH   5   6
ATOM      6  C   UNL     1     258.925 260.899 248.356  1.00  0.00     0.053 C 
BRANCH   6   7
ATOM      7  C   UNL     1     260.004 261.912 248.578  1.00  0.00     0.041 C 
ATOM      8  O   UNL     1     260.486 262.548 247.605  1.00  0.00    -0.550 OA
ATOM      9  O   UNL     1     260.511 262.117 249.854  1.00  0.00    -0.550 OA
ENDBRANCH   6   7
ENDBRANCH   5   6
ENDBRANCH   4   5
ENDBRANCH   3   4
ENDBRANCH   2   3
ENDBRANCH   1   2
BRANCH   1  10
ATOM     10  C   UNL     1     254.094 259.207 246.222  1.00  0.00     0.000 C 
BRANCH  10  11
ATOM     11  C   UNL     1     254.388 260.526 245.485  1.00  0.00    -0.000 C 
BRANCH  11  12
ATOM     12  C   UNL     1     255.746 260.491 244.751  1.00  0.00    -0.000 C 
BRANCH  12  13
ATOM     13  C   UNL     1     256.791 261.451 245.343  1.00  0.00    -0.000 C 
BRANCH  13  14
ATOM     14  C   UNL     1     258.177 261.299 244.694  1.00  0.00    -0.000 C 
BRANCH  14  15
ATOM     15  C   UNL     1     258.716 262.625 244.135  1.00  0.00    -0.000 C 
BRANCH  15  16
ATOM     16  C   UNL     1     258.486 263.806 245.089  1.00  0.00    -0.003 C 
ATOM     17  C   UNL     1     257.797 264.965 244.373  1.00  0.00     0.004 C 
ENDBRANCH  15  16
ENDBRANCH  14  15
ENDBRANCH  13  14
ENDBRANCH  12  13
ENDBRANCH  11  12
ENDBRANCH  10  11
ENDBRANCH   1  10
TORSDOF 13
ENDMDL
MODEL 2
REMARK VINA RESULT:    -4.817      2.677      4.974
REMARK INTER + INTRA:         -10.037
REMARK INTER:                  -8.306
REMARK INTRA:                  -1.731
REMARK UNBOUND:                -1.560
REMARK SMILES CCCCCCCCCCCCCCC(=O)[O-]
REMARK SMILES IDX 9 1 10 2 11 3 12 4 13 5 14 6 15 7 16 8 17 9 8 10 7 11 6 12
REMARK SMILES IDX 5 13 4 14 3 15 2 16 1 17
REMARK H PARENT
REMARK Flexibility Score: inf
ROOT
ATOM      1  C   UNL     1     257.832 261.433 244.580  1.00  0.00     0.000 C 
ENDROOT
BRANCH   1   2
ATOM      2  C   UNL     1     256.453 260.789 244.789  1.00  0.00     0.000 C 
BRANCH   2   3
ATOM      3  C   UNL     1     255.936 261.048 246.209  1.00  0.00     0.000 C 
BRANCH   3   4
ATOM      4  C   UNL     1     254.433 260.760 246.310  1.00  0.00     0.000 C 
BRANCH   4   5
ATOM      5  C   UNL     1     253.994 260.630 247.773  1.00  0.00     0.006 C 
BRANCH   5   6
ATOM      6  C   UNL     1     255.190 260.764 248.720  1.00  0.00     0.053 C 
BRANCH   6   7
ATOM      7  C   UNL     1     255.415 259.486 249.464  1.00  0.00     0.041 C 
ATOM      8  O   UNL     1     255.854 258.471 248.861  1.00  0.00    -0.550 OA
ATOM      9  O   UNL     1     255.094 259.400 250.812  1.00  0.00    -0.550 OA
ENDBRANCH   6   7
ENDBRANCH   5   6
ENDBRANCH   4   5
ENDBRANCH   3   4
ENDBRANCH   2   3
ENDBRANCH   1   2
BRANCH   1  10
ATOM     10  C   UNL     1     257.945 262.816 245.239  1.00  0.00     0.000 C 
BRANCH  10  11
ATOM     11  C   UNL     1     259.165 262.933 246.170  1.00  0.00    -0.000 C 
BRANCH  11  12
ATOM     12  C   UNL     1     258.775 262.803 247.658  1.00  0.00    -0.000 C 
BRANCH  12  13
ATOM     13  C   UNL     1     259.503 261.663 248.389  1.00  0.00    -0.000 C 
BRANCH  13  14
ATOM     14  C   UNL     1     259.037 260.269 247.935  1.00  0.00    -0.000 C 
BRANCH  14  15
ATOM     15  C   UNL     1     260.210 259.334 247.601  1.00  0.00    -0.000 C 
BRANCH  15  16
ATOM     16  C   UNL     1     260.737 259.531 246.173  1.00  0.00    -0.003 C 
ATOM     17  C   UNL     1     261.994 258.700 245.931  1.00  0.00     0.004 C 
ENDBRANCH  15  16
ENDBRANCH  14  15
ENDBRANCH  13  14
ENDBRANCH  12  13
ENDBRANCH  11  12
ENDBRANCH  10  11
ENDBRANCH   1  10
TORSDOF 13
ENDMDL
MODEL 3
REMARK VINA RESULT:    -4.811      2.834      4.535
REMARK INTER + INTRA:         -10.027
REMARK INTER:                  -8.614
REMARK INTRA:                  -1.413
REMARK UNBOUND:                -1.560
REMARK SMILES CCCCCCCCCCCCCCC(=O)[O-]
REMARK SMILES IDX 9 1 10 2 11 3 12 4 13 5 14 6 15 7 16 8 17 9 8 10 7 11 6 12
REMARK SMILES IDX 5 13 4 14 3 15 2 16 1 17
REMARK H PARENT
REMARK Flexibility Score: inf
ROOT
ATOM      1  C   UNL     1     256.457 261.410 246.052  1.00  0.00     0.000 C 
ENDROOT
BRANCH   1   2
ATOM      2  C   UNL     1     255.126 260.691 246.317  1.00  0.00     0.000 C 
BRANCH   2   3
ATOM      3  C   UNL     1     254.938 260.421 247.815  1.00  0.00     0.000 C 
BRANCH   3   4
ATOM      4  C   UNL     1     256.272 260.071 248.484  1.00  0.00     0.000 C 
BRANCH   4   5
ATOM      5  C   UNL     1     256.539 260.981 249.690  1.00  0.00     0.006 C 
BRANCH   5   6
ATOM      6  C   UNL     1     255.257 261.216 250.495  1.00  0.00     0.053 C 
BRANCH   6   7
ATOM      7  C   UNL     1     255.546 261.176 251.963  1.00  0.00     0.041 C 
ATOM      8  O   UNL     1     256.284 262.052 252.487  1.00  0.00    -0.550 OA
ATOM      9  O   UNL     1     255.042 260.145 252.743  1.00  0.00    -0.550 OA
ENDBRANCH   6   7
ENDBRANCH   5   6
ENDBRANCH   4   5
ENDBRANCH   3   4
ENDBRANCH   2   3
ENDBRANCH   1   2
BRANCH   1  10
ATOM     10  C   UNL     1     257.081 261.020 244.703  1.00  0.00     0.000 C 
BRANCH  10  11
ATOM     11  C   UNL     1     258.545 261.475 244.572  1.00  0.00    -0.000 C 
BRANCH  11  12
ATOM     12  C   UNL     1     259.030 262.243 245.821  1.00  0.00    -0.000 C 
BRANCH  12  13
ATOM     13  C   UNL     1     260.196 261.558 246.551  1.00  0.00    -0.000 C 
BRANCH  13  14
ATOM     14  C   UNL     1     259.736 260.416 247.472  1.00  0.00    -0.000 C 
BRANCH  14  15
ATOM     15  C   UNL     1     260.559 259.132 247.277  1.00  0.00    -0.000 C 
BRANCH  15  16
ATOM     16  C   UNL     1     261.014 258.936 245.824  1.00  0.00    -0.003 C 
ATOM     17  C   UNL     1     262.508 258.630 245.753  1.00  0.00     0.004 C 
ENDBRANCH  15  16
ENDBRANCH  14  15
ENDBRANCH  13  14
ENDBRANCH  12  13
ENDBRANCH  11  12
ENDBRANCH  10  11
ENDBRANCH   1  10
TORSDOF 13
ENDMDL
MODEL 4
REMARK VINA RESULT:    -4.776      4.209      6.250
REMARK INTER + INTRA:          -9.966
REMARK INTER:                  -8.581
REMARK INTRA:                  -1.384
REMARK UNBOUND:                -1.560
REMARK SMILES CCCCCCCCCCCCCCC(=O)[O-]
REMARK SMILES IDX 9 1 10 2 11 3 12 4 13 5 14 6 15 7 16 8 17 9 8 10 7 11 6 12
REMARK SMILES IDX 5 13 4 14 3 15 2 16 1 17
REMARK H PARENT
REMARK Flexibility Score: inf
ROOT
ATOM      1  C   UNL     1     255.265 260.806 248.720  1.00  0.00     0.000 C 
ENDROOT
BRANCH   1   2
ATOM      2  C   UNL     1     256.433 260.921 249.710  1.00  0.00     0.000 C 
BRANCH   2   3
ATOM      3  C   UNL     1     255.939 260.816 251.158  1.00  0.00     0.000 C 
BRANCH   3   4
ATOM      4  C   UNL     1     255.717 262.205 251.767  1.00  0.00     0.000 C 
BRANCH   4   5
ATOM      5  C   UNL     1     254.450 262.232 252.631  1.00  0.00     0.006 C 
BRANCH   5   6
ATOM      6  C   UNL     1     254.782 261.968 254.102  1.00  0.00     0.053 C 
BRANCH   6   7
ATOM      7  C   UNL     1     254.097 260.726 254.579  1.00  0.00     0.041 C 
ATOM      8  O   UNL     1     253.077 260.296 253.980  1.00  0.00    -0.550 OA
ATOM      9  O   UNL     1     254.556 260.073 255.715  1.00  0.00    -0.550 OA
ENDBRANCH   6   7
ENDBRANCH   5   6
ENDBRANCH   4   5
ENDBRANCH   3   4
ENDBRANCH   2   3
ENDBRANCH   1   2
BRANCH   1  10
ATOM     10  C   UNL     1     255.723 260.867 247.255  1.00  0.00     0.000 C 
BRANCH  10  11
ATOM     11  C   UNL     1     254.549 260.802 246.262  1.00  0.00    -0.000 C 
BRANCH  11  12
ATOM     12  C   UNL     1     253.185 260.714 246.980  1.00  0.00    -0.000 C 
BRANCH  12  13
ATOM     13  C   UNL     1     252.540 259.320 246.912  1.00  0.00    -0.000 C 
BRANCH  13  14
ATOM     14  C   UNL     1     253.469 258.263 246.291  1.00  0.00    -0.000 C 
BRANCH  14  15
ATOM     15  C   UNL     1     254.161 257.390 247.350  1.00  0.00    -0.000 C 
BRANCH  15  16
ATOM     16  C   UNL     1     253.507 257.509 248.734  1.00  0.00    -0.003 C 
ATOM     17  C   UNL     1     254.551 257.428 249.845  1.00  0.00     0.004 C 
ENDBRANCH  15  16
ENDBRANCH  14  15
ENDBRANCH  13  14
ENDBRANCH  12  13
ENDBRANCH  11  12
ENDBRANCH  10  11
ENDBRANCH   1  10
TORSDOF 13
ENDMDL
MODEL 5
REMARK VINA RESULT:    -4.775      2.190      2.890
REMARK INTER + INTRA:          -9.963
REMARK INTER:                  -8.458
REMARK INTRA:                  -1.505
REMARK UNBOUND:                -1.560
REMARK SMILES CCCCCCCCCCCCCCC(=O)[O-]
REMARK SMILES IDX 9 1 10 2 11 3 12 4 13 5 14 6 15 7 16 8 17 9 8 10 7 11 6 12
REMARK SMILES IDX 5 13 4 14 3 15 2 16 1 17
REMARK H PARENT
REMARK Flexibility Score: inf
ROOT
ATOM      1  C   UNL     1     254.033 258.362 246.788  1.00  0.00     0.000 C 
ENDROOT
BRANCH   1   2
ATOM      2  C   UNL     1     254.462 257.622 248.063  1.00  0.00     0.000 C 
BRANCH   2   3
ATOM      3  C   UNL     1     254.886 258.610 249.156  1.00  0.00     0.000 C 
BRANCH   3   4
ATOM      4  C   UNL     1     256.213 259.290 248.800  1.00  0.00     0.000 C 
BRANCH   4   5
ATOM      5  C   UNL     1     256.305 260.684 249.433  1.00  0.00     0.006 C 
BRANCH   5   6
ATOM      6  C   UNL     1     255.235 260.869 250.513  1.00  0.00     0.053 C 
BRANCH   6   7
ATOM      7  C   UNL     1     255.668 261.899 251.508  1.00  0.00     0.041 C 
ATOM      8  O   UNL     1     256.834 262.372 251.463  1.00  0.00    -0.550 OA
ATOM      9  O   UNL     1     254.800 262.299 252.516  1.00  0.00    -0.550 OA
ENDBRANCH   6   7
ENDBRANCH   5   6
ENDBRANCH   4   5
ENDBRANCH   3   4
ENDBRANCH   2   3
ENDBRANCH   1   2
BRANCH   1  10
ATOM     10  C   UNL     1     253.188 259.611 247.084  1.00  0.00     0.000 C 
BRANCH  10  11
ATOM     11  C   UNL     1     253.801 260.896 246.500  1.00  0.00    -0.000 C 
BRANCH  11  12
ATOM     12  C   UNL     1     254.919 260.594 245.479  1.00  0.00    -0.000 C 
BRANCH  12  13
ATOM     13  C   UNL     1     256.230 261.346 245.761  1.00  0.00    -0.000 C 
BRANCH  13  14
ATOM     14  C   UNL     1     257.325 261.047 244.722  1.00  0.00    -0.000 C 
BRANCH  14  15
ATOM     15  C   UNL     1     258.249 262.250 244.476  1.00  0.00    -0.000 C 
BRANCH  15  16
ATOM     16  C   UNL     1     257.798 263.508 245.232  1.00  0.00    -0.003 C 
ATOM     17  C   UNL     1     258.072 264.768 244.415  1.00  0.00     0.004 C 
ENDBRANCH  15  16
ENDBRANCH  14  15
ENDBRANCH  13  14
ENDBRANCH  12  13
ENDBRANCH  11  12
ENDBRANCH  10  11
ENDBRANCH   1  10
TORSDOF 13
ENDMDL
MODEL 6
REMARK VINA RESULT:    -4.751      2.911      4.966
REMARK INTER + INTRA:          -9.922
REMARK INTER:                  -8.498
REMARK INTRA:                  -1.424
REMARK UNBOUND:                -1.560
REMARK SMILES CCCCCCCCCCCCCCC(=O)[O-]
REMARK SMILES IDX 9 1 10 2 11 3 12 4 13 5 14 6 15 7 16 8 17 9 8 10 7 11 6 12
REMARK SMILES IDX 5 13 4 14 3 15 2 16 1 17
REMARK H PARENT
REMARK Flexibility Score: inf
ROOT
ATOM      1  C   UNL     1     258.663 261.067 248.681  1.00  0.00     0.000 C 
ENDROOT
BRANCH   1   2
ATOM      2  C   UNL     1     257.322 261.642 249.160  1.00  0.00     0.000 C 
BRANCH   2   3
ATOM      3  C   UNL     1     256.258 260.542 249.261  1.00  0.00     0.000 C 
BRANCH   3   4
ATOM      4  C   UNL     1     255.173 260.915 250.279  1.00  0.00     0.000 C 
BRANCH   4   5
ATOM      5  C   UNL     1     255.729 261.853 251.357  1.00  0.00     0.006 C 
BRANCH   5   6
ATOM      6  C   UNL     1     254.688 262.110 252.450  1.00  0.00     0.053 C 
BRANCH   6   7
ATOM      7  C   UNL     1     255.321 262.036 253.804  1.00  0.00     0.041 C 
ATOM      8  O   UNL     1     254.605 261.913 254.832  1.00  0.00    -0.550 OA
ATOM      9  O   UNL     1     256.698 262.151 253.935  1.00  0.00    -0.550 OA
ENDBRANCH   6   7
ENDBRANCH   5   6
ENDBRANCH   4   5
ENDBRANCH   3   4
ENDBRANCH   2   3
ENDBRANCH   1   2
BRANCH   1  10
ATOM     10  C   UNL     1     258.823 261.135 247.154  1.00  0.00     0.000 C 
BRANCH  10  11
ATOM     11  C   UNL     1     258.576 262.546 246.592  1.00  0.00    -0.000 C 
BRANCH  11  12
ATOM     12  C   UNL     1     257.640 262.526 245.364  1.00  0.00    -0.000 C 
BRANCH  12  13
ATOM     13  C   UNL     1     257.491 261.136 244.724  1.00  0.00    -0.000 C 
BRANCH  13  14
ATOM     14  C   UNL     1     256.047 260.609 244.769  1.00  0.00    -0.000 C 
BRANCH  14  15
ATOM     15  C   UNL     1     255.249 261.173 245.956  1.00  0.00    -0.000 C 
BRANCH  15  16
ATOM     16  C   UNL     1     254.026 260.314 246.309  1.00  0.00    -0.003 C 
ATOM     17  C   UNL     1     253.073 261.069 247.231  1.00  0.00     0.004 C 
ENDBRANCH  15  16
ENDBRANCH  14  15
ENDBRANCH  13  14
ENDBRANCH  12  13
ENDBRANCH  11  12
ENDBRANCH  10  11
ENDBRANCH   1  10
TORSDOF 13
ENDMDL
MODEL 7
REMARK VINA RESULT:    -4.722      3.141      4.712
REMARK INTER + INTRA:          -9.871
REMARK INTER:                  -8.480
REMARK INTRA:                  -1.391
REMARK UNBOUND:                -1.560
REMARK SMILES CCCCCCCCCCCCCCC(=O)[O-]
REMARK SMILES IDX 9 1 10 2 11 3 12 4 13 5 14 6 15 7 16 8 17 9 8 10 7 11 6 12
REMARK SMILES IDX 5 13 4 14 3 15 2 16 1 17
REMARK H PARENT
REMARK Flexibility Score: inf
ROOT
ATOM      1  C   UNL     1     255.625 260.578 246.704  1.00  0.00     0.000 C 
ENDROOT
BRANCH   1   2
ATOM      2  C   UNL     1     256.050 260.462 248.175  1.00  0.00     0.000 C 
BRANCH   2   3
ATOM      3  C   UNL     1     254.893 260.831 249.111  1.00  0.00     0.000 C 
BRANCH   3   4
ATOM      4  C   UNL     1     255.238 260.506 250.569  1.00  0.00     0.000 C 
BRANCH   4   5
ATOM      5  C   UNL     1     255.565 261.781 251.356  1.00  0.00     0.006 C 
BRANCH   5   6
ATOM      6  C   UNL     1     254.352 262.257 252.160  1.00  0.00     0.053 C 
BRANCH   6   7
ATOM      7  C   UNL     1     254.430 261.759 253.569  1.00  0.00     0.041 C 
ATOM      8  O   UNL     1     255.263 262.256 254.372  1.00  0.00    -0.550 OA
ATOM      9  O   UNL     1     253.617 260.712 253.981  1.00  0.00    -0.550 OA
ENDBRANCH   6   7
ENDBRANCH   5   6
ENDBRANCH   4   5
ENDBRANCH   3   4
ENDBRANCH   2   3
ENDBRANCH   1   2
BRANCH   1  10
ATOM     10  C   UNL     1     256.463 261.604 245.925  1.00  0.00     0.000 C 
BRANCH  10  11
ATOM     11  C   UNL     1     257.106 261.008 244.660  1.00  0.00    -0.000 C 
BRANCH  11  12
ATOM     12  C   UNL     1     258.639 261.189 244.648  1.00  0.00    -0.000 C 
BRANCH  12  13
ATOM     13  C   UNL     1     259.222 261.602 246.009  1.00  0.00    -0.000 C 
BRANCH  13  14
ATOM     14  C   UNL     1     259.869 260.428 246.763  1.00  0.00    -0.000 C 
BRANCH  14  15
ATOM     15  C   UNL     1     259.717 260.549 248.287  1.00  0.00    -0.000 C 
BRANCH  15  16
ATOM     16  C   UNL     1     259.949 261.980 248.793  1.00  0.00    -0.003 C 
ATOM     17  C   UNL     1     258.773 262.460 249.640  1.00  0.00     0.004 C 
ENDBRANCH  15  16
ENDBRANCH  14  15
ENDBRANCH  13  14
ENDBRANCH  12  13
ENDBRANCH  11  12
ENDBRANCH  10  11
ENDBRANCH   1  10
TORSDOF 13
ENDMDL
MODEL 8
REMARK VINA RESULT:    -4.707      2.251      4.780
REMARK INTER + INTRA:          -9.845
REMARK INTER:                  -7.851
REMARK INTRA:                  -1.994
REMARK UNBOUND:                -1.560
REMARK SMILES CCCCCCCCCCCCCCC(=O)[O-]
REMARK SMILES IDX 9 1 10 2 11 3 12 4 13 5 14 6 15 7 16 8 17 9 8 10 7 11 6 12
REMARK SMILES IDX 5 13 4 14 3 15 2 16 1 17
REMARK H PARENT
REMARK Flexibility Score: inf
ROOT
ATOM      1  C   UNL     1     252.664 258.762 246.624  1.00  0.00     0.000 C 
ENDROOT
BRANCH   1   2
ATOM      2  C   UNL     1     252.848 260.214 247.088  1.00  0.00     0.000 C 
BRANCH   2   3
ATOM      3  C   UNL     1     253.991 260.894 246.325  1.00  0.00     0.000 C 
BRANCH   3   4
ATOM      4  C   UNL     1     254.469 260.023 245.157  1.00  0.00     0.000 C 
BRANCH   4   5
ATOM      5  C   UNL     1     255.813 260.521 244.613  1.00  0.00     0.006 C 
BRANCH   5   6
ATOM      6  C   UNL     1     256.573 261.322 245.674  1.00  0.00     0.053 C 
BRANCH   6   7
ATOM      7  C   UNL     1     257.845 261.869 245.106  1.00  0.00     0.041 C 
ATOM      8  O   UNL     1     257.933 263.089 244.808  1.00  0.00    -0.550 OA
ATOM      9  O   UNL     1     258.916 261.021 244.861  1.00  0.00    -0.550 OA
ENDBRANCH   6   7
ENDBRANCH   5   6
ENDBRANCH   4   5
ENDBRANCH   3   4
ENDBRANCH   2   3
ENDBRANCH   1   2
BRANCH   1  10
ATOM     10  C   UNL     1     251.864 257.916 247.628  1.00  0.00     0.000 C 
BRANCH  10  11
ATOM     11  C   UNL     1     252.759 256.993 248.473  1.00  0.00    -0.000 C 
BRANCH  11  12
ATOM     12  C   UNL     1     254.147 256.781 247.831  1.00  0.00    -0.000 C 
BRANCH  12  13
ATOM     13  C   UNL     1     255.318 257.124 248.767  1.00  0.00    -0.000 C 
BRANCH  13  14
ATOM     14  C   UNL     1     255.686 258.617 248.739  1.00  0.00    -0.000 C 
BRANCH  14  15
ATOM     15  C   UNL     1     255.158 259.378 249.965  1.00  0.00    -0.000 C 
BRANCH  15  16
ATOM     16  C   UNL     1     255.323 260.899 249.834  1.00  0.00    -0.003 C 
ATOM     17  C   UNL     1     256.754 261.264 249.444  1.00  0.00     0.004 C 
ENDBRANCH  15  16
ENDBRANCH  14  15
ENDBRANCH  13  14
ENDBRANCH  12  13
ENDBRANCH  11  12
ENDBRANCH  10  11
ENDBRANCH   1  10
TORSDOF 13
ENDMDL
MODEL 9
REMARK VINA RESULT:    -4.640      5.160      7.798
REMARK INTER + INTRA:          -9.726
REMARK INTER:                  -8.018
REMARK INTRA:                  -1.708
REMARK UNBOUND:                -1.560
REMARK SMILES CCCCCCCCCCCCCCC(=O)[O-]
REMARK SMILES IDX 9 1 10 2 11 3 12 4 13 5 14 6 15 7 16 8 17 9 8 10 7 11 6 12
REMARK SMILES IDX 5 13 4 14 3 15 2 16 1 17
REMARK H PARENT
REMARK Flexibility Score: inf
ROOT
ATOM      1  C   UNL     1     254.793 260.897 246.275  1.00  0.00     0.000 C 
ENDROOT
BRANCH   1   2
ATOM      2  C   UNL     1     254.505 259.735 245.314  1.00  0.00     0.000 C 
BRANCH   2   3
ATOM      3  C   UNL     1     253.672 258.647 246.002  1.00  0.00     0.000 C 
BRANCH   3   4
ATOM      4  C   UNL     1     252.526 259.261 246.814  1.00  0.00     0.000 C 
BRANCH   4   5
ATOM      5  C   UNL     1     251.564 258.178 247.316  1.00  0.00     0.006 C 
BRANCH   5   6
ATOM      6  C   UNL     1     250.121 258.692 247.340  1.00  0.00     0.053 C 
BRANCH   6   7
ATOM      7  C   UNL     1     249.157 257.547 247.362  1.00  0.00     0.041 C 
ATOM      8  O   UNL     1     248.082 257.612 246.710  1.00  0.00    -0.550 OA
ATOM      9  O   UNL     1     249.423 256.431 248.143  1.00  0.00    -0.550 OA
ENDBRANCH   6   7
ENDBRANCH   5   6
ENDBRANCH   4   5
ENDBRANCH   3   4
ENDBRANCH   2   3
ENDBRANCH   1   2
BRANCH   1  10
ATOM     10  C   UNL     1     256.277 260.991 246.663  1.00  0.00     0.000 C 
BRANCH  10  11
ATOM     11  C   UNL     1     256.515 260.749 248.164  1.00  0.00    -0.000 C 
BRANCH  11  12
ATOM     12  C   UNL     1     255.192 260.639 248.952  1.00  0.00    -0.000 C 
BRANCH  12  13
ATOM     13  C   UNL     1     254.987 259.272 249.625  1.00  0.00    -0.000 C 
BRANCH  13  14
ATOM     14  C   UNL     1     255.778 258.145 248.940  1.00  0.00    -0.000 C 
BRANCH  14  15
ATOM     15  C   UNL     1     255.215 256.751 249.260  1.00  0.00    -0.000 C 
BRANCH  15  16
ATOM     16  C   UNL     1     255.197 255.825 248.035  1.00  0.00    -0.003 C 
ATOM     17  C   UNL     1     256.373 254.852 248.065  1.00  0.00     0.004 C 
ENDBRANCH  15  16
ENDBRANCH  14  15
ENDBRANCH  13  14
ENDBRANCH  12  13
ENDBRANCH  11  12
ENDBRANCH  10  11
ENDBRANCH   1  10
TORSDOF 13
ENDMDL
