MODEL 1
REMARK VINA RESULT:    -4.404      0.000      0.000
REMARK INTER + INTRA:          -4.404
REMARK INTER:                  -4.404
REMARK INTRA:                   0.000
REMARK UNBOUND:                 0.000
REMARK SMILES CC1=CC(=O)[C@@H]2C[C@H]1C2(C)C
REMARK SMILES IDX 1 1 2 2 3 3 4 4 5 5 6 6 7 7 8 8 9 9 10 10 11 11
REMARK H PARENT
REMARK Flexibility Score: inf
ROOT
ATOM      1  C   UNL     1      49.371  21.320  20.734  1.00  0.00     0.040 C 
ATOM      2  C   UNL     1      49.821  22.650  20.218  1.00  0.00    -0.066 C 
ATOM      3  C   UNL     1      49.734  22.986  18.899  1.00  0.00     0.047 C 
ATOM      4  C   UNL     1      50.224  24.354  18.531  1.00  0.00     0.159 C 
ATOM      5  O   UNL     1      50.157  24.797  17.355  1.00  0.00    -0.295 OA
ATOM      6  C   UNL     1      50.810  25.171  19.682  1.00  0.00     0.067 C 
ATOM      7  C   UNL     1      51.732  24.175  20.421  1.00  0.00     0.021 C 
ATOM      8  C   UNL     1      50.466  23.687  21.160  1.00  0.00     0.022 C 
ATOM      9  C   UNL     1      49.840  25.087  20.894  1.00  0.00    -0.019 C 
ATOM     10  C   UNL     1      50.191  26.111  22.003  1.00  0.00     0.012 C 
ATOM     11  C   UNL     1      48.310  25.168  20.622  1.00  0.00     0.012 C 
ENDROOT
TORSDOF 0
ENDMDL
MODEL 2
REMARK VINA RESULT:    -4.395      1.940      2.990
REMARK INTER + INTRA:          -4.395
REMARK INTER:                  -4.395
REMARK INTRA:                   0.000
REMARK UNBOUND:                 0.000
REMARK SMILES CC1=CC(=O)[C@@H]2C[C@H]1C2(C)C
REMARK SMILES IDX 1 1 2 2 3 3 4 4 5 5 6 6 7 7 8 8 9 9 10 10 11 11
REMARK H PARENT
REMARK Flexibility Score: inf
ROOT
ATOM      1  C   UNL     1      51.946  21.042  18.386  1.00  0.00     0.040 C 
ATOM      2  C   UNL     1      51.160  22.275  18.704  1.00  0.00    -0.066 C 
ATOM      3  C   UNL     1      50.152  22.279  19.622  1.00  0.00     0.047 C 
ATOM      4  C   UNL     1      49.456  23.589  19.834  1.00  0.00     0.159 C 
ATOM      5  O   UNL     1      48.539  23.733  20.684  1.00  0.00    -0.295 OA
ATOM      6  C   UNL     1      49.937  24.738  18.947  1.00  0.00     0.067 C 
ATOM      7  C   UNL     1      50.029  24.112  17.537  1.00  0.00     0.021 C 
ATOM      8  C   UNL     1      51.424  23.596  17.953  1.00  0.00     0.022 C 
ATOM      9  C   UNL     1      51.491  24.768  18.975  1.00  0.00    -0.019 C 
ATOM     10  C   UNL     1      52.067  26.064  18.350  1.00  0.00     0.012 C 
ATOM     11  C   UNL     1      52.210  24.519  20.332  1.00  0.00     0.012 C 
ENDROOT
TORSDOF 0
ENDMDL
MODEL 3
REMARK VINA RESULT:    -4.381      1.835      3.541
REMARK INTER + INTRA:          -4.381
REMARK INTER:                  -4.381
REMARK INTRA:                   0.000
REMARK UNBOUND:                 0.000
REMARK SMILES CC1=CC(=O)[C@@H]2C[C@H]1C2(C)C
REMARK SMILES IDX 1 1 2 2 3 3 4 4 5 5 6 6 7 7 8 8 9 9 10 10 11 11
REMARK H PARENT
REMARK Flexibility Score: inf
ROOT
ATOM      1  C   UNL     1      51.852  26.521  22.250  1.00  0.00     0.040 C 
ATOM      2  C   UNL     1      50.789  25.673  21.626  1.00  0.00    -0.066 C 
ATOM      3  C   UNL     1      49.461  25.891  21.846  1.00  0.00     0.047 C 
ATOM      4  C   UNL     1      48.513  24.961  21.152  1.00  0.00     0.159 C 
ATOM      5  O   UNL     1      47.264  25.085  21.241  1.00  0.00    -0.295 OA
ATOM      6  C   UNL     1      49.169  23.851  20.330  1.00  0.00     0.067 C 
ATOM      7  C   UNL     1      50.279  23.303  21.254  1.00  0.00     0.021 C 
ATOM      8  C   UNL     1      51.159  24.464  20.742  1.00  0.00     0.022 C 
ATOM      9  C   UNL     1      50.288  24.480  19.452  1.00  0.00    -0.019 C 
ATOM     10  C   UNL     1      50.813  23.500  18.373  1.00  0.00     0.012 C 
ATOM     11  C   UNL     1      50.009  25.851  18.771  1.00  0.00     0.012 C 
ENDROOT
TORSDOF 0
ENDMDL
MODEL 4
REMARK VINA RESULT:    -4.352      1.514      3.435
REMARK INTER + INTRA:          -4.352
REMARK INTER:                  -4.352
REMARK INTRA:                   0.000
REMARK UNBOUND:                 0.000
REMARK SMILES CC1=CC(=O)[C@@H]2C[C@H]1C2(C)C
REMARK SMILES IDX 1 1 2 2 3 3 4 4 5 5 6 6 7 7 8 8 9 9 10 10 11 11
REMARK H PARENT
REMARK Flexibility Score: inf
ROOT
ATOM      1  C   UNL     1      52.647  25.199  20.706  1.00  0.00     0.040 C 
ATOM      2  C   UNL     1      51.702  24.640  19.690  1.00  0.00    -0.066 C 
ATOM      3  C   UNL     1      51.681  25.075  18.398  1.00  0.00     0.047 C 
ATOM      4  C   UNL     1      50.681  24.420  17.495  1.00  0.00     0.159 C 
ATOM      5  O   UNL     1      50.592  24.705  16.272  1.00  0.00    -0.295 OA
ATOM      6  C   UNL     1      49.776  23.384  18.162  1.00  0.00     0.067 C 
ATOM      7  C   UNL     1      49.327  24.064  19.475  1.00  0.00     0.021 C 
ATOM      8  C   UNL     1      50.660  23.572  20.082  1.00  0.00     0.022 C 
ATOM      9  C   UNL     1      50.659  22.435  19.020  1.00  0.00    -0.019 C 
ATOM     10  C   UNL     1      49.885  21.181  19.499  1.00  0.00     0.012 C 
ATOM     11  C   UNL     1      52.026  21.971  18.439  1.00  0.00     0.012 C 
ENDROOT
TORSDOF 0
ENDMDL
MODEL 5
REMARK VINA RESULT:    -4.256      1.795      2.616
REMARK INTER + INTRA:          -4.256
REMARK INTER:                  -4.256
REMARK INTRA:                   0.000
REMARK UNBOUND:                 0.000
REMARK SMILES CC1=CC(=O)[C@@H]2C[C@H]1C2(C)C
REMARK SMILES IDX 1 1 2 2 3 3 4 4 5 5 6 6 7 7 8 8 9 9 10 10 11 11
REMARK H PARENT
REMARK Flexibility Score: inf
ROOT
ATOM      1  C   UNL     1      50.243  23.515  17.411  1.00  0.00     0.040 C 
ATOM      2  C   UNL     1      50.490  24.052  18.786  1.00  0.00    -0.066 C 
ATOM      3  C   UNL     1      51.684  24.603  19.148  1.00  0.00     0.047 C 
ATOM      4  C   UNL     1      51.783  25.100  20.559  1.00  0.00     0.159 C 
ATOM      5  O   UNL     1      52.817  25.666  21.001  1.00  0.00    -0.295 OA
ATOM      6  C   UNL     1      50.542  24.870  21.422  1.00  0.00     0.067 C 
ATOM      7  C   UNL     1      50.143  23.407  21.127  1.00  0.00     0.021 C 
ATOM      8  C   UNL     1      49.409  23.951  19.881  1.00  0.00     0.022 C 
ATOM      9  C   UNL     1      49.290  25.317  20.617  1.00  0.00    -0.019 C 
ATOM     10  C   UNL     1      48.019  25.401  21.502  1.00  0.00     0.012 C 
ATOM     11  C   UNL     1      49.381  26.619  19.771  1.00  0.00     0.012 C 
ENDROOT
TORSDOF 0
ENDMDL
MODEL 6
REMARK VINA RESULT:    -4.228      1.463      3.484
REMARK INTER + INTRA:          -4.228
REMARK INTER:                  -4.228
REMARK INTRA:                   0.000
REMARK UNBOUND:                 0.000
REMARK SMILES CC1=CC(=O)[C@@H]2C[C@H]1C2(C)C
REMARK SMILES IDX 1 1 2 2 3 3 4 4 5 5 6 6 7 7 8 8 9 9 10 10 11 11
REMARK H PARENT
REMARK Flexibility Score: inf
ROOT
ATOM      1  C   UNL     1      52.258  26.753  22.615  1.00  0.00     0.040 C 
ATOM      2  C   UNL     1      51.211  26.270  21.661  1.00  0.00    -0.066 C 
ATOM      3  C   UNL     1      50.875  26.964  20.537  1.00  0.00     0.047 C 
ATOM      4  C   UNL     1      49.809  26.355  19.676  1.00  0.00     0.159 C 
ATOM      5  O   UNL     1      49.441  26.878  18.592  1.00  0.00    -0.295 OA
ATOM      6  C   UNL     1      49.202  25.057  20.207  1.00  0.00     0.067 C 
ATOM      7  C   UNL     1      48.939  25.347  21.701  1.00  0.00     0.021 C 
ATOM      8  C   UNL     1      50.419  24.977  21.944  1.00  0.00     0.022 C 
ATOM      9  C   UNL     1      50.356  24.115  20.650  1.00  0.00    -0.019 C 
ATOM     10  C   UNL     1      49.866  22.670  20.926  1.00  0.00     0.012 C 
ATOM     11  C   UNL     1      51.628  24.035  19.757  1.00  0.00     0.012 C 
ENDROOT
TORSDOF 0
ENDMDL
MODEL 7
REMARK VINA RESULT:    -4.171      1.968      3.569
REMARK INTER + INTRA:          -4.171
REMARK INTER:                  -4.171
REMARK INTRA:                   0.000
REMARK UNBOUND:                 0.000
REMARK SMILES CC1=CC(=O)[C@@H]2C[C@H]1C2(C)C
REMARK SMILES IDX 1 1 2 2 3 3 4 4 5 5 6 6 7 7 8 8 9 9 10 10 11 11
REMARK H PARENT
REMARK Flexibility Score: inf
ROOT
ATOM      1  C   UNL     1      48.610  26.869  19.625  1.00  0.00     0.040 C 
ATOM      2  C   UNL     1      49.828  26.001  19.666  1.00  0.00    -0.066 C 
ATOM      3  C   UNL     1      50.908  26.299  20.444  1.00  0.00     0.047 C 
ATOM      4  C   UNL     1      52.054  25.335  20.383  1.00  0.00     0.159 C 
ATOM      5  O   UNL     1      53.089  25.476  21.084  1.00  0.00    -0.295 OA
ATOM      6  C   UNL     1      51.878  24.170  19.409  1.00  0.00     0.067 C 
ATOM      7  C   UNL     1      51.334  24.832  18.123  1.00  0.00     0.021 C 
ATOM      8  C   UNL     1      49.936  24.747  18.775  1.00  0.00     0.022 C 
ATOM      9  C   UNL     1      50.467  23.554  19.623  1.00  0.00    -0.019 C 
ATOM     10  C   UNL     1      50.300  22.194  18.897  1.00  0.00     0.012 C 
ATOM     11  C   UNL     1      49.943  23.397  21.080  1.00  0.00     0.012 C 
ENDROOT
TORSDOF 0
ENDMDL
MODEL 8
REMARK VINA RESULT:    -4.020      1.636      2.999
REMARK INTER + INTRA:          -4.020
REMARK INTER:                  -4.020
REMARK INTRA:                   0.000
REMARK UNBOUND:                 0.000
REMARK SMILES CC1=CC(=O)[C@@H]2C[C@H]1C2(C)C
REMARK SMILES IDX 1 1 2 2 3 3 4 4 5 5 6 6 7 7 8 8 9 9 10 10 11 11
REMARK H PARENT
REMARK Flexibility Score: inf
ROOT
ATOM      1  C   UNL     1      50.498  24.642  16.938  1.00  0.00     0.040 C 
ATOM      2  C   UNL     1      50.212  24.398  18.386  1.00  0.00    -0.066 C 
ATOM      3  C   UNL     1      50.031  23.144  18.891  1.00  0.00     0.047 C 
ATOM      4  C   UNL     1      49.753  23.056  20.361  1.00  0.00     0.159 C 
ATOM      5  O   UNL     1      49.610  21.954  20.953  1.00  0.00    -0.295 OA
ATOM      6  C   UNL     1      49.656  24.396  21.090  1.00  0.00     0.067 C 
ATOM      7  C   UNL     1      48.768  25.263  20.170  1.00  0.00     0.021 C 
ATOM      8  C   UNL     1      50.053  25.574  19.371  1.00  0.00     0.022 C 
ATOM      9  C   UNL     1      50.863  25.279  20.666  1.00  0.00    -0.019 C 
ATOM     10  C   UNL     1      51.020  26.534  21.562  1.00  0.00     0.012 C 
ATOM     11  C   UNL     1      52.258  24.605  20.523  1.00  0.00     0.012 C 
ENDROOT
TORSDOF 0
ENDMDL
MODEL 9
REMARK VINA RESULT:    -3.927      1.622      2.167
REMARK INTER + INTRA:          -3.927
REMARK INTER:                  -3.927
REMARK INTRA:                   0.000
REMARK UNBOUND:                 0.000
REMARK SMILES CC1=CC(=O)[C@@H]2C[C@H]1C2(C)C
REMARK SMILES IDX 1 1 2 2 3 3 4 4 5 5 6 6 7 7 8 8 9 9 10 10 11 11
REMARK H PARENT
REMARK Flexibility Score: inf
ROOT
ATOM      1  C   UNL     1      49.878  22.606  20.754  1.00  0.00     0.040 C 
ATOM      2  C   UNL     1      50.238  23.994  20.328  1.00  0.00    -0.066 C 
ATOM      3  C   UNL     1      49.324  24.849  19.787  1.00  0.00     0.047 C 
ATOM      4  C   UNL     1      49.832  26.208  19.410  1.00  0.00     0.159 C 
ATOM      5  O   UNL     1      49.078  27.101  18.941  1.00  0.00    -0.295 OA
ATOM      6  C   UNL     1      51.327  26.434  19.634  1.00  0.00     0.067 C 
ATOM      7  C   UNL     1      51.990  25.159  19.067  1.00  0.00     0.021 C 
ATOM      8  C   UNL     1      51.691  24.502  20.433  1.00  0.00     0.022 C 
ATOM      9  C   UNL     1      51.697  25.928  21.056  1.00  0.00    -0.019 C 
ATOM     10  C   UNL     1      53.116  26.375  21.491  1.00  0.00     0.012 C 
ATOM     11  C   UNL     1      50.713  26.223  22.225  1.00  0.00     0.012 C 
ENDROOT
TORSDOF 0
ENDMDL
