MODEL 1
REMARK VINA RESULT:    -7.070      0.000      0.000
REMARK INTER + INTRA:         -14.464
REMARK INTER:                 -12.857
REMARK INTRA:                  -1.607
REMARK UNBOUND:                -1.607
REMARK SMILES CCCCCC=CCC=CCCCCCCCC(=O)[O-]
REMARK SMILES IDX 11 1 12 2 13 3 14 4 15 5 16 6 17 7 18 8 19 9 20 10 10 11
REMARK SMILES IDX 9 12 8 13 7 14 6 15 5 16 4 17 3 18 2 19 1 20
REMARK H PARENT
REMARK Flexibility Score: inf
ROOT
ATOM      1  C   UNL     1      19.752  70.634  71.183  1.00  0.00     0.027 C 
ENDROOT
BRANCH   1   2
ATOM      2  C   UNL     1      21.096  70.746  70.441  1.00  0.00     0.004 C 
BRANCH   2   3
ATOM      3  C   UNL     1      21.502  72.184  70.058  1.00  0.00     0.000 C 
BRANCH   3   4
ATOM      4  C   UNL     1      22.857  72.656  70.615  1.00  0.00     0.000 C 
BRANCH   4   5
ATOM      5  C   UNL     1      22.793  73.030  72.106  1.00  0.00     0.000 C 
BRANCH   5   6
ATOM      6  C   UNL     1      23.870  72.320  72.949  1.00  0.00     0.006 C 
BRANCH   6   7
ATOM      7  C   UNL     1      23.413  71.960  74.373  1.00  0.00     0.053 C 
BRANCH   7   8
ATOM      8  C   UNL     1      22.859  70.572  74.466  1.00  0.00     0.041 C 
ATOM      9  O   UNL     1      22.811  69.841  73.444  1.00  0.00    -0.550 OA
ATOM     10  O   UNL     1      22.412  70.080  75.686  1.00  0.00    -0.550 OA
ENDBRANCH   7   8
ENDBRANCH   6   7
ENDBRANCH   5   6
ENDBRANCH   4   5
ENDBRANCH   3   4
ENDBRANCH   2   3
ENDBRANCH   1   2
BRANCH   1  11
ATOM     11  C   UNL     1      19.799  71.272  72.550  1.00  0.00    -0.031 C 
ATOM     12  C   UNL     1      19.167  72.413  72.885  1.00  0.00    -0.027 C 
BRANCH  12  13
ATOM     13  C   UNL     1      18.379  73.267  71.924  1.00  0.00     0.054 C 
BRANCH  13  14
ATOM     14  C   UNL     1      16.901  73.036  72.077  1.00  0.00    -0.027 C 
ATOM     15  C   UNL     1      16.399  71.808  72.276  1.00  0.00    -0.031 C 
BRANCH  15  16
ATOM     16  C   UNL     1      14.920  71.575  72.432  1.00  0.00     0.027 C 
BRANCH  16  17
ATOM     17  C   UNL     1      14.557  70.083  72.420  1.00  0.00     0.004 C 
BRANCH  17  18
ATOM     18  C   UNL     1      13.951  69.623  73.753  1.00  0.00     0.000 C 
BRANCH  18  19
ATOM     19  C   UNL     1      13.963  70.760  74.782  1.00  0.00    -0.003 C 
ATOM     20  C   UNL     1      14.441  70.266  76.145  1.00  0.00     0.004 C 
ENDBRANCH  18  19
ENDBRANCH  17  18
ENDBRANCH  16  17
ENDBRANCH  15  16
ENDBRANCH  13  14
ENDBRANCH  12  13
ENDBRANCH   1  11
TORSDOF 14
ENDMDL
MODEL 2
REMARK VINA RESULT:    -7.059      2.493      5.092
REMARK INTER + INTRA:         -14.444
REMARK INTER:                 -12.384
REMARK INTRA:                  -2.060
REMARK UNBOUND:                -1.607
REMARK SMILES CCCCCC=CCC=CCCCCCCCC(=O)[O-]
REMARK SMILES IDX 11 1 12 2 13 3 14 4 15 5 16 6 17 7 18 8 19 9 20 10 10 11
REMARK SMILES IDX 9 12 8 13 7 14 6 15 5 16 4 17 3 18 2 19 1 20
REMARK H PARENT
REMARK Flexibility Score: inf
ROOT
ATOM      1  C   UNL     1      14.676  71.849  72.381  1.00  0.00     0.027 C 
ENDROOT
BRANCH   1   2
ATOM      2  C   UNL     1      15.869  72.612  72.984  1.00  0.00     0.004 C 
BRANCH   2   3
ATOM      3  C   UNL     1      17.059  72.810  72.022  1.00  0.00     0.000 C 
BRANCH   3   4
ATOM      4  C   UNL     1      18.301  71.953  72.325  1.00  0.00     0.000 C 
BRANCH   4   5
ATOM      5  C   UNL     1      18.328  71.430  73.771  1.00  0.00     0.000 C 
BRANCH   5   6
ATOM      6  C   UNL     1      19.709  71.582  74.438  1.00  0.00     0.006 C 
BRANCH   6   7
ATOM      7  C   UNL     1      20.459  70.254  74.635  1.00  0.00     0.053 C 
BRANCH   7   8
ATOM      8  C   UNL     1      21.682  70.151  73.778  1.00  0.00     0.041 C 
ATOM      9  O   UNL     1      22.826  70.228  74.297  1.00  0.00    -0.550 OA
ATOM     10  O   UNL     1      21.560  69.952  72.409  1.00  0.00    -0.550 OA
ENDBRANCH   7   8
ENDBRANCH   6   7
ENDBRANCH   5   6
ENDBRANCH   4   5
ENDBRANCH   3   4
ENDBRANCH   2   3
ENDBRANCH   1   2
BRANCH   1  11
ATOM     11  C   UNL     1      14.760  70.364  72.633  1.00  0.00    -0.031 C 
ATOM     12  C   UNL     1      14.243  69.739  73.707  1.00  0.00    -0.027 C 
BRANCH  12  13
ATOM     13  C   UNL     1      13.567  70.438  74.860  1.00  0.00     0.054 C 
BRANCH  13  14
ATOM     14  C   UNL     1      14.350  70.271  76.133  1.00  0.00    -0.027 C 
ATOM     15  C   UNL     1      15.524  70.893  76.323  1.00  0.00    -0.031 C 
BRANCH  15  16
ATOM     16  C   UNL     1      16.307  70.729  77.598  1.00  0.00     0.027 C 
BRANCH  16  17
ATOM     17  C   UNL     1      17.606  71.547  77.597  1.00  0.00     0.004 C 
BRANCH  17  18
ATOM     18  C   UNL     1      18.830  70.694  77.958  1.00  0.00     0.000 C 
BRANCH  18  19
ATOM     19  C   UNL     1      18.433  69.525  78.867  1.00  0.00    -0.003 C 
ATOM     20  C   UNL     1      19.594  68.553  79.054  1.00  0.00     0.004 C 
ENDBRANCH  18  19
ENDBRANCH  17  18
ENDBRANCH  16  17
ENDBRANCH  15  16
ENDBRANCH  13  14
ENDBRANCH  12  13
ENDBRANCH   1  11
TORSDOF 14
ENDMDL
MODEL 3
REMARK VINA RESULT:    -7.045      2.372      5.208
REMARK INTER + INTRA:         -14.418
REMARK INTER:                 -12.661
REMARK INTRA:                  -1.757
REMARK UNBOUND:                -1.607
REMARK SMILES CCCCCC=CCC=CCCCCCCCC(=O)[O-]
REMARK SMILES IDX 11 1 12 2 13 3 14 4 15 5 16 6 17 7 18 8 19 9 20 10 10 11
REMARK SMILES IDX 9 12 8 13 7 14 6 15 5 16 4 17 3 18 2 19 1 20
REMARK H PARENT
REMARK Flexibility Score: inf
ROOT
ATOM      1  C   UNL     1      14.705  71.326  72.501  1.00  0.00     0.027 C 
ENDROOT
BRANCH   1   2
ATOM      2  C   UNL     1      16.176  71.475  72.072  1.00  0.00     0.004 C 
BRANCH   2   3
ATOM      3  C   UNL     1      16.688  72.929  72.025  1.00  0.00     0.000 C 
BRANCH   3   4
ATOM      4  C   UNL     1      18.204  73.101  72.229  1.00  0.00     0.000 C 
BRANCH   4   5
ATOM      5  C   UNL     1      19.019  71.921  71.674  1.00  0.00     0.000 C 
BRANCH   5   6
ATOM      6  C   UNL     1      20.416  71.804  72.313  1.00  0.00     0.006 C 
BRANCH   6   7
ATOM      7  C   UNL     1      21.489  71.229  71.372  1.00  0.00     0.053 C 
BRANCH   7   8
ATOM      8  C   UNL     1      20.977  70.093  70.542  1.00  0.00     0.041 C 
ATOM      9  O   UNL     1      20.758  70.256  69.314  1.00  0.00    -0.550 OA
ATOM     10  O   UNL     1      20.757  68.850  71.121  1.00  0.00    -0.550 OA
ENDBRANCH   7   8
ENDBRANCH   6   7
ENDBRANCH   5   6
ENDBRANCH   4   5
ENDBRANCH   3   4
ENDBRANCH   2   3
ENDBRANCH   1   2
BRANCH   1  11
ATOM     11  C   UNL     1      14.405  69.951  73.047  1.00  0.00    -0.031 C 
ATOM     12  C   UNL     1      14.100  69.687  74.331  1.00  0.00    -0.027 C 
BRANCH  12  13
ATOM     13  C   UNL     1      14.087  70.714  75.435  1.00  0.00     0.054 C 
BRANCH  13  14
ATOM     14  C   UNL     1      15.381  70.707  76.201  1.00  0.00    -0.027 C 
ATOM     15  C   UNL     1      16.465  71.359  75.755  1.00  0.00    -0.031 C 
BRANCH  15  16
ATOM     16  C   UNL     1      17.760  71.356  76.522  1.00  0.00     0.027 C 
BRANCH  16  17
ATOM     17  C   UNL     1      18.987  71.400  75.600  1.00  0.00     0.004 C 
BRANCH  17  18
ATOM     18  C   UNL     1      20.057  70.377  76.009  1.00  0.00     0.000 C 
BRANCH  18  19
ATOM     19  C   UNL     1      19.739  69.772  77.381  1.00  0.00    -0.003 C 
ATOM     20  C   UNL     1      20.947  69.035  77.952  1.00  0.00     0.004 C 
ENDBRANCH  18  19
ENDBRANCH  17  18
ENDBRANCH  16  17
ENDBRANCH  15  16
ENDBRANCH  13  14
ENDBRANCH  12  13
ENDBRANCH   1  11
TORSDOF 14
ENDMDL
MODEL 4
REMARK VINA RESULT:    -7.011      1.985      6.299
REMARK INTER + INTRA:         -14.357
REMARK INTER:                 -12.619
REMARK INTRA:                  -1.739
REMARK UNBOUND:                -1.607
REMARK SMILES CCCCCC=CCC=CCCCCCCCC(=O)[O-]
REMARK SMILES IDX 11 1 12 2 13 3 14 4 15 5 16 6 17 7 18 8 19 9 20 10 10 11
REMARK SMILES IDX 9 12 8 13 7 14 6 15 5 16 4 17 3 18 2 19 1 20
REMARK H PARENT
REMARK Flexibility Score: inf
ROOT
ATOM      1  C   UNL     1      13.250  71.104  73.547  1.00  0.00     0.027 C 
ENDROOT
BRANCH   1   2
ATOM      2  C   UNL     1      13.152  70.753  75.043  1.00  0.00     0.004 C 
BRANCH   2   3
ATOM      3  C   UNL     1      14.349  69.952  75.596  1.00  0.00     0.000 C 
BRANCH   3   4
ATOM      4  C   UNL     1      15.276  70.726  76.550  1.00  0.00     0.000 C 
BRANCH   4   5
ATOM      5  C   UNL     1      16.497  71.330  75.837  1.00  0.00     0.000 C 
BRANCH   5   6
ATOM      6  C   UNL     1      17.734  71.433  76.749  1.00  0.00     0.006 C 
BRANCH   6   7
ATOM      7  C   UNL     1      19.067  71.539  75.988  1.00  0.00     0.053 C 
BRANCH   7   8
ATOM      8  C   UNL     1      19.980  70.384  76.263  1.00  0.00     0.041 C 
ATOM      9  O   UNL     1      20.933  70.132  75.481  1.00  0.00    -0.550 OA
ATOM     10  O   UNL     1      19.789  69.597  77.391  1.00  0.00    -0.550 OA
ENDBRANCH   7   8
ENDBRANCH   6   7
ENDBRANCH   5   6
ENDBRANCH   4   5
ENDBRANCH   3   4
ENDBRANCH   2   3
ENDBRANCH   1   2
BRANCH   1  11
ATOM     11  C   UNL     1      14.389  70.386  72.866  1.00  0.00    -0.031 C 
ATOM     12  C   UNL     1      15.480  70.989  72.358  1.00  0.00    -0.027 C 
BRANCH  12  13
ATOM     13  C   UNL     1      15.695  72.481  72.325  1.00  0.00     0.054 C 
BRANCH  13  14
ATOM     14  C   UNL     1      17.103  72.820  71.920  1.00  0.00    -0.027 C 
ATOM     15  C   UNL     1      18.159  72.192  72.460  1.00  0.00    -0.031 C 
BRANCH  15  16
ATOM     16  C   UNL     1      19.569  72.527  72.054  1.00  0.00     0.027 C 
BRANCH  16  17
ATOM     17  C   UNL     1      20.484  71.294  72.040  1.00  0.00     0.004 C 
BRANCH  17  18
ATOM     18  C   UNL     1      20.645  70.706  70.631  1.00  0.00     0.000 C 
BRANCH  18  19
ATOM     19  C   UNL     1      20.568  69.176  70.664  1.00  0.00    -0.003 C 
ATOM     20  C   UNL     1      20.141  68.615  69.311  1.00  0.00     0.004 C 
ENDBRANCH  18  19
ENDBRANCH  17  18
ENDBRANCH  16  17
ENDBRANCH  15  16
ENDBRANCH  13  14
ENDBRANCH  12  13
ENDBRANCH   1  11
TORSDOF 14
ENDMDL
MODEL 5
REMARK VINA RESULT:    -7.008      2.826      4.265
REMARK INTER + INTRA:         -14.350
REMARK INTER:                 -12.230
REMARK INTRA:                  -2.120
REMARK UNBOUND:                -1.607
REMARK SMILES CCCCCC=CCC=CCCCCCCCC(=O)[O-]
REMARK SMILES IDX 11 1 12 2 13 3 14 4 15 5 16 6 17 7 18 8 19 9 20 10 10 11
REMARK SMILES IDX 9 12 8 13 7 14 6 15 5 16 4 17 3 18 2 19 1 20
REMARK H PARENT
REMARK Flexibility Score: inf
ROOT
ATOM      1  C   UNL     1      21.077  70.749  73.384  1.00  0.00     0.027 C 
ENDROOT
BRANCH   1   2
ATOM      2  C   UNL     1      20.312  70.297  74.641  1.00  0.00     0.004 C 
BRANCH   2   3
ATOM      3  C   UNL     1      19.630  71.438  75.424  1.00  0.00     0.000 C 
BRANCH   3   4
ATOM      4  C   UNL     1      18.147  71.208  75.765  1.00  0.00     0.000 C 
BRANCH   4   5
ATOM      5  C   UNL     1      17.777  71.690  77.178  1.00  0.00     0.000 C 
BRANCH   5   6
ATOM      6  C   UNL     1      17.786  70.555  78.220  1.00  0.00     0.006 C 
BRANCH   6   7
ATOM      7  C   UNL     1      19.090  70.459  79.030  1.00  0.00     0.053 C 
BRANCH   7   8
ATOM      8  C   UNL     1      19.784  69.144  78.850  1.00  0.00     0.041 C 
ATOM      9  O   UNL     1      19.962  68.677  77.695  1.00  0.00    -0.550 OA
ATOM     10  O   UNL     1      20.248  68.443  79.955  1.00  0.00    -0.550 OA
ENDBRANCH   7   8
ENDBRANCH   6   7
ENDBRANCH   5   6
ENDBRANCH   4   5
ENDBRANCH   3   4
ENDBRANCH   2   3
ENDBRANCH   1   2
BRANCH   1  11
ATOM     11  C   UNL     1      20.333  70.420  72.113  1.00  0.00    -0.031 C 
ATOM     12  C   UNL     1      19.525  71.273  71.457  1.00  0.00    -0.027 C 
BRANCH  12  13
ATOM     13  C   UNL     1      19.178  72.660  71.933  1.00  0.00     0.054 C 
BRANCH  13  14
ATOM     14  C   UNL     1      17.733  72.751  72.341  1.00  0.00    -0.027 C 
ATOM     15  C   UNL     1      16.910  71.696  72.251  1.00  0.00    -0.031 C 
BRANCH  15  16
ATOM     16  C   UNL     1      15.465  71.784  72.663  1.00  0.00     0.027 C 
BRANCH  16  17
ATOM     17  C   UNL     1      14.663  70.540  72.255  1.00  0.00     0.004 C 
BRANCH  17  18
ATOM     18  C   UNL     1      14.261  69.686  73.465  1.00  0.00     0.000 C 
BRANCH  18  19
ATOM     19  C   UNL     1      13.823  70.571  74.638  1.00  0.00    -0.003 C 
ATOM     20  C   UNL     1      14.033  69.862  75.973  1.00  0.00     0.004 C 
ENDBRANCH  18  19
ENDBRANCH  17  18
ENDBRANCH  16  17
ENDBRANCH  15  16
ENDBRANCH  13  14
ENDBRANCH  12  13
ENDBRANCH   1  11
TORSDOF 14
ENDMDL
MODEL 6
REMARK VINA RESULT:    -6.984      1.621      3.883
REMARK INTER + INTRA:         -14.306
REMARK INTER:                 -12.745
REMARK INTRA:                  -1.562
REMARK UNBOUND:                -1.607
REMARK SMILES CCCCCC=CCC=CCCCCCCCC(=O)[O-]
REMARK SMILES IDX 11 1 12 2 13 3 14 4 15 5 16 6 17 7 18 8 19 9 20 10 10 11
REMARK SMILES IDX 9 12 8 13 7 14 6 15 5 16 4 17 3 18 2 19 1 20
REMARK H PARENT
REMARK Flexibility Score: inf
ROOT
ATOM      1  C   UNL     1      16.149  71.597  72.037  1.00  0.00     0.027 C 
ENDROOT
BRANCH   1   2
ATOM      2  C   UNL     1      17.520  71.965  72.634  1.00  0.00     0.004 C 
BRANCH   2   3
ATOM      3  C   UNL     1      18.487  72.651  71.647  1.00  0.00     0.000 C 
BRANCH   3   4
ATOM      4  C   UNL     1      19.951  72.182  71.726  1.00  0.00     0.000 C 
BRANCH   4   5
ATOM      5  C   UNL     1      20.142  70.735  71.238  1.00  0.00     0.000 C 
BRANCH   5   6
ATOM      6  C   UNL     1      21.028  69.897  72.179  1.00  0.00     0.006 C 
BRANCH   6   7
ATOM      7  C   UNL     1      21.014  70.374  73.642  1.00  0.00     0.053 C 
BRANCH   7   8
ATOM      8  C   UNL     1      22.366  70.302  74.283  1.00  0.00     0.041 C 
ATOM      9  O   UNL     1      22.485  69.878  75.461  1.00  0.00    -0.550 OA
ATOM     10  O   UNL     1      23.495  70.688  73.573  1.00  0.00    -0.550 OA
ENDBRANCH   7   8
ENDBRANCH   6   7
ENDBRANCH   5   6
ENDBRANCH   4   5
ENDBRANCH   3   4
ENDBRANCH   2   3
ENDBRANCH   1   2
BRANCH   1  11
ATOM     11  C   UNL     1      15.196  72.767  72.032  1.00  0.00    -0.031 C 
ATOM     12  C   UNL     1      13.881  72.685  72.311  1.00  0.00    -0.027 C 
BRANCH  12  13
ATOM     13  C   UNL     1      13.147  71.399  72.595  1.00  0.00     0.054 C 
BRANCH  13  14
ATOM     14  C   UNL     1      13.129  71.096  74.068  1.00  0.00    -0.027 C 
ATOM     15  C   UNL     1      13.986  70.220  74.616  1.00  0.00    -0.031 C 
BRANCH  15  16
ATOM     16  C   UNL     1      13.972  69.918  76.090  1.00  0.00     0.027 C 
BRANCH  16  17
ATOM     17  C   UNL     1      15.150  70.566  76.832  1.00  0.00     0.004 C 
BRANCH  17  18
ATOM     18  C   UNL     1      16.226  71.087  75.869  1.00  0.00     0.000 C 
BRANCH  18  19
ATOM     19  C   UNL     1      17.385  71.729  76.639  1.00  0.00    -0.003 C 
ATOM     20  C   UNL     1      17.979  70.757  77.654  1.00  0.00     0.004 C 
ENDBRANCH  18  19
ENDBRANCH  17  18
ENDBRANCH  16  17
ENDBRANCH  15  16
ENDBRANCH  13  14
ENDBRANCH  12  13
ENDBRANCH   1  11
TORSDOF 14
ENDMDL
MODEL 7
REMARK VINA RESULT:    -6.922      3.256      4.736
REMARK INTER + INTRA:         -14.195
REMARK INTER:                 -12.330
REMARK INTRA:                  -1.865
REMARK UNBOUND:                -1.607
REMARK SMILES CCCCCC=CCC=CCCCCCCCC(=O)[O-]
REMARK SMILES IDX 11 1 12 2 13 3 14 4 15 5 16 6 17 7 18 8 19 9 20 10 10 11
REMARK SMILES IDX 9 12 8 13 7 14 6 15 5 16 4 17 3 18 2 19 1 20
REMARK H PARENT
REMARK Flexibility Score: inf
ROOT
ATOM      1  C   UNL     1      22.314  70.570  73.331  1.00  0.00     0.027 C 
ENDROOT
BRANCH   1   2
ATOM      2  C   UNL     1      21.716  70.496  74.748  1.00  0.00     0.004 C 
BRANCH   2   3
ATOM      3  C   UNL     1      20.185  70.310  74.791  1.00  0.00     0.000 C 
BRANCH   3   4
ATOM      4  C   UNL     1      19.404  71.438  75.487  1.00  0.00     0.000 C 
BRANCH   4   5
ATOM      5  C   UNL     1      18.689  70.970  76.766  1.00  0.00     0.000 C 
BRANCH   5   6
ATOM      6  C   UNL     1      19.549  70.016  77.618  1.00  0.00     0.006 C 
BRANCH   6   7
ATOM      7  C   UNL     1      19.153  69.975  79.104  1.00  0.00     0.053 C 
BRANCH   7   8
ATOM      8  C   UNL     1      18.060  68.989  79.382  1.00  0.00     0.041 C 
ATOM      9  O   UNL     1      18.333  67.771  79.537  1.00  0.00    -0.550 OA
ATOM     10  O   UNL     1      16.743  69.418  79.486  1.00  0.00    -0.550 OA
ENDBRANCH   7   8
ENDBRANCH   6   7
ENDBRANCH   5   6
ENDBRANCH   4   5
ENDBRANCH   3   4
ENDBRANCH   2   3
ENDBRANCH   1   2
BRANCH   1  11
ATOM     11  C   UNL     1      21.457  69.859  72.312  1.00  0.00    -0.031 C 
ATOM     12  C   UNL     1      20.840  70.460  71.277  1.00  0.00    -0.027 C 
BRANCH  12  13
ATOM     13  C   UNL     1      20.847  71.946  71.024  1.00  0.00     0.054 C 
BRANCH  13  14
ATOM     14  C   UNL     1      19.583  72.590  71.523  1.00  0.00    -0.027 C 
ATOM     15  C   UNL     1      18.496  71.863  71.824  1.00  0.00    -0.031 C 
BRANCH  15  16
ATOM     16  C   UNL     1      17.231  72.505  72.326  1.00  0.00     0.027 C 
BRANCH  16  17
ATOM     17  C   UNL     1      16.145  71.474  72.663  1.00  0.00     0.004 C 
BRANCH  17  18
ATOM     18  C   UNL     1      15.889  71.373  74.173  1.00  0.00     0.000 C 
BRANCH  18  19
ATOM     19  C   UNL     1      14.711  70.437  74.467  1.00  0.00    -0.003 C 
ATOM     20  C   UNL     1      14.097  69.900  73.177  1.00  0.00     0.004 C 
ENDBRANCH  18  19
ENDBRANCH  17  18
ENDBRANCH  16  17
ENDBRANCH  15  16
ENDBRANCH  13  14
ENDBRANCH  12  13
ENDBRANCH   1  11
TORSDOF 14
ENDMDL
MODEL 8
REMARK VINA RESULT:    -6.917      2.146      3.651
REMARK INTER + INTRA:         -14.186
REMARK INTER:                 -12.385
REMARK INTRA:                  -1.801
REMARK UNBOUND:                -1.607
REMARK SMILES CCCCCC=CCC=CCCCCCCCC(=O)[O-]
REMARK SMILES IDX 11 1 12 2 13 3 14 4 15 5 16 6 17 7 18 8 19 9 20 10 10 11
REMARK SMILES IDX 9 12 8 13 7 14 6 15 5 16 4 17 3 18 2 19 1 20
REMARK H PARENT
REMARK Flexibility Score: inf
ROOT
ATOM      1  C   UNL     1      22.275  71.877  74.180  1.00  0.00     0.027 C 
ENDROOT
BRANCH   1   2
ATOM      2  C   UNL     1      23.657  71.799  73.505  1.00  0.00     0.004 C 
BRANCH   2   3
ATOM      3  C   UNL     1      23.752  72.526  72.148  1.00  0.00     0.000 C 
BRANCH   3   4
ATOM      4  C   UNL     1      22.409  72.978  71.548  1.00  0.00     0.000 C 
BRANCH   4   5
ATOM      5  C   UNL     1      21.924  72.065  70.410  1.00  0.00     0.000 C 
BRANCH   5   6
ATOM      6  C   UNL     1      20.648  71.280  70.772  1.00  0.00     0.006 C 
BRANCH   6   7
ATOM      7  C   UNL     1      20.884  69.780  71.015  1.00  0.00     0.053 C 
BRANCH   7   8
ATOM      8  C   UNL     1      20.373  68.928  69.894  1.00  0.00     0.041 C 
ATOM      9  O   UNL     1      19.543  68.011  70.124  1.00  0.00    -0.550 OA
ATOM     10  O   UNL     1      20.801  69.158  68.592  1.00  0.00    -0.550 OA
ENDBRANCH   7   8
ENDBRANCH   6   7
ENDBRANCH   5   6
ENDBRANCH   4   5
ENDBRANCH   3   4
ENDBRANCH   2   3
ENDBRANCH   1   2
BRANCH   1  11
ATOM     11  C   UNL     1      21.933  70.612  74.929  1.00  0.00    -0.031 C 
ATOM     12  C   UNL     1      20.702  70.295  75.372  1.00  0.00    -0.027 C 
BRANCH  12  13
ATOM     13  C   UNL     1      19.494  71.189  75.255  1.00  0.00     0.054 C 
BRANCH  13  14
ATOM     14  C   UNL     1      18.830  71.035  73.915  1.00  0.00    -0.027 C 
ATOM     15  C   UNL     1      17.892  71.896  73.492  1.00  0.00    -0.031 C 
BRANCH  15  16
ATOM     16  C   UNL     1      17.229  71.745  72.150  1.00  0.00     0.027 C 
BRANCH  16  17
ATOM     17  C   UNL     1      15.795  71.207  72.262  1.00  0.00     0.004 C 
BRANCH  17  18
ATOM     18  C   UNL     1      15.320  71.120  73.719  1.00  0.00     0.000 C 
BRANCH  18  19
ATOM     19  C   UNL     1      14.281  70.007  73.891  1.00  0.00    -0.003 C 
ATOM     20  C   UNL     1      13.933  69.798  75.362  1.00  0.00     0.004 C 
ENDBRANCH  18  19
ENDBRANCH  17  18
ENDBRANCH  16  17
ENDBRANCH  15  16
ENDBRANCH  13  14
ENDBRANCH  12  13
ENDBRANCH   1  11
TORSDOF 14
ENDMDL
MODEL 9
REMARK VINA RESULT:    -6.857      2.687      4.911
REMARK INTER + INTRA:         -14.076
REMARK INTER:                 -12.482
REMARK INTRA:                  -1.594
REMARK UNBOUND:                -1.607
REMARK SMILES CCCCCC=CCC=CCCCCCCCC(=O)[O-]
REMARK SMILES IDX 11 1 12 2 13 3 14 4 15 5 16 6 17 7 18 8 19 9 20 10 10 11
REMARK SMILES IDX 9 12 8 13 7 14 6 15 5 16 4 17 3 18 2 19 1 20
REMARK H PARENT
REMARK Flexibility Score: inf
ROOT
ATOM      1  C   UNL     1      16.412  71.221  74.537  1.00  0.00     0.027 C 
ENDROOT
BRANCH   1   2
ATOM      2  C   UNL     1      16.269  72.626  73.925  1.00  0.00     0.004 C 
BRANCH   2   3
ATOM      3  C   UNL     1      16.369  72.670  72.387  1.00  0.00     0.000 C 
BRANCH   3   4
ATOM      4  C   UNL     1      17.743  73.078  71.827  1.00  0.00     0.000 C 
BRANCH   4   5
ATOM      5  C   UNL     1      18.707  71.888  71.683  1.00  0.00     0.000 C 
BRANCH   5   6
ATOM      6  C   UNL     1      20.182  72.320  71.571  1.00  0.00     0.006 C 
BRANCH   6   7
ATOM      7  C   UNL     1      21.086  71.287  70.878  1.00  0.00     0.053 C 
BRANCH   7   8
ATOM      8  C   UNL     1      21.180  70.001  71.639  1.00  0.00     0.041 C 
ATOM      9  O   UNL     1      20.816  68.922  71.106  1.00  0.00    -0.550 OA
ATOM     10  O   UNL     1      21.687  69.993  72.933  1.00  0.00    -0.550 OA
ENDBRANCH   7   8
ENDBRANCH   6   7
ENDBRANCH   5   6
ENDBRANCH   4   5
ENDBRANCH   3   4
ENDBRANCH   2   3
ENDBRANCH   1   2
BRANCH   1  11
ATOM     11  C   UNL     1      15.156  70.775  75.245  1.00  0.00    -0.031 C 
ATOM     12  C   UNL     1      14.136  70.124  74.656  1.00  0.00    -0.027 C 
BRANCH  12  13
ATOM     13  C   UNL     1      14.058  69.811  73.183  1.00  0.00     0.054 C 
BRANCH  13  14
ATOM     14  C   UNL     1      13.241  70.839  72.450  1.00  0.00    -0.027 C 
ATOM     15  C   UNL     1      12.381  71.643  73.094  1.00  0.00    -0.031 C 
BRANCH  15  16
ATOM     16  C   UNL     1      11.565  72.674  72.362  1.00  0.00     0.027 C 
BRANCH  16  17
ATOM     17  C   UNL     1      10.732  72.063  71.226  1.00  0.00     0.004 C 
BRANCH  17  18
ATOM     18  C   UNL     1       9.759  70.989  71.732  1.00  0.00     0.000 C 
BRANCH  18  19
ATOM     19  C   UNL     1       9.753  69.773  70.799  1.00  0.00    -0.003 C 
ATOM     20  C   UNL     1      10.568  70.041  69.537  1.00  0.00     0.004 C 
ENDBRANCH  18  19
ENDBRANCH  17  18
ENDBRANCH  16  17
ENDBRANCH  15  16
ENDBRANCH  13  14
ENDBRANCH  12  13
ENDBRANCH   1  11
TORSDOF 14
ENDMDL
