MODEL 1
REMARK VINA RESULT:    -3.734      0.000      0.000
REMARK INTER + INTRA:          -3.968
REMARK INTER:                  -3.952
REMARK INTRA:                  -0.016
REMARK UNBOUND:                -0.016
REMARK SMILES O=C([O-])c1cccnc1
REMARK SMILES IDX 4 1 5 2 9 3 6 4 8 5 7 6 2 7 1 8 3 9
REMARK H PARENT
REMARK Flexibility Score: inf
ROOT
ATOM      1  C   UNL     1       2.185 -21.639 -22.756  1.00  0.00     0.016 A 
ATOM      2  C   UNL     1       1.697 -22.765 -23.441  1.00  0.00     0.013 A 
ATOM      3  C   UNL     1       1.289 -20.898 -21.967  1.00  0.00     0.120 A 
ATOM      4  C   UNL     1       0.353 -23.125 -23.331  1.00  0.00     0.021 A 
ATOM      5  N   UNL     1      -0.015 -21.271 -21.875  1.00  0.00    -0.264 NA
ATOM      6  C   UNL     1      -0.497 -22.358 -22.534  1.00  0.00     0.111 A 
ENDROOT
BRANCH   1   7
ATOM      7  C   UNL     1       3.605 -21.241 -22.861  1.00  0.00     0.073 C 
ATOM      8  O   UNL     1       4.465 -21.724 -22.077  1.00  0.00    -0.545 OA
ATOM      9  O   UNL     1       4.011 -20.328 -23.827  1.00  0.00    -0.545 OA
ENDBRANCH   1   7
TORSDOF 1
ENDMDL
MODEL 2
REMARK VINA RESULT:    -3.444     10.422     11.190
REMARK INTER + INTRA:          -3.661
REMARK INTER:                  -3.641
REMARK INTRA:                  -0.020
REMARK UNBOUND:                -0.016
REMARK SMILES O=C([O-])c1cccnc1
REMARK SMILES IDX 4 1 5 2 9 3 6 4 8 5 7 6 2 7 1 8 3 9
REMARK H PARENT
REMARK Flexibility Score: inf
ROOT
ATOM      1  C   UNL     1       2.558 -12.544 -28.660  1.00  0.00     0.016 A 
ATOM      2  C   UNL     1       2.077 -13.431 -27.682  1.00  0.00     0.013 A 
ATOM      3  C   UNL     1       3.112 -11.323 -28.241  1.00  0.00     0.120 A 
ATOM      4  C   UNL     1       2.154 -13.091 -26.330  1.00  0.00     0.021 A 
ATOM      5  N   UNL     1       3.176 -11.017 -26.917  1.00  0.00    -0.264 NA
ATOM      6  C   UNL     1       2.713 -11.867 -25.963  1.00  0.00     0.111 A 
ENDROOT
BRANCH   1   7
ATOM      7  C   UNL     1       2.485 -12.885 -30.097  1.00  0.00     0.073 C 
ATOM      8  O   UNL     1       1.455 -13.430 -30.575  1.00  0.00    -0.545 OA
ATOM      9  O   UNL     1       3.555 -12.608 -30.942  1.00  0.00    -0.545 OA
ENDBRANCH   1   7
TORSDOF 1
ENDMDL
MODEL 3
REMARK VINA RESULT:    -3.429     11.204     12.011
REMARK INTER + INTRA:          -3.646
REMARK INTER:                  -3.630
REMARK INTRA:                  -0.016
REMARK UNBOUND:                -0.016
REMARK SMILES O=C([O-])c1cccnc1
REMARK SMILES IDX 4 1 5 2 9 3 6 4 8 5 7 6 2 7 1 8 3 9
REMARK H PARENT
REMARK Flexibility Score: inf
ROOT
ATOM      1  C   UNL     1       2.480 -12.703 -30.005  1.00  0.00     0.016 A 
ATOM      2  C   UNL     1       2.093 -13.084 -28.710  1.00  0.00     0.013 A 
ATOM      3  C   UNL     1       3.235 -11.527 -30.158  1.00  0.00     0.120 A 
ATOM      4  C   UNL     1       2.455 -12.303 -27.611  1.00  0.00     0.021 A 
ATOM      5  N   UNL     1       3.575 -10.785 -29.071  1.00  0.00    -0.264 NA
ATOM      6  C   UNL     1       3.205 -11.144 -27.814  1.00  0.00     0.111 A 
ENDROOT
BRANCH   1   7
ATOM      7  C   UNL     1       2.106 -13.517 -31.182  1.00  0.00     0.073 C 
ATOM      8  O   UNL     1       0.989 -13.360 -31.740  1.00  0.00    -0.545 OA
ATOM      9  O   UNL     1       2.985 -14.467 -31.688  1.00  0.00    -0.545 OA
ENDBRANCH   1   7
TORSDOF 1
ENDMDL
MODEL 4
REMARK VINA RESULT:    -3.402     11.370     11.970
REMARK INTER + INTRA:          -3.617
REMARK INTER:                  -3.601
REMARK INTRA:                  -0.016
REMARK UNBOUND:                -0.016
REMARK SMILES O=C([O-])c1cccnc1
REMARK SMILES IDX 4 1 5 2 9 3 6 4 8 5 7 6 2 7 1 8 3 9
REMARK H PARENT
REMARK Flexibility Score: inf
ROOT
ATOM      1  C   UNL     1       2.123 -13.050 -30.708  1.00  0.00     0.016 A 
ATOM      2  C   UNL     1       2.220 -13.051 -29.306  1.00  0.00     0.013 A 
ATOM      3  C   UNL     1       1.067 -12.339 -31.304  1.00  0.00     0.120 A 
ATOM      4  C   UNL     1       1.282 -12.359 -28.538  1.00  0.00     0.021 A 
ATOM      5  N   UNL     1       0.168 -11.672 -30.532  1.00  0.00    -0.264 NA
ATOM      6  C   UNL     1       0.252 -11.667 -29.176  1.00  0.00     0.111 A 
ENDROOT
BRANCH   1   7
ATOM      7  C   UNL     1       3.106 -13.777 -31.539  1.00  0.00     0.073 C 
ATOM      8  O   UNL     1       2.890 -14.967 -31.893  1.00  0.00    -0.545 OA
ATOM      9  O   UNL     1       4.283 -13.157 -31.942  1.00  0.00    -0.545 OA
ENDBRANCH   1   7
TORSDOF 1
ENDMDL
MODEL 5
REMARK VINA RESULT:    -3.369     11.161     11.672
REMARK INTER + INTRA:          -3.582
REMARK INTER:                  -3.565
REMARK INTRA:                  -0.017
REMARK UNBOUND:                -0.016
REMARK SMILES O=C([O-])c1cccnc1
REMARK SMILES IDX 4 1 5 2 9 3 6 4 8 5 7 6 2 7 1 8 3 9
REMARK H PARENT
REMARK Flexibility Score: inf
ROOT
ATOM      1  C   UNL     1       1.866 -12.661 -29.485  1.00  0.00     0.016 A 
ATOM      2  C   UNL     1       2.476 -13.382 -30.526  1.00  0.00     0.013 A 
ATOM      3  C   UNL     1       0.698 -11.934 -29.772  1.00  0.00     0.120 A 
ATOM      4  C   UNL     1       1.924 -13.365 -31.808  1.00  0.00     0.021 A 
ATOM      5  N   UNL     1       0.180 -11.936 -31.029  1.00  0.00    -0.264 NA
ATOM      6  C   UNL     1       0.763 -12.629 -32.043  1.00  0.00     0.111 A 
ENDROOT
BRANCH   1   7
ATOM      7  C   UNL     1       2.436 -12.665 -28.121  1.00  0.00     0.073 C 
ATOM      8  O   UNL     1       2.341 -13.687 -27.390  1.00  0.00    -0.545 OA
ATOM      9  O   UNL     1       3.087 -11.541 -27.626  1.00  0.00    -0.545 OA
ENDBRANCH   1   7
TORSDOF 1
ENDMDL
MODEL 6
REMARK VINA RESULT:    -3.329     13.295     13.932
REMARK INTER + INTRA:          -3.540
REMARK INTER:                  -3.523
REMARK INTRA:                  -0.017
REMARK UNBOUND:                -0.016
REMARK SMILES O=C([O-])c1cccnc1
REMARK SMILES IDX 4 1 5 2 9 3 6 4 8 5 7 6 2 7 1 8 3 9
REMARK H PARENT
REMARK Flexibility Score: inf
ROOT
ATOM      1  C   UNL     1       2.220 -12.484 -33.246  1.00  0.00     0.016 A 
ATOM      2  C   UNL     1       3.168 -12.989 -32.341  1.00  0.00     0.013 A 
ATOM      3  C   UNL     1       0.908 -12.269 -32.790  1.00  0.00     0.120 A 
ATOM      4  C   UNL     1       2.800 -13.266 -31.023  1.00  0.00     0.021 A 
ATOM      5  N   UNL     1       0.577 -12.546 -31.500  1.00  0.00    -0.264 NA
ATOM      6  C   UNL     1       1.486 -13.035 -30.617  1.00  0.00     0.111 A 
ENDROOT
BRANCH   1   7
ATOM      7  C   UNL     1       2.589 -12.184 -34.646  1.00  0.00     0.073 C 
ATOM      8  O   UNL     1       2.190 -12.921 -35.586  1.00  0.00    -0.545 OA
ATOM      9  O   UNL     1       3.383 -11.082 -34.945  1.00  0.00    -0.545 OA
ENDBRANCH   1   7
TORSDOF 1
ENDMDL
MODEL 7
REMARK VINA RESULT:    -3.318     11.450     12.179
REMARK INTER + INTRA:          -3.528
REMARK INTER:                  -3.512
REMARK INTRA:                  -0.016
REMARK UNBOUND:                -0.016
REMARK SMILES O=C([O-])c1cccnc1
REMARK SMILES IDX 4 1 5 2 9 3 6 4 8 5 7 6 2 7 1 8 3 9
REMARK H PARENT
REMARK Flexibility Score: inf
ROOT
ATOM      1  C   UNL     1       2.527 -12.618 -29.800  1.00  0.00     0.016 A 
ATOM      2  C   UNL     1       2.557 -13.544 -30.856  1.00  0.00     0.013 A 
ATOM      3  C   UNL     1       3.242 -11.417 -29.945  1.00  0.00     0.120 A 
ATOM      4  C   UNL     1       3.285 -13.264 -32.014  1.00  0.00     0.021 A 
ATOM      5  N   UNL     1       3.943 -11.168 -31.084  1.00  0.00    -0.264 NA
ATOM      6  C   UNL     1       3.979 -12.058 -32.110  1.00  0.00     0.111 A 
ENDROOT
BRANCH   1   7
ATOM      7  C   UNL     1       1.761 -12.895 -28.566  1.00  0.00     0.073 C 
ATOM      8  O   UNL     1       2.266 -13.584 -27.640  1.00  0.00    -0.545 OA
ATOM      9  O   UNL     1       0.473 -12.397 -28.410  1.00  0.00    -0.545 OA
ENDBRANCH   1   7
TORSDOF 1
ENDMDL
MODEL 8
REMARK VINA RESULT:    -3.213     13.631     14.446
REMARK INTER + INTRA:          -3.416
REMARK INTER:                  -3.396
REMARK INTRA:                  -0.021
REMARK UNBOUND:                -0.016
REMARK SMILES O=C([O-])c1cccnc1
REMARK SMILES IDX 4 1 5 2 9 3 6 4 8 5 7 6 2 7 1 8 3 9
REMARK H PARENT
REMARK Flexibility Score: inf
ROOT
ATOM      1  C   UNL     1       2.386 -12.472 -32.906  1.00  0.00     0.016 A 
ATOM      2  C   UNL     1       3.650 -12.131 -32.396  1.00  0.00     0.013 A 
ATOM      3  C   UNL     1       2.174 -12.365 -34.291  1.00  0.00     0.120 A 
ATOM      4  C   UNL     1       4.660 -11.697 -33.257  1.00  0.00     0.021 A 
ATOM      5  N   UNL     1       3.175 -11.941 -35.108  1.00  0.00    -0.264 NA
ATOM      6  C   UNL     1       4.401 -11.608 -34.625  1.00  0.00     0.111 A 
ENDROOT
BRANCH   1   7
ATOM      7  C   UNL     1       1.304 -12.933 -32.011  1.00  0.00     0.073 C 
ATOM      8  O   UNL     1       0.107 -12.607 -32.231  1.00  0.00    -0.545 OA
ATOM      9  O   UNL     1       1.592 -13.736 -30.913  1.00  0.00    -0.545 OA
ENDBRANCH   1   7
TORSDOF 1
ENDMDL
MODEL 9
REMARK VINA RESULT:    -3.192      9.769     10.490
REMARK INTER + INTRA:          -3.395
REMARK INTER:                  -3.379
REMARK INTRA:                  -0.016
REMARK UNBOUND:                -0.016
REMARK SMILES O=C([O-])c1cccnc1
REMARK SMILES IDX 4 1 5 2 9 3 6 4 8 5 7 6 2 7 1 8 3 9
REMARK H PARENT
REMARK Flexibility Score: inf
ROOT
ATOM      1  C   UNL     1       2.500 -12.473 -26.219  1.00  0.00     0.016 A 
ATOM      2  C   UNL     1       2.114 -13.378 -27.222  1.00  0.00     0.013 A 
ATOM      3  C   UNL     1       3.072 -11.249 -26.608  1.00  0.00     0.120 A 
ATOM      4  C   UNL     1       2.302 -13.055 -28.568  1.00  0.00     0.021 A 
ATOM      5  N   UNL     1       3.242 -10.959 -27.925  1.00  0.00    -0.264 NA
ATOM      6  C   UNL     1       2.873 -11.827 -28.903  1.00  0.00     0.111 A 
ENDROOT
BRANCH   1   7
ATOM      7  C   UNL     1       2.310 -12.796 -24.789  1.00  0.00     0.073 C 
ATOM      8  O   UNL     1       1.277 -12.414 -24.178  1.00  0.00    -0.545 OA
ATOM      9  O   UNL     1       3.269 -13.528 -24.099  1.00  0.00    -0.545 OA
ENDBRANCH   1   7
TORSDOF 1
ENDMDL
