MODEL 1
REMARK VINA RESULT:    -3.356      0.000      0.000
REMARK INTER + INTRA:          -4.027
REMARK INTER:                  -3.945
REMARK INTRA:                  -0.082
REMARK UNBOUND:                -0.082
REMARK SMILES CCCCC(=O)[O-]
REMARK SMILES IDX 4 1 5 2 6 3 7 4 3 5 2 6 1 7
REMARK H PARENT
REMARK Flexibility Score: inf
ROOT
ATOM      1  C   UNL     1     -10.490   0.377   5.358  1.00  0.00     0.053 C 
ENDROOT
BRANCH   1   2
ATOM      2  C   UNL     1      -9.685   1.304   6.216  1.00  0.00     0.041 C 
ATOM      3  O   UNL     1      -8.628   0.898   6.768  1.00  0.00    -0.550 OA
ATOM      4  O   UNL     1     -10.119   2.605   6.433  1.00  0.00    -0.550 OA
ENDBRANCH   1   2
BRANCH   1   5
ATOM      5  C   UNL     1      -9.808  -0.988   5.197  1.00  0.00     0.006 C 
BRANCH   5   6
ATOM      6  C   UNL     1      -9.386  -1.258   3.746  1.00  0.00    -0.003 C 
ATOM      7  C   UNL     1      -8.212  -0.369   3.340  1.00  0.00     0.004 C 
ENDBRANCH   5   6
ENDBRANCH   1   5
TORSDOF 3
ENDMDL
MODEL 2
REMARK VINA RESULT:    -3.338      1.396      1.932
REMARK INTER + INTRA:          -4.005
REMARK INTER:                  -4.025
REMARK INTRA:                   0.020
REMARK UNBOUND:                -0.082
REMARK SMILES CCCCC(=O)[O-]
REMARK SMILES IDX 4 1 5 2 6 3 7 4 3 5 2 6 1 7
REMARK H PARENT
REMARK Flexibility Score: inf
ROOT
ATOM      1  C   UNL     1     -10.856  -0.046   5.910  1.00  0.00     0.053 C 
ENDROOT
BRANCH   1   2
ATOM      2  C   UNL     1      -9.822  -0.261   6.972  1.00  0.00     0.041 C 
ATOM      3  O   UNL     1      -9.555   0.657   7.791  1.00  0.00    -0.550 OA
ATOM      4  O   UNL     1      -9.130  -1.463   7.035  1.00  0.00    -0.550 OA
ENDBRANCH   1   2
BRANCH   1   5
ATOM      5  C   UNL     1     -10.223   0.357   4.571  1.00  0.00     0.006 C 
BRANCH   5   6
ATOM      6  C   UNL     1      -9.528  -0.825   3.879  1.00  0.00    -0.003 C 
ATOM      7  C   UNL     1      -8.160  -0.418   3.337  1.00  0.00     0.004 C 
ENDBRANCH   5   6
ENDBRANCH   1   5
TORSDOF 3
ENDMDL
MODEL 3
REMARK VINA RESULT:    -3.333     12.199     13.097
REMARK INTER + INTRA:          -3.999
REMARK INTER:                  -3.946
REMARK INTRA:                  -0.053
REMARK UNBOUND:                -0.082
REMARK SMILES CCCCC(=O)[O-]
REMARK SMILES IDX 4 1 5 2 6 3 7 4 3 5 2 6 1 7
REMARK H PARENT
REMARK Flexibility Score: inf
ROOT
ATOM      1  C   UNL     1      -0.082  -8.685   6.617  1.00  0.00     0.053 C 
ENDROOT
BRANCH   1   2
ATOM      2  C   UNL     1       0.742  -9.008   7.826  1.00  0.00     0.041 C 
ATOM      3  O   UNL     1       1.585  -9.942   7.786  1.00  0.00    -0.550 OA
ATOM      4  O   UNL     1       0.554  -8.299   9.005  1.00  0.00    -0.550 OA
ENDBRANCH   1   2
BRANCH   1   5
ATOM      5  C   UNL     1      -1.497  -9.271   6.718  1.00  0.00     0.006 C 
BRANCH   5   6
ATOM      6  C   UNL     1      -2.561  -8.185   6.931  1.00  0.00    -0.003 C 
ATOM      7  C   UNL     1      -2.678  -7.282   5.705  1.00  0.00     0.004 C 
ENDBRANCH   5   6
ENDBRANCH   1   5
TORSDOF 3
ENDMDL
MODEL 4
REMARK VINA RESULT:    -3.297      2.325      3.752
REMARK INTER + INTRA:          -3.958
REMARK INTER:                  -3.936
REMARK INTRA:                  -0.022
REMARK UNBOUND:                -0.082
REMARK SMILES CCCCC(=O)[O-]
REMARK SMILES IDX 4 1 5 2 6 3 7 4 3 5 2 6 1 7
REMARK H PARENT
REMARK Flexibility Score: inf
ROOT
ATOM      1  C   UNL     1     -10.203   0.355   4.574  1.00  0.00     0.053 C 
ENDROOT
BRANCH   1   2
ATOM      2  C   UNL     1      -9.114  -0.671   4.492  1.00  0.00     0.041 C 
ATOM      3  O   UNL     1      -9.080  -1.626   5.311  1.00  0.00    -0.550 OA
ATOM      4  O   UNL     1      -8.118  -0.553   3.531  1.00  0.00    -0.550 OA
ENDBRANCH   1   2
BRANCH   1   5
ATOM      5  C   UNL     1     -10.996   0.240   5.883  1.00  0.00     0.006 C 
BRANCH   5   6
ATOM      6  C   UNL     1     -12.323   1.010   5.827  1.00  0.00    -0.003 C 
ATOM      7  C   UNL     1     -13.423   0.266   6.581  1.00  0.00     0.004 C 
ENDBRANCH   5   6
ENDBRANCH   1   5
TORSDOF 3
ENDMDL
MODEL 5
REMARK VINA RESULT:    -3.116      2.375      3.583
REMARK INTER + INTRA:          -3.744
REMARK INTER:                  -3.701
REMARK INTRA:                  -0.043
REMARK UNBOUND:                -0.082
REMARK SMILES CCCCC(=O)[O-]
REMARK SMILES IDX 4 1 5 2 6 3 7 4 3 5 2 6 1 7
REMARK H PARENT
REMARK Flexibility Score: inf
ROOT
ATOM      1  C   UNL     1     -10.032   0.678   4.379  1.00  0.00     0.053 C 
ENDROOT
BRANCH   1   2
ATOM      2  C   UNL     1      -9.326  -0.642   4.327  1.00  0.00     0.041 C 
ATOM      3  O   UNL     1      -9.799  -1.637   4.936  1.00  0.00    -0.550 OA
ATOM      4  O   UNL     1      -8.129  -0.763   3.634  1.00  0.00    -0.550 OA
ENDBRANCH   1   2
BRANCH   1   5
ATOM      5  C   UNL     1     -11.180   0.671   5.398  1.00  0.00     0.006 C 
BRANCH   5   6
ATOM      6  C   UNL     1     -11.446   2.065   5.983  1.00  0.00    -0.003 C 
ATOM      7  C   UNL     1     -10.659   3.136   5.230  1.00  0.00     0.004 C 
ENDBRANCH   5   6
ENDBRANCH   1   5
TORSDOF 3
ENDMDL
MODEL 6
REMARK VINA RESULT:    -3.052     12.155     13.096
REMARK INTER + INTRA:          -3.669
REMARK INTER:                  -3.605
REMARK INTRA:                  -0.064
REMARK UNBOUND:                -0.082
REMARK SMILES CCCCC(=O)[O-]
REMARK SMILES IDX 4 1 5 2 6 3 7 4 3 5 2 6 1 7
REMARK H PARENT
REMARK Flexibility Score: inf
ROOT
ATOM      1  C   UNL     1      -0.455  -9.263   6.711  1.00  0.00     0.053 C 
ENDROOT
BRANCH   1   2
ATOM      2  C   UNL     1       0.720  -8.708   7.456  1.00  0.00     0.041 C 
ATOM      3  O   UNL     1       1.860  -8.698   6.923  1.00  0.00    -0.550 OA
ATOM      4  O   UNL     1       0.562  -8.234   8.752  1.00  0.00    -0.550 OA
ENDBRANCH   1   2
BRANCH   1   5
ATOM      5  C   UNL     1      -1.435  -8.159   6.291  1.00  0.00     0.006 C 
BRANCH   5   6
ATOM      6  C   UNL     1      -2.847  -8.393   6.848  1.00  0.00    -0.003 C 
ATOM      7  C   UNL     1      -2.796  -9.155   8.171  1.00  0.00     0.004 C 
ENDBRANCH   5   6
ENDBRANCH   1   5
TORSDOF 3
ENDMDL
MODEL 7
REMARK VINA RESULT:    -2.982     11.125     12.307
REMARK INTER + INTRA:          -3.586
REMARK INTER:                  -3.561
REMARK INTRA:                  -0.025
REMARK UNBOUND:                -0.082
REMARK SMILES CCCCC(=O)[O-]
REMARK SMILES IDX 4 1 5 2 6 3 7 4 3 5 2 6 1 7
REMARK H PARENT
REMARK Flexibility Score: inf
ROOT
ATOM      1  C   UNL     1      -9.411 -11.032   2.158  1.00  0.00     0.053 C 
ENDROOT
BRANCH   1   2
ATOM      2  C   UNL     1     -10.348 -11.826   1.301  1.00  0.00     0.041 C 
ATOM      3  O   UNL     1     -11.550 -11.471   1.179  1.00  0.00    -0.550 OA
ATOM      4  O   UNL     1      -9.902 -12.977   0.663  1.00  0.00    -0.550 OA
ENDBRANCH   1   2
BRANCH   1   5
ATOM      5  C   UNL     1      -9.898 -10.951   3.611  1.00  0.00     0.006 C 
BRANCH   5   6
ATOM      6  C   UNL     1      -9.462  -9.649   4.298  1.00  0.00    -0.003 C 
ATOM      7  C   UNL     1     -10.670  -8.858   4.795  1.00  0.00     0.004 C 
ENDBRANCH   5   6
ENDBRANCH   1   5
TORSDOF 3
ENDMDL
MODEL 8
REMARK VINA RESULT:    -2.977     11.354     12.438
REMARK INTER + INTRA:          -3.581
REMARK INTER:                  -3.564
REMARK INTRA:                  -0.017
REMARK UNBOUND:                -0.082
REMARK SMILES CCCCC(=O)[O-]
REMARK SMILES IDX 4 1 5 2 6 3 7 4 3 5 2 6 1 7
REMARK H PARENT
REMARK Flexibility Score: inf
ROOT
ATOM      1  C   UNL     1      -9.381 -11.097   2.181  1.00  0.00     0.053 C 
ENDROOT
BRANCH   1   2
ATOM      2  C   UNL     1     -10.281 -11.921   1.313  1.00  0.00     0.041 C 
ATOM      3  O   UNL     1      -9.852 -12.978   0.780  1.00  0.00    -0.550 OA
ATOM      4  O   UNL     1     -11.582 -11.504   1.065  1.00  0.00    -0.550 OA
ENDBRANCH   1   2
BRANCH   1   5
ATOM      5  C   UNL     1     -10.102 -10.607   3.445  1.00  0.00     0.006 C 
BRANCH   5   6
ATOM      6  C   UNL     1      -9.171  -9.811   4.372  1.00  0.00    -0.003 C 
ATOM      7  C   UNL     1      -8.578 -10.706   5.457  1.00  0.00     0.004 C 
ENDBRANCH   5   6
ENDBRANCH   1   5
TORSDOF 3
ENDMDL
MODEL 9
REMARK VINA RESULT:    -2.950     10.262     10.886
REMARK INTER + INTRA:          -3.549
REMARK INTER:                  -3.491
REMARK INTRA:                  -0.059
REMARK UNBOUND:                -0.082
REMARK SMILES CCCCC(=O)[O-]
REMARK SMILES IDX 4 1 5 2 6 3 7 4 3 5 2 6 1 7
REMARK H PARENT
REMARK Flexibility Score: inf
ROOT
ATOM      1  C   UNL     1     -12.121   4.387  -4.600  1.00  0.00     0.053 C 
ENDROOT
BRANCH   1   2
ATOM      2  C   UNL     1     -11.347   3.823  -3.448  1.00  0.00     0.041 C 
ATOM      3  O   UNL     1     -11.950   3.286  -2.482  1.00  0.00    -0.550 OA
ATOM      4  O   UNL     1      -9.962   3.921  -3.426  1.00  0.00    -0.550 OA
ENDBRANCH   1   2
BRANCH   1   5
ATOM      5  C   UNL     1     -13.543   3.813  -4.667  1.00  0.00     0.006 C 
BRANCH   5   6
ATOM      6  C   UNL     1     -13.917   3.355  -6.084  1.00  0.00    -0.003 C 
ATOM      7  C   UNL     1     -12.677   2.942  -6.874  1.00  0.00     0.004 C 
ENDBRANCH   5   6
ENDBRANCH   1   5
TORSDOF 3
ENDMDL
