MODEL 1
REMARK VINA RESULT:    -2.652      0.000      0.000
REMARK INTER + INTRA:          -2.652
REMARK INTER:                  -2.652
REMARK INTRA:                   0.000
REMARK UNBOUND:                 0.000
REMARK SMILES CC(=O)[O-]
REMARK SMILES IDX 1 1 2 2 3 3 4 4
REMARK H PARENT
REMARK Flexibility Score: inf
ROOT
ATOM      1  C   UNL     1     -21.041   0.616   6.898  1.00  0.00     0.063 C 
ATOM      2  C   UNL     1     -21.019  -0.726   7.550  1.00  0.00     0.038 C 
ATOM      3  O   UNL     1     -20.989  -1.769   6.847  1.00  0.00    -0.550 OA
ATOM      4  O   UNL     1     -20.978  -0.825   8.935  1.00  0.00    -0.550 OA
ENDROOT
TORSDOF 0
ENDMDL
MODEL 2
REMARK VINA RESULT:    -2.640      1.849      2.157
REMARK INTER + INTRA:          -2.640
REMARK INTER:                  -2.640
REMARK INTRA:                   0.000
REMARK UNBOUND:                 0.000
REMARK SMILES CC(=O)[O-]
REMARK SMILES IDX 1 1 2 2 3 3 4 4
REMARK H PARENT
REMARK Flexibility Score: inf
ROOT
ATOM      1  C   UNL     1     -21.004  -0.356   6.584  1.00  0.00     0.063 C 
ATOM      2  C   UNL     1     -21.217   0.714   7.602  1.00  0.00     0.038 C 
ATOM      3  O   UNL     1     -21.301   1.917   7.244  1.00  0.00    -0.550 OA
ATOM      4  O   UNL     1     -21.376   0.378   8.940  1.00  0.00    -0.550 OA
ENDROOT
TORSDOF 0
ENDMDL
MODEL 3
REMARK VINA RESULT:    -2.620      1.306      2.066
REMARK INTER + INTRA:          -2.620
REMARK INTER:                  -2.620
REMARK INTRA:                   0.000
REMARK UNBOUND:                 0.000
REMARK SMILES CC(=O)[O-]
REMARK SMILES IDX 1 1 2 2 3 3 4 4
REMARK H PARENT
REMARK Flexibility Score: inf
ROOT
ATOM      1  C   UNL     1     -21.100   1.306   7.013  1.00  0.00     0.063 C 
ATOM      2  C   UNL     1     -21.267   0.464   8.233  1.00  0.00     0.038 C 
ATOM      3  O   UNL     1     -21.694   0.976   9.301  1.00  0.00    -0.550 OA
ATOM      4  O   UNL     1     -21.004  -0.899   8.179  1.00  0.00    -0.550 OA
ENDROOT
TORSDOF 0
ENDMDL
MODEL 4
REMARK VINA RESULT:    -2.603      1.634      1.786
REMARK INTER + INTRA:          -2.603
REMARK INTER:                  -2.603
REMARK INTRA:                   0.000
REMARK UNBOUND:                 0.000
REMARK SMILES CC(=O)[O-]
REMARK SMILES IDX 1 1 2 2 3 3 4 4
REMARK H PARENT
REMARK Flexibility Score: inf
ROOT
ATOM      1  C   UNL     1     -21.087  -1.230   6.933  1.00  0.00     0.063 C 
ATOM      2  C   UNL     1     -21.111  -0.675   8.318  1.00  0.00     0.038 C 
ATOM      3  O   UNL     1     -20.788  -1.400   9.294  1.00  0.00    -0.550 OA
ATOM      4  O   UNL     1     -21.437   0.659   8.527  1.00  0.00    -0.550 OA
ENDROOT
TORSDOF 0
ENDMDL
MODEL 5
REMARK VINA RESULT:    -2.600      0.109      1.619
REMARK INTER + INTRA:          -2.600
REMARK INTER:                  -2.600
REMARK INTRA:                   0.000
REMARK UNBOUND:                 0.000
REMARK SMILES CC(=O)[O-]
REMARK SMILES IDX 1 1 2 2 3 3 4 4
REMARK H PARENT
REMARK Flexibility Score: inf
ROOT
ATOM      1  C   UNL     1     -21.048   0.628   6.845  1.00  0.00     0.063 C 
ATOM      2  C   UNL     1     -21.003  -0.672   7.575  1.00  0.00     0.038 C 
ATOM      3  O   UNL     1     -21.020  -0.690   8.833  1.00  0.00    -0.550 OA
ATOM      4  O   UNL     1     -20.998  -1.867   6.867  1.00  0.00    -0.550 OA
ENDROOT
TORSDOF 0
ENDMDL
MODEL 6
REMARK VINA RESULT:    -2.494      2.216      2.413
REMARK INTER + INTRA:          -2.494
REMARK INTER:                  -2.494
REMARK INTRA:                   0.000
REMARK UNBOUND:                 0.000
REMARK SMILES CC(=O)[O-]
REMARK SMILES IDX 1 1 2 2 3 3 4 4
REMARK H PARENT
REMARK Flexibility Score: inf
ROOT
ATOM      1  C   UNL     1     -22.017   1.427   9.875  1.00  0.00     0.063 C 
ATOM      2  C   UNL     1     -21.402   0.634   8.770  1.00  0.00     0.038 C 
ATOM      3  O   UNL     1     -21.190   1.169   7.651  1.00  0.00    -0.550 OA
ATOM      4  O   UNL     1     -21.014  -0.681   8.991  1.00  0.00    -0.550 OA
ENDROOT
TORSDOF 0
ENDMDL
MODEL 7
REMARK VINA RESULT:    -2.486      1.600      2.149
REMARK INTER + INTRA:          -2.486
REMARK INTER:                  -2.486
REMARK INTRA:                   0.000
REMARK UNBOUND:                 0.000
REMARK SMILES CC(=O)[O-]
REMARK SMILES IDX 1 1 2 2 3 3 4 4
REMARK H PARENT
REMARK Flexibility Score: inf
ROOT
ATOM      1  C   UNL     1     -20.616  -1.830   9.866  1.00  0.00     0.063 C 
ATOM      2  C   UNL     1     -20.978  -0.972   8.701  1.00  0.00     0.038 C 
ATOM      3  O   UNL     1     -20.949  -1.445   7.535  1.00  0.00    -0.550 OA
ATOM      4  O   UNL     1     -21.400   0.336   8.905  1.00  0.00    -0.550 OA
ENDROOT
TORSDOF 0
ENDMDL
MODEL 8
REMARK VINA RESULT:    -2.479      2.300      2.644
REMARK INTER + INTRA:          -2.479
REMARK INTER:                  -2.479
REMARK INTRA:                   0.000
REMARK UNBOUND:                 0.000
REMARK SMILES CC(=O)[O-]
REMARK SMILES IDX 1 1 2 2 3 3 4 4
REMARK H PARENT
REMARK Flexibility Score: inf
ROOT
ATOM      1  C   UNL     1     -22.006   1.500  10.006  1.00  0.00     0.063 C 
ATOM      2  C   UNL     1     -21.425   0.649   8.927  1.00  0.00     0.038 C 
ATOM      3  O   UNL     1     -21.082  -0.537   9.174  1.00  0.00    -0.550 OA
ATOM      4  O   UNL     1     -21.311   1.145   7.635  1.00  0.00    -0.550 OA
ENDROOT
TORSDOF 0
ENDMDL
MODEL 9
REMARK VINA RESULT:    -2.465      1.608      2.669
REMARK INTER + INTRA:          -2.465
REMARK INTER:                  -2.465
REMARK INTRA:                   0.000
REMARK UNBOUND:                 0.000
REMARK SMILES CC(=O)[O-]
REMARK SMILES IDX 1 1 2 2 3 3 4 4
REMARK H PARENT
REMARK Flexibility Score: inf
ROOT
ATOM      1  C   UNL     1     -20.587  -1.868   9.833  1.00  0.00     0.063 C 
ATOM      2  C   UNL     1     -21.044  -0.895   8.799  1.00  0.00     0.038 C 
ATOM      3  O   UNL     1     -21.410   0.260   9.137  1.00  0.00    -0.550 OA
ATOM      4  O   UNL     1     -21.015  -1.244   7.454  1.00  0.00    -0.550 OA
ENDROOT
TORSDOF 0
ENDMDL
