MODEL 1
REMARK VINA RESULT:    -4.835      0.000      0.000
REMARK INTER + INTRA:          -6.454
REMARK INTER:                  -6.248
REMARK INTRA:                  -0.205
REMARK UNBOUND:                -0.205
REMARK SMILES CCO[C@H]1O[C@H](CO)[C@H](O)[C@@H](O)[C@@H]1O
REMARK SMILES IDX 4 1 13 2 11 3 9 4 6 5 5 6 3 7 2 8 1 9 14 10 12 12 7 14 8 15
REMARK SMILES IDX 10 17
REMARK H PARENT 14 11 12 13 8 16 10 18
REMARK Flexibility Score: inf
ROOT
ATOM      1  C   UNL     1      16.880   5.024  41.623  1.00  0.00     0.281 C 
ATOM      2  C   UNL     1      15.481   5.027  42.285  1.00  0.00     0.202 C 
ATOM      3  C   UNL     1      14.533   6.053  41.623  1.00  0.00     0.179 C 
ATOM      4  C   UNL     1      15.234   7.409  41.405  1.00  0.00     0.177 C 
ATOM      5  C   UNL     1      16.614   7.187  40.747  1.00  0.00     0.178 C 
ATOM      6  O   UNL     1      17.420   6.337  41.549  1.00  0.00    -0.341 OA
ENDROOT
BRANCH   1   7
ATOM      7  O   UNL     1      16.807   4.419  40.341  1.00  0.00    -0.350 OA
BRANCH   7   8
ATOM      8  C   UNL     1      17.027   3.023  40.422  1.00  0.00     0.160 C 
ATOM      9  C   UNL     1      18.502   2.738  40.685  1.00  0.00     0.035 C 
ENDBRANCH   7   8
ENDBRANCH   1   7
BRANCH   2  10
ATOM     10  O   UNL     1      15.569   5.250  43.672  1.00  0.00    -0.385 OA
ATOM     11  H   UNL     1      14.663   5.152  44.064  1.00  0.00     0.211 HD
ENDBRANCH   2  10
BRANCH   3  12
ATOM     12  O   UNL     1      14.091   5.565  40.381  1.00  0.00    -0.387 OA
ATOM     13  H   UNL     1      14.825   5.722  39.731  1.00  0.00     0.211 HD
ENDBRANCH   3  12
BRANCH   5  14
ATOM     14  C   UNL     1      17.346   8.521  40.541  1.00  0.00     0.191 C 
BRANCH  14  15
ATOM     15  O   UNL     1      18.208   8.438  39.437  1.00  0.00    -0.394 OA
ATOM     16  H   UNL     1      18.740   7.608  39.551  1.00  0.00     0.210 HD
ENDBRANCH  14  15
ENDBRANCH   5  14
BRANCH   4  17
ATOM     17  O   UNL     1      15.386   8.084  42.628  1.00  0.00    -0.387 OA
ATOM     18  H   UNL     1      14.963   8.976  42.519  1.00  0.00     0.211 HD
ENDBRANCH   4  17
TORSDOF 7
ENDMDL
MODEL 2
REMARK VINA RESULT:    -4.741      1.603      2.982
REMARK INTER + INTRA:          -6.332
REMARK INTER:                  -5.886
REMARK INTRA:                  -0.446
REMARK UNBOUND:                -0.205
REMARK SMILES CCO[C@H]1O[C@H](CO)[C@H](O)[C@@H](O)[C@@H]1O
REMARK SMILES IDX 4 1 13 2 11 3 9 4 6 5 5 6 3 7 2 8 1 9 14 10 12 12 7 14 8 15
REMARK SMILES IDX 10 17
REMARK H PARENT 14 11 12 13 8 16 10 18
REMARK Flexibility Score: inf
ROOT
ATOM      1  C   UNL     1      16.149   5.403  40.747  1.00  0.00     0.281 C 
ATOM      2  C   UNL     1      17.006   4.871  41.921  1.00  0.00     0.202 C 
ATOM      3  C   UNL     1      17.339   5.986  42.941  1.00  0.00     0.179 C 
ATOM      4  C   UNL     1      17.798   7.276  42.234  1.00  0.00     0.177 C 
ATOM      5  C   UNL     1      16.820   7.627  41.091  1.00  0.00     0.178 C 
ATOM      6  O   UNL     1      16.734   6.559  40.161  1.00  0.00    -0.341 OA
ENDROOT
BRANCH   1   7
ATOM      7  O   UNL     1      14.824   5.659  41.192  1.00  0.00    -0.350 OA
BRANCH   7   8
ATOM      8  C   UNL     1      14.136   4.453  41.468  1.00  0.00     0.160 C 
ATOM      9  C   UNL     1      12.812   4.751  42.161  1.00  0.00     0.035 C 
ENDBRANCH   7   8
ENDBRANCH   1   7
BRANCH   2  10
ATOM     10  O   UNL     1      18.180   4.249  41.460  1.00  0.00    -0.385 OA
ATOM     11  H   UNL     1      18.860   4.951  41.286  1.00  0.00     0.211 HD
ENDBRANCH   2  10
BRANCH   3  12
ATOM     12  O   UNL     1      16.207   6.274  43.723  1.00  0.00    -0.387 OA
ATOM     13  H   UNL     1      15.624   6.867  43.179  1.00  0.00     0.211 HD
ENDBRANCH   3  12
BRANCH   5  14
ATOM     14  C   UNL     1      17.268   8.897  40.353  1.00  0.00     0.191 C 
BRANCH  14  15
ATOM     15  O   UNL     1      18.231   8.583  39.383  1.00  0.00    -0.394 OA
ATOM     16  H   UNL     1      18.698   7.765  39.696  1.00  0.00     0.210 HD
ENDBRANCH  14  15
ENDBRANCH   5  14
BRANCH   4  17
ATOM     17  O   UNL     1      19.099   7.119  41.724  1.00  0.00    -0.387 OA
ATOM     18  H   UNL     1      19.236   6.147  41.581  1.00  0.00     0.211 HD
ENDBRANCH   4  17
TORSDOF 7
ENDMDL
MODEL 3
REMARK VINA RESULT:    -4.695      7.082      9.015
REMARK INTER + INTRA:          -6.273
REMARK INTER:                  -6.078
REMARK INTRA:                  -0.195
REMARK UNBOUND:                -0.205
REMARK SMILES CCO[C@H]1O[C@H](CO)[C@H](O)[C@@H](O)[C@@H]1O
REMARK SMILES IDX 4 1 13 2 11 3 9 4 6 5 5 6 3 7 2 8 1 9 14 10 12 12 7 14 8 15
REMARK SMILES IDX 10 17
REMARK H PARENT 14 11 12 13 8 16 10 18
REMARK Flexibility Score: inf
ROOT
ATOM      1  C   UNL     1      11.471  -0.441  40.722  1.00  0.00     0.281 C 
ATOM      2  C   UNL     1      11.234   1.047  40.368  1.00  0.00     0.202 C 
ATOM      3  C   UNL     1      10.389   1.767  41.444  1.00  0.00     0.179 C 
ATOM      4  C   UNL     1       9.172   0.920  41.866  1.00  0.00     0.177 C 
ATOM      5  C   UNL     1       9.618  -0.529  42.163  1.00  0.00     0.178 C 
ATOM      6  O   UNL     1      10.249  -1.102  41.027  1.00  0.00    -0.341 OA
ENDROOT
BRANCH   1   7
ATOM      7  O   UNL     1      12.398  -0.541  41.793  1.00  0.00    -0.350 OA
BRANCH   7   8
ATOM      8  C   UNL     1      13.731  -0.489  41.321  1.00  0.00     0.160 C 
ATOM      9  C   UNL     1      14.269  -1.899  41.106  1.00  0.00     0.035 C 
ENDBRANCH   7   8
ENDBRANCH   1   7
BRANCH   2  10
ATOM     10  O   UNL     1      10.646   1.185  39.097  1.00  0.00    -0.385 OA
ATOM     11  H   UNL     1       9.826   0.628  39.068  1.00  0.00     0.211 HD
ENDBRANCH   2  10
BRANCH   3  12
ATOM     12  O   UNL     1      11.178   2.025  42.579  1.00  0.00    -0.387 OA
ATOM     13  H   UNL     1      11.634   2.893  42.422  1.00  0.00     0.211 HD
ENDBRANCH   3  12
BRANCH   5  14
ATOM     14  C   UNL     1       8.420  -1.403  42.561  1.00  0.00     0.191 C 
BRANCH  14  15
ATOM     15  O   UNL     1       8.855  -2.537  43.263  1.00  0.00    -0.394 OA
ATOM     16  H   UNL     1       9.790  -2.358  43.545  1.00  0.00     0.210 HD
ENDBRANCH  14  15
ENDBRANCH   5  14
BRANCH   4  17
ATOM     17  O   UNL     1       8.197   0.926  40.853  1.00  0.00    -0.387 OA
ATOM     18  H   UNL     1       7.771   1.823  40.870  1.00  0.00     0.211 HD
ENDBRANCH   4  17
TORSDOF 7
ENDMDL
MODEL 4
REMARK VINA RESULT:    -4.677      7.577      9.672
REMARK INTER + INTRA:          -6.249
REMARK INTER:                  -5.844
REMARK INTRA:                  -0.405
REMARK UNBOUND:                -0.205
REMARK SMILES CCO[C@H]1O[C@H](CO)[C@H](O)[C@@H](O)[C@@H]1O
REMARK SMILES IDX 4 1 13 2 11 3 9 4 6 5 5 6 3 7 2 8 1 9 14 10 12 12 7 14 8 15
REMARK SMILES IDX 10 17
REMARK H PARENT 14 11 12 13 8 16 10 18
REMARK Flexibility Score: inf
ROOT
ATOM      1  C   UNL     1      11.390   0.085  41.721  1.00  0.00     0.281 C 
ATOM      2  C   UNL     1      11.720  -0.528  40.338  1.00  0.00     0.202 C 
ATOM      3  C   UNL     1      10.441  -0.838  39.526  1.00  0.00     0.179 C 
ATOM      4  C   UNL     1       9.379  -1.541  40.395  1.00  0.00     0.177 C 
ATOM      5  C   UNL     1       9.208  -0.784  41.731  1.00  0.00     0.178 C 
ATOM      6  O   UNL     1      10.443  -0.708  42.426  1.00  0.00    -0.341 OA
ENDROOT
BRANCH   1   7
ATOM      7  O   UNL     1      10.934   1.420  41.562  1.00  0.00    -0.350 OA
BRANCH   7   8
ATOM      8  C   UNL     1      12.020   2.315  41.404  1.00  0.00     0.160 C 
ATOM      9  C   UNL     1      11.676   3.670  42.012  1.00  0.00     0.035 C 
ENDBRANCH   7   8
ENDBRANCH   1   7
BRANCH   2  10
ATOM     10  O   UNL     1      12.523  -1.676  40.463  1.00  0.00    -0.385 OA
ATOM     11  H   UNL     1      12.245  -2.166  41.279  1.00  0.00     0.211 HD
ENDBRANCH   2  10
BRANCH   3  12
ATOM     12  O   UNL     1       9.896   0.353  39.017  1.00  0.00    -0.387 OA
ATOM     13  H   UNL     1       9.196   0.093  38.362  1.00  0.00     0.211 HD
ENDBRANCH   3  12
BRANCH   5  14
ATOM     14  C   UNL     1       8.172  -1.477  42.628  1.00  0.00     0.191 C 
BRANCH  14  15
ATOM     15  O   UNL     1       8.764  -2.542  43.323  1.00  0.00    -0.394 OA
ATOM     16  H   UNL     1       8.855  -2.252  44.268  1.00  0.00     0.210 HD
ENDBRANCH  14  15
ENDBRANCH   5  14
BRANCH   4  17
ATOM     17  O   UNL     1       9.751  -2.874  40.641  1.00  0.00    -0.387 OA
ATOM     18  H   UNL     1      10.204  -2.888  41.524  1.00  0.00     0.211 HD
ENDBRANCH   4  17
TORSDOF 7
ENDMDL
MODEL 5
REMARK VINA RESULT:    -4.632      8.684     10.551
REMARK INTER + INTRA:          -6.191
REMARK INTER:                  -5.855
REMARK INTRA:                  -0.336
REMARK UNBOUND:                -0.205
REMARK SMILES CCO[C@H]1O[C@H](CO)[C@H](O)[C@@H](O)[C@@H]1O
REMARK SMILES IDX 4 1 13 2 11 3 9 4 6 5 5 6 3 7 2 8 1 9 14 10 12 12 7 14 8 15
REMARK SMILES IDX 10 17
REMARK H PARENT 14 11 12 13 8 16 10 18
REMARK Flexibility Score: inf
ROOT
ATOM      1  C   UNL     1       9.865   0.052  41.155  1.00  0.00     0.281 C 
ATOM      2  C   UNL     1       8.570  -0.045  41.997  1.00  0.00     0.202 C 
ATOM      3  C   UNL     1       8.211  -1.511  42.334  1.00  0.00     0.179 C 
ATOM      4  C   UNL     1       8.340  -2.421  41.095  1.00  0.00     0.177 C 
ATOM      5  C   UNL     1       9.690  -2.162  40.392  1.00  0.00     0.178 C 
ATOM      6  O   UNL     1       9.807  -0.798  40.017  1.00  0.00    -0.341 OA
ENDROOT
BRANCH   1   7
ATOM      7  O   UNL     1      10.992  -0.241  41.966  1.00  0.00    -0.350 OA
BRANCH   7   8
ATOM      8  C   UNL     1      12.172   0.324  41.425  1.00  0.00     0.160 C 
ATOM      9  C   UNL     1      13.299  -0.702  41.436  1.00  0.00     0.035 C 
ENDBRANCH   7   8
ENDBRANCH   1   7
BRANCH   2  10
ATOM     10  O   UNL     1       7.493   0.600  41.361  1.00  0.00    -0.385 OA
ATOM     11  H   UNL     1       7.702   0.679  40.395  1.00  0.00     0.211 HD
ENDBRANCH   2  10
BRANCH   3  12
ATOM     12  O   UNL     1       9.062  -1.994  43.343  1.00  0.00    -0.387 OA
ATOM     13  H   UNL     1       8.601  -1.838  44.208  1.00  0.00     0.211 HD
ENDBRANCH   3  12
BRANCH   5  14
ATOM     14  C   UNL     1       9.835  -3.038  39.139  1.00  0.00     0.191 C 
BRANCH  14  15
ATOM     15  O   UNL     1       9.461  -4.360  39.422  1.00  0.00    -0.394 OA
ATOM     16  H   UNL     1      10.262  -4.925  39.267  1.00  0.00     0.210 HD
ENDBRANCH  14  15
ENDBRANCH   5  14
BRANCH   4  17
ATOM     17  O   UNL     1       7.279  -2.187  40.203  1.00  0.00    -0.387 OA
ATOM     18  H   UNL     1       7.647  -2.282  39.286  1.00  0.00     0.211 HD
ENDBRANCH   4  17
TORSDOF 7
ENDMDL
MODEL 6
REMARK VINA RESULT:    -4.535      2.486      4.994
REMARK INTER + INTRA:          -6.065
REMARK INTER:                  -5.712
REMARK INTRA:                  -0.353
REMARK UNBOUND:                -0.205
REMARK SMILES CCO[C@H]1O[C@H](CO)[C@H](O)[C@@H](O)[C@@H]1O
REMARK SMILES IDX 4 1 13 2 11 3 9 4 6 5 5 6 3 7 2 8 1 9 14 10 12 12 7 14 8 15
REMARK SMILES IDX 10 17
REMARK H PARENT 14 11 12 13 8 16 10 18
REMARK Flexibility Score: inf
ROOT
ATOM      1  C   UNL     1      16.899   9.396  41.298  1.00  0.00     0.281 C 
ATOM      2  C   UNL     1      17.089   8.295  40.226  1.00  0.00     0.202 C 
ATOM      3  C   UNL     1      16.941   6.877  40.825  1.00  0.00     0.179 C 
ATOM      4  C   UNL     1      17.719   6.741  42.150  1.00  0.00     0.177 C 
ATOM      5  C   UNL     1      17.402   7.939  43.071  1.00  0.00     0.178 C 
ATOM      6  O   UNL     1      17.727   9.164  42.431  1.00  0.00    -0.341 OA
ENDROOT
BRANCH   1   7
ATOM      7  O   UNL     1      15.530   9.482  41.665  1.00  0.00    -0.350 OA
BRANCH   7   8
ATOM      8  C   UNL     1      15.117  10.832  41.779  1.00  0.00     0.160 C 
ATOM      9  C   UNL     1      13.601  10.929  41.653  1.00  0.00     0.035 C 
ENDBRANCH   7   8
ENDBRANCH   1   7
BRANCH   2  10
ATOM     10  O   UNL     1      18.322   8.431  39.563  1.00  0.00    -0.385 OA
ATOM     11  H   UNL     1      18.161   8.872  38.689  1.00  0.00     0.211 HD
ENDBRANCH   2  10
BRANCH   3  12
ATOM     12  O   UNL     1      15.585   6.596  41.065  1.00  0.00    -0.387 OA
ATOM     13  H   UNL     1      15.174   6.387  40.185  1.00  0.00     0.211 HD
ENDBRANCH   3  12
BRANCH   5  14
ATOM     14  C   UNL     1      18.184   7.842  44.389  1.00  0.00     0.191 C 
BRANCH  14  15
ATOM     15  O   UNL     1      19.495   8.309  44.214  1.00  0.00    -0.394 OA
ATOM     16  H   UNL     1      20.047   7.525  43.956  1.00  0.00     0.210 HD
ENDBRANCH  14  15
ENDBRANCH   5  14
BRANCH   4  17
ATOM     17  O   UNL     1      19.102   6.676  41.901  1.00  0.00    -0.387 OA
ATOM     18  H   UNL     1      19.558   6.943  42.741  1.00  0.00     0.211 HD
ENDBRANCH   4  17
TORSDOF 7
ENDMDL
MODEL 7
REMARK VINA RESULT:    -4.517      2.020      3.068
REMARK INTER + INTRA:          -6.042
REMARK INTER:                  -5.863
REMARK INTRA:                  -0.179
REMARK UNBOUND:                -0.205
REMARK SMILES CCO[C@H]1O[C@H](CO)[C@H](O)[C@@H](O)[C@@H]1O
REMARK SMILES IDX 4 1 13 2 11 3 9 4 6 5 5 6 3 7 2 8 1 9 14 10 12 12 7 14 8 15
REMARK SMILES IDX 10 17
REMARK H PARENT 14 11 12 13 8 16 10 18
REMARK Flexibility Score: inf
ROOT
ATOM      1  C   UNL     1      16.488   6.441  41.789  1.00  0.00     0.281 C 
ATOM      2  C   UNL     1      16.109   7.860  41.299  1.00  0.00     0.202 C 
ATOM      3  C   UNL     1      17.341   8.640  40.785  1.00  0.00     0.179 C 
ATOM      4  C   UNL     1      18.537   8.502  41.748  1.00  0.00     0.177 C 
ATOM      5  C   UNL     1      18.740   7.017  42.124  1.00  0.00     0.178 C 
ATOM      6  O   UNL     1      17.565   6.485  42.716  1.00  0.00    -0.341 OA
ENDROOT
BRANCH   1   7
ATOM      7  O   UNL     1      16.792   5.611  40.678  1.00  0.00    -0.350 OA
BRANCH   7   8
ATOM      8  C   UNL     1      16.303   4.297  40.873  1.00  0.00     0.160 C 
ATOM      9  C   UNL     1      17.356   3.277  40.456  1.00  0.00     0.035 C 
ENDBRANCH   7   8
ENDBRANCH   1   7
BRANCH   2  10
ATOM     10  O   UNL     1      15.439   8.588  42.300  1.00  0.00    -0.385 OA
ATOM     11  H   UNL     1      15.288   7.988  43.076  1.00  0.00     0.211 HD
ENDBRANCH   2  10
BRANCH   3  12
ATOM     12  O   UNL     1      17.719   8.159  39.519  1.00  0.00    -0.387 OA
ATOM     13  H   UNL     1      18.671   8.409  39.388  1.00  0.00     0.211 HD
ENDBRANCH   3  12
BRANCH   5  14
ATOM     14  C   UNL     1      19.912   6.853  43.103  1.00  0.00     0.191 C 
BRANCH  14  15
ATOM     15  O   UNL     1      21.134   7.026  42.436  1.00  0.00    -0.394 OA
ATOM     16  H   UNL     1      21.551   7.845  42.810  1.00  0.00     0.210 HD
ENDBRANCH  14  15
ENDBRANCH   5  14
BRANCH   4  17
ATOM     17  O   UNL     1      18.324   9.268  42.907  1.00  0.00    -0.387 OA
ATOM     18  H   UNL     1      19.074   9.915  42.966  1.00  0.00     0.211 HD
ENDBRANCH   4  17
TORSDOF 7
ENDMDL
MODEL 8
REMARK VINA RESULT:    -4.364      2.062      3.970
REMARK INTER + INTRA:          -5.845
REMARK INTER:                  -5.457
REMARK INTRA:                  -0.388
REMARK UNBOUND:                -0.205
REMARK SMILES CCO[C@H]1O[C@H](CO)[C@H](O)[C@@H](O)[C@@H]1O
REMARK SMILES IDX 4 1 13 2 11 3 9 4 6 5 5 6 3 7 2 8 1 9 14 10 12 12 7 14 8 15
REMARK SMILES IDX 10 17
REMARK H PARENT 14 11 12 13 8 16 10 18
REMARK Flexibility Score: inf
ROOT
ATOM      1  C   UNL     1      17.423   7.162  43.449  1.00  0.00     0.281 C 
ATOM      2  C   UNL     1      17.457   8.562  42.791  1.00  0.00     0.202 C 
ATOM      3  C   UNL     1      16.371   8.713  41.700  1.00  0.00     0.179 C 
ATOM      4  C   UNL     1      16.326   7.479  40.777  1.00  0.00     0.177 C 
ATOM      5  C   UNL     1      16.309   6.188  41.625  1.00  0.00     0.178 C 
ATOM      6  O   UNL     1      17.447   6.130  42.471  1.00  0.00    -0.341 OA
ENDROOT
BRANCH   1   7
ATOM      7  O   UNL     1      16.286   7.052  44.293  1.00  0.00    -0.350 OA
BRANCH   7   8
ATOM      8  C   UNL     1      16.604   6.370  45.492  1.00  0.00     0.160 C 
ATOM      9  C   UNL     1      15.791   5.086  45.598  1.00  0.00     0.035 C 
ENDBRANCH   7   8
ENDBRANCH   1   7
BRANCH   2  10
ATOM     10  O   UNL     1      18.731   8.855  42.270  1.00  0.00    -0.385 OA
ATOM     11  H   UNL     1      18.746   9.807  41.994  1.00  0.00     0.211 HD
ENDBRANCH   2  10
BRANCH   3  12
ATOM     12  O   UNL     1      15.110   8.878  42.299  1.00  0.00    -0.387 OA
ATOM     13  H   UNL     1      14.573   8.075  42.069  1.00  0.00     0.211 HD
ENDBRANCH   3  12
BRANCH   5  14
ATOM     14  C   UNL     1      16.289   4.941  40.729  1.00  0.00     0.191 C 
BRANCH  14  15
ATOM     15  O   UNL     1      17.591   4.453  40.543  1.00  0.00    -0.394 OA
ATOM     16  H   UNL     1      18.018   5.030  39.858  1.00  0.00     0.210 HD
ENDBRANCH  14  15
ENDBRANCH   5  14
BRANCH   4  17
ATOM     17  O   UNL     1      17.434   7.474  39.912  1.00  0.00    -0.387 OA
ATOM     18  H   UNL     1      17.132   7.873  39.055  1.00  0.00     0.211 HD
ENDBRANCH   4  17
TORSDOF 7
ENDMDL
MODEL 9
REMARK VINA RESULT:    -4.355      1.788      3.717
REMARK INTER + INTRA:          -5.833
REMARK INTER:                  -5.382
REMARK INTRA:                  -0.451
REMARK UNBOUND:                -0.205
REMARK SMILES CCO[C@H]1O[C@H](CO)[C@H](O)[C@@H](O)[C@@H]1O
REMARK SMILES IDX 4 1 13 2 11 3 9 4 6 5 5 6 3 7 2 8 1 9 14 10 12 12 7 14 8 15
REMARK SMILES IDX 10 17
REMARK H PARENT 14 11 12 13 8 16 10 18
REMARK Flexibility Score: inf
ROOT
ATOM      1  C   UNL     1      16.468   6.969  40.841  1.00  0.00     0.281 C 
ATOM      2  C   UNL     1      17.755   7.830  40.850  1.00  0.00     0.202 C 
ATOM      3  C   UNL     1      17.742   8.872  41.992  1.00  0.00     0.179 C 
ATOM      4  C   UNL     1      16.384   9.597  42.078  1.00  0.00     0.177 C 
ATOM      5  C   UNL     1      15.234   8.566  42.042  1.00  0.00     0.178 C 
ATOM      6  O   UNL     1      15.302   7.781  40.861  1.00  0.00    -0.341 OA
ENDROOT
BRANCH   1   7
ATOM      7  O   UNL     1      16.488   6.059  41.931  1.00  0.00    -0.350 OA
BRANCH   7   8
ATOM      8  C   UNL     1      17.342   4.962  41.666  1.00  0.00     0.160 C 
ATOM      9  C   UNL     1      16.739   4.077  40.582  1.00  0.00     0.035 C 
ENDBRANCH   7   8
ENDBRANCH   1   7
BRANCH   2  10
ATOM     10  O   UNL     1      17.964   8.454  39.606  1.00  0.00    -0.385 OA
ATOM     11  H   UNL     1      17.653   7.841  38.891  1.00  0.00     0.211 HD
ENDBRANCH   2  10
BRANCH   3  12
ATOM     12  O   UNL     1      17.997   8.239  43.221  1.00  0.00    -0.387 OA
ATOM     13  H   UNL     1      17.278   7.567  43.355  1.00  0.00     0.211 HD
ENDBRANCH   3  12
BRANCH   5  14
ATOM     14  C   UNL     1      13.868   9.263  42.100  1.00  0.00     0.191 C 
BRANCH  14  15
ATOM     15  O   UNL     1      13.970  10.479  42.792  1.00  0.00    -0.394 OA
ATOM     16  H   UNL     1      14.882  10.512  43.181  1.00  0.00     0.210 HD
ENDBRANCH  14  15
ENDBRANCH   5  14
BRANCH   4  17
ATOM     17  O   UNL     1      16.247  10.508  41.016  1.00  0.00    -0.387 OA
ATOM     18  H   UNL     1      17.018  10.359  40.408  1.00  0.00     0.211 HD
ENDBRANCH   4  17
TORSDOF 7
ENDMDL
