MODEL 1
REMARK VINA RESULT:    -3.274      0.000      0.000
REMARK INTER + INTRA:          -8.347
REMARK INTER:                  -5.953
REMARK INTRA:                  -2.394
REMARK UNBOUND:                -2.394
REMARK SMILES CCCCCCCCCCCCCCCC(=O)[O-]
REMARK SMILES IDX 9 1 10 2 11 3 12 4 13 5 14 6 15 7 16 8 17 9 18 10 8 11 7 12
REMARK SMILES IDX 6 13 5 14 4 15 3 16 2 17 1 18
REMARK H PARENT
REMARK Flexibility Score: inf
ROOT
ATOM      1  C   UNL     1      62.495  31.274  57.650  1.00  0.00     0.000 C 
ENDROOT
BRANCH   1   2
ATOM      2  C   UNL     1      61.278  32.023  58.209  1.00  0.00     0.000 C 
BRANCH   2   3
ATOM      3  C   UNL     1      60.712  31.307  59.445  1.00  0.00     0.000 C 
BRANCH   3   4
ATOM      4  C   UNL     1      61.579  31.513  60.699  1.00  0.00     0.000 C 
BRANCH   4   5
ATOM      5  C   UNL     1      61.884  30.195  61.428  1.00  0.00     0.000 C 
BRANCH   5   6
ATOM      6  C   UNL     1      63.216  29.559  60.989  1.00  0.00     0.006 C 
BRANCH   6   7
ATOM      7  C   UNL     1      64.344  30.577  60.741  1.00  0.00     0.053 C 
BRANCH   7   8
ATOM      8  C   UNL     1      65.554  29.953  60.116  1.00  0.00     0.041 C 
ATOM      9  O   UNL     1      66.113  28.967  60.666  1.00  0.00    -0.550 OA
ATOM     10  O   UNL     1      66.046  30.435  58.910  1.00  0.00    -0.550 OA
ENDBRANCH   7   8
ENDBRANCH   6   7
ENDBRANCH   5   6
ENDBRANCH   4   5
ENDBRANCH   3   4
ENDBRANCH   2   3
ENDBRANCH   1   2
BRANCH   1  11
ATOM     11  C   UNL     1      63.612  32.253  57.259  1.00  0.00     0.000 C 
BRANCH  11  12
ATOM     12  C   UNL     1      63.559  33.561  58.064  1.00  0.00    -0.000 C 
BRANCH  12  13
ATOM     13  C   UNL     1      64.882  33.863  58.791  1.00  0.00    -0.000 C 
BRANCH  13  14
ATOM     14  C   UNL     1      64.678  34.158  60.285  1.00  0.00    -0.000 C 
BRANCH  14  15
ATOM     15  C   UNL     1      63.236  34.587  60.610  1.00  0.00    -0.000 C 
BRANCH  15  16
ATOM     16  C   UNL     1      63.102  36.104  60.813  1.00  0.00    -0.000 C 
BRANCH  16  17
ATOM     17  C   UNL     1      61.699  36.624  60.468  1.00  0.00    -0.003 C 
ATOM     18  C   UNL     1      60.854  35.534  59.814  1.00  0.00     0.004 C 
ENDBRANCH  16  17
ENDBRANCH  15  16
ENDBRANCH  14  15
ENDBRANCH  13  14
ENDBRANCH  12  13
ENDBRANCH  11  12
ENDBRANCH   1  11
TORSDOF 14
ENDMDL
MODEL 2
REMARK VINA RESULT:    -3.163      1.435      2.692
REMARK INTER + INTRA:          -8.146
REMARK INTER:                  -6.275
REMARK INTRA:                  -1.871
REMARK UNBOUND:                -2.394
REMARK SMILES CCCCCCCCCCCCCCCC(=O)[O-]
REMARK SMILES IDX 9 1 10 2 11 3 12 4 13 5 14 6 15 7 16 8 17 9 18 10 8 11 7 12
REMARK SMILES IDX 6 13 5 14 4 15 3 16 2 17 1 18
REMARK H PARENT
REMARK Flexibility Score: inf
ROOT
ATOM      1  C   UNL     1      61.452  32.468  58.794  1.00  0.00     0.000 C 
ENDROOT
BRANCH   1   2
ATOM      2  C   UNL     1      60.996  31.168  59.469  1.00  0.00     0.000 C 
BRANCH   2   3
ATOM      3  C   UNL     1      61.019  31.306  60.999  1.00  0.00     0.000 C 
BRANCH   3   4
ATOM      4  C   UNL     1      61.937  30.273  61.675  1.00  0.00     0.000 C 
BRANCH   4   5
ATOM      5  C   UNL     1      62.661  29.374  60.659  1.00  0.00     0.000 C 
BRANCH   5   6
ATOM      6  C   UNL     1      64.188  29.562  60.672  1.00  0.00     0.006 C 
BRANCH   6   7
ATOM      7  C   UNL     1      64.642  31.016  60.452  1.00  0.00     0.053 C 
BRANCH   7   8
ATOM      8  C   UNL     1      65.297  31.219  59.119  1.00  0.00     0.041 C 
ATOM      9  O   UNL     1      64.925  32.159  58.368  1.00  0.00    -0.550 OA
ATOM     10  O   UNL     1      66.341  30.394  58.720  1.00  0.00    -0.550 OA
ENDBRANCH   7   8
ENDBRANCH   6   7
ENDBRANCH   5   6
ENDBRANCH   4   5
ENDBRANCH   3   4
ENDBRANCH   2   3
ENDBRANCH   1   2
BRANCH   1  11
ATOM     11  C   UNL     1      61.891  33.505  59.839  1.00  0.00     0.000 C 
BRANCH  11  12
ATOM     12  C   UNL     1      61.081  34.809  59.753  1.00  0.00    -0.000 C 
BRANCH  12  13
ATOM     13  C   UNL     1      61.975  36.051  59.586  1.00  0.00    -0.000 C 
BRANCH  13  14
ATOM     14  C   UNL     1      62.380  36.671  60.932  1.00  0.00    -0.000 C 
BRANCH  14  15
ATOM     15  C   UNL     1      63.850  37.125  60.955  1.00  0.00    -0.000 C 
BRANCH  15  16
ATOM     16  C   UNL     1      64.763  36.136  61.696  1.00  0.00    -0.000 C 
BRANCH  16  17
ATOM     17  C   UNL     1      65.155  34.931  60.829  1.00  0.00    -0.003 C 
ATOM     18  C   UNL     1      65.649  35.378  59.456  1.00  0.00     0.004 C 
ENDBRANCH  16  17
ENDBRANCH  15  16
ENDBRANCH  14  15
ENDBRANCH  13  14
ENDBRANCH  12  13
ENDBRANCH  11  12
ENDBRANCH   1  11
TORSDOF 14
ENDMDL
MODEL 3
REMARK VINA RESULT:    -3.135     10.345     12.773
REMARK INTER + INTRA:          -8.096
REMARK INTER:                  -5.738
REMARK INTRA:                  -2.357
REMARK UNBOUND:                -2.394
REMARK SMILES CCCCCCCCCCCCCCCC(=O)[O-]
REMARK SMILES IDX 9 1 10 2 11 3 12 4 13 5 14 6 15 7 16 8 17 9 18 10 8 11 7 12
REMARK SMILES IDX 6 13 5 14 4 15 3 16 2 17 1 18
REMARK H PARENT
REMARK Flexibility Score: inf
ROOT
ATOM      1  C   UNL     1      58.191  27.345  51.988  1.00  0.00     0.000 C 
ENDROOT
BRANCH   1   2
ATOM      2  C   UNL     1      57.012  26.628  52.659  1.00  0.00     0.000 C 
BRANCH   2   3
ATOM      3  C   UNL     1      56.255  25.752  51.649  1.00  0.00     0.000 C 
BRANCH   3   4
ATOM      4  C   UNL     1      56.538  26.148  50.190  1.00  0.00     0.000 C 
BRANCH   4   5
ATOM      5  C   UNL     1      55.261  26.532  49.425  1.00  0.00     0.000 C 
BRANCH   5   6
ATOM      6  C   UNL     1      54.396  27.560  50.176  1.00  0.00     0.006 C 
BRANCH   6   7
ATOM      7  C   UNL     1      54.988  28.981  50.197  1.00  0.00     0.053 C 
BRANCH   7   8
ATOM      8  C   UNL     1      54.517  29.783  51.371  1.00  0.00     0.041 C 
ATOM      9  O   UNL     1      53.907  30.870  51.191  1.00  0.00    -0.550 OA
ATOM     10  O   UNL     1      54.718  29.315  52.664  1.00  0.00    -0.550 OA
ENDBRANCH   7   8
ENDBRANCH   6   7
ENDBRANCH   5   6
ENDBRANCH   4   5
ENDBRANCH   3   4
ENDBRANCH   2   3
ENDBRANCH   1   2
BRANCH   1  11
ATOM     11  C   UNL     1      58.285  28.805  52.456  1.00  0.00     0.000 C 
BRANCH  11  12
ATOM     12  C   UNL     1      58.576  29.778  51.302  1.00  0.00    -0.000 C 
BRANCH  12  13
ATOM     13  C   UNL     1      58.446  29.111  49.920  1.00  0.00    -0.000 C 
BRANCH  13  14
ATOM     14  C   UNL     1      59.702  29.301  49.056  1.00  0.00    -0.000 C 
BRANCH  14  15
ATOM     15  C   UNL     1      60.759  28.210  49.303  1.00  0.00    -0.000 C 
BRANCH  15  16
ATOM     16  C   UNL     1      60.184  26.790  49.177  1.00  0.00    -0.000 C 
BRANCH  16  17
ATOM     17  C   UNL     1      60.961  25.762  50.012  1.00  0.00    -0.003 C 
ATOM     18  C   UNL     1      60.055  24.619  50.461  1.00  0.00     0.004 C 
ENDBRANCH  16  17
ENDBRANCH  15  16
ENDBRANCH  14  15
ENDBRANCH  13  14
ENDBRANCH  12  13
ENDBRANCH  11  12
ENDBRANCH   1  11
TORSDOF 14
ENDMDL
MODEL 4
REMARK VINA RESULT:    -3.039      3.010      5.952
REMARK INTER + INTRA:          -7.921
REMARK INTER:                  -5.761
REMARK INTRA:                  -2.160
REMARK UNBOUND:                -2.394
REMARK SMILES CCCCCCCCCCCCCCCC(=O)[O-]
REMARK SMILES IDX 9 1 10 2 11 3 12 4 13 5 14 6 15 7 16 8 17 9 18 10 8 11 7 12
REMARK SMILES IDX 6 13 5 14 4 15 3 16 2 17 1 18
REMARK H PARENT
REMARK Flexibility Score: inf
ROOT
ATOM      1  C   UNL     1      64.825  31.186  59.176  1.00  0.00     0.000 C 
ENDROOT
BRANCH   1   2
ATOM      2  C   UNL     1      64.583  32.694  59.040  1.00  0.00     0.000 C 
BRANCH   2   3
ATOM      3  C   UNL     1      64.484  33.362  60.420  1.00  0.00     0.000 C 
BRANCH   3   4
ATOM      4  C   UNL     1      63.286  34.321  60.531  1.00  0.00     0.000 C 
BRANCH   4   5
ATOM      5  C   UNL     1      63.711  35.758  60.871  1.00  0.00     0.000 C 
BRANCH   5   6
ATOM      6  C   UNL     1      62.553  36.767  60.770  1.00  0.00     0.006 C 
BRANCH   6   7
ATOM      7  C   UNL     1      61.233  36.158  60.265  1.00  0.00     0.053 C 
BRANCH   7   8
ATOM      8  C   UNL     1      60.836  36.682  58.918  1.00  0.00     0.041 C 
ATOM      9  O   UNL     1      61.668  36.693  57.972  1.00  0.00    -0.550 OA
ATOM     10  O   UNL     1      59.539  37.125  58.695  1.00  0.00    -0.550 OA
ENDBRANCH   7   8
ENDBRANCH   6   7
ENDBRANCH   5   6
ENDBRANCH   4   5
ENDBRANCH   3   4
ENDBRANCH   2   3
ENDBRANCH   1   2
BRANCH   1  11
ATOM     11  C   UNL     1      64.512  30.705  60.602  1.00  0.00     0.000 C 
BRANCH  11  12
ATOM     12  C   UNL     1      63.402  29.643  60.637  1.00  0.00    -0.000 C 
BRANCH  12  13
ATOM     13  C   UNL     1      62.252  30.021  61.588  1.00  0.00    -0.000 C 
BRANCH  13  14
ATOM     14  C   UNL     1      60.962  30.384  60.837  1.00  0.00    -0.000 C 
BRANCH  14  15
ATOM     15  C   UNL     1      60.996  31.811  60.262  1.00  0.00    -0.000 C 
BRANCH  15  16
ATOM     16  C   UNL     1      60.952  31.831  58.726  1.00  0.00    -0.000 C 
BRANCH  16  17
ATOM     17  C   UNL     1      60.784  30.430  58.122  1.00  0.00    -0.003 C 
ATOM     18  C   UNL     1      61.929  30.101  57.168  1.00  0.00     0.004 C 
ENDBRANCH  16  17
ENDBRANCH  15  16
ENDBRANCH  14  15
ENDBRANCH  13  14
ENDBRANCH  12  13
ENDBRANCH  11  12
ENDBRANCH   1  11
TORSDOF 14
ENDMDL
MODEL 5
REMARK VINA RESULT:    -3.021      9.867     12.451
REMARK INTER + INTRA:          -7.888
REMARK INTER:                  -5.692
REMARK INTRA:                  -2.196
REMARK UNBOUND:                -2.394
REMARK SMILES CCCCCCCCCCCCCCCC(=O)[O-]
REMARK SMILES IDX 9 1 10 2 11 3 12 4 13 5 14 6 15 7 16 8 17 9 18 10 8 11 7 12
REMARK SMILES IDX 6 13 5 14 4 15 3 16 2 17 1 18
REMARK H PARENT
REMARK Flexibility Score: inf
ROOT
ATOM      1  C   UNL     1      57.184  28.683  53.222  1.00  0.00     0.000 C 
ENDROOT
BRANCH   1   2
ATOM      2  C   UNL     1      57.909  29.769  52.418  1.00  0.00     0.000 C 
BRANCH   2   3
ATOM      3  C   UNL     1      58.906  29.146  51.428  1.00  0.00     0.000 C 
BRANCH   3   4
ATOM      4  C   UNL     1      58.505  29.372  49.961  1.00  0.00     0.000 C 
BRANCH   4   5
ATOM      5  C   UNL     1      59.662  29.104  48.985  1.00  0.00     0.000 C 
BRANCH   5   6
ATOM      6  C   UNL     1      60.687  28.093  49.531  1.00  0.00     0.006 C 
BRANCH   6   7
ATOM      7  C   UNL     1      60.294  26.621  49.312  1.00  0.00     0.053 C 
BRANCH   7   8
ATOM      8  C   UNL     1      61.373  25.669  49.730  1.00  0.00     0.041 C 
ATOM      9  O   UNL     1      62.473  26.108  50.158  1.00  0.00    -0.550 OA
ATOM     10  O   UNL     1      61.153  24.298  49.682  1.00  0.00    -0.550 OA
ENDBRANCH   7   8
ENDBRANCH   6   7
ENDBRANCH   5   6
ENDBRANCH   4   5
ENDBRANCH   3   4
ENDBRANCH   2   3
ENDBRANCH   1   2
BRANCH   1  11
ATOM     11  C   UNL     1      55.665  28.757  53.002  1.00  0.00     0.000 C 
BRANCH  11  12
ATOM     12  C   UNL     1      55.243  30.012  52.222  1.00  0.00    -0.000 C 
BRANCH  12  13
ATOM     13  C   UNL     1      54.292  29.691  51.054  1.00  0.00    -0.000 C 
BRANCH  13  14
ATOM     14  C   UNL     1      54.944  28.789  49.995  1.00  0.00    -0.000 C 
BRANCH  14  15
ATOM     15  C   UNL     1      54.095  27.546  49.675  1.00  0.00    -0.000 C 
BRANCH  15  16
ATOM     16  C   UNL     1      54.892  26.238  49.797  1.00  0.00    -0.000 C 
BRANCH  16  17
ATOM     17  C   UNL     1      56.410  26.468  49.779  1.00  0.00    -0.003 C 
ATOM     18  C   UNL     1      57.077  25.832  50.996  1.00  0.00     0.004 C 
ENDBRANCH  16  17
ENDBRANCH  15  16
ENDBRANCH  14  15
ENDBRANCH  13  14
ENDBRANCH  12  13
ENDBRANCH  11  12
ENDBRANCH   1  11
TORSDOF 14
ENDMDL
MODEL 6
REMARK VINA RESULT:    -3.016      2.010      4.053
REMARK INTER + INTRA:          -7.878
REMARK INTER:                  -5.840
REMARK INTRA:                  -2.038
REMARK UNBOUND:                -2.394
REMARK SMILES CCCCCCCCCCCCCCCC(=O)[O-]
REMARK SMILES IDX 9 1 10 2 11 3 12 4 13 5 14 6 15 7 16 8 17 9 18 10 8 11 7 12
REMARK SMILES IDX 6 13 5 14 4 15 3 16 2 17 1 18
REMARK H PARENT
REMARK Flexibility Score: inf
ROOT
ATOM      1  C   UNL     1      64.068  34.683  60.927  1.00  0.00     0.000 C 
ENDROOT
BRANCH   1   2
ATOM      2  C   UNL     1      62.730  35.283  60.475  1.00  0.00     0.000 C 
BRANCH   2   3
ATOM      3  C   UNL     1      61.832  34.208  59.845  1.00  0.00     0.000 C 
BRANCH   3   4
ATOM      4  C   UNL     1      62.280  32.779  60.196  1.00  0.00     0.000 C 
BRANCH   4   5
ATOM      5  C   UNL     1      61.125  31.767  60.137  1.00  0.00     0.000 C 
BRANCH   5   6
ATOM      6  C   UNL     1      61.129  30.780  61.319  1.00  0.00     0.006 C 
BRANCH   6   7
ATOM      7  C   UNL     1      62.435  29.977  61.460  1.00  0.00     0.053 C 
BRANCH   7   8
ATOM      8  C   UNL     1      62.350  28.623  60.825  1.00  0.00     0.041 C 
ATOM      9  O   UNL     1      62.238  27.593  61.542  1.00  0.00    -0.550 OA
ATOM     10  O   UNL     1      62.358  28.497  59.441  1.00  0.00    -0.550 OA
ENDBRANCH   7   8
ENDBRANCH   6   7
ENDBRANCH   5   6
ENDBRANCH   4   5
ENDBRANCH   3   4
ENDBRANCH   2   3
ENDBRANCH   1   2
BRANCH   1  11
ATOM     11  C   UNL     1      65.079  35.789  61.268  1.00  0.00     0.000 C 
BRANCH  11  12
ATOM     12  C   UNL     1      66.225  35.876  60.247  1.00  0.00    -0.000 C 
BRANCH  12  13
ATOM     13  C   UNL     1      65.723  36.148  58.817  1.00  0.00    -0.000 C 
BRANCH  13  14
ATOM     14  C   UNL     1      65.941  34.951  57.879  1.00  0.00    -0.000 C 
BRANCH  14  15
ATOM     15  C   UNL     1      64.639  34.492  57.197  1.00  0.00    -0.000 C 
BRANCH  15  16
ATOM     16  C   UNL     1      64.481  32.964  57.193  1.00  0.00    -0.000 C 
BRANCH  16  17
ATOM     17  C   UNL     1      65.383  32.274  58.226  1.00  0.00    -0.003 C 
ATOM     18  C   UNL     1      64.897  30.858  58.523  1.00  0.00     0.004 C 
ENDBRANCH  16  17
ENDBRANCH  15  16
ENDBRANCH  14  15
ENDBRANCH  13  14
ENDBRANCH  12  13
ENDBRANCH  11  12
ENDBRANCH   1  11
TORSDOF 14
ENDMDL
MODEL 7
REMARK VINA RESULT:    -3.010      2.324      3.538
REMARK INTER + INTRA:          -7.868
REMARK INTER:                  -5.424
REMARK INTRA:                  -2.444
REMARK UNBOUND:                -2.394
REMARK SMILES CCCCCCCCCCCCCCCC(=O)[O-]
REMARK SMILES IDX 9 1 10 2 11 3 12 4 13 5 14 6 15 7 16 8 17 9 18 10 8 11 7 12
REMARK SMILES IDX 6 13 5 14 4 15 3 16 2 17 1 18
REMARK H PARENT
REMARK Flexibility Score: inf
ROOT
ATOM      1  C   UNL     1      63.499  32.162  57.895  1.00  0.00     0.000 C 
ENDROOT
BRANCH   1   2
ATOM      2  C   UNL     1      64.922  32.074  58.460  1.00  0.00     0.000 C 
BRANCH   2   3
ATOM      3  C   UNL     1      65.054  30.892  59.433  1.00  0.00     0.000 C 
BRANCH   3   4
ATOM      4  C   UNL     1      64.309  31.128  60.758  1.00  0.00     0.000 C 
BRANCH   4   5
ATOM      5  C   UNL     1      63.359  29.973  61.115  1.00  0.00     0.000 C 
BRANCH   5   6
ATOM      6  C   UNL     1      61.930  30.447  61.434  1.00  0.00     0.006 C 
BRANCH   6   7
ATOM      7  C   UNL     1      60.989  30.464  60.216  1.00  0.00     0.053 C 
BRANCH   7   8
ATOM      8  C   UNL     1      60.857  29.117  59.572  1.00  0.00     0.041 C 
ATOM      9  O   UNL     1      61.220  28.948  58.378  1.00  0.00    -0.550 OA
ATOM     10  O   UNL     1      60.367  28.040  60.299  1.00  0.00    -0.550 OA
ENDBRANCH   7   8
ENDBRANCH   6   7
ENDBRANCH   5   6
ENDBRANCH   4   5
ENDBRANCH   3   4
ENDBRANCH   2   3
ENDBRANCH   1   2
BRANCH   1  11
ATOM     11  C   UNL     1      63.019  33.621  57.840  1.00  0.00     0.000 C 
BRANCH  11  12
ATOM     12  C   UNL     1      61.795  33.874  58.734  1.00  0.00    -0.000 C 
BRANCH  12  13
ATOM     13  C   UNL     1      62.165  33.994  60.224  1.00  0.00    -0.000 C 
BRANCH  13  14
ATOM     14  C   UNL     1      63.100  35.181  60.503  1.00  0.00    -0.000 C 
BRANCH  14  15
ATOM     15  C   UNL     1      64.442  34.742  61.115  1.00  0.00    -0.000 C 
BRANCH  15  16
ATOM     16  C   UNL     1      65.607  35.655  60.701  1.00  0.00    -0.000 C 
BRANCH  16  17
ATOM     17  C   UNL     1      65.865  35.632  59.187  1.00  0.00    -0.003 C 
ATOM     18  C   UNL     1      65.713  37.025  58.582  1.00  0.00     0.004 C 
ENDBRANCH  16  17
ENDBRANCH  15  16
ENDBRANCH  14  15
ENDBRANCH  13  14
ENDBRANCH  12  13
ENDBRANCH  11  12
ENDBRANCH   1  11
TORSDOF 14
ENDMDL
MODEL 8
REMARK VINA RESULT:    -3.000     10.818     12.814
REMARK INTER + INTRA:          -7.849
REMARK INTER:                  -5.996
REMARK INTRA:                  -1.853
REMARK UNBOUND:                -2.394
REMARK SMILES CCCCCCCCCCCCCCCC(=O)[O-]
REMARK SMILES IDX 9 1 10 2 11 3 12 4 13 5 14 6 15 7 16 8 17 9 18 10 8 11 7 12
REMARK SMILES IDX 6 13 5 14 4 15 3 16 2 17 1 18
REMARK H PARENT
REMARK Flexibility Score: inf
ROOT
ATOM      1  C   UNL     1      57.121  27.459  51.438  1.00  0.00     0.000 C 
ENDROOT
BRANCH   1   2
ATOM      2  C   UNL     1      57.218  28.573  50.387  1.00  0.00     0.000 C 
BRANCH   2   3
ATOM      3  C   UNL     1      58.616  29.211  50.390  1.00  0.00     0.000 C 
BRANCH   3   4
ATOM      4  C   UNL     1      59.301  29.144  49.015  1.00  0.00     0.000 C 
BRANCH   4   5
ATOM      5  C   UNL     1      60.394  28.065  48.953  1.00  0.00     0.000 C 
BRANCH   5   6
ATOM      6  C   UNL     1      60.735  27.475  50.333  1.00  0.00     0.006 C 
BRANCH   6   7
ATOM      7  C   UNL     1      62.213  27.075  50.496  1.00  0.00     0.053 C 
BRANCH   7   8
ATOM      8  C   UNL     1      63.144  28.016  49.794  1.00  0.00     0.041 C 
ATOM      9  O   UNL     1      63.408  29.140  50.297  1.00  0.00    -0.550 OA
ATOM     10  O   UNL     1      63.750  27.639  48.602  1.00  0.00    -0.550 OA
ENDBRANCH   7   8
ENDBRANCH   6   7
ENDBRANCH   5   6
ENDBRANCH   4   5
ENDBRANCH   3   4
ENDBRANCH   2   3
ENDBRANCH   1   2
BRANCH   1  11
ATOM     11  C   UNL     1      56.843  26.102  50.776  1.00  0.00     0.000 C 
BRANCH  11  12
ATOM     12  C   UNL     1      56.095  26.239  49.440  1.00  0.00    -0.000 C 
BRANCH  12  13
ATOM     13  C   UNL     1      54.745  25.498  49.439  1.00  0.00    -0.000 C 
BRANCH  13  14
ATOM     14  C   UNL     1      53.604  26.357  48.871  1.00  0.00    -0.000 C 
BRANCH  14  15
ATOM     15  C   UNL     1      53.037  27.344  49.907  1.00  0.00    -0.000 C 
BRANCH  15  16
ATOM     16  C   UNL     1      53.436  28.799  49.617  1.00  0.00    -0.000 C 
BRANCH  16  17
ATOM     17  C   UNL     1      53.799  29.577  50.890  1.00  0.00    -0.003 C 
ATOM     18  C   UNL     1      53.691  28.689  52.127  1.00  0.00     0.004 C 
ENDBRANCH  16  17
ENDBRANCH  15  16
ENDBRANCH  14  15
ENDBRANCH  13  14
ENDBRANCH  12  13
ENDBRANCH  11  12
ENDBRANCH   1  11
TORSDOF 14
ENDMDL
MODEL 9
REMARK VINA RESULT:    -2.909     10.510     12.519
REMARK INTER + INTRA:          -7.684
REMARK INTER:                  -5.421
REMARK INTRA:                  -2.264
REMARK UNBOUND:                -2.394
REMARK SMILES CCCCCCCCCCCCCCCC(=O)[O-]
REMARK SMILES IDX 9 1 10 2 11 3 12 4 13 5 14 6 15 7 16 8 17 9 18 10 8 11 7 12
REMARK SMILES IDX 6 13 5 14 4 15 3 16 2 17 1 18
REMARK H PARENT
REMARK Flexibility Score: inf
ROOT
ATOM      1  C   UNL     1      57.143  27.062  51.306  1.00  0.00     0.000 C 
ENDROOT
BRANCH   1   2
ATOM      2  C   UNL     1      56.501  27.728  50.082  1.00  0.00     0.000 C 
BRANCH   2   3
ATOM      3  C   UNL     1      55.125  27.112  49.781  1.00  0.00     0.000 C 
BRANCH   3   4
ATOM      4  C   UNL     1      54.001  28.162  49.744  1.00  0.00     0.000 C 
BRANCH   4   5
ATOM      5  C   UNL     1      54.512  29.583  50.030  1.00  0.00     0.000 C 
BRANCH   5   6
ATOM      6  C   UNL     1      53.794  30.252  51.216  1.00  0.00     0.006 C 
BRANCH   6   7
ATOM      7  C   UNL     1      53.390  29.276  52.335  1.00  0.00     0.053 C 
BRANCH   7   8
ATOM      8  C   UNL     1      54.510  28.999  53.290  1.00  0.00     0.041 C 
ATOM      9  O   UNL     1      54.716  27.826  53.702  1.00  0.00    -0.550 OA
ATOM     10  O   UNL     1      55.350  30.027  53.700  1.00  0.00    -0.550 OA
ENDBRANCH   7   8
ENDBRANCH   6   7
ENDBRANCH   5   6
ENDBRANCH   4   5
ENDBRANCH   3   4
ENDBRANCH   2   3
ENDBRANCH   1   2
BRANCH   1  11
ATOM     11  C   UNL     1      57.922  28.088  52.144  1.00  0.00     0.000 C 
BRANCH  11  12
ATOM     12  C   UNL     1      58.089  29.435  51.423  1.00  0.00    -0.000 C 
BRANCH  12  13
ATOM     13  C   UNL     1      59.521  29.655  50.903  1.00  0.00    -0.000 C 
BRANCH  13  14
ATOM     14  C   UNL     1      59.618  29.531  49.375  1.00  0.00    -0.000 C 
BRANCH  14  15
ATOM     15  C   UNL     1      60.064  28.129  48.924  1.00  0.00    -0.000 C 
BRANCH  15  16
ATOM     16  C   UNL     1      61.498  27.795  49.362  1.00  0.00    -0.000 C 
BRANCH  16  17
ATOM     17  C   UNL     1      61.624  26.378  49.943  1.00  0.00    -0.003 C 
ATOM     18  C   UNL     1      60.275  25.665  49.948  1.00  0.00     0.004 C 
ENDBRANCH  16  17
ENDBRANCH  15  16
ENDBRANCH  14  15
ENDBRANCH  13  14
ENDBRANCH  12  13
ENDBRANCH  11  12
ENDBRANCH   1  11
TORSDOF 14
ENDMDL
