MODEL 1
REMARK VINA RESULT:    -3.798      0.000      0.000
REMARK INTER + INTRA:          -5.681
REMARK INTER:                  -5.352
REMARK INTRA:                  -0.329
REMARK UNBOUND:                -0.329
REMARK SMILES CCCCCCCCC(=O)[O-]
REMARK SMILES IDX 6 1 7 2 8 3 9 4 10 5 11 6 5 7 4 8 3 9 2 10 1 11
REMARK H PARENT
REMARK Flexibility Score: inf
ROOT
ATOM      1  C   UNL     1      11.287  80.807  39.766  1.00  0.00     0.000 C 
ENDROOT
BRANCH   1   2
ATOM      2  C   UNL     1      10.697  79.918  40.876  1.00  0.00     0.006 C 
BRANCH   2   3
ATOM      3  C   UNL     1      11.699  79.535  41.977  1.00  0.00     0.053 C 
BRANCH   3   4
ATOM      4  C   UNL     1      11.659  80.491  43.131  1.00  0.00     0.041 C 
ATOM      5  O   UNL     1      12.478  81.447  43.190  1.00  0.00    -0.550 OA
ATOM      6  O   UNL     1      10.695  80.347  44.121  1.00  0.00    -0.550 OA
ENDBRANCH   3   4
ENDBRANCH   2   3
ENDBRANCH   1   2
BRANCH   1   7
ATOM      7  C   UNL     1      10.701  80.491  38.378  1.00  0.00     0.000 C 
BRANCH   7   8
ATOM      8  C   UNL     1       9.900  79.179  38.360  1.00  0.00    -0.000 C 
BRANCH   8   9
ATOM      9  C   UNL     1       8.605  79.289  37.543  1.00  0.00    -0.000 C 
BRANCH   9  10
ATOM     10  C   UNL     1       8.718  78.510  36.229  1.00  0.00    -0.003 C 
ATOM     11  C   UNL     1       9.901  77.546  36.258  1.00  0.00     0.004 C 
ENDBRANCH   9  10
ENDBRANCH   8   9
ENDBRANCH   7   8
ENDBRANCH   1   7
TORSDOF 7
ENDMDL
MODEL 2
REMARK VINA RESULT:    -3.793      6.706      8.280
REMARK INTER + INTRA:          -5.674
REMARK INTER:                  -5.257
REMARK INTRA:                  -0.417
REMARK UNBOUND:                -0.329
REMARK SMILES CCCCCCCCC(=O)[O-]
REMARK SMILES IDX 6 1 7 2 8 3 9 4 10 5 11 6 5 7 4 8 3 9 2 10 1 11
REMARK H PARENT
REMARK Flexibility Score: inf
ROOT
ATOM      1  C   UNL     1       4.153  75.843  38.955  1.00  0.00     0.000 C 
ENDROOT
BRANCH   1   2
ATOM      2  C   UNL     1       4.297  74.361  39.348  1.00  0.00     0.006 C 
BRANCH   2   3
ATOM      3  C   UNL     1       5.614  74.024  40.065  1.00  0.00     0.053 C 
BRANCH   3   4
ATOM      4  C   UNL     1       6.012  72.593  39.869  1.00  0.00     0.041 C 
ATOM      5  O   UNL     1       5.133  71.691  39.830  1.00  0.00    -0.550 OA
ATOM      6  O   UNL     1       7.349  72.260  39.693  1.00  0.00    -0.550 OA
ENDBRANCH   3   4
ENDBRANCH   2   3
ENDBRANCH   1   2
BRANCH   1   7
ATOM      7  C   UNL     1       5.287  76.326  38.033  1.00  0.00     0.000 C 
BRANCH   7   8
ATOM      8  C   UNL     1       5.833  77.704  38.442  1.00  0.00    -0.000 C 
BRANCH   8   9
ATOM      9  C   UNL     1       5.739  77.950  39.954  1.00  0.00    -0.000 C 
BRANCH   9  10
ATOM     10  C   UNL     1       5.021  79.272  40.250  1.00  0.00    -0.003 C 
ATOM     11  C   UNL     1       4.842  79.479  41.752  1.00  0.00     0.004 C 
ENDBRANCH   9  10
ENDBRANCH   8   9
ENDBRANCH   7   8
ENDBRANCH   1   7
TORSDOF 7
ENDMDL
MODEL 3
REMARK VINA RESULT:    -3.781      0.750      1.072
REMARK INTER + INTRA:          -5.658
REMARK INTER:                  -5.324
REMARK INTRA:                  -0.334
REMARK UNBOUND:                -0.329
REMARK SMILES CCCCCCCCC(=O)[O-]
REMARK SMILES IDX 6 1 7 2 8 3 9 4 10 5 11 6 5 7 4 8 3 9 2 10 1 11
REMARK H PARENT
REMARK Flexibility Score: inf
ROOT
ATOM      1  C   UNL     1      10.866  80.503  38.834  1.00  0.00     0.000 C 
ENDROOT
BRANCH   1   2
ATOM      2  C   UNL     1      11.655  80.984  40.065  1.00  0.00     0.006 C 
BRANCH   2   3
ATOM      3  C   UNL     1      11.626  80.010  41.254  1.00  0.00     0.053 C 
BRANCH   3   4
ATOM      4  C   UNL     1      11.925  80.696  42.552  1.00  0.00     0.041 C 
ATOM      5  O   UNL     1      12.834  81.566  42.613  1.00  0.00    -0.550 OA
ATOM      6  O   UNL     1      11.176  80.401  43.684  1.00  0.00    -0.550 OA
ENDBRANCH   3   4
ENDBRANCH   2   3
ENDBRANCH   1   2
BRANCH   1   7
ATOM      7  C   UNL     1       9.732  79.528  39.198  1.00  0.00     0.000 C 
BRANCH   7   8
ATOM      8  C   UNL     1       8.608  79.512  38.150  1.00  0.00    -0.000 C 
BRANCH   8   9
ATOM      9  C   UNL     1       8.446  78.141  37.479  1.00  0.00    -0.000 C 
BRANCH   9  10
ATOM     10  C   UNL     1       9.255  78.068  36.180  1.00  0.00    -0.003 C 
ATOM     11  C   UNL     1      10.391  77.056  36.293  1.00  0.00     0.004 C 
ENDBRANCH   9  10
ENDBRANCH   8   9
ENDBRANCH   7   8
ENDBRANCH   1   7
TORSDOF 7
ENDMDL
MODEL 4
REMARK VINA RESULT:    -3.707      3.668      6.078
REMARK INTER + INTRA:          -5.553
REMARK INTER:                  -5.170
REMARK INTRA:                  -0.383
REMARK UNBOUND:                -0.329
REMARK SMILES CCCCCCCCC(=O)[O-]
REMARK SMILES IDX 6 1 7 2 8 3 9 4 10 5 11 6 5 7 4 8 3 9 2 10 1 11
REMARK H PARENT
REMARK Flexibility Score: inf
ROOT
ATOM      1  C   UNL     1       9.443  79.199  38.777  1.00  0.00     0.000 C 
ENDROOT
BRANCH   1   2
ATOM      2  C   UNL     1       8.313  79.187  37.732  1.00  0.00     0.006 C 
BRANCH   2   3
ATOM      3  C   UNL     1       8.709  78.568  36.381  1.00  0.00     0.053 C 
BRANCH   3   4
ATOM      4  C   UNL     1       9.287  77.195  36.540  1.00  0.00     0.041 C 
ATOM      5  O   UNL     1       8.552  76.235  36.891  1.00  0.00    -0.550 OA
ATOM      6  O   UNL     1      10.630  76.970  36.264  1.00  0.00    -0.550 OA
ENDBRANCH   3   4
ENDBRANCH   2   3
ENDBRANCH   1   2
BRANCH   1   7
ATOM      7  C   UNL     1      10.545  80.222  38.449  1.00  0.00     0.000 C 
BRANCH   7   8
ATOM      8  C   UNL     1      11.130  80.883  39.707  1.00  0.00    -0.000 C 
BRANCH   8   9
ATOM      9  C   UNL     1      10.646  80.217  41.002  1.00  0.00    -0.000 C 
BRANCH   9  10
ATOM     10  C   UNL     1      11.824  79.908  41.933  1.00  0.00    -0.003 C 
ATOM     11  C   UNL     1      12.368  81.181  42.577  1.00  0.00     0.004 C 
ENDBRANCH   9  10
ENDBRANCH   8   9
ENDBRANCH   7   8
ENDBRANCH   1   7
TORSDOF 7
ENDMDL
MODEL 5
REMARK VINA RESULT:    -3.698      3.946      5.718
REMARK INTER + INTRA:          -5.540
REMARK INTER:                  -4.936
REMARK INTRA:                  -0.604
REMARK UNBOUND:                -0.329
REMARK SMILES CCCCCCCCC(=O)[O-]
REMARK SMILES IDX 6 1 7 2 8 3 9 4 10 5 11 6 5 7 4 8 3 9 2 10 1 11
REMARK H PARENT
REMARK Flexibility Score: inf
ROOT
ATOM      1  C   UNL     1       6.042  79.187  37.246  1.00  0.00     0.000 C 
ENDROOT
BRANCH   1   2
ATOM      2  C   UNL     1       5.959  79.799  38.656  1.00  0.00     0.006 C 
BRANCH   2   3
ATOM      3  C   UNL     1       5.154  78.960  39.662  1.00  0.00     0.053 C 
BRANCH   3   4
ATOM      4  C   UNL     1       5.502  77.505  39.586  1.00  0.00     0.041 C 
ATOM      5  O   UNL     1       4.627  76.660  39.258  1.00  0.00    -0.550 OA
ATOM      6  O   UNL     1       6.802  77.086  39.840  1.00  0.00    -0.550 OA
ENDBRANCH   3   4
ENDBRANCH   2   3
ENDBRANCH   1   2
BRANCH   1   7
ATOM      7  C   UNL     1       7.420  79.393  36.589  1.00  0.00     0.000 C 
BRANCH   7   8
ATOM      8  C   UNL     1       8.283  78.122  36.620  1.00  0.00    -0.000 C 
BRANCH   8   9
ATOM      9  C   UNL     1       9.700  78.384  37.152  1.00  0.00    -0.000 C 
BRANCH   9  10
ATOM     10  C   UNL     1       9.654  79.126  38.492  1.00  0.00    -0.003 C 
ATOM     11  C   UNL     1      10.554  80.358  38.473  1.00  0.00     0.004 C 
ENDBRANCH   9  10
ENDBRANCH   8   9
ENDBRANCH   7   8
ENDBRANCH   1   7
TORSDOF 7
ENDMDL
MODEL 6
REMARK VINA RESULT:    -3.697      4.800      6.165
REMARK INTER + INTRA:          -5.539
REMARK INTER:                  -5.032
REMARK INTRA:                  -0.507
REMARK UNBOUND:                -0.329
REMARK SMILES CCCCCCCCC(=O)[O-]
REMARK SMILES IDX 6 1 7 2 8 3 9 4 10 5 11 6 5 7 4 8 3 9 2 10 1 11
REMARK H PARENT
REMARK Flexibility Score: inf
ROOT
ATOM      1  C   UNL     1       7.193  80.259  37.901  1.00  0.00     0.000 C 
ENDROOT
BRANCH   1   2
ATOM      2  C   UNL     1       8.354  79.250  37.834  1.00  0.00     0.006 C 
BRANCH   2   3
ATOM      3  C   UNL     1       8.540  78.592  36.458  1.00  0.00     0.053 C 
BRANCH   3   4
ATOM      4  C   UNL     1       9.191  77.246  36.561  1.00  0.00     0.041 C 
ATOM      5  O   UNL     1       8.516  76.240  36.906  1.00  0.00    -0.550 OA
ATOM      6  O   UNL     1      10.535  77.097  36.241  1.00  0.00    -0.550 OA
ENDBRANCH   3   4
ENDBRANCH   2   3
ENDBRANCH   1   2
BRANCH   1   7
ATOM      7  C   UNL     1       5.813  79.576  37.912  1.00  0.00     0.000 C 
BRANCH   7   8
ATOM      8  C   UNL     1       5.235  79.437  39.329  1.00  0.00    -0.000 C 
BRANCH   8   9
ATOM      9  C   UNL     1       5.404  78.021  39.899  1.00  0.00    -0.000 C 
BRANCH   9  10
ATOM     10  C   UNL     1       5.398  76.975  38.779  1.00  0.00    -0.003 C 
ATOM     11  C   UNL     1       4.362  75.887  39.046  1.00  0.00     0.004 C 
ENDBRANCH   9  10
ENDBRANCH   8   9
ENDBRANCH   7   8
ENDBRANCH   1   7
TORSDOF 7
ENDMDL
MODEL 7
REMARK VINA RESULT:    -3.693      3.513      5.368
REMARK INTER + INTRA:          -5.534
REMARK INTER:                  -4.931
REMARK INTRA:                  -0.603
REMARK UNBOUND:                -0.329
REMARK SMILES CCCCCCCCC(=O)[O-]
REMARK SMILES IDX 6 1 7 2 8 3 9 4 10 5 11 6 5 7 4 8 3 9 2 10 1 11
REMARK H PARENT
REMARK Flexibility Score: inf
ROOT
ATOM      1  C   UNL     1       7.404  79.365  36.582  1.00  0.00     0.000 C 
ENDROOT
BRANCH   1   2
ATOM      2  C   UNL     1       8.234  78.069  36.625  1.00  0.00     0.006 C 
BRANCH   2   3
ATOM      3  C   UNL     1       9.709  78.278  37.005  1.00  0.00     0.053 C 
BRANCH   3   4
ATOM      4  C   UNL     1       9.859  79.079  38.263  1.00  0.00     0.041 C 
ATOM      5  O   UNL     1       9.426  78.627  39.356  1.00  0.00    -0.550 OA
ATOM      6  O   UNL     1      10.508  80.307  38.233  1.00  0.00    -0.550 OA
ENDBRANCH   3   4
ENDBRANCH   2   3
ENDBRANCH   1   2
BRANCH   1   7
ATOM      7  C   UNL     1       6.134  79.286  37.449  1.00  0.00     0.000 C 
BRANCH   7   8
ATOM      8  C   UNL     1       5.982  77.926  38.150  1.00  0.00    -0.000 C 
BRANCH   8   9
ATOM      9  C   UNL     1       5.936  78.053  39.679  1.00  0.00    -0.000 C 
BRANCH   9  10
ATOM     10  C   UNL     1       5.428  79.437  40.099  1.00  0.00    -0.003 C 
ATOM     11  C   UNL     1       4.928  79.428  41.541  1.00  0.00     0.004 C 
ENDBRANCH   9  10
ENDBRANCH   8   9
ENDBRANCH   7   8
ENDBRANCH   1   7
TORSDOF 7
ENDMDL
MODEL 8
REMARK VINA RESULT:    -3.649      8.346      9.104
REMARK INTER + INTRA:          -5.472
REMARK INTER:                  -5.177
REMARK INTRA:                  -0.294
REMARK UNBOUND:                -0.329
REMARK SMILES CCCCCCCCC(=O)[O-]
REMARK SMILES IDX 6 1 7 2 8 3 9 4 10 5 11 6 5 7 4 8 3 9 2 10 1 11
REMARK H PARENT
REMARK Flexibility Score: inf
ROOT
ATOM      1  C   UNL     1       8.963  71.848  38.250  1.00  0.00     0.000 C 
ENDROOT
BRANCH   1   2
ATOM      2  C   UNL     1       9.832  72.295  37.060  1.00  0.00     0.006 C 
BRANCH   2   3
ATOM      3  C   UNL     1      11.159  71.531  36.926  1.00  0.00     0.053 C 
BRANCH   3   4
ATOM      4  C   UNL     1      12.237  72.123  37.782  1.00  0.00     0.041 C 
ATOM      5  O   UNL     1      12.426  71.693  38.950  1.00  0.00    -0.550 OA
ATOM      6  O   UNL     1      13.057  73.124  37.275  1.00  0.00    -0.550 OA
ENDBRANCH   3   4
ENDBRANCH   2   3
ENDBRANCH   1   2
BRANCH   1   7
ATOM      7  C   UNL     1       7.462  71.814  37.909  1.00  0.00     0.000 C 
BRANCH   7   8
ATOM      8  C   UNL     1       6.659  70.921  38.869  1.00  0.00    -0.000 C 
BRANCH   8   9
ATOM      9  C   UNL     1       5.402  71.617  39.411  1.00  0.00    -0.000 C 
BRANCH   9  10
ATOM     10  C   UNL     1       5.767  72.908  40.152  1.00  0.00    -0.003 C 
ATOM     11  C   UNL     1       4.811  74.041  39.791  1.00  0.00     0.004 C 
ENDBRANCH   9  10
ENDBRANCH   8   9
ENDBRANCH   7   8
ENDBRANCH   1   7
TORSDOF 7
ENDMDL
MODEL 9
REMARK VINA RESULT:    -3.550      3.962      5.492
REMARK INTER + INTRA:          -5.332
REMARK INTER:                  -4.699
REMARK INTRA:                  -0.633
REMARK UNBOUND:                -0.329
REMARK SMILES CCCCCCCCC(=O)[O-]
REMARK SMILES IDX 6 1 7 2 8 3 9 4 10 5 11 6 5 7 4 8 3 9 2 10 1 11
REMARK H PARENT
REMARK Flexibility Score: inf
ROOT
ATOM      1  C   UNL     1       6.083  78.888  37.433  1.00  0.00     0.000 C 
ENDROOT
BRANCH   1   2
ATOM      2  C   UNL     1       7.414  79.542  37.019  1.00  0.00     0.006 C 
BRANCH   2   3
ATOM      3  C   UNL     1       8.646  78.645  37.216  1.00  0.00     0.053 C 
BRANCH   3   4
ATOM      4  C   UNL     1       9.481  79.084  38.380  1.00  0.00     0.041 C 
ATOM      5  O   UNL     1       9.344  78.530  39.503  1.00  0.00    -0.550 OA
ATOM      6  O   UNL     1      10.436  80.080  38.215  1.00  0.00    -0.550 OA
ENDBRANCH   3   4
ENDBRANCH   2   3
ENDBRANCH   1   2
BRANCH   1   7
ATOM      7  C   UNL     1       5.717  79.166  38.903  1.00  0.00     0.000 C 
BRANCH   7   8
ATOM      8  C   UNL     1       5.272  77.898  39.649  1.00  0.00    -0.000 C 
BRANCH   8   9
ATOM      9  C   UNL     1       6.288  76.753  39.525  1.00  0.00    -0.000 C 
BRANCH   9  10
ATOM     10  C   UNL     1       5.578  75.412  39.312  1.00  0.00    -0.003 C 
ATOM     11  C   UNL     1       4.110  75.615  38.949  1.00  0.00     0.004 C 
ENDBRANCH   9  10
ENDBRANCH   8   9
ENDBRANCH   7   8
ENDBRANCH   1   7
TORSDOF 7
ENDMDL
