MODEL 1
REMARK VINA RESULT:    -2.939      0.000      0.000
REMARK INTER + INTRA:          -3.754
REMARK INTER:                  -3.626
REMARK INTRA:                  -0.128
REMARK UNBOUND:                -0.128
REMARK SMILES CCCCCC(=O)[O-]
REMARK SMILES IDX 4 1 5 2 6 3 7 4 8 5 3 6 2 7 1 8
REMARK H PARENT
REMARK Flexibility Score: inf
ROOT
ATOM      1  C   UNL     1      56.771  28.370  50.932  1.00  0.00     0.006 C 
ENDROOT
BRANCH   1   2
ATOM      2  C   UNL     1      57.993  27.461  50.752  1.00  0.00     0.053 C 
BRANCH   2   3
ATOM      3  C   UNL     1      59.044  28.154  49.941  1.00  0.00     0.041 C 
ATOM      4  O   UNL     1      58.894  29.359  49.606  1.00  0.00    -0.550 OA
ATOM      5  O   UNL     1      60.211  27.483  49.598  1.00  0.00    -0.550 OA
ENDBRANCH   2   3
ENDBRANCH   1   2
BRANCH   1   6
ATOM      6  C   UNL     1      55.450  27.656  50.606  1.00  0.00     0.000 C 
BRANCH   6   7
ATOM      7  C   UNL     1      55.637  26.152  50.357  1.00  0.00    -0.003 C 
ATOM      8  C   UNL     1      54.399  25.545  49.705  1.00  0.00     0.004 C 
ENDBRANCH   6   7
ENDBRANCH   1   6
TORSDOF 4
ENDMDL
MODEL 2
REMARK VINA RESULT:    -2.912      1.638      1.953
REMARK INTER + INTRA:          -3.720
REMARK INTER:                  -3.578
REMARK INTRA:                  -0.142
REMARK UNBOUND:                -0.128
REMARK SMILES CCCCCC(=O)[O-]
REMARK SMILES IDX 4 1 5 2 6 3 7 4 8 5 3 6 2 7 1 8
REMARK H PARENT
REMARK Flexibility Score: inf
ROOT
ATOM      1  C   UNL     1      58.240  28.959  51.077  1.00  0.00     0.006 C 
ENDROOT
BRANCH   1   2
ATOM      2  C   UNL     1      59.042  28.815  49.778  1.00  0.00     0.053 C 
BRANCH   2   3
ATOM      3  C   UNL     1      59.842  27.550  49.797  1.00  0.00     0.041 C 
ATOM      4  O   UNL     1      61.100  27.595  49.762  1.00  0.00    -0.550 OA
ATOM      5  O   UNL     1      59.199  26.323  49.900  1.00  0.00    -0.550 OA
ENDBRANCH   2   3
ENDBRANCH   1   2
BRANCH   1   6
ATOM      6  C   UNL     1      56.730  29.091  50.828  1.00  0.00     0.000 C 
BRANCH   6   7
ATOM      7  C   UNL     1      56.017  27.731  50.788  1.00  0.00    -0.003 C 
ATOM      8  C   UNL     1      54.546  27.892  50.418  1.00  0.00     0.004 C 
ENDBRANCH   6   7
ENDBRANCH   1   6
TORSDOF 4
ENDMDL
MODEL 3
REMARK VINA RESULT:    -2.855      2.525      4.038
REMARK INTER + INTRA:          -3.651
REMARK INTER:                  -3.463
REMARK INTRA:                  -0.188
REMARK UNBOUND:                -0.128
REMARK SMILES CCCCCC(=O)[O-]
REMARK SMILES IDX 4 1 5 2 6 3 7 4 8 5 3 6 2 7 1 8
REMARK H PARENT
REMARK Flexibility Score: inf
ROOT
ATOM      1  C   UNL     1      57.228  28.134  51.364  1.00  0.00     0.006 C 
ENDROOT
BRANCH   1   2
ATOM      2  C   UNL     1      55.899  27.712  50.726  1.00  0.00     0.053 C 
BRANCH   2   3
ATOM      3  C   UNL     1      55.906  26.246  50.425  1.00  0.00     0.041 C 
ATOM      4  O   UNL     1      56.800  25.504  50.910  1.00  0.00    -0.550 OA
ATOM      5  O   UNL     1      54.898  25.691  49.647  1.00  0.00    -0.550 OA
ENDBRANCH   2   3
ENDBRANCH   1   2
BRANCH   1   6
ATOM      6  C   UNL     1      57.830  29.384  50.705  1.00  0.00     0.000 C 
BRANCH   6   7
ATOM      7  C   UNL     1      58.942  29.045  49.701  1.00  0.00    -0.003 C 
ATOM      8  C   UNL     1      59.543  27.672  49.989  1.00  0.00     0.004 C 
ENDBRANCH   6   7
ENDBRANCH   1   6
TORSDOF 4
ENDMDL
MODEL 4
REMARK VINA RESULT:    -2.818      3.260      4.551
REMARK INTER + INTRA:          -3.605
REMARK INTER:                  -3.517
REMARK INTRA:                  -0.088
REMARK UNBOUND:                -0.128
REMARK SMILES CCCCCC(=O)[O-]
REMARK SMILES IDX 4 1 5 2 6 3 7 4 8 5 3 6 2 7 1 8
REMARK H PARENT
REMARK Flexibility Score: inf
ROOT
ATOM      1  C   UNL     1      54.907  28.269  50.766  1.00  0.00     0.006 C 
ENDROOT
BRANCH   1   2
ATOM      2  C   UNL     1      53.964  27.269  50.087  1.00  0.00     0.053 C 
BRANCH   2   3
ATOM      3  C   UNL     1      54.621  25.929  49.971  1.00  0.00     0.041 C 
ATOM      4  O   UNL     1      53.955  24.925  49.605  1.00  0.00    -0.550 OA
ATOM      5  O   UNL     1      55.982  25.798  50.221  1.00  0.00    -0.550 OA
ENDBRANCH   2   3
ENDBRANCH   1   2
BRANCH   1   6
ATOM      6  C   UNL     1      54.330  29.692  50.807  1.00  0.00     0.000 C 
BRANCH   6   7
ATOM      7  C   UNL     1      55.421  30.773  50.793  1.00  0.00    -0.003 C 
ATOM      8  C   UNL     1      56.804  30.160  50.994  1.00  0.00     0.004 C 
ENDBRANCH   6   7
ENDBRANCH   1   6
TORSDOF 4
ENDMDL
MODEL 5
REMARK VINA RESULT:    -2.792      9.251     10.406
REMARK INTER + INTRA:          -3.573
REMARK INTER:                  -3.447
REMARK INTRA:                  -0.126
REMARK UNBOUND:                -0.128
REMARK SMILES CCCCCC(=O)[O-]
REMARK SMILES IDX 4 1 5 2 6 3 7 4 8 5 3 6 2 7 1 8
REMARK H PARENT
REMARK Flexibility Score: inf
ROOT
ATOM      1  C   UNL     1      57.774  18.138  50.820  1.00  0.00     0.006 C 
ENDROOT
BRANCH   1   2
ATOM      2  C   UNL     1      56.257  18.364  50.800  1.00  0.00     0.053 C 
BRANCH   2   3
ATOM      3  C   UNL     1      55.789  18.878  52.125  1.00  0.00     0.041 C 
ATOM      4  O   UNL     1      56.495  18.714  53.155  1.00  0.00    -0.550 OA
ATOM      5  O   UNL     1      54.595  19.582  52.215  1.00  0.00    -0.550 OA
ENDBRANCH   2   3
ENDBRANCH   1   2
BRANCH   1   6
ATOM      6  C   UNL     1      58.155  16.665  50.612  1.00  0.00     0.000 C 
BRANCH   6   7
ATOM      7  C   UNL     1      59.108  16.463  49.424  1.00  0.00    -0.003 C 
ATOM      8  C   UNL     1      58.333  16.165  48.144  1.00  0.00     0.004 C 
ENDBRANCH   6   7
ENDBRANCH   1   6
TORSDOF 4
ENDMDL
MODEL 6
REMARK VINA RESULT:    -2.706      2.693      3.919
REMARK INTER + INTRA:          -3.466
REMARK INTER:                  -3.293
REMARK INTRA:                  -0.173
REMARK UNBOUND:                -0.128
REMARK SMILES CCCCCC(=O)[O-]
REMARK SMILES IDX 4 1 5 2 6 3 7 4 8 5 3 6 2 7 1 8
REMARK H PARENT
REMARK Flexibility Score: inf
ROOT
ATOM      1  C   UNL     1      57.858  28.712  51.097  1.00  0.00     0.006 C 
ENDROOT
BRANCH   1   2
ATOM      2  C   UNL     1      56.535  29.476  50.962  1.00  0.00     0.053 C 
BRANCH   2   3
ATOM      3  C   UNL     1      55.412  28.528  50.677  1.00  0.00     0.041 C 
ATOM      4  O   UNL     1      54.225  28.947  50.634  1.00  0.00    -0.550 OA
ATOM      5  O   UNL     1      55.681  27.192  50.411  1.00  0.00    -0.550 OA
ENDBRANCH   2   3
ENDBRANCH   1   2
BRANCH   1   6
ATOM      6  C   UNL     1      58.796  28.939  49.901  1.00  0.00     0.000 C 
BRANCH   6   7
ATOM      7  C   UNL     1      59.758  27.763  49.674  1.00  0.00    -0.003 C 
ATOM      8  C   UNL     1      59.165  26.459  50.199  1.00  0.00     0.004 C 
ENDBRANCH   6   7
ENDBRANCH   1   6
TORSDOF 4
ENDMDL
MODEL 7
REMARK VINA RESULT:    -2.697      2.498      3.561
REMARK INTER + INTRA:          -3.455
REMARK INTER:                  -3.378
REMARK INTRA:                  -0.078
REMARK UNBOUND:                -0.128
REMARK SMILES CCCCCC(=O)[O-]
REMARK SMILES IDX 4 1 5 2 6 3 7 4 8 5 3 6 2 7 1 8
REMARK H PARENT
REMARK Flexibility Score: inf
ROOT
ATOM      1  C   UNL     1      55.381  27.586  50.691  1.00  0.00     0.006 C 
ENDROOT
BRANCH   1   2
ATOM      2  C   UNL     1      55.649  26.114  50.357  1.00  0.00     0.053 C 
BRANCH   2   3
ATOM      3  C   UNL     1      56.927  25.659  50.991  1.00  0.00     0.041 C 
ATOM      4  O   UNL     1      58.010  25.724  50.352  1.00  0.00    -0.550 OA
ATOM      5  O   UNL     1      56.929  25.208  52.305  1.00  0.00    -0.550 OA
ENDBRANCH   2   3
ENDBRANCH   1   2
BRANCH   1   6
ATOM      6  C   UNL     1      54.003  28.061  50.208  1.00  0.00     0.000 C 
BRANCH   6   7
ATOM      7  C   UNL     1      53.691  29.503  50.637  1.00  0.00    -0.003 C 
ATOM      8  C   UNL     1      54.972  30.282  50.916  1.00  0.00     0.004 C 
ENDBRANCH   6   7
ENDBRANCH   1   6
TORSDOF 4
ENDMDL
MODEL 8
REMARK VINA RESULT:    -2.686      1.701      2.330
REMARK INTER + INTRA:          -3.442
REMARK INTER:                  -3.340
REMARK INTRA:                  -0.102
REMARK UNBOUND:                -0.128
REMARK SMILES CCCCCC(=O)[O-]
REMARK SMILES IDX 4 1 5 2 6 3 7 4 8 5 3 6 2 7 1 8
REMARK H PARENT
REMARK Flexibility Score: inf
ROOT
ATOM      1  C   UNL     1      57.103  27.446  51.386  1.00  0.00     0.006 C 
ENDROOT
BRANCH   1   2
ATOM      2  C   UNL     1      57.292  26.086  50.703  1.00  0.00     0.053 C 
BRANCH   2   3
ATOM      3  C   UNL     1      58.742  25.839  50.424  1.00  0.00     0.041 C 
ATOM      4  O   UNL     1      59.264  24.732  50.720  1.00  0.00    -0.550 OA
ATOM      5  O   UNL     1      59.504  26.814  49.793  1.00  0.00    -0.550 OA
ENDBRANCH   2   3
ENDBRANCH   1   2
BRANCH   1   6
ATOM      6  C   UNL     1      55.904  28.227  50.829  1.00  0.00     0.000 C 
BRANCH   6   7
ATOM      7  C   UNL     1      54.740  27.310  50.421  1.00  0.00    -0.003 C 
ATOM      8  C   UNL     1      53.465  28.114  50.184  1.00  0.00     0.004 C 
ENDBRANCH   6   7
ENDBRANCH   1   6
TORSDOF 4
ENDMDL
MODEL 9
REMARK VINA RESULT:    -2.605      9.611     10.238
REMARK INTER + INTRA:          -3.342
REMARK INTER:                  -3.242
REMARK INTRA:                  -0.101
REMARK UNBOUND:                -0.128
REMARK SMILES CCCCCC(=O)[O-]
REMARK SMILES IDX 4 1 5 2 6 3 7 4 8 5 3 6 2 7 1 8
REMARK H PARENT
REMARK Flexibility Score: inf
ROOT
ATOM      1  C   UNL     1      57.917  18.607  50.700  1.00  0.00     0.006 C 
ENDROOT
BRANCH   1   2
ATOM      2  C   UNL     1      57.351  17.287  50.164  1.00  0.00     0.053 C 
BRANCH   2   3
ATOM      3  C   UNL     1      58.378  16.575  49.339  1.00  0.00     0.041 C 
ATOM      4  O   UNL     1      58.113  16.230  48.157  1.00  0.00    -0.550 OA
ATOM      5  O   UNL     1      59.644  16.337  49.859  1.00  0.00    -0.550 OA
ENDBRANCH   2   3
ENDBRANCH   1   2
BRANCH   1   6
ATOM      6  C   UNL     1      57.441  18.919  52.127  1.00  0.00     0.000 C 
BRANCH   6   7
ATOM      7  C   UNL     1      55.910  18.968  52.241  1.00  0.00    -0.003 C 
ATOM      8  C   UNL     1      55.451  18.578  53.643  1.00  0.00     0.004 C 
ENDBRANCH   6   7
ENDBRANCH   1   6
TORSDOF 4
ENDMDL
