MODEL 1
REMARK VINA RESULT:    -5.328      0.000      0.000
REMARK INTER + INTRA:         -13.001
REMARK INTER:                 -10.313
REMARK INTRA:                  -2.689
REMARK UNBOUND:                -2.689
REMARK SMILES CCCCCCCCCCCCCCCCCC(=O)[O-]
REMARK SMILES IDX 10 1 11 2 12 3 13 4 14 5 15 6 16 7 17 8 18 9 19 10 20 11
REMARK SMILES IDX 9 12 8 13 7 14 6 15 5 16 4 17 3 18 2 19 1 20
REMARK H PARENT
REMARK Flexibility Score: inf
ROOT
ATOM      1  C   UNL     1       6.858   7.031  22.188  1.00  0.00     0.000 C 
ENDROOT
BRANCH   1   2
ATOM      2  C   UNL     1       5.457   6.641  22.706  1.00  0.00     0.000 C 
BRANCH   2   3
ATOM      3  C   UNL     1       4.302   7.223  21.868  1.00  0.00     0.000 C 
BRANCH   3   4
ATOM      4  C   UNL     1       3.128   6.256  21.628  1.00  0.00     0.000 C 
BRANCH   4   5
ATOM      5  C   UNL     1       3.210   5.446  20.317  1.00  0.00     0.000 C 
BRANCH   5   6
ATOM      6  C   UNL     1       2.000   4.534  20.033  1.00  0.00     0.000 C 
BRANCH   6   7
ATOM      7  C   UNL     1       1.495   4.552  18.576  1.00  0.00     0.006 C 
BRANCH   7   8
ATOM      8  C   UNL     1       1.877   5.812  17.786  1.00  0.00     0.053 C 
BRANCH   8   9
ATOM      9  C   UNL     1       0.922   6.939  18.037  1.00  0.00     0.041 C 
ATOM     10  O   UNL     1       1.255   8.124  17.775  1.00  0.00    -0.550 OA
ATOM     11  O   UNL     1      -0.352   6.675  18.523  1.00  0.00    -0.550 OA
ENDBRANCH   8   9
ENDBRANCH   7   8
ENDBRANCH   6   7
ENDBRANCH   5   6
ENDBRANCH   4   5
ENDBRANCH   3   4
ENDBRANCH   2   3
ENDBRANCH   1   2
BRANCH   1  12
ATOM     12  C   UNL     1       6.927   8.502  21.741  1.00  0.00     0.000 C 
BRANCH  12  13
ATOM     13  C   UNL     1       7.889   8.721  20.561  1.00  0.00    -0.000 C 
BRANCH  13  14
ATOM     14  C   UNL     1       8.112   7.442  19.736  1.00  0.00    -0.000 C 
BRANCH  14  15
ATOM     15  C   UNL     1       7.368   7.470  18.391  1.00  0.00    -0.000 C 
BRANCH  15  16
ATOM     16  C   UNL     1       5.949   6.887  18.483  1.00  0.00    -0.000 C 
BRANCH  16  17
ATOM     17  C   UNL     1       4.920   7.852  17.878  1.00  0.00    -0.000 C 
BRANCH  17  18
ATOM     18  C   UNL     1       4.571   9.023  18.815  1.00  0.00    -0.000 C 
BRANCH  18  19
ATOM     19  C   UNL     1       5.217  10.368  18.437  1.00  0.00    -0.003 C 
ATOM     20  C   UNL     1       5.359  11.318  19.625  1.00  0.00     0.004 C 
ENDBRANCH  18  19
ENDBRANCH  17  18
ENDBRANCH  16  17
ENDBRANCH  15  16
ENDBRANCH  14  15
ENDBRANCH  13  14
ENDBRANCH  12  13
ENDBRANCH   1  12
TORSDOF 16
ENDMDL
MODEL 2
REMARK VINA RESULT:    -5.322      2.199      4.536
REMARK INTER + INTRA:         -12.989
REMARK INTER:                 -10.358
REMARK INTRA:                  -2.631
REMARK UNBOUND:                -2.689
REMARK SMILES CCCCCCCCCCCCCCCCCC(=O)[O-]
REMARK SMILES IDX 10 1 11 2 12 3 13 4 14 5 15 6 16 7 17 8 18 9 19 10 20 11
REMARK SMILES IDX 9 12 8 13 7 14 6 15 5 16 4 17 3 18 2 19 1 20
REMARK H PARENT
REMARK Flexibility Score: inf
ROOT
ATOM      1  C   UNL     1       7.107   8.456  21.839  1.00  0.00     0.000 C 
ENDROOT
BRANCH   1   2
ATOM      2  C   UNL     1       7.841   8.561  20.485  1.00  0.00     0.000 C 
BRANCH   2   3
ATOM      3  C   UNL     1       7.705   7.303  19.607  1.00  0.00     0.000 C 
BRANCH   3   4
ATOM      4  C   UNL     1       6.683   7.422  18.461  1.00  0.00     0.000 C 
BRANCH   4   5
ATOM      5  C   UNL     1       6.114   6.081  17.955  1.00  0.00     0.000 C 
BRANCH   5   6
ATOM      6  C   UNL     1       5.534   6.112  16.527  1.00  0.00     0.000 C 
BRANCH   6   7
ATOM      7  C   UNL     1       3.994   6.117  16.445  1.00  0.00     0.006 C 
BRANCH   7   8
ATOM      8  C   UNL     1       3.353   7.501  16.622  1.00  0.00     0.053 C 
BRANCH   8   9
ATOM      9  C   UNL     1       3.975   8.524  15.721  1.00  0.00     0.041 C 
ATOM     10  O   UNL     1       3.802   8.462  14.476  1.00  0.00    -0.550 OA
ATOM     11  O   UNL     1       4.713   9.568  16.262  1.00  0.00    -0.550 OA
ENDBRANCH   8   9
ENDBRANCH   7   8
ENDBRANCH   6   7
ENDBRANCH   5   6
ENDBRANCH   4   5
ENDBRANCH   3   4
ENDBRANCH   2   3
ENDBRANCH   1   2
BRANCH   1  12
ATOM     12  C   UNL     1       6.797   6.999  22.224  1.00  0.00     0.000 C 
BRANCH  12  13
ATOM     13  C   UNL     1       5.311   6.772  22.547  1.00  0.00    -0.000 C 
BRANCH  13  14
ATOM     14  C   UNL     1       4.383   7.706  21.749  1.00  0.00    -0.000 C 
BRANCH  14  15
ATOM     15  C   UNL     1       3.714   6.997  20.561  1.00  0.00    -0.000 C 
BRANCH  15  16
ATOM     16  C   UNL     1       3.087   5.649  20.947  1.00  0.00    -0.000 C 
BRANCH  16  17
ATOM     17  C   UNL     1       2.958   4.733  19.721  1.00  0.00    -0.000 C 
BRANCH  17  18
ATOM     18  C   UNL     1       1.505   4.309  19.440  1.00  0.00    -0.000 C 
BRANCH  18  19
ATOM     19  C   UNL     1       0.888   4.921  18.169  1.00  0.00    -0.003 C 
ATOM     20  C   UNL     1       0.267   6.296  18.408  1.00  0.00     0.004 C 
ENDBRANCH  18  19
ENDBRANCH  17  18
ENDBRANCH  16  17
ENDBRANCH  15  16
ENDBRANCH  14  15
ENDBRANCH  13  14
ENDBRANCH  12  13
ENDBRANCH   1  12
TORSDOF 16
ENDMDL
MODEL 3
REMARK VINA RESULT:    -5.297      1.914      3.808
REMARK INTER + INTRA:         -12.940
REMARK INTER:                 -10.665
REMARK INTRA:                  -2.275
REMARK UNBOUND:                -2.689
REMARK SMILES CCCCCCCCCCCCCCCCCC(=O)[O-]
REMARK SMILES IDX 10 1 11 2 12 3 13 4 14 5 15 6 16 7 17 8 18 9 19 10 20 11
REMARK SMILES IDX 9 12 8 13 7 14 6 15 5 16 4 17 3 18 2 19 1 20
REMARK H PARENT
REMARK Flexibility Score: inf
ROOT
ATOM      1  C   UNL     1       3.873   6.613  20.513  1.00  0.00     0.000 C 
ENDROOT
BRANCH   1   2
ATOM      2  C   UNL     1       2.746   5.592  20.783  1.00  0.00     0.000 C 
BRANCH   2   3
ATOM      3  C   UNL     1       2.643   4.487  19.714  1.00  0.00     0.000 C 
BRANCH   3   4
ATOM      4  C   UNL     1       1.364   4.535  18.857  1.00  0.00     0.000 C 
BRANCH   4   5
ATOM      5  C   UNL     1       1.328   5.663  17.805  1.00  0.00     0.000 C 
BRANCH   5   6
ATOM      6  C   UNL     1       2.636   5.866  17.015  1.00  0.00     0.000 C 
BRANCH   6   7
ATOM      7  C   UNL     1       3.017   7.336  16.744  1.00  0.00     0.006 C 
BRANCH   7   8
ATOM      8  C   UNL     1       2.335   8.350  17.673  1.00  0.00     0.053 C 
BRANCH   8   9
ATOM      9  C   UNL     1       2.778   9.753  17.390  1.00  0.00     0.041 C 
ATOM     10  O   UNL     1       3.218  10.063  16.252  1.00  0.00    -0.550 OA
ATOM     11  O   UNL     1       2.668  10.728  18.373  1.00  0.00    -0.550 OA
ENDBRANCH   8   9
ENDBRANCH   7   8
ENDBRANCH   6   7
ENDBRANCH   5   6
ENDBRANCH   4   5
ENDBRANCH   3   4
ENDBRANCH   2   3
ENDBRANCH   1   2
BRANCH   1  12
ATOM     12  C   UNL     1       4.185   7.478  21.747  1.00  0.00     0.000 C 
BRANCH  12  13
ATOM     13  C   UNL     1       4.713   6.654  22.933  1.00  0.00    -0.000 C 
BRANCH  13  14
ATOM     14  C   UNL     1       6.133   7.069  23.355  1.00  0.00    -0.000 C 
BRANCH  14  15
ATOM     15  C   UNL     1       7.113   7.109  22.171  1.00  0.00    -0.000 C 
BRANCH  15  16
ATOM     16  C   UNL     1       7.600   8.530  21.848  1.00  0.00    -0.000 C 
BRANCH  16  17
ATOM     17  C   UNL     1       7.979   8.655  20.365  1.00  0.00    -0.000 C 
BRANCH  17  18
ATOM     18  C   UNL     1       7.747   7.355  19.575  1.00  0.00    -0.000 C 
BRANCH  18  19
ATOM     19  C   UNL     1       6.787   7.487  18.379  1.00  0.00    -0.003 C 
ATOM     20  C   UNL     1       6.419   6.142  17.756  1.00  0.00     0.004 C 
ENDBRANCH  18  19
ENDBRANCH  17  18
ENDBRANCH  16  17
ENDBRANCH  15  16
ENDBRANCH  14  15
ENDBRANCH  13  14
ENDBRANCH  12  13
ENDBRANCH   1  12
TORSDOF 16
ENDMDL
MODEL 4
REMARK VINA RESULT:    -5.292      2.308      5.226
REMARK INTER + INTRA:         -12.931
REMARK INTER:                 -10.436
REMARK INTRA:                  -2.495
REMARK UNBOUND:                -2.689
REMARK SMILES CCCCCCCCCCCCCCCCCC(=O)[O-]
REMARK SMILES IDX 10 1 11 2 12 3 13 4 14 5 15 6 16 7 17 8 18 9 19 10 20 11
REMARK SMILES IDX 9 12 8 13 7 14 6 15 5 16 4 17 3 18 2 19 1 20
REMARK H PARENT
REMARK Flexibility Score: inf
ROOT
ATOM      1  C   UNL     1       3.295   6.561  22.014  1.00  0.00     0.000 C 
ENDROOT
BRANCH   1   2
ATOM      2  C   UNL     1       4.432   7.571  22.284  1.00  0.00     0.000 C 
BRANCH   2   3
ATOM      3  C   UNL     1       5.573   7.003  23.150  1.00  0.00     0.000 C 
BRANCH   3   4
ATOM      4  C   UNL     1       6.960   7.020  22.482  1.00  0.00     0.000 C 
BRANCH   4   5
ATOM      5  C   UNL     1       7.126   8.056  21.351  1.00  0.00     0.000 C 
BRANCH   5   6
ATOM      6  C   UNL     1       7.413   7.464  19.957  1.00  0.00     0.000 C 
BRANCH   6   7
ATOM      7  C   UNL     1       6.289   7.657  18.918  1.00  0.00     0.006 C 
BRANCH   7   8
ATOM      8  C   UNL     1       5.511   8.973  19.063  1.00  0.00     0.053 C 
BRANCH   8   9
ATOM      9  C   UNL     1       6.059  10.047  18.174  1.00  0.00     0.041 C 
ATOM     10  O   UNL     1       6.465   9.767  17.016  1.00  0.00    -0.550 OA
ATOM     11  O   UNL     1       6.084  11.365  18.611  1.00  0.00    -0.550 OA
ENDBRANCH   8   9
ENDBRANCH   7   8
ENDBRANCH   6   7
ENDBRANCH   5   6
ENDBRANCH   4   5
ENDBRANCH   3   4
ENDBRANCH   2   3
ENDBRANCH   1   2
BRANCH   1  12
ATOM     12  C   UNL     1       3.451   5.854  20.656  1.00  0.00     0.000 C 
BRANCH  12  13
ATOM     13  C   UNL     1       2.438   4.714  20.459  1.00  0.00    -0.000 C 
BRANCH  13  14
ATOM     14  C   UNL     1       2.199   4.386  18.975  1.00  0.00    -0.000 C 
BRANCH  14  15
ATOM     15  C   UNL     1       0.768   4.713  18.521  1.00  0.00    -0.000 C 
BRANCH  15  16
ATOM     16  C   UNL     1       0.719   5.821  17.458  1.00  0.00    -0.000 C 
BRANCH  16  17
ATOM     17  C   UNL     1       0.816   7.209  18.108  1.00  0.00    -0.000 C 
BRANCH  17  18
ATOM     18  C   UNL     1       2.146   7.922  17.804  1.00  0.00    -0.000 C 
BRANCH  18  19
ATOM     19  C   UNL     1       3.096   7.148  16.872  1.00  0.00    -0.003 C 
ATOM     20  C   UNL     1       3.657   8.009  15.741  1.00  0.00     0.004 C 
ENDBRANCH  18  19
ENDBRANCH  17  18
ENDBRANCH  16  17
ENDBRANCH  15  16
ENDBRANCH  14  15
ENDBRANCH  13  14
ENDBRANCH  12  13
ENDBRANCH   1  12
TORSDOF 16
ENDMDL
MODEL 5
REMARK VINA RESULT:    -5.278      0.962      2.083
REMARK INTER + INTRA:         -12.903
REMARK INTER:                 -10.606
REMARK INTRA:                  -2.297
REMARK UNBOUND:                -2.689
REMARK SMILES CCCCCCCCCCCCCCCCCC(=O)[O-]
REMARK SMILES IDX 10 1 11 2 12 3 13 4 14 5 15 6 16 7 17 8 18 9 19 10 20 11
REMARK SMILES IDX 9 12 8 13 7 14 6 15 5 16 4 17 3 18 2 19 1 20
REMARK H PARENT
REMARK Flexibility Score: inf
ROOT
ATOM      1  C   UNL     1       5.868   7.060  23.117  1.00  0.00     0.000 C 
ENDROOT
BRANCH   1   2
ATOM      2  C   UNL     1       4.581   7.515  22.395  1.00  0.00     0.000 C 
BRANCH   2   3
ATOM      3  C   UNL     1       3.542   6.393  22.214  1.00  0.00     0.000 C 
BRANCH   3   4
ATOM      4  C   UNL     1       3.267   5.997  20.751  1.00  0.00     0.000 C 
BRANCH   4   5
ATOM      5  C   UNL     1       2.647   4.597  20.561  1.00  0.00     0.000 C 
BRANCH   5   6
ATOM      6  C   UNL     1       2.359   4.200  19.100  1.00  0.00     0.000 C 
BRANCH   6   7
ATOM      7  C   UNL     1       1.047   4.763  18.515  1.00  0.00     0.006 C 
BRANCH   7   8
ATOM      8  C   UNL     1       1.231   5.991  17.611  1.00  0.00     0.053 C 
BRANCH   8   9
ATOM      9  C   UNL     1       0.450   7.170  18.105  1.00  0.00     0.041 C 
ATOM     10  O   UNL     1      -0.534   7.003  18.872  1.00  0.00    -0.550 OA
ATOM     11  O   UNL     1       0.834   8.456  17.749  1.00  0.00    -0.550 OA
ENDBRANCH   8   9
ENDBRANCH   7   8
ENDBRANCH   6   7
ENDBRANCH   5   6
ENDBRANCH   4   5
ENDBRANCH   3   4
ENDBRANCH   2   3
ENDBRANCH   1   2
BRANCH   1  12
ATOM     12  C   UNL     1       7.141   7.565  22.417  1.00  0.00     0.000 C 
BRANCH  12  13
ATOM     13  C   UNL     1       7.099   7.369  20.892  1.00  0.00    -0.000 C 
BRANCH  13  14
ATOM     14  C   UNL     1       7.869   8.465  20.134  1.00  0.00    -0.000 C 
BRANCH  14  15
ATOM     15  C   UNL     1       7.721   9.849  20.786  1.00  0.00    -0.000 C 
BRANCH  15  16
ATOM     16  C   UNL     1       6.751  10.765  20.025  1.00  0.00    -0.000 C 
BRANCH  16  17
ATOM     17  C   UNL     1       5.300  10.507  20.458  1.00  0.00    -0.000 C 
BRANCH  17  18
ATOM     18  C   UNL     1       4.347  10.300  19.267  1.00  0.00    -0.000 C 
BRANCH  18  19
ATOM     19  C   UNL     1       4.069   8.829  18.909  1.00  0.00    -0.003 C 
ATOM     20  C   UNL     1       4.987   8.297  17.810  1.00  0.00     0.004 C 
ENDBRANCH  18  19
ENDBRANCH  17  18
ENDBRANCH  16  17
ENDBRANCH  15  16
ENDBRANCH  14  15
ENDBRANCH  13  14
ENDBRANCH  12  13
ENDBRANCH   1  12
TORSDOF 16
ENDMDL
MODEL 6
REMARK VINA RESULT:    -5.269      2.682      5.420
REMARK INTER + INTRA:         -12.886
REMARK INTER:                 -10.335
REMARK INTRA:                  -2.551
REMARK UNBOUND:                -2.689
REMARK SMILES CCCCCCCCCCCCCCCCCC(=O)[O-]
REMARK SMILES IDX 10 1 11 2 12 3 13 4 14 5 15 6 16 7 17 8 18 9 19 10 20 11
REMARK SMILES IDX 9 12 8 13 7 14 6 15 5 16 4 17 3 18 2 19 1 20
REMARK H PARENT
REMARK Flexibility Score: inf
ROOT
ATOM      1  C   UNL     1       1.094   4.500  18.733  1.00  0.00     0.000 C 
ENDROOT
BRANCH   1   2
ATOM      2  C   UNL     1       0.942   5.643  17.706  1.00  0.00     0.000 C 
BRANCH   2   3
ATOM      3  C   UNL     1       1.090   7.049  18.317  1.00  0.00     0.000 C 
BRANCH   3   4
ATOM      4  C   UNL     1       2.101   7.962  17.599  1.00  0.00     0.000 C 
BRANCH   4   5
ATOM      5  C   UNL     1       3.569   7.784  18.042  1.00  0.00     0.000 C 
BRANCH   5   6
ATOM      6  C   UNL     1       4.469   7.032  17.042  1.00  0.00     0.000 C 
BRANCH   6   7
ATOM      7  C   UNL     1       5.329   5.906  17.653  1.00  0.00     0.006 C 
BRANCH   7   8
ATOM      8  C   UNL     1       6.840   6.180  17.634  1.00  0.00     0.053 C 
BRANCH   8   9
ATOM      9  C   UNL     1       7.313   6.605  16.278  1.00  0.00     0.041 C 
ATOM     10  O   UNL     1       7.283   5.798  15.313  1.00  0.00    -0.550 OA
ATOM     11  O   UNL     1       7.752   7.907  16.072  1.00  0.00    -0.550 OA
ENDBRANCH   8   9
ENDBRANCH   7   8
ENDBRANCH   6   7
ENDBRANCH   5   6
ENDBRANCH   4   5
ENDBRANCH   3   4
ENDBRANCH   2   3
ENDBRANCH   1   2
BRANCH   1  12
ATOM     12  C   UNL     1       2.532   4.383  19.267  1.00  0.00     0.000 C 
BRANCH  12  13
ATOM     13  C   UNL     1       2.644   4.744  20.758  1.00  0.00    -0.000 C 
BRANCH  13  14
ATOM     14  C   UNL     1       3.471   6.019  20.996  1.00  0.00    -0.000 C 
BRANCH  14  15
ATOM     15  C   UNL     1       3.791   6.246  22.483  1.00  0.00    -0.000 C 
BRANCH  15  16
ATOM     16  C   UNL     1       5.060   7.084  22.698  1.00  0.00    -0.000 C 
BRANCH  16  17
ATOM     17  C   UNL     1       5.585   7.637  21.364  1.00  0.00    -0.000 C 
BRANCH  17  18
ATOM     18  C   UNL     1       7.102   7.445  21.191  1.00  0.00    -0.000 C 
BRANCH  18  19
ATOM     19  C   UNL     1       7.791   8.500  20.306  1.00  0.00    -0.003 C 
ATOM     20  C   UNL     1       6.801   9.383  19.548  1.00  0.00     0.004 C 
ENDBRANCH  18  19
ENDBRANCH  17  18
ENDBRANCH  16  17
ENDBRANCH  15  16
ENDBRANCH  14  15
ENDBRANCH  13  14
ENDBRANCH  12  13
ENDBRANCH   1  12
TORSDOF 16
ENDMDL
MODEL 7
REMARK VINA RESULT:    -5.252      2.095      4.962
REMARK INTER + INTRA:         -12.854
REMARK INTER:                 -10.277
REMARK INTRA:                  -2.576
REMARK UNBOUND:                -2.689
REMARK SMILES CCCCCCCCCCCCCCCCCC(=O)[O-]
REMARK SMILES IDX 10 1 11 2 12 3 13 4 14 5 15 6 16 7 17 8 18 9 19 10 20 11
REMARK SMILES IDX 9 12 8 13 7 14 6 15 5 16 4 17 3 18 2 19 1 20
REMARK H PARENT
REMARK Flexibility Score: inf
ROOT
ATOM      1  C   UNL     1       6.920   7.621  22.848  1.00  0.00     0.000 C 
ENDROOT
BRANCH   1   2
ATOM      2  C   UNL     1       6.814   8.237  21.436  1.00  0.00     0.000 C 
BRANCH   2   3
ATOM      3  C   UNL     1       7.877   7.715  20.450  1.00  0.00     0.000 C 
BRANCH   3   4
ATOM      4  C   UNL     1       7.362   7.458  19.022  1.00  0.00     0.000 C 
BRANCH   4   5
ATOM      5  C   UNL     1       5.861   7.112  18.923  1.00  0.00     0.000 C 
BRANCH   5   6
ATOM      6  C   UNL     1       5.029   8.055  18.032  1.00  0.00     0.000 C 
BRANCH   6   7
ATOM      7  C   UNL     1       3.895   8.810  18.756  1.00  0.00     0.006 C 
BRANCH   7   8
ATOM      8  C   UNL     1       4.330  10.127  19.415  1.00  0.00     0.053 C 
BRANCH   8   9
ATOM      9  C   UNL     1       5.367  10.842  18.604  1.00  0.00     0.041 C 
ATOM     10  O   UNL     1       6.558  10.903  19.007  1.00  0.00    -0.550 OA
ATOM     11  O   UNL     1       5.024  11.409  17.383  1.00  0.00    -0.550 OA
ENDBRANCH   8   9
ENDBRANCH   7   8
ENDBRANCH   6   7
ENDBRANCH   5   6
ENDBRANCH   4   5
ENDBRANCH   3   4
ENDBRANCH   2   3
ENDBRANCH   1   2
BRANCH   1  12
ATOM     12  C   UNL     1       5.586   7.023  23.326  1.00  0.00     0.000 C 
BRANCH  12  13
ATOM     13  C   UNL     1       4.409   7.378  22.402  1.00  0.00    -0.000 C 
BRANCH  13  14
ATOM     14  C   UNL     1       3.410   6.218  22.246  1.00  0.00    -0.000 C 
BRANCH  14  15
ATOM     15  C   UNL     1       2.904   6.066  20.803  1.00  0.00    -0.000 C 
BRANCH  15  16
ATOM     16  C   UNL     1       2.723   4.597  20.387  1.00  0.00    -0.000 C 
BRANCH  16  17
ATOM     17  C   UNL     1       1.688   4.471  19.259  1.00  0.00    -0.000 C 
BRANCH  17  18
ATOM     18  C   UNL     1       2.151   5.123  17.944  1.00  0.00    -0.000 C 
BRANCH  18  19
ATOM     19  C   UNL     1       1.292   6.310  17.473  1.00  0.00    -0.003 C 
ATOM     20  C   UNL     1       0.101   6.587  18.389  1.00  0.00     0.004 C 
ENDBRANCH  18  19
ENDBRANCH  17  18
ENDBRANCH  16  17
ENDBRANCH  15  16
ENDBRANCH  14  15
ENDBRANCH  13  14
ENDBRANCH  12  13
ENDBRANCH   1  12
TORSDOF 16
ENDMDL
MODEL 8
REMARK VINA RESULT:    -5.217      2.828      5.680
REMARK INTER + INTRA:         -12.785
REMARK INTER:                 -10.705
REMARK INTRA:                  -2.080
REMARK UNBOUND:                -2.689
REMARK SMILES CCCCCCCCCCCCCCCCCC(=O)[O-]
REMARK SMILES IDX 10 1 11 2 12 3 13 4 14 5 15 6 16 7 17 8 18 9 19 10 20 11
REMARK SMILES IDX 9 12 8 13 7 14 6 15 5 16 4 17 3 18 2 19 1 20
REMARK H PARENT
REMARK Flexibility Score: inf
ROOT
ATOM      1  C   UNL     1       1.294   4.399  19.583  1.00  0.00     0.000 C 
ENDROOT
BRANCH   1   2
ATOM      2  C   UNL     1       2.700   4.494  20.213  1.00  0.00     0.000 C 
BRANCH   2   3
ATOM      3  C   UNL     1       3.032   5.887  20.782  1.00  0.00     0.000 C 
BRANCH   3   4
ATOM      4  C   UNL     1       3.609   5.882  22.209  1.00  0.00     0.000 C 
BRANCH   4   5
ATOM      5  C   UNL     1       4.296   7.195  22.639  1.00  0.00     0.000 C 
BRANCH   5   6
ATOM      6  C   UNL     1       5.647   7.022  23.360  1.00  0.00     0.000 C 
BRANCH   6   7
ATOM      7  C   UNL     1       6.871   7.574  22.601  1.00  0.00     0.006 C 
BRANCH   7   8
ATOM      8  C   UNL     1       6.816   7.376  21.079  1.00  0.00     0.053 C 
BRANCH   8   9
ATOM      9  C   UNL     1       7.583   8.436  20.349  1.00  0.00     0.041 C 
ATOM     10  O   UNL     1       7.248   9.645  20.450  1.00  0.00    -0.550 OA
ATOM     11  O   UNL     1       8.692   8.091  19.588  1.00  0.00    -0.550 OA
ENDBRANCH   8   9
ENDBRANCH   7   8
ENDBRANCH   6   7
ENDBRANCH   5   6
ENDBRANCH   4   5
ENDBRANCH   3   4
ENDBRANCH   2   3
ENDBRANCH   1   2
BRANCH   1  12
ATOM     12  C   UNL     1       1.264   4.926  18.138  1.00  0.00     0.000 C 
BRANCH  12  13
ATOM     13  C   UNL     1       0.732   6.366  18.040  1.00  0.00    -0.000 C 
BRANCH  13  14
ATOM     14  C   UNL     1       1.829   7.377  17.667  1.00  0.00    -0.000 C 
BRANCH  14  15
ATOM     15  C   UNL     1       3.070   6.705  17.060  1.00  0.00    -0.000 C 
BRANCH  15  16
ATOM     16  C   UNL     1       4.381   7.177  17.709  1.00  0.00    -0.000 C 
BRANCH  16  17
ATOM     17  C   UNL     1       5.361   6.007  17.879  1.00  0.00    -0.000 C 
BRANCH  17  18
ATOM     18  C   UNL     1       6.723   6.264  17.210  1.00  0.00    -0.000 C 
BRANCH  18  19
ATOM     19  C   UNL     1       6.808   7.567  16.396  1.00  0.00    -0.003 C 
ATOM     20  C   UNL     1       6.968   7.327  14.896  1.00  0.00     0.004 C 
ENDBRANCH  18  19
ENDBRANCH  17  18
ENDBRANCH  16  17
ENDBRANCH  15  16
ENDBRANCH  14  15
ENDBRANCH  13  14
ENDBRANCH  12  13
ENDBRANCH   1  12
TORSDOF 16
ENDMDL
MODEL 9
REMARK VINA RESULT:    -5.217      1.302      2.362
REMARK INTER + INTRA:         -12.785
REMARK INTER:                 -10.720
REMARK INTRA:                  -2.065
REMARK UNBOUND:                -2.689
REMARK SMILES CCCCCCCCCCCCCCCCCC(=O)[O-]
REMARK SMILES IDX 10 1 11 2 12 3 13 4 14 5 15 6 16 7 17 8 18 9 19 10 20 11
REMARK SMILES IDX 9 12 8 13 7 14 6 15 5 16 4 17 3 18 2 19 1 20
REMARK H PARENT
REMARK Flexibility Score: inf
ROOT
ATOM      1  C   UNL     1       6.912   7.804  22.959  1.00  0.00     0.000 C 
ENDROOT
BRANCH   1   2
ATOM      2  C   UNL     1       5.737   7.014  23.576  1.00  0.00     0.000 C 
BRANCH   2   3
ATOM      3  C   UNL     1       4.418   7.154  22.794  1.00  0.00     0.000 C 
BRANCH   3   4
ATOM      4  C   UNL     1       3.881   5.843  22.192  1.00  0.00     0.000 C 
BRANCH   4   5
ATOM      5  C   UNL     1       3.030   6.013  20.916  1.00  0.00     0.000 C 
BRANCH   5   6
ATOM      6  C   UNL     1       2.397   4.717  20.372  1.00  0.00     0.000 C 
BRANCH   6   7
ATOM      7  C   UNL     1       2.368   4.597  18.834  1.00  0.00     0.006 C 
BRANCH   7   8
ATOM      8  C   UNL     1       1.028   4.985  18.192  1.00  0.00     0.053 C 
BRANCH   8   9
ATOM      9  C   UNL     1       0.854   6.471  18.118  1.00  0.00     0.041 C 
ATOM     10  O   UNL     1       1.793   7.200  17.705  1.00  0.00    -0.550 OA
ATOM     11  O   UNL     1      -0.360   7.047  18.469  1.00  0.00    -0.550 OA
ENDBRANCH   8   9
ENDBRANCH   7   8
ENDBRANCH   6   7
ENDBRANCH   5   6
ENDBRANCH   4   5
ENDBRANCH   3   4
ENDBRANCH   2   3
ENDBRANCH   1   2
BRANCH   1  12
ATOM     12  C   UNL     1       7.234   7.347  21.526  1.00  0.00     0.000 C 
BRANCH  12  13
ATOM     13  C   UNL     1       7.683   8.505  20.619  1.00  0.00    -0.000 C 
BRANCH  13  14
ATOM     14  C   UNL     1       6.503   9.193  19.910  1.00  0.00    -0.000 C 
BRANCH  14  15
ATOM     15  C   UNL     1       5.368   8.215  19.570  1.00  0.00    -0.000 C 
BRANCH  15  16
ATOM     16  C   UNL     1       5.358   7.805  18.089  1.00  0.00    -0.000 C 
BRANCH  16  17
ATOM     17  C   UNL     1       5.671   6.310  17.932  1.00  0.00    -0.000 C 
BRANCH  17  18
ATOM     18  C   UNL     1       7.116   6.044  17.475  1.00  0.00    -0.000 C 
BRANCH  18  19
ATOM     19  C   UNL     1       7.618   6.966  16.349  1.00  0.00    -0.003 C 
ATOM     20  C   UNL     1       7.015   6.628  14.986  1.00  0.00     0.004 C 
ENDBRANCH  18  19
ENDBRANCH  17  18
ENDBRANCH  16  17
ENDBRANCH  15  16
ENDBRANCH  14  15
ENDBRANCH  13  14
ENDBRANCH  12  13
ENDBRANCH   1  12
TORSDOF 16
ENDMDL
