MODEL 1
REMARK VINA RESULT:    -4.045      0.000      0.000
REMARK INTER + INTRA:         -15.124
REMARK INTER:                 -10.193
REMARK INTRA:                  -4.930
REMARK UNBOUND:                -4.930
REMARK SMILES CCCCCCCCCCCCCCCCCCCCCCCCCCCC(=O)[O-]
REMARK SMILES IDX 15 1 16 2 17 3 18 4 19 5 20 6 21 7 22 8 23 9 24 10 25 11
REMARK SMILES IDX 26 12 27 13 28 14 29 15 30 16 14 17 13 18 12 19 11 20 10 21
REMARK SMILES IDX 9 22 8 23 7 24 6 25 5 26 4 27 3 28 2 29 1 30
REMARK H PARENT
REMARK Flexibility Score: inf
ROOT
ATOM      1  C   UNL     1    -112.354 -40.756 -65.778  1.00  0.00     0.000 C 
ENDROOT
BRANCH   1   2
ATOM      2  C   UNL     1    -113.569 -41.453 -65.141  1.00  0.00     0.000 C 
BRANCH   2   3
ATOM      3  C   UNL     1    -114.522 -42.053 -66.196  1.00  0.00     0.000 C 
BRANCH   3   4
ATOM      4  C   UNL     1    -113.980 -41.982 -67.634  1.00  0.00     0.000 C 
BRANCH   4   5
ATOM      5  C   UNL     1    -113.405 -43.323 -68.117  1.00  0.00     0.000 C 
BRANCH   5   6
ATOM      6  C   UNL     1    -112.928 -43.279 -69.579  1.00  0.00     0.000 C 
BRANCH   6   7
ATOM      7  C   UNL     1    -111.449 -43.666 -69.739  1.00  0.00     0.000 C 
BRANCH   7   8
ATOM      8  C   UNL     1    -110.709 -43.738 -68.393  1.00  0.00     0.000 C 
BRANCH   8   9
ATOM      9  C   UNL     1    -109.242 -43.260 -68.470  1.00  0.00     0.000 C 
BRANCH   9  10
ATOM     10  C   UNL     1    -108.891 -42.662 -69.841  1.00  0.00     0.000 C 
BRANCH  10  11
ATOM     11  C   UNL     1    -108.631 -41.155 -69.727  1.00  0.00     0.000 C 
BRANCH  11  12
ATOM     12  C   UNL     1    -108.923 -40.440 -71.056  1.00  0.00     0.006 C 
BRANCH  12  13
ATOM     13  C   UNL     1    -110.007 -39.364 -70.911  1.00  0.00     0.053 C 
BRANCH  13  14
ATOM     14  C   UNL     1    -111.358 -39.962 -70.655  1.00  0.00     0.041 C 
ATOM     15  O   UNL     1    -112.014 -40.478 -71.599  1.00  0.00    -0.550 OA
ATOM     16  O   UNL     1    -111.878 -39.980 -69.367  1.00  0.00    -0.550 OA
ENDBRANCH  13  14
ENDBRANCH  12  13
ENDBRANCH  11  12
ENDBRANCH  10  11
ENDBRANCH   9  10
ENDBRANCH   8   9
ENDBRANCH   7   8
ENDBRANCH   6   7
ENDBRANCH   5   6
ENDBRANCH   4   5
ENDBRANCH   3   4
ENDBRANCH   2   3
ENDBRANCH   1   2
BRANCH   1  17
ATOM     17  C   UNL     1    -111.046 -41.537 -65.566  1.00  0.00     0.000 C 
BRANCH  17  18
ATOM     18  C   UNL     1    -111.289 -42.919 -64.931  1.00  0.00     0.000 C 
BRANCH  18  19
ATOM     19  C   UNL     1    -110.112 -43.390 -64.063  1.00  0.00     0.000 C 
BRANCH  19  20
ATOM     20  C   UNL     1    -108.793 -43.481 -64.852  1.00  0.00     0.000 C 
BRANCH  20  21
ATOM     21  C   UNL     1    -107.557 -43.432 -63.937  1.00  0.00     0.000 C 
BRANCH  21  22
ATOM     22  C   UNL     1    -107.935 -43.262 -62.457  1.00  0.00    -0.000 C 
BRANCH  22  23
ATOM     23  C   UNL     1    -107.423 -41.926 -61.904  1.00  0.00    -0.000 C 
BRANCH  23  24
ATOM     24  C   UNL     1    -106.605 -41.176 -62.967  1.00  0.00    -0.000 C 
BRANCH  24  25
ATOM     25  C   UNL     1    -106.667 -39.648 -62.804  1.00  0.00    -0.000 C 
BRANCH  25  26
ATOM     26  C   UNL     1    -107.368 -38.904 -63.956  1.00  0.00    -0.000 C 
BRANCH  26  27
ATOM     27  C   UNL     1    -108.159 -39.832 -64.903  1.00  0.00    -0.000 C 
BRANCH  27  28
ATOM     28  C   UNL     1    -107.786 -39.610 -66.378  1.00  0.00    -0.000 C 
BRANCH  28  29
ATOM     29  C   UNL     1    -106.348 -40.064 -66.656  1.00  0.00    -0.003 C 
ATOM     30  C   UNL     1    -106.277 -41.574 -66.855  1.00  0.00     0.004 C 
ENDBRANCH  28  29
ENDBRANCH  27  28
ENDBRANCH  26  27
ENDBRANCH  25  26
ENDBRANCH  24  25
ENDBRANCH  23  24
ENDBRANCH  22  23
ENDBRANCH  21  22
ENDBRANCH  20  21
ENDBRANCH  19  20
ENDBRANCH  18  19
ENDBRANCH  17  18
ENDBRANCH   1  17
TORSDOF 26
ENDMDL
MODEL 2
REMARK VINA RESULT:    -4.025      4.698      8.419
REMARK INTER + INTRA:         -15.074
REMARK INTER:                 -10.955
REMARK INTRA:                  -4.119
REMARK UNBOUND:                -4.930
REMARK SMILES CCCCCCCCCCCCCCCCCCCCCCCCCCCC(=O)[O-]
REMARK SMILES IDX 15 1 16 2 17 3 18 4 19 5 20 6 21 7 22 8 23 9 24 10 25 11
REMARK SMILES IDX 26 12 27 13 28 14 29 15 30 16 14 17 13 18 12 19 11 20 10 21
REMARK SMILES IDX 9 22 8 23 7 24 6 25 5 26 4 27 3 28 2 29 1 30
REMARK H PARENT
REMARK Flexibility Score: inf
ROOT
ATOM      1  C   UNL     1    -113.289 -41.865 -64.676  1.00  0.00     0.000 C 
ENDROOT
BRANCH   1   2
ATOM      2  C   UNL     1    -112.188 -42.883 -64.333  1.00  0.00     0.000 C 
BRANCH   2   3
ATOM      3  C   UNL     1    -110.844 -42.546 -65.014  1.00  0.00     0.000 C 
BRANCH   3   4
ATOM      4  C   UNL     1    -110.021 -43.785 -65.406  1.00  0.00     0.000 C 
BRANCH   4   5
ATOM      5  C   UNL     1    -108.613 -43.780 -64.789  1.00  0.00     0.000 C 
BRANCH   5   6
ATOM      6  C   UNL     1    -108.471 -42.782 -63.627  1.00  0.00     0.000 C 
BRANCH   6   7
ATOM      7  C   UNL     1    -107.873 -43.417 -62.361  1.00  0.00     0.000 C 
BRANCH   7   8
ATOM      8  C   UNL     1    -106.393 -43.798 -62.534  1.00  0.00     0.000 C 
BRANCH   8   9
ATOM      9  C   UNL     1    -105.444 -43.024 -61.593  1.00  0.00     0.000 C 
BRANCH   9  10
ATOM     10  C   UNL     1    -106.192 -42.338 -60.440  1.00  0.00     0.000 C 
BRANCH  10  11
ATOM     11  C   UNL     1    -105.907 -43.043 -59.109  1.00  0.00     0.000 C 
BRANCH  11  12
ATOM     12  C   UNL     1    -104.695 -42.420 -58.400  1.00  0.00     0.006 C 
BRANCH  12  13
ATOM     13  C   UNL     1    -105.092 -41.661 -57.126  1.00  0.00     0.053 C 
BRANCH  13  14
ATOM     14  C   UNL     1    -103.966 -41.596 -56.140  1.00  0.00     0.041 C 
ATOM     15  O   UNL     1    -103.692 -42.594 -55.421  1.00  0.00    -0.550 OA
ATOM     16  O   UNL     1    -103.195 -40.445 -56.037  1.00  0.00    -0.550 OA
ENDBRANCH  13  14
ENDBRANCH  12  13
ENDBRANCH  11  12
ENDBRANCH  10  11
ENDBRANCH   9  10
ENDBRANCH   8   9
ENDBRANCH   7   8
ENDBRANCH   6   7
ENDBRANCH   5   6
ENDBRANCH   4   5
ENDBRANCH   3   4
ENDBRANCH   2   3
ENDBRANCH   1   2
BRANCH   1  17
ATOM     17  C   UNL     1    -112.837 -40.837 -65.728  1.00  0.00     0.000 C 
BRANCH  17  18
ATOM     18  C   UNL     1    -113.633 -40.956 -67.041  1.00  0.00     0.000 C 
BRANCH  18  19
ATOM     19  C   UNL     1    -114.245 -42.350 -67.241  1.00  0.00     0.000 C 
BRANCH  19  20
ATOM     20  C   UNL     1    -113.345 -43.278 -68.077  1.00  0.00     0.000 C 
BRANCH  20  21
ATOM     21  C   UNL     1    -112.490 -42.505 -69.098  1.00  0.00     0.000 C 
BRANCH  21  22
ATOM     22  C   UNL     1    -110.992 -42.820 -68.960  1.00  0.00    -0.000 C 
BRANCH  22  23
ATOM     23  C   UNL     1    -110.197 -41.570 -68.562  1.00  0.00    -0.000 C 
BRANCH  23  24
ATOM     24  C   UNL     1    -108.706 -41.904 -68.401  1.00  0.00    -0.000 C 
BRANCH  24  25
ATOM     25  C   UNL     1    -108.049 -41.160 -67.225  1.00  0.00    -0.000 C 
BRANCH  25  26
ATOM     26  C   UNL     1    -108.857 -39.964 -66.687  1.00  0.00    -0.000 C 
BRANCH  26  27
ATOM     27  C   UNL     1    -108.453 -39.533 -65.261  1.00  0.00    -0.000 C 
BRANCH  27  28
ATOM     28  C   UNL     1    -107.344 -38.469 -65.269  1.00  0.00    -0.000 C 
BRANCH  28  29
ATOM     29  C   UNL     1    -106.618 -38.419 -63.919  1.00  0.00    -0.003 C 
ATOM     30  C   UNL     1    -106.290 -39.821 -63.420  1.00  0.00     0.004 C 
ENDBRANCH  28  29
ENDBRANCH  27  28
ENDBRANCH  26  27
ENDBRANCH  25  26
ENDBRANCH  24  25
ENDBRANCH  23  24
ENDBRANCH  22  23
ENDBRANCH  21  22
ENDBRANCH  20  21
ENDBRANCH  19  20
ENDBRANCH  18  19
ENDBRANCH  17  18
ENDBRANCH   1  17
TORSDOF 26
ENDMDL
MODEL 3
REMARK VINA RESULT:    -3.952      1.622      4.360
REMARK INTER + INTRA:         -14.890
REMARK INTER:                 -10.160
REMARK INTRA:                  -4.729
REMARK UNBOUND:                -4.930
REMARK SMILES CCCCCCCCCCCCCCCCCCCCCCCCCCCC(=O)[O-]
REMARK SMILES IDX 15 1 16 2 17 3 18 4 19 5 20 6 21 7 22 8 23 9 24 10 25 11
REMARK SMILES IDX 26 12 27 13 28 14 29 15 30 16 14 17 13 18 12 19 11 20 10 21
REMARK SMILES IDX 9 22 8 23 7 24 6 25 5 26 4 27 3 28 2 29 1 30
REMARK H PARENT
REMARK Flexibility Score: inf
ROOT
ATOM      1  C   UNL     1    -106.371 -42.909 -66.087  1.00  0.00     0.000 C 
ENDROOT
BRANCH   1   2
ATOM      2  C   UNL     1    -107.437 -43.970 -66.411  1.00  0.00     0.000 C 
BRANCH   2   3
ATOM      3  C   UNL     1    -108.330 -43.563 -67.603  1.00  0.00     0.000 C 
BRANCH   3   4
ATOM      4  C   UNL     1    -109.831 -43.529 -67.269  1.00  0.00     0.000 C 
BRANCH   4   5
ATOM      5  C   UNL     1    -110.112 -43.768 -65.777  1.00  0.00     0.000 C 
BRANCH   5   6
ATOM      6  C   UNL     1    -110.871 -42.604 -65.116  1.00  0.00     0.000 C 
BRANCH   6   7
ATOM      7  C   UNL     1    -111.949 -43.077 -64.128  1.00  0.00     0.000 C 
BRANCH   7   8
ATOM      8  C   UNL     1    -113.193 -42.172 -64.133  1.00  0.00     0.000 C 
BRANCH   8   9
ATOM      9  C   UNL     1    -113.373 -41.382 -65.447  1.00  0.00     0.000 C 
BRANCH   9  10
ATOM     10  C   UNL     1    -114.372 -42.051 -66.403  1.00  0.00     0.000 C 
BRANCH  10  11
ATOM     11  C   UNL     1    -113.661 -43.054 -67.320  1.00  0.00     0.000 C 
BRANCH  11  12
ATOM     12  C   UNL     1    -113.747 -42.618 -68.791  1.00  0.00     0.006 C 
BRANCH  12  13
ATOM     13  C   UNL     1    -112.397 -42.126 -69.331  1.00  0.00     0.053 C 
BRANCH  13  14
ATOM     14  C   UNL     1    -112.364 -40.634 -69.476  1.00  0.00     0.041 C 
ATOM     15  O   UNL     1    -113.198 -39.916 -68.861  1.00  0.00    -0.550 OA
ATOM     16  O   UNL     1    -111.391 -40.032 -70.265  1.00  0.00    -0.550 OA
ENDBRANCH  13  14
ENDBRANCH  12  13
ENDBRANCH  11  12
ENDBRANCH  10  11
ENDBRANCH   9  10
ENDBRANCH   8   9
ENDBRANCH   7   8
ENDBRANCH   6   7
ENDBRANCH   5   6
ENDBRANCH   4   5
ENDBRANCH   3   4
ENDBRANCH   2   3
ENDBRANCH   1   2
BRANCH   1  17
ATOM     17  C   UNL     1    -106.306 -42.576 -64.587  1.00  0.00     0.000 C 
BRANCH  17  18
ATOM     18  C   UNL     1    -107.156 -43.538 -63.738  1.00  0.00     0.000 C 
BRANCH  18  19
ATOM     19  C   UNL     1    -108.088 -42.806 -62.761  1.00  0.00     0.000 C 
BRANCH  19  20
ATOM     20  C   UNL     1    -107.358 -41.720 -61.949  1.00  0.00     0.000 C 
BRANCH  20  21
ATOM     21  C   UNL     1    -106.631 -42.294 -60.720  1.00  0.00     0.000 C 
BRANCH  21  22
ATOM     22  C   UNL     1    -105.268 -41.622 -60.485  1.00  0.00    -0.000 C 
BRANCH  22  23
ATOM     23  C   UNL     1    -104.289 -41.942 -61.622  1.00  0.00    -0.000 C 
BRANCH  23  24
ATOM     24  C   UNL     1    -103.780 -40.650 -62.280  1.00  0.00    -0.000 C 
BRANCH  24  25
ATOM     25  C   UNL     1    -104.277 -39.379 -61.568  1.00  0.00    -0.000 C 
BRANCH  25  26
ATOM     26  C   UNL     1    -105.047 -38.396 -62.469  1.00  0.00    -0.000 C 
BRANCH  26  27
ATOM     27  C   UNL     1    -105.602 -39.038 -63.758  1.00  0.00    -0.000 C 
BRANCH  27  28
ATOM     28  C   UNL     1    -107.044 -38.596 -64.052  1.00  0.00    -0.000 C 
BRANCH  28  29
ATOM     29  C   UNL     1    -107.474 -39.019 -65.462  1.00  0.00    -0.003 C 
ATOM     30  C   UNL     1    -108.712 -39.908 -65.416  1.00  0.00     0.004 C 
ENDBRANCH  28  29
ENDBRANCH  27  28
ENDBRANCH  26  27
ENDBRANCH  25  26
ENDBRANCH  24  25
ENDBRANCH  23  24
ENDBRANCH  22  23
ENDBRANCH  21  22
ENDBRANCH  20  21
ENDBRANCH  19  20
ENDBRANCH  18  19
ENDBRANCH  17  18
ENDBRANCH   1  17
TORSDOF 26
ENDMDL
MODEL 4
REMARK VINA RESULT:    -3.936      3.199      5.015
REMARK INTER + INTRA:         -14.849
REMARK INTER:                 -11.637
REMARK INTRA:                  -3.211
REMARK UNBOUND:                -4.930
REMARK SMILES CCCCCCCCCCCCCCCCCCCCCCCCCCCC(=O)[O-]
REMARK SMILES IDX 15 1 16 2 17 3 18 4 19 5 20 6 21 7 22 8 23 9 24 10 25 11
REMARK SMILES IDX 26 12 27 13 28 14 29 15 30 16 14 17 13 18 12 19 11 20 10 21
REMARK SMILES IDX 9 22 8 23 7 24 6 25 5 26 4 27 3 28 2 29 1 30
REMARK H PARENT
REMARK Flexibility Score: inf
ROOT
ATOM      1  C   UNL     1    -112.646 -40.756 -66.110  1.00  0.00     0.000 C 
ENDROOT
BRANCH   1   2
ATOM      2  C   UNL     1    -113.313 -40.836 -67.495  1.00  0.00     0.000 C 
BRANCH   2   3
ATOM      3  C   UNL     1    -114.183 -42.101 -67.656  1.00  0.00     0.000 C 
BRANCH   3   4
ATOM      4  C   UNL     1    -113.743 -43.013 -68.813  1.00  0.00     0.000 C 
BRANCH   4   5
ATOM      5  C   UNL     1    -112.338 -43.600 -68.602  1.00  0.00     0.000 C 
BRANCH   5   6
ATOM      6  C   UNL     1    -111.406 -43.373 -69.805  1.00  0.00     0.000 C 
BRANCH   6   7
ATOM      7  C   UNL     1    -109.977 -43.883 -69.560  1.00  0.00     0.000 C 
BRANCH   7   8
ATOM      8  C   UNL     1    -109.664 -44.068 -68.066  1.00  0.00     0.000 C 
BRANCH   8   9
ATOM      9  C   UNL     1    -108.545 -43.136 -67.550  1.00  0.00     0.000 C 
BRANCH   9  10
ATOM     10  C   UNL     1    -108.629 -41.727 -68.157  1.00  0.00     0.000 C 
BRANCH  10  11
ATOM     11  C   UNL     1    -109.147 -40.719 -67.125  1.00  0.00     0.000 C 
BRANCH  11  12
ATOM     12  C   UNL     1    -107.986 -39.985 -66.435  1.00  0.00     0.006 C 
BRANCH  12  13
ATOM     13  C   UNL     1    -108.420 -39.314 -65.125  1.00  0.00     0.053 C 
BRANCH  13  14
ATOM     14  C   UNL     1    -107.262 -38.685 -64.410  1.00  0.00     0.041 C 
ATOM     15  O   UNL     1    -106.991 -39.014 -63.225  1.00  0.00    -0.550 OA
ATOM     16  O   UNL     1    -106.460 -37.758 -65.065  1.00  0.00    -0.550 OA
ENDBRANCH  13  14
ENDBRANCH  12  13
ENDBRANCH  11  12
ENDBRANCH  10  11
ENDBRANCH   9  10
ENDBRANCH   8   9
ENDBRANCH   7   8
ENDBRANCH   6   7
ENDBRANCH   5   6
ENDBRANCH   4   5
ENDBRANCH   3   4
ENDBRANCH   2   3
ENDBRANCH   1   2
BRANCH   1  17
ATOM     17  C   UNL     1    -113.452 -41.489 -65.024  1.00  0.00     0.000 C 
BRANCH  17  18
ATOM     18  C   UNL     1    -112.638 -42.608 -64.348  1.00  0.00     0.000 C 
BRANCH  18  19
ATOM     19  C   UNL     1    -111.238 -42.777 -64.957  1.00  0.00     0.000 C 
BRANCH  19  20
ATOM     20  C   UNL     1    -110.268 -43.514 -64.016  1.00  0.00     0.000 C 
BRANCH  20  21
ATOM     21  C   UNL     1    -108.894 -42.824 -63.930  1.00  0.00     0.000 C 
BRANCH  21  22
ATOM     22  C   UNL     1    -108.049 -43.355 -62.761  1.00  0.00    -0.000 C 
BRANCH  22  23
ATOM     23  C   UNL     1    -107.442 -42.204 -61.948  1.00  0.00    -0.000 C 
BRANCH  23  24
ATOM     24  C   UNL     1    -106.563 -42.747 -60.811  1.00  0.00    -0.000 C 
BRANCH  24  25
ATOM     25  C   UNL     1    -105.417 -41.793 -60.433  1.00  0.00    -0.000 C 
BRANCH  25  26
ATOM     26  C   UNL     1    -105.220 -41.590 -58.919  1.00  0.00    -0.000 C 
BRANCH  26  27
ATOM     27  C   UNL     1    -104.473 -40.288 -58.558  1.00  0.00    -0.000 C 
BRANCH  27  28
ATOM     28  C   UNL     1    -104.350 -40.092 -57.039  1.00  0.00    -0.000 C 
BRANCH  28  29
ATOM     29  C   UNL     1    -104.350 -41.439 -56.307  1.00  0.00    -0.003 C 
ATOM     30  C   UNL     1    -103.007 -42.145 -56.455  1.00  0.00     0.004 C 
ENDBRANCH  28  29
ENDBRANCH  27  28
ENDBRANCH  26  27
ENDBRANCH  25  26
ENDBRANCH  24  25
ENDBRANCH  23  24
ENDBRANCH  22  23
ENDBRANCH  21  22
ENDBRANCH  20  21
ENDBRANCH  19  20
ENDBRANCH  18  19
ENDBRANCH  17  18
ENDBRANCH   1  17
TORSDOF 26
ENDMDL
MODEL 5
REMARK VINA RESULT:    -3.927      2.517      6.829
REMARK INTER + INTRA:         -14.825
REMARK INTER:                  -9.483
REMARK INTRA:                  -5.342
REMARK UNBOUND:                -4.930
REMARK SMILES CCCCCCCCCCCCCCCCCCCCCCCCCCCC(=O)[O-]
REMARK SMILES IDX 15 1 16 2 17 3 18 4 19 5 20 6 21 7 22 8 23 9 24 10 25 11
REMARK SMILES IDX 26 12 27 13 28 14 29 15 30 16 14 17 13 18 12 19 11 20 10 21
REMARK SMILES IDX 9 22 8 23 7 24 6 25 5 26 4 27 3 28 2 29 1 30
REMARK H PARENT
REMARK Flexibility Score: inf
ROOT
ATOM      1  C   UNL     1    -109.966 -41.258 -65.806  1.00  0.00     0.000 C 
ENDROOT
BRANCH   1   2
ATOM      2  C   UNL     1    -108.558 -41.250 -66.428  1.00  0.00     0.000 C 
BRANCH   2   3
ATOM      3  C   UNL     1    -107.981 -42.673 -66.595  1.00  0.00     0.000 C 
BRANCH   3   4
ATOM      4  C   UNL     1    -106.469 -42.763 -66.328  1.00  0.00     0.000 C 
BRANCH   4   5
ATOM      5  C   UNL     1    -106.147 -43.299 -64.923  1.00  0.00     0.000 C 
BRANCH   5   6
ATOM      6  C   UNL     1    -107.400 -43.750 -64.152  1.00  0.00     0.000 C 
BRANCH   6   7
ATOM      7  C   UNL     1    -107.724 -42.843 -62.953  1.00  0.00     0.000 C 
BRANCH   7   8
ATOM      8  C   UNL     1    -106.731 -41.677 -62.809  1.00  0.00     0.000 C 
BRANCH   8   9
ATOM      9  C   UNL     1    -107.411 -40.321 -62.523  1.00  0.00     0.000 C 
BRANCH   9  10
ATOM     10  C   UNL     1    -107.060 -39.254 -63.572  1.00  0.00     0.000 C 
BRANCH  10  11
ATOM     11  C   UNL     1    -105.753 -39.608 -64.291  1.00  0.00     0.000 C 
BRANCH  11  12
ATOM     12  C   UNL     1    -105.729 -39.029 -65.715  1.00  0.00     0.006 C 
BRANCH  12  13
ATOM     13  C   UNL     1    -106.691 -37.844 -65.876  1.00  0.00     0.053 C 
BRANCH  13  14
ATOM     14  C   UNL     1    -105.977 -36.529 -65.780  1.00  0.00     0.041 C 
ATOM     15  O   UNL     1    -106.556 -35.464 -66.124  1.00  0.00    -0.550 OA
ATOM     16  O   UNL     1    -104.682 -36.475 -65.278  1.00  0.00    -0.550 OA
ENDBRANCH  13  14
ENDBRANCH  12  13
ENDBRANCH  11  12
ENDBRANCH  10  11
ENDBRANCH   9  10
ENDBRANCH   8   9
ENDBRANCH   7   8
ENDBRANCH   6   7
ENDBRANCH   5   6
ENDBRANCH   4   5
ENDBRANCH   3   4
ENDBRANCH   2   3
ENDBRANCH   1   2
BRANCH   1  17
ATOM     17  C   UNL     1    -110.578 -42.668 -65.750  1.00  0.00     0.000 C 
BRANCH  17  18
ATOM     18  C   UNL     1    -111.174 -42.991 -64.367  1.00  0.00     0.000 C 
BRANCH  18  19
ATOM     19  C   UNL     1    -112.709 -43.046 -64.379  1.00  0.00     0.000 C 
BRANCH  19  20
ATOM     20  C   UNL     1    -113.353 -41.653 -64.261  1.00  0.00     0.000 C 
BRANCH  20  21
ATOM     21  C   UNL     1    -113.729 -41.061 -65.631  1.00  0.00     0.000 C 
BRANCH  21  22
ATOM     22  C   UNL     1    -114.303 -42.122 -66.584  1.00  0.00    -0.000 C 
BRANCH  22  23
ATOM     23  C   UNL     1    -113.541 -42.141 -67.915  1.00  0.00    -0.000 C 
BRANCH  23  24
ATOM     24  C   UNL     1    -113.330 -43.584 -68.399  1.00  0.00    -0.000 C 
BRANCH  24  25
ATOM     25  C   UNL     1    -112.251 -43.699 -69.489  1.00  0.00    -0.000 C 
BRANCH  25  26
ATOM     26  C   UNL     1    -110.839 -44.024 -68.967  1.00  0.00    -0.000 C 
BRANCH  26  27
ATOM     27  C   UNL     1    -109.705 -43.411 -69.817  1.00  0.00    -0.000 C 
BRANCH  27  28
ATOM     28  C   UNL     1    -110.170 -42.169 -70.594  1.00  0.00    -0.000 C 
BRANCH  28  29
ATOM     29  C   UNL     1    -110.027 -40.901 -69.744  1.00  0.00    -0.003 C 
ATOM     30  C   UNL     1    -111.282 -40.040 -69.826  1.00  0.00     0.004 C 
ENDBRANCH  28  29
ENDBRANCH  27  28
ENDBRANCH  26  27
ENDBRANCH  25  26
ENDBRANCH  24  25
ENDBRANCH  23  24
ENDBRANCH  22  23
ENDBRANCH  21  22
ENDBRANCH  20  21
ENDBRANCH  19  20
ENDBRANCH  18  19
ENDBRANCH  17  18
ENDBRANCH   1  17
TORSDOF 26
ENDMDL
MODEL 6
REMARK VINA RESULT:    -3.921      4.514      9.040
REMARK INTER + INTRA:         -14.812
REMARK INTER:                 -10.643
REMARK INTRA:                  -4.169
REMARK UNBOUND:                -4.930
REMARK SMILES CCCCCCCCCCCCCCCCCCCCCCCCCCCC(=O)[O-]
REMARK SMILES IDX 15 1 16 2 17 3 18 4 19 5 20 6 21 7 22 8 23 9 24 10 25 11
REMARK SMILES IDX 26 12 27 13 28 14 29 15 30 16 14 17 13 18 12 19 11 20 10 21
REMARK SMILES IDX 9 22 8 23 7 24 6 25 5 26 4 27 3 28 2 29 1 30
REMARK H PARENT
REMARK Flexibility Score: inf
ROOT
ATOM      1  C   UNL     1    -106.755 -42.111 -67.066  1.00  0.00     0.000 C 
ENDROOT
BRANCH   1   2
ATOM      2  C   UNL     1    -106.546 -40.682 -66.536  1.00  0.00     0.000 C 
BRANCH   2   3
ATOM      3  C   UNL     1    -107.828 -39.827 -66.628  1.00  0.00     0.000 C 
BRANCH   3   4
ATOM      4  C   UNL     1    -108.276 -39.233 -65.282  1.00  0.00     0.000 C 
BRANCH   4   5
ATOM      5  C   UNL     1    -107.101 -38.997 -64.319  1.00  0.00     0.000 C 
BRANCH   5   6
ATOM      6  C   UNL     1    -107.355 -39.562 -62.911  1.00  0.00     0.000 C 
BRANCH   6   7
ATOM      7  C   UNL     1    -107.299 -41.097 -62.863  1.00  0.00     0.000 C 
BRANCH   7   8
ATOM      8  C   UNL     1    -105.964 -41.622 -62.309  1.00  0.00     0.000 C 
BRANCH   8   9
ATOM      9  C   UNL     1    -105.132 -40.543 -61.581  1.00  0.00     0.000 C 
BRANCH   9  10
ATOM     10  C   UNL     1    -104.971 -40.838 -60.082  1.00  0.00     0.000 C 
BRANCH  10  11
ATOM     11  C   UNL     1    -103.923 -41.934 -59.853  1.00  0.00     0.000 C 
BRANCH  11  12
ATOM     12  C   UNL     1    -104.232 -42.739 -58.581  1.00  0.00     0.006 C 
BRANCH  12  13
ATOM     13  C   UNL     1    -105.233 -42.020 -57.666  1.00  0.00     0.053 C 
BRANCH  13  14
ATOM     14  C   UNL     1    -104.547 -41.306 -56.541  1.00  0.00     0.041 C 
ATOM     15  O   UNL     1    -104.123 -41.949 -55.543  1.00  0.00    -0.550 OA
ATOM     16  O   UNL     1    -104.344 -39.933 -56.608  1.00  0.00    -0.550 OA
ENDBRANCH  13  14
ENDBRANCH  12  13
ENDBRANCH  11  12
ENDBRANCH  10  11
ENDBRANCH   9  10
ENDBRANCH   8   9
ENDBRANCH   7   8
ENDBRANCH   6   7
ENDBRANCH   5   6
ENDBRANCH   4   5
ENDBRANCH   3   4
ENDBRANCH   2   3
ENDBRANCH   1   2
BRANCH   1  17
ATOM     17  C   UNL     1    -107.282 -43.070 -65.985  1.00  0.00     0.000 C 
BRANCH  17  18
ATOM     18  C   UNL     1    -108.289 -44.089 -66.549  1.00  0.00     0.000 C 
BRANCH  18  19
ATOM     19  C   UNL     1    -109.662 -44.012 -65.864  1.00  0.00     0.000 C 
BRANCH  19  20
ATOM     20  C   UNL     1    -109.790 -42.794 -64.931  1.00  0.00     0.000 C 
BRANCH  20  21
ATOM     21  C   UNL     1    -110.912 -41.835 -65.367  1.00  0.00     0.000 C 
BRANCH  21  22
ATOM     22  C   UNL     1    -112.293 -42.290 -64.866  1.00  0.00    -0.000 C 
BRANCH  22  23
ATOM     23  C   UNL     1    -113.396 -41.333 -65.335  1.00  0.00    -0.000 C 
BRANCH  23  24
ATOM     24  C   UNL     1    -114.365 -42.048 -66.289  1.00  0.00    -0.000 C 
BRANCH  24  25
ATOM     25  C   UNL     1    -114.123 -41.694 -67.766  1.00  0.00    -0.000 C 
BRANCH  25  26
ATOM     26  C   UNL     1    -113.674 -42.876 -68.647  1.00  0.00    -0.000 C 
BRANCH  26  27
ATOM     27  C   UNL     1    -112.224 -43.333 -68.380  1.00  0.00    -0.000 C 
BRANCH  27  28
ATOM     28  C   UNL     1    -111.437 -43.555 -69.682  1.00  0.00    -0.000 C 
BRANCH  28  29
ATOM     29  C   UNL     1    -110.081 -42.839 -69.636  1.00  0.00    -0.003 C 
ATOM     30  C   UNL     1    -110.181 -41.523 -68.873  1.00  0.00     0.004 C 
ENDBRANCH  28  29
ENDBRANCH  27  28
ENDBRANCH  26  27
ENDBRANCH  25  26
ENDBRANCH  24  25
ENDBRANCH  23  24
ENDBRANCH  22  23
ENDBRANCH  21  22
ENDBRANCH  20  21
ENDBRANCH  19  20
ENDBRANCH  18  19
ENDBRANCH  17  18
ENDBRANCH   1  17
TORSDOF 26
ENDMDL
MODEL 7
REMARK VINA RESULT:    -3.905      2.204      2.798
REMARK INTER + INTRA:         -14.772
REMARK INTER:                  -9.353
REMARK INTRA:                  -5.419
REMARK UNBOUND:                -4.930
REMARK SMILES CCCCCCCCCCCCCCCCCCCCCCCCCCCC(=O)[O-]
REMARK SMILES IDX 15 1 16 2 17 3 18 4 19 5 20 6 21 7 22 8 23 9 24 10 25 11
REMARK SMILES IDX 26 12 27 13 28 14 29 15 30 16 14 17 13 18 12 19 11 20 10 21
REMARK SMILES IDX 9 22 8 23 7 24 6 25 5 26 4 27 3 28 2 29 1 30
REMARK H PARENT
REMARK Flexibility Score: inf
ROOT
ATOM      1  C   UNL     1    -110.484 -41.498 -65.459  1.00  0.00     0.000 C 
ENDROOT
BRANCH   1   2
ATOM      2  C   UNL     1    -111.808 -40.766 -65.745  1.00  0.00     0.000 C 
BRANCH   2   3
ATOM      3  C   UNL     1    -113.017 -41.457 -65.078  1.00  0.00     0.000 C 
BRANCH   3   4
ATOM      4  C   UNL     1    -114.151 -41.803 -66.058  1.00  0.00     0.000 C 
BRANCH   4   5
ATOM      5  C   UNL     1    -113.763 -42.918 -67.042  1.00  0.00     0.000 C 
BRANCH   5   6
ATOM      6  C   UNL     1    -113.710 -42.436 -68.503  1.00  0.00     0.000 C 
BRANCH   6   7
ATOM      7  C   UNL     1    -112.657 -43.179 -69.341  1.00  0.00     0.000 C 
BRANCH   7   8
ATOM      8  C   UNL     1    -111.494 -43.713 -68.488  1.00  0.00     0.000 C 
BRANCH   8   9
ATOM      9  C   UNL     1    -110.104 -43.447 -69.106  1.00  0.00     0.000 C 
BRANCH   9  10
ATOM     10  C   UNL     1    -109.868 -41.958 -69.400  1.00  0.00     0.000 C 
BRANCH  10  11
ATOM     11  C   UNL     1    -108.749 -41.398 -68.514  1.00  0.00     0.000 C 
BRANCH  11  12
ATOM     12  C   UNL     1    -107.458 -42.218 -68.666  1.00  0.00     0.006 C 
BRANCH  12  13
ATOM     13  C   UNL     1    -106.798 -42.014 -70.037  1.00  0.00     0.053 C 
BRANCH  13  14
ATOM     14  C   UNL     1    -106.062 -43.239 -70.490  1.00  0.00     0.041 C 
ATOM     15  O   UNL     1    -106.277 -43.724 -71.633  1.00  0.00    -0.550 OA
ATOM     16  O   UNL     1    -105.113 -43.826 -69.663  1.00  0.00    -0.550 OA
ENDBRANCH  13  14
ENDBRANCH  12  13
ENDBRANCH  11  12
ENDBRANCH  10  11
ENDBRANCH   9  10
ENDBRANCH   8   9
ENDBRANCH   7   8
ENDBRANCH   6   7
ENDBRANCH   5   6
ENDBRANCH   4   5
ENDBRANCH   3   4
ENDBRANCH   2   3
ENDBRANCH   1   2
BRANCH   1  17
ATOM     17  C   UNL     1    -110.700 -42.952 -65.006  1.00  0.00     0.000 C 
BRANCH  17  18
ATOM     18  C   UNL     1    -109.475 -43.841 -65.293  1.00  0.00     0.000 C 
BRANCH  18  19
ATOM     19  C   UNL     1    -108.150 -43.068 -65.227  1.00  0.00     0.000 C 
BRANCH  19  20
ATOM     20  C   UNL     1    -107.220 -43.581 -64.112  1.00  0.00     0.000 C 
BRANCH  20  21
ATOM     21  C   UNL     1    -107.875 -43.508 -62.721  1.00  0.00     0.000 C 
BRANCH  21  22
ATOM     22  C   UNL     1    -107.758 -42.109 -62.095  1.00  0.00    -0.000 C 
BRANCH  22  23
ATOM     23  C   UNL     1    -106.291 -41.671 -61.990  1.00  0.00    -0.000 C 
BRANCH  23  24
ATOM     24  C   UNL     1    -106.145 -40.179 -62.331  1.00  0.00    -0.000 C 
BRANCH  24  25
ATOM     25  C   UNL     1    -107.394 -39.596 -63.013  1.00  0.00    -0.000 C 
BRANCH  25  26
ATOM     26  C   UNL     1    -107.106 -38.735 -64.258  1.00  0.00    -0.000 C 
BRANCH  26  27
ATOM     27  C   UNL     1    -107.312 -39.484 -65.592  1.00  0.00    -0.000 C 
BRANCH  27  28
ATOM     28  C   UNL     1    -105.993 -39.686 -66.354  1.00  0.00    -0.000 C 
BRANCH  28  29
ATOM     29  C   UNL     1    -105.285 -40.968 -65.902  1.00  0.00    -0.003 C 
ATOM     30  C   UNL     1    -103.886 -40.666 -65.375  1.00  0.00     0.004 C 
ENDBRANCH  28  29
ENDBRANCH  27  28
ENDBRANCH  26  27
ENDBRANCH  25  26
ENDBRANCH  24  25
ENDBRANCH  23  24
ENDBRANCH  22  23
ENDBRANCH  21  22
ENDBRANCH  20  21
ENDBRANCH  19  20
ENDBRANCH  18  19
ENDBRANCH  17  18
ENDBRANCH   1  17
TORSDOF 26
ENDMDL
MODEL 8
REMARK VINA RESULT:    -3.864      1.279      3.379
REMARK INTER + INTRA:         -14.666
REMARK INTER:                  -9.440
REMARK INTRA:                  -5.226
REMARK UNBOUND:                -4.930
REMARK SMILES CCCCCCCCCCCCCCCCCCCCCCCCCCCC(=O)[O-]
REMARK SMILES IDX 15 1 16 2 17 3 18 4 19 5 20 6 21 7 22 8 23 9 24 10 25 11
REMARK SMILES IDX 26 12 27 13 28 14 29 15 30 16 14 17 13 18 12 19 11 20 10 21
REMARK SMILES IDX 9 22 8 23 7 24 6 25 5 26 4 27 3 28 2 29 1 30
REMARK H PARENT
REMARK Flexibility Score: inf
ROOT
ATOM      1  C   UNL     1    -109.500 -43.369 -64.167  1.00  0.00     0.000 C 
ENDROOT
BRANCH   1   2
ATOM      2  C   UNL     1    -110.542 -42.787 -65.139  1.00  0.00     0.000 C 
BRANCH   2   3
ATOM      3  C   UNL     1    -110.109 -41.422 -65.716  1.00  0.00     0.000 C 
BRANCH   3   4
ATOM      4  C   UNL     1    -111.287 -40.507 -66.092  1.00  0.00     0.000 C 
BRANCH   4   5
ATOM      5  C   UNL     1    -112.589 -40.892 -65.372  1.00  0.00     0.000 C 
BRANCH   5   6
ATOM      6  C   UNL     1    -113.755 -41.156 -66.341  1.00  0.00     0.000 C 
BRANCH   6   7
ATOM      7  C   UNL     1    -113.762 -42.592 -66.891  1.00  0.00     0.000 C 
BRANCH   7   8
ATOM      8  C   UNL     1    -113.712 -42.636 -68.428  1.00  0.00     0.000 C 
BRANCH   8   9
ATOM      9  C   UNL     1    -112.775 -43.731 -68.982  1.00  0.00     0.000 C 
BRANCH   9  10
ATOM     10  C   UNL     1    -111.296 -43.447 -68.679  1.00  0.00     0.000 C 
BRANCH  10  11
ATOM     11  C   UNL     1    -110.825 -42.181 -69.403  1.00  0.00     0.000 C 
BRANCH  11  12
ATOM     12  C   UNL     1    -110.325 -42.506 -70.820  1.00  0.00     0.006 C 
BRANCH  12  13
ATOM     13  C   UNL     1    -111.276 -41.985 -71.906  1.00  0.00     0.053 C 
BRANCH  13  14
ATOM     14  C   UNL     1    -111.713 -40.576 -71.637  1.00  0.00     0.041 C 
ATOM     15  O   UNL     1    -110.921 -39.616 -71.835  1.00  0.00    -0.550 OA
ATOM     16  O   UNL     1    -113.006 -40.321 -71.199  1.00  0.00    -0.550 OA
ENDBRANCH  13  14
ENDBRANCH  12  13
ENDBRANCH  11  12
ENDBRANCH  10  11
ENDBRANCH   9  10
ENDBRANCH   8   9
ENDBRANCH   7   8
ENDBRANCH   6   7
ENDBRANCH   5   6
ENDBRANCH   4   5
ENDBRANCH   3   4
ENDBRANCH   2   3
ENDBRANCH   1   2
BRANCH   1  17
ATOM     17  C   UNL     1    -108.106 -43.499 -64.804  1.00  0.00     0.000 C 
BRANCH  17  18
ATOM     18  C   UNL     1    -106.976 -43.376 -63.765  1.00  0.00     0.000 C 
BRANCH  18  19
ATOM     19  C   UNL     1    -107.495 -43.369 -62.319  1.00  0.00     0.000 C 
BRANCH  19  20
ATOM     20  C   UNL     1    -107.367 -41.988 -61.651  1.00  0.00     0.000 C 
BRANCH  20  21
ATOM     21  C   UNL     1    -106.556 -40.996 -62.503  1.00  0.00     0.000 C 
BRANCH  21  22
ATOM     22  C   UNL     1    -107.383 -39.765 -62.907  1.00  0.00    -0.000 C 
BRANCH  22  23
ATOM     23  C   UNL     1    -107.165 -39.411 -64.384  1.00  0.00    -0.000 C 
BRANCH  23  24
ATOM     24  C   UNL     1    -105.890 -40.080 -64.920  1.00  0.00    -0.000 C 
BRANCH  24  25
ATOM     25  C   UNL     1    -106.080 -40.700 -66.315  1.00  0.00    -0.000 C 
BRANCH  25  26
ATOM     26  C   UNL     1    -107.083 -39.959 -67.219  1.00  0.00    -0.000 C 
BRANCH  26  27
ATOM     27  C   UNL     1    -107.595 -40.806 -68.403  1.00  0.00    -0.000 C 
BRANCH  27  28
ATOM     28  C   UNL     1    -107.378 -42.310 -68.177  1.00  0.00    -0.000 C 
BRANCH  28  29
ATOM     29  C   UNL     1    -106.453 -42.901 -69.248  1.00  0.00    -0.003 C 
ATOM     30  C   UNL     1    -106.704 -42.256 -70.607  1.00  0.00     0.004 C 
ENDBRANCH  28  29
ENDBRANCH  27  28
ENDBRANCH  26  27
ENDBRANCH  25  26
ENDBRANCH  24  25
ENDBRANCH  23  24
ENDBRANCH  22  23
ENDBRANCH  21  22
ENDBRANCH  20  21
ENDBRANCH  19  20
ENDBRANCH  18  19
ENDBRANCH  17  18
ENDBRANCH   1  17
TORSDOF 26
ENDMDL
MODEL 9
REMARK VINA RESULT:    -3.854      2.291      5.160
REMARK INTER + INTRA:         -14.641
REMARK INTER:                  -9.744
REMARK INTRA:                  -4.897
REMARK UNBOUND:                -4.930
REMARK SMILES CCCCCCCCCCCCCCCCCCCCCCCCCCCC(=O)[O-]
REMARK SMILES IDX 15 1 16 2 17 3 18 4 19 5 20 6 21 7 22 8 23 9 24 10 25 11
REMARK SMILES IDX 26 12 27 13 28 14 29 15 30 16 14 17 13 18 12 19 11 20 10 21
REMARK SMILES IDX 9 22 8 23 7 24 6 25 5 26 4 27 3 28 2 29 1 30
REMARK H PARENT
REMARK Flexibility Score: inf
ROOT
ATOM      1  C   UNL     1    -107.666 -39.083 -65.038  1.00  0.00     0.000 C 
ENDROOT
BRANCH   1   2
ATOM      2  C   UNL     1    -108.888 -39.955 -65.373  1.00  0.00     0.000 C 
BRANCH   2   3
ATOM      3  C   UNL     1    -108.929 -40.362 -66.862  1.00  0.00     0.000 C 
BRANCH   3   4
ATOM      4  C   UNL     1    -108.415 -41.787 -67.129  1.00  0.00     0.000 C 
BRANCH   4   5
ATOM      5  C   UNL     1    -109.393 -42.621 -67.972  1.00  0.00     0.000 C 
BRANCH   5   6
ATOM      6  C   UNL     1    -110.228 -43.600 -67.127  1.00  0.00     0.000 C 
BRANCH   6   7
ATOM      7  C   UNL     1    -109.717 -43.732 -65.684  1.00  0.00     0.000 C 
BRANCH   7   8
ATOM      8  C   UNL     1    -110.673 -43.099 -64.659  1.00  0.00     0.000 C 
BRANCH   8   9
ATOM      9  C   UNL     1    -112.065 -42.765 -65.239  1.00  0.00     0.000 C 
BRANCH   9  10
ATOM     10  C   UNL     1    -112.317 -41.252 -65.327  1.00  0.00     0.000 C 
BRANCH  10  11
ATOM     11  C   UNL     1    -113.386 -40.938 -66.380  1.00  0.00     0.000 C 
BRANCH  11  12
ATOM     12  C   UNL     1    -112.922 -41.359 -67.783  1.00  0.00     0.006 C 
BRANCH  12  13
ATOM     13  C   UNL     1    -112.882 -40.176 -68.761  1.00  0.00     0.053 C 
BRANCH  13  14
ATOM     14  C   UNL     1    -112.217 -40.543 -70.053  1.00  0.00     0.041 C 
ATOM     15  O   UNL     1    -111.215 -39.895 -70.460  1.00  0.00    -0.550 OA
ATOM     16  O   UNL     1    -112.683 -41.622 -70.794  1.00  0.00    -0.550 OA
ENDBRANCH  13  14
ENDBRANCH  12  13
ENDBRANCH  11  12
ENDBRANCH  10  11
ENDBRANCH   9  10
ENDBRANCH   8   9
ENDBRANCH   7   8
ENDBRANCH   6   7
ENDBRANCH   5   6
ENDBRANCH   4   5
ENDBRANCH   3   4
ENDBRANCH   2   3
ENDBRANCH   1   2
BRANCH   1  17
ATOM     17  C   UNL     1    -107.314 -39.109 -63.541  1.00  0.00     0.000 C 
BRANCH  17  18
ATOM     18  C   UNL     1    -105.844 -39.497 -63.294  1.00  0.00     0.000 C 
BRANCH  18  19
ATOM     19  C   UNL     1    -105.233 -40.288 -64.460  1.00  0.00     0.000 C 
BRANCH  19  20
ATOM     20  C   UNL     1    -105.028 -41.776 -64.124  1.00  0.00     0.000 C 
BRANCH  20  21
ATOM     21  C   UNL     1    -106.247 -42.637 -64.500  1.00  0.00     0.000 C 
BRANCH  21  22
ATOM     22  C   UNL     1    -106.793 -43.427 -63.299  1.00  0.00    -0.000 C 
BRANCH  22  23
ATOM     23  C   UNL     1    -107.722 -42.560 -62.440  1.00  0.00    -0.000 C 
BRANCH  23  24
ATOM     24  C   UNL     1    -107.060 -42.224 -61.095  1.00  0.00    -0.000 C 
BRANCH  24  25
ATOM     25  C   UNL     1    -105.938 -43.206 -60.717  1.00  0.00    -0.000 C 
BRANCH  25  26
ATOM     26  C   UNL     1    -104.564 -42.553 -60.477  1.00  0.00    -0.000 C 
BRANCH  26  27
ATOM     27  C   UNL     1    -104.637 -41.036 -60.200  1.00  0.00    -0.000 C 
BRANCH  27  28
ATOM     28  C   UNL     1    -104.790 -40.727 -58.702  1.00  0.00    -0.000 C 
BRANCH  28  29
ATOM     29  C   UNL     1    -103.855 -41.603 -57.860  1.00  0.00    -0.003 C 
ATOM     30  C   UNL     1    -104.420 -41.824 -56.461  1.00  0.00     0.004 C 
ENDBRANCH  28  29
ENDBRANCH  27  28
ENDBRANCH  26  27
ENDBRANCH  25  26
ENDBRANCH  24  25
ENDBRANCH  23  24
ENDBRANCH  22  23
ENDBRANCH  21  22
ENDBRANCH  20  21
ENDBRANCH  19  20
ENDBRANCH  18  19
ENDBRANCH  17  18
ENDBRANCH   1  17
TORSDOF 26
ENDMDL
