MODEL 1
REMARK VINA RESULT:    -6.420      0.000      0.000
REMARK INTER + INTRA:          -6.889
REMARK INTER:                  -6.796
REMARK INTRA:                  -0.094
REMARK UNBOUND:                -0.094
REMARK SMILES C=C(C)[C@@H]1CC=C(C)C(=O)C1
REMARK SMILES IDX 8 1 7 2 6 3 5 4 4 5 11 6 9 7 10 8 2 9 1 10 3 11
REMARK H PARENT
REMARK Flexibility Score: inf
ROOT
ATOM      1  C   UNL     1      -3.001 -11.275  25.763  1.00  0.00     0.048 C 
ATOM      2  C   UNL     1      -3.630 -12.230  26.738  1.00  0.00    -0.012 C 
ATOM      3  C   UNL     1      -4.145 -13.395  26.307  1.00  0.00    -0.019 C 
ATOM      4  C   UNL     1      -4.712 -14.418  27.255  1.00  0.00     0.036 C 
ATOM      5  C   UNL     1      -5.312 -13.746  28.506  1.00  0.00     0.025 C 
ATOM      6  C   UNL     1      -4.264 -12.842  29.181  1.00  0.00     0.089 C 
ATOM      7  C   UNL     1      -3.659 -11.893  28.183  1.00  0.00     0.158 C 
ATOM      8  O   UNL     1      -3.133 -10.823  28.593  1.00  0.00    -0.295 OA
ENDROOT
BRANCH   5   9
ATOM      9  C   UNL     1      -5.879 -14.773  29.479  1.00  0.00    -0.077 C 
ATOM     10  C   UNL     1      -6.785 -15.684  29.084  1.00  0.00     0.008 C 
ATOM     11  C   UNL     1      -5.427 -14.781  30.916  1.00  0.00     0.039 C 
ENDBRANCH   5   9
TORSDOF 1
ENDMDL
MODEL 2
REMARK VINA RESULT:    -6.039      1.595      4.297
REMARK INTER + INTRA:          -6.486
REMARK INTER:                  -6.392
REMARK INTRA:                  -0.094
REMARK UNBOUND:                -0.094
REMARK SMILES C=C(C)[C@@H]1CC=C(C)C(=O)C1
REMARK SMILES IDX 8 1 7 2 6 3 5 4 4 5 11 6 9 7 10 8 2 9 1 10 3 11
REMARK H PARENT
REMARK Flexibility Score: inf
ROOT
ATOM      1  C   UNL     1      -5.267 -14.997  32.510  1.00  0.00     0.048 C 
ATOM      2  C   UNL     1      -4.962 -14.415  31.157  1.00  0.00    -0.012 C 
ATOM      3  C   UNL     1      -5.659 -14.813  30.079  1.00  0.00    -0.019 C 
ATOM      4  C   UNL     1      -5.446 -14.202  28.719  1.00  0.00     0.036 C 
ATOM      5  C   UNL     1      -3.990 -13.730  28.542  1.00  0.00     0.025 C 
ATOM      6  C   UNL     1      -3.598 -12.770  29.682  1.00  0.00     0.089 C 
ATOM      7  C   UNL     1      -3.906 -13.382  31.022  1.00  0.00     0.158 C 
ATOM      8  O   UNL     1      -3.286 -12.974  32.040  1.00  0.00    -0.295 OA
ENDROOT
BRANCH   5   9
ATOM      9  C   UNL     1      -3.765 -13.098  27.174  1.00  0.00    -0.077 C 
ATOM     10  C   UNL     1      -4.195 -13.696  26.049  1.00  0.00     0.008 C 
ATOM     11  C   UNL     1      -3.049 -11.778  27.061  1.00  0.00     0.039 C 
ENDBRANCH   5   9
TORSDOF 1
ENDMDL
MODEL 3
REMARK VINA RESULT:    -6.007      2.530      3.813
REMARK INTER + INTRA:          -6.452
REMARK INTER:                  -6.355
REMARK INTRA:                  -0.097
REMARK UNBOUND:                -0.094
REMARK SMILES C=C(C)[C@@H]1CC=C(C)C(=O)C1
REMARK SMILES IDX 8 1 7 2 6 3 5 4 4 5 11 6 9 7 10 8 2 9 1 10 3 11
REMARK H PARENT
REMARK Flexibility Score: inf
ROOT
ATOM      1  C   UNL     1      -0.377 -12.879  31.609  1.00  0.00     0.048 C 
ATOM      2  C   UNL     1      -1.481 -13.055  30.605  1.00  0.00    -0.012 C 
ATOM      3  C   UNL     1      -2.765 -13.017  31.000  1.00  0.00    -0.019 C 
ATOM      4  C   UNL     1      -3.906 -13.107  30.021  1.00  0.00     0.036 C 
ATOM      5  C   UNL     1      -3.521 -13.954  28.793  1.00  0.00     0.025 C 
ATOM      6  C   UNL     1      -2.236 -13.402  28.145  1.00  0.00     0.089 C 
ATOM      7  C   UNL     1      -1.148 -13.245  29.171  1.00  0.00     0.158 C 
ATOM      8  O   UNL     1       0.055 -13.232  28.794  1.00  0.00    -0.295 OA
ENDROOT
BRANCH   5   9
ATOM      9  C   UNL     1      -4.663 -14.043  27.789  1.00  0.00    -0.077 C 
ATOM     10  C   UNL     1      -4.452 -13.876  26.472  1.00  0.00     0.008 C 
ATOM     11  C   UNL     1      -6.065 -14.322  28.264  1.00  0.00     0.039 C 
ENDBRANCH   5   9
TORSDOF 1
ENDMDL
MODEL 4
REMARK VINA RESULT:    -5.946      1.655      2.631
REMARK INTER + INTRA:          -6.387
REMARK INTER:                  -6.294
REMARK INTRA:                  -0.093
REMARK UNBOUND:                -0.094
REMARK SMILES C=C(C)[C@@H]1CC=C(C)C(=O)C1
REMARK SMILES IDX 8 1 7 2 6 3 5 4 4 5 11 6 9 7 10 8 2 9 1 10 3 11
REMARK H PARENT
REMARK Flexibility Score: inf
ROOT
ATOM      1  C   UNL     1      -3.285 -11.396  25.790  1.00  0.00     0.048 C 
ATOM      2  C   UNL     1      -3.708 -11.983  27.108  1.00  0.00    -0.012 C 
ATOM      3  C   UNL     1      -3.582 -11.266  28.238  1.00  0.00    -0.019 C 
ATOM      4  C   UNL     1      -4.065 -11.779  29.569  1.00  0.00     0.036 C 
ATOM      5  C   UNL     1      -3.977 -13.316  29.639  1.00  0.00     0.025 C 
ATOM      6  C   UNL     1      -4.737 -13.948  28.457  1.00  0.00     0.089 C 
ATOM      7  C   UNL     1      -4.288 -13.348  27.153  1.00  0.00     0.158 C 
ATOM      8  O   UNL     1      -4.451 -14.001  26.088  1.00  0.00    -0.295 OA
ENDROOT
BRANCH   5   9
ATOM      9  C   UNL     1      -4.475 -13.848  30.977  1.00  0.00    -0.077 C 
ATOM     10  C   UNL     1      -3.944 -13.427  32.138  1.00  0.00     0.008 C 
ATOM     11  C   UNL     1      -5.583 -14.868  31.018  1.00  0.00     0.039 C 
ENDBRANCH   5   9
TORSDOF 1
ENDMDL
MODEL 5
REMARK VINA RESULT:    -5.943      2.052      4.698
REMARK INTER + INTRA:          -6.384
REMARK INTER:                  -6.288
REMARK INTRA:                  -0.096
REMARK UNBOUND:                -0.094
REMARK SMILES C=C(C)[C@@H]1CC=C(C)C(=O)C1
REMARK SMILES IDX 8 1 7 2 6 3 5 4 4 5 11 6 9 7 10 8 2 9 1 10 3 11
REMARK H PARENT
REMARK Flexibility Score: inf
ROOT
ATOM      1  C   UNL     1      -5.358 -14.860  32.352  1.00  0.00     0.048 C 
ATOM      2  C   UNL     1      -4.883 -14.363  31.016  1.00  0.00    -0.012 C 
ATOM      3  C   UNL     1      -3.786 -13.591  30.933  1.00  0.00    -0.019 C 
ATOM      4  C   UNL     1      -3.226 -13.135  29.612  1.00  0.00     0.036 C 
ATOM      5  C   UNL     1      -4.342 -12.974  28.560  1.00  0.00     0.025 C 
ATOM      6  C   UNL     1      -5.149 -14.279  28.434  1.00  0.00     0.089 C 
ATOM      7  C   UNL     1      -5.617 -14.748  29.785  1.00  0.00     0.158 C 
ATOM      8  O   UNL     1      -6.617 -15.511  29.858  1.00  0.00    -0.295 OA
ENDROOT
BRANCH   5   9
ATOM      9  C   UNL     1      -3.786 -12.524  27.215  1.00  0.00    -0.077 C 
ATOM     10  C   UNL     1      -3.906 -13.291  26.117  1.00  0.00     0.008 C 
ATOM     11  C   UNL     1      -3.085 -11.196  27.094  1.00  0.00     0.039 C 
ENDBRANCH   5   9
TORSDOF 1
ENDMDL
MODEL 6
REMARK VINA RESULT:    -5.888      2.506      3.627
REMARK INTER + INTRA:          -6.326
REMARK INTER:                  -6.231
REMARK INTRA:                  -0.094
REMARK UNBOUND:                -0.094
REMARK SMILES C=C(C)[C@@H]1CC=C(C)C(=O)C1
REMARK SMILES IDX 8 1 7 2 6 3 5 4 4 5 11 6 9 7 10 8 2 9 1 10 3 11
REMARK H PARENT
REMARK Flexibility Score: inf
ROOT
ATOM      1  C   UNL     1      -0.581 -12.719  31.475  1.00  0.00     0.048 C 
ATOM      2  C   UNL     1      -1.642 -13.154  30.503  1.00  0.00    -0.012 C 
ATOM      3  C   UNL     1      -1.307 -13.494  29.246  1.00  0.00    -0.019 C 
ATOM      4  C   UNL     1      -2.322 -14.012  28.260  1.00  0.00     0.036 C 
ATOM      5  C   UNL     1      -3.718 -13.419  28.534  1.00  0.00     0.025 C 
ATOM      6  C   UNL     1      -4.133 -13.683  29.994  1.00  0.00     0.089 C 
ATOM      7  C   UNL     1      -3.057 -13.230  30.943  1.00  0.00     0.158 C 
ATOM      8  O   UNL     1      -3.364 -12.959  32.135  1.00  0.00    -0.295 OA
ENDROOT
BRANCH   5   9
ATOM      9  C   UNL     1      -4.755 -13.945  27.551  1.00  0.00    -0.077 C 
ATOM     10  C   UNL     1      -4.513 -13.978  26.229  1.00  0.00     0.008 C 
ATOM     11  C   UNL     1      -6.086 -14.444  28.052  1.00  0.00     0.039 C 
ENDBRANCH   5   9
TORSDOF 1
ENDMDL
MODEL 7
REMARK VINA RESULT:    -5.839      2.671      4.413
REMARK INTER + INTRA:          -6.274
REMARK INTER:                  -6.181
REMARK INTRA:                  -0.093
REMARK UNBOUND:                -0.094
REMARK SMILES C=C(C)[C@@H]1CC=C(C)C(=O)C1
REMARK SMILES IDX 8 1 7 2 6 3 5 4 4 5 11 6 9 7 10 8 2 9 1 10 3 11
REMARK H PARENT
REMARK Flexibility Score: inf
ROOT
ATOM      1  C   UNL     1       0.031 -12.551  31.716  1.00  0.00     0.048 C 
ATOM      2  C   UNL     1      -0.887 -12.575  30.526  1.00  0.00    -0.012 C 
ATOM      3  C   UNL     1      -0.837 -13.597  29.655  1.00  0.00    -0.019 C 
ATOM      4  C   UNL     1      -1.790 -13.707  28.494  1.00  0.00     0.036 C 
ATOM      5  C   UNL     1      -2.224 -12.314  27.996  1.00  0.00     0.025 C 
ATOM      6  C   UNL     1      -2.810 -11.491  29.159  1.00  0.00     0.089 C 
ATOM      7  C   UNL     1      -1.867 -11.478  30.330  1.00  0.00     0.158 C 
ATOM      8  O   UNL     1      -1.947 -10.544  31.173  1.00  0.00    -0.295 OA
ENDROOT
BRANCH   5   9
ATOM      9  C   UNL     1      -3.198 -12.412  26.829  1.00  0.00    -0.077 C 
ATOM     10  C   UNL     1      -3.327 -11.412  25.940  1.00  0.00     0.008 C 
ATOM     11  C   UNL     1      -4.042 -13.647  26.652  1.00  0.00     0.039 C 
ENDBRANCH   5   9
TORSDOF 1
ENDMDL
MODEL 8
REMARK VINA RESULT:    -5.736      2.869      4.721
REMARK INTER + INTRA:          -6.165
REMARK INTER:                  -6.071
REMARK INTRA:                  -0.094
REMARK UNBOUND:                -0.094
REMARK SMILES C=C(C)[C@@H]1CC=C(C)C(=O)C1
REMARK SMILES IDX 8 1 7 2 6 3 5 4 4 5 11 6 9 7 10 8 2 9 1 10 3 11
REMARK H PARENT
REMARK Flexibility Score: inf
ROOT
ATOM      1  C   UNL     1      -6.338 -15.227  29.145  1.00  0.00     0.048 C 
ATOM      2  C   UNL     1      -5.215 -14.365  29.650  1.00  0.00    -0.012 C 
ATOM      3  C   UNL     1      -4.533 -13.578  28.800  1.00  0.00    -0.019 C 
ATOM      4  C   UNL     1      -3.454 -12.639  29.270  1.00  0.00     0.036 C 
ATOM      5  C   UNL     1      -2.743 -13.189  30.522  1.00  0.00     0.025 C 
ATOM      6  C   UNL     1      -3.772 -13.499  31.627  1.00  0.00     0.089 C 
ATOM      7  C   UNL     1      -4.878 -14.369  31.095  1.00  0.00     0.158 C 
ATOM      8  O   UNL     1      -5.549 -15.070  31.899  1.00  0.00    -0.295 OA
ENDROOT
BRANCH   5   9
ATOM      9  C   UNL     1      -1.657 -12.241  31.015  1.00  0.00    -0.077 C 
ATOM     10  C   UNL     1      -1.843 -10.910  31.025  1.00  0.00     0.008 C 
ATOM     11  C   UNL     1      -0.342 -12.789  31.505  1.00  0.00     0.039 C 
ENDBRANCH   5   9
TORSDOF 1
ENDMDL
MODEL 9
REMARK VINA RESULT:    -5.680      2.251      4.384
REMARK INTER + INTRA:          -6.106
REMARK INTER:                  -6.013
REMARK INTRA:                  -0.093
REMARK UNBOUND:                -0.094
REMARK SMILES C=C(C)[C@@H]1CC=C(C)C(=O)C1
REMARK SMILES IDX 8 1 7 2 6 3 5 4 4 5 11 6 9 7 10 8 2 9 1 10 3 11
REMARK H PARENT
REMARK Flexibility Score: inf
ROOT
ATOM      1  C   UNL     1      -7.205 -15.850  29.101  1.00  0.00     0.048 C 
ATOM      2  C   UNL     1      -6.058 -14.879  29.101  1.00  0.00    -0.012 C 
ATOM      3  C   UNL     1      -5.705 -14.252  27.966  1.00  0.00    -0.019 C 
ATOM      4  C   UNL     1      -4.616 -13.212  27.932  1.00  0.00     0.036 C 
ATOM      5  C   UNL     1      -3.543 -13.494  29.003  1.00  0.00     0.025 C 
ATOM      6  C   UNL     1      -4.195 -13.614  30.393  1.00  0.00     0.089 C 
ATOM      7  C   UNL     1      -5.333 -14.598  30.364  1.00  0.00     0.158 C 
ATOM      8  O   UNL     1      -5.695 -15.149  31.438  1.00  0.00    -0.295 OA
ENDROOT
BRANCH   5   9
ATOM      9  C   UNL     1      -2.442 -12.442  28.987  1.00  0.00    -0.077 C 
ATOM     10  C   UNL     1      -2.729 -11.129  28.936  1.00  0.00     0.008 C 
ATOM     11  C   UNL     1      -0.996 -12.862  29.028  1.00  0.00     0.039 C 
ENDBRANCH   5   9
TORSDOF 1
ENDMDL
