MODEL 1
REMARK VINA RESULT:    -6.462      0.000      0.000
REMARK INTER + INTRA:          -7.104
REMARK INTER:                  -6.839
REMARK INTRA:                  -0.265
REMARK UNBOUND:                -0.265
REMARK SMILES O=c1cc(-c2ccccc2)oc2ccccc12
REMARK SMILES IDX 4 1 3 2 2 3 1 4 17 5 16 6 15 7 14 8 13 9 12 10 11 11 5 12
REMARK SMILES IDX 8 13 7 14 9 15 6 16 10 17
REMARK H PARENT
REMARK Flexibility Score: inf
ROOT
ATOM      1  C   UNL     1      19.826  -1.124 -19.392  1.00  0.00     0.138 A 
ATOM      2  C   UNL     1      19.504  -2.498 -19.390  1.00  0.00     0.100 A 
ATOM      3  C   UNL     1      18.836  -3.046 -18.294  1.00  0.00     0.193 A 
ATOM      4  O   UNL     1      18.549  -4.274 -18.292  1.00  0.00    -0.289 OA
ATOM      5  C   UNL     1      18.495  -2.224 -17.211  1.00  0.00     0.065 A 
ATOM      6  C   UNL     1      17.821  -2.713 -16.076  1.00  0.00     0.016 A 
ATOM      7  C   UNL     1      17.505  -1.849 -15.024  1.00  0.00     0.001 A 
ATOM      8  C   UNL     1      17.855  -0.497 -15.094  1.00  0.00     0.004 A 
ATOM      9  C   UNL     1      18.524  -0.003 -16.218  1.00  0.00     0.048 A 
ATOM     10  C   UNL     1      18.846  -0.859 -17.276  1.00  0.00     0.138 A 
ATOM     11  O   UNL     1      19.482  -0.379 -18.340  1.00  0.00    -0.456 OA
ENDROOT
BRANCH   1  12
ATOM     12  C   UNL     1      20.541  -0.457 -20.524  1.00  0.00     0.017 A 
ATOM     13  C   UNL     1      21.899   0.881 -22.606  1.00  0.00     0.000 A 
ATOM     14  C   UNL     1      21.702   1.516 -21.380  1.00  0.00     0.001 A 
ATOM     15  C   UNL     1      21.424  -0.416 -22.802  1.00  0.00     0.001 A 
ATOM     16  C   UNL     1      21.029   0.855 -20.348  1.00  0.00     0.012 A 
ATOM     17  C   UNL     1      20.750  -1.083 -21.775  1.00  0.00     0.012 A 
ENDBRANCH   1  12
TORSDOF 1
ENDMDL
MODEL 2
REMARK VINA RESULT:    -6.460      1.129      2.398
REMARK INTER + INTRA:          -7.103
REMARK INTER:                  -6.839
REMARK INTRA:                  -0.264
REMARK UNBOUND:                -0.265
REMARK SMILES O=c1cc(-c2ccccc2)oc2ccccc12
REMARK SMILES IDX 4 1 3 2 2 3 1 4 17 5 16 6 15 7 14 8 13 9 12 10 11 11 5 12
REMARK SMILES IDX 8 13 7 14 9 15 6 16 10 17
REMARK H PARENT
REMARK Flexibility Score: inf
ROOT
ATOM      1  C   UNL     1      19.796  -0.976 -19.217  1.00  0.00     0.138 A 
ATOM      2  C   UNL     1      19.442  -0.159 -18.122  1.00  0.00     0.100 A 
ATOM      3  C   UNL     1      18.795  -0.726 -17.022  1.00  0.00     0.193 A 
ATOM      4  O   UNL     1      18.477   0.004 -16.044  1.00  0.00    -0.289 OA
ATOM      5  C   UNL     1      18.506  -2.097 -17.023  1.00  0.00     0.065 A 
ATOM      6  C   UNL     1      17.856  -2.731 -15.947  1.00  0.00     0.016 A 
ATOM      7  C   UNL     1      17.593  -4.102 -15.998  1.00  0.00     0.001 A 
ATOM      8  C   UNL     1      17.973  -4.851 -17.116  1.00  0.00     0.004 A 
ATOM      9  C   UNL     1      18.619  -4.230 -18.189  1.00  0.00     0.048 A 
ATOM     10  C   UNL     1      18.887  -2.858 -18.148  1.00  0.00     0.138 A 
ATOM     11  O   UNL     1      19.503  -2.277 -19.173  1.00  0.00    -0.456 OA
ENDROOT
BRANCH   1  12
ATOM     12  C   UNL     1      20.491  -0.451 -20.433  1.00  0.00     0.017 A 
ATOM     13  C   UNL     1      21.821   0.622 -22.681  1.00  0.00     0.000 A 
ATOM     14  C   UNL     1      21.723   1.367 -21.505  1.00  0.00     0.001 A 
ATOM     15  C   UNL     1      21.261  -0.654 -22.743  1.00  0.00     0.001 A 
ATOM     16  C   UNL     1      21.064   0.837 -20.392  1.00  0.00     0.012 A 
ATOM     17  C   UNL     1      20.601  -1.191 -21.634  1.00  0.00     0.012 A 
ENDBRANCH   1  12
TORSDOF 1
ENDMDL
MODEL 3
REMARK VINA RESULT:    -6.363      1.136      2.676
REMARK INTER + INTRA:          -6.999
REMARK INTER:                  -6.736
REMARK INTRA:                  -0.263
REMARK UNBOUND:                -0.265
REMARK SMILES O=c1cc(-c2ccccc2)oc2ccccc12
REMARK SMILES IDX 4 1 3 2 2 3 1 4 17 5 16 6 15 7 14 8 13 9 12 10 11 11 5 12
REMARK SMILES IDX 8 13 7 14 9 15 6 16 10 17
REMARK H PARENT
REMARK Flexibility Score: inf
ROOT
ATOM      1  C   UNL     1      19.804  -0.952 -19.185  1.00  0.00     0.138 A 
ATOM      2  C   UNL     1      19.438  -0.158 -18.077  1.00  0.00     0.100 A 
ATOM      3  C   UNL     1      18.781  -0.749 -16.996  1.00  0.00     0.193 A 
ATOM      4  O   UNL     1      18.452  -0.040 -16.006  1.00  0.00    -0.289 OA
ATOM      5  C   UNL     1      18.496  -2.121 -17.027  1.00  0.00     0.065 A 
ATOM      6  C   UNL     1      17.837  -2.778 -15.971  1.00  0.00     0.016 A 
ATOM      7  C   UNL     1      17.577  -4.149 -16.053  1.00  0.00     0.001 A 
ATOM      8  C   UNL     1      17.971  -4.873 -17.182  1.00  0.00     0.004 A 
ATOM      9  C   UNL     1      18.625  -4.229 -18.235  1.00  0.00     0.048 A 
ATOM     10  C   UNL     1      18.890  -2.857 -18.164  1.00  0.00     0.138 A 
ATOM     11  O   UNL     1      19.513  -2.254 -19.171  1.00  0.00    -0.456 OA
ENDROOT
BRANCH   1  12
ATOM     12  C   UNL     1      20.509  -0.400 -20.384  1.00  0.00     0.017 A 
ATOM     13  C   UNL     1      21.817   0.561 -22.694  1.00  0.00     0.000 A 
ATOM     14  C   UNL     1      21.182  -0.681 -22.716  1.00  0.00     0.001 A 
ATOM     15  C   UNL     1      21.804   1.327 -21.529  1.00  0.00     0.001 A 
ATOM     16  C   UNL     1      20.535  -1.159 -21.572  1.00  0.00     0.012 A 
ATOM     17  C   UNL     1      21.159   0.856 -20.381  1.00  0.00     0.012 A 
ENDBRANCH   1  12
TORSDOF 1
ENDMDL
MODEL 4
REMARK VINA RESULT:    -6.214     12.074     15.590
REMARK INTER + INTRA:          -6.842
REMARK INTER:                  -6.576
REMARK INTRA:                  -0.266
REMARK UNBOUND:                -0.265
REMARK SMILES O=c1cc(-c2ccccc2)oc2ccccc12
REMARK SMILES IDX 4 1 3 2 2 3 1 4 17 5 16 6 15 7 14 8 13 9 12 10 11 11 5 12
REMARK SMILES IDX 8 13 7 14 9 15 6 16 10 17
REMARK H PARENT
REMARK Flexibility Score: inf
ROOT
ATOM      1  C   UNL     1      10.599  -7.157  -8.741  1.00  0.00     0.138 A 
ATOM      2  C   UNL     1      10.365  -6.131  -7.802  1.00  0.00     0.100 A 
ATOM      3  C   UNL     1       9.379  -6.301  -6.828  1.00  0.00     0.193 A 
ATOM      4  O   UNL     1       9.169  -5.383  -5.989  1.00  0.00    -0.289 OA
ATOM      5  C   UNL     1       8.635  -7.489  -6.799  1.00  0.00     0.065 A 
ATOM      6  C   UNL     1       7.627  -7.723  -5.845  1.00  0.00     0.016 A 
ATOM      7  C   UNL     1       6.916  -8.926  -5.860  1.00  0.00     0.001 A 
ATOM      8  C   UNL     1       7.202  -9.900  -6.822  1.00  0.00     0.004 A 
ATOM      9  C   UNL     1       8.201  -9.675  -7.773  1.00  0.00     0.048 A 
ATOM     10  C   UNL     1       8.919  -8.475  -7.767  1.00  0.00     0.138 A 
ATOM     11  O   UNL     1       9.867  -8.271  -8.675  1.00  0.00    -0.456 OA
ENDROOT
BRANCH   1  12
ATOM     12  C   UNL     1      11.634  -7.057  -9.816  1.00  0.00     0.017 A 
ATOM     13  C   UNL     1      13.612  -6.779 -11.811  1.00  0.00     0.000 A 
ATOM     14  C   UNL     1      13.402  -5.754 -10.888  1.00  0.00     0.001 A 
ATOM     15  C   UNL     1      12.843  -7.941 -11.747  1.00  0.00     0.001 A 
ATOM     16  C   UNL     1      12.423  -5.890  -9.900  1.00  0.00     0.012 A 
ATOM     17  C   UNL     1      11.862  -8.084 -10.761  1.00  0.00     0.012 A 
ENDBRANCH   1  12
TORSDOF 1
ENDMDL
MODEL 5
REMARK VINA RESULT:    -5.952     11.300     14.692
REMARK INTER + INTRA:          -6.565
REMARK INTER:                  -6.300
REMARK INTRA:                  -0.265
REMARK UNBOUND:                -0.265
REMARK SMILES O=c1cc(-c2ccccc2)oc2ccccc12
REMARK SMILES IDX 4 1 3 2 2 3 1 4 17 5 16 6 15 7 14 8 13 9 12 10 11 11 5 12
REMARK SMILES IDX 8 13 7 14 9 15 6 16 10 17
REMARK H PARENT
REMARK Flexibility Score: inf
ROOT
ATOM      1  C   UNL     1      11.108  -7.274  -9.284  1.00  0.00     0.138 A 
ATOM      2  C   UNL     1      10.466  -8.529  -9.345  1.00  0.00     0.100 A 
ATOM      3  C   UNL     1       9.453  -8.828  -8.431  1.00  0.00     0.193 A 
ATOM      4  O   UNL     1       8.879  -9.950  -8.485  1.00  0.00    -0.289 OA
ATOM      5  C   UNL     1       9.089  -7.877  -7.468  1.00  0.00     0.065 A 
ATOM      6  C   UNL     1       8.078  -8.115  -6.518  1.00  0.00     0.016 A 
ATOM      7  C   UNL     1       7.754  -7.131  -5.580  1.00  0.00     0.001 A 
ATOM      8  C   UNL     1       8.433  -5.909  -5.579  1.00  0.00     0.004 A 
ATOM      9  C   UNL     1       9.439  -5.665  -6.518  1.00  0.00     0.048 A 
ATOM     10  C   UNL     1       9.771  -6.642  -7.462  1.00  0.00     0.138 A 
ATOM     11  O   UNL     1      10.729  -6.400  -8.351  1.00  0.00    -0.456 OA
ENDROOT
BRANCH   1  12
ATOM     12  C   UNL     1      12.201  -6.873 -10.223  1.00  0.00     0.017 A 
ATOM     13  C   UNL     1      14.277  -6.036 -11.944  1.00  0.00     0.000 A 
ATOM     14  C   UNL     1      13.906  -5.242 -10.858  1.00  0.00     0.001 A 
ATOM     15  C   UNL     1      13.619  -7.243 -12.178  1.00  0.00     0.001 A 
ATOM     16  C   UNL     1      12.879  -5.655 -10.005  1.00  0.00     0.012 A 
ATOM     17  C   UNL     1      12.591  -7.663 -11.330  1.00  0.00     0.012 A 
ENDBRANCH   1  12
TORSDOF 1
ENDMDL
MODEL 6
REMARK VINA RESULT:    -5.929     11.229     15.533
REMARK INTER + INTRA:          -6.540
REMARK INTER:                  -6.275
REMARK INTRA:                  -0.266
REMARK UNBOUND:                -0.265
REMARK SMILES O=c1cc(-c2ccccc2)oc2ccccc12
REMARK SMILES IDX 4 1 3 2 2 3 1 4 17 5 16 6 15 7 14 8 13 9 12 10 11 11 5 12
REMARK SMILES IDX 8 13 7 14 9 15 6 16 10 17
REMARK H PARENT
REMARK Flexibility Score: inf
ROOT
ATOM      1  C   UNL     1      10.471  -7.177  -8.549  1.00  0.00     0.138 A 
ATOM      2  C   UNL     1      10.335  -8.393  -9.250  1.00  0.00     0.100 A 
ATOM      3  C   UNL     1      11.157  -8.649 -10.350  1.00  0.00     0.193 A 
ATOM      4  O   UNL     1      11.035  -9.735 -10.978  1.00  0.00    -0.289 OA
ATOM      5  C   UNL     1      12.106  -7.693 -10.739  1.00  0.00     0.065 A 
ATOM      6  C   UNL     1      12.965  -7.888 -11.837  1.00  0.00     0.016 A 
ATOM      7  C   UNL     1      13.894  -6.902 -12.182  1.00  0.00     0.001 A 
ATOM      8  C   UNL     1      13.973  -5.720 -11.440  1.00  0.00     0.004 A 
ATOM      9  C   UNL     1      13.124  -5.518 -10.349  1.00  0.00     0.048 A 
ATOM     10  C   UNL     1      12.191  -6.498  -9.994  1.00  0.00     0.138 A 
ATOM     11  O   UNL     1      11.388  -6.296  -8.954  1.00  0.00    -0.456 OA
ENDROOT
BRANCH   1  12
ATOM     12  C   UNL     1       9.632  -6.823  -7.362  1.00  0.00     0.017 A 
ATOM     13  C   UNL     1       7.997  -6.238  -5.136  1.00  0.00     0.000 A 
ATOM     14  C   UNL     1       7.791  -7.409  -5.865  1.00  0.00     0.001 A 
ATOM     15  C   UNL     1       9.012  -5.357  -5.508  1.00  0.00     0.001 A 
ATOM     16  C   UNL     1       8.599  -7.700  -6.968  1.00  0.00     0.012 A 
ATOM     17  C   UNL     1       9.824  -5.641  -6.610  1.00  0.00     0.012 A 
ENDBRANCH   1  12
TORSDOF 1
ENDMDL
MODEL 7
REMARK VINA RESULT:    -5.709     10.672     13.755
REMARK INTER + INTRA:          -6.307
REMARK INTER:                  -6.086
REMARK INTRA:                  -0.221
REMARK UNBOUND:                -0.265
REMARK SMILES O=c1cc(-c2ccccc2)oc2ccccc12
REMARK SMILES IDX 4 1 3 2 2 3 1 4 17 5 16 6 15 7 14 8 13 9 12 10 11 11 5 12
REMARK SMILES IDX 8 13 7 14 9 15 6 16 10 17
REMARK H PARENT
REMARK Flexibility Score: inf
ROOT
ATOM      1  C   UNL     1      11.003  -5.974 -10.461  1.00  0.00     0.138 A 
ATOM      2  C   UNL     1       9.851  -5.516 -11.135  1.00  0.00     0.100 A 
ATOM      3  C   UNL     1       8.668  -5.319 -10.419  1.00  0.00     0.193 A 
ATOM      4  O   UNL     1       7.638  -4.911 -11.021  1.00  0.00    -0.289 OA
ATOM      5  C   UNL     1       8.643  -5.579  -9.041  1.00  0.00     0.065 A 
ATOM      6  C   UNL     1       7.485  -5.401  -8.262  1.00  0.00     0.016 A 
ATOM      7  C   UNL     1       7.515  -5.674  -6.891  1.00  0.00     0.001 A 
ATOM      8  C   UNL     1       8.694  -6.125  -6.290  1.00  0.00     0.004 A 
ATOM      9  C   UNL     1       9.849  -6.304  -7.057  1.00  0.00     0.048 A 
ATOM     10  C   UNL     1       9.830  -6.034  -8.429  1.00  0.00     0.138 A 
ATOM     11  O   UNL     1      10.933  -6.208  -9.149  1.00  0.00    -0.456 OA
ENDROOT
BRANCH   1  12
ATOM     12  C   UNL     1      12.309  -6.212 -11.151  1.00  0.00     0.017 A 
ATOM     13  C   UNL     1      14.743  -6.750 -12.475  1.00  0.00     0.000 A 
ATOM     14  C   UNL     1      13.748  -7.725 -12.420  1.00  0.00     0.001 A 
ATOM     15  C   UNL     1      14.534  -5.509 -11.874  1.00  0.00     0.001 A 
ATOM     16  C   UNL     1      12.541  -7.461 -11.764  1.00  0.00     0.012 A 
ATOM     17  C   UNL     1      13.331  -5.236 -11.217  1.00  0.00     0.012 A 
ENDBRANCH   1  12
TORSDOF 1
ENDMDL
MODEL 8
REMARK VINA RESULT:    -5.670     11.791     15.793
REMARK INTER + INTRA:          -6.266
REMARK INTER:                  -6.001
REMARK INTRA:                  -0.265
REMARK UNBOUND:                -0.265
REMARK SMILES O=c1cc(-c2ccccc2)oc2ccccc12
REMARK SMILES IDX 4 1 3 2 2 3 1 4 17 5 16 6 15 7 14 8 13 9 12 10 11 11 5 12
REMARK SMILES IDX 8 13 7 14 9 15 6 16 10 17
REMARK H PARENT
REMARK Flexibility Score: inf
ROOT
ATOM      1  C   UNL     1      10.463  -7.351  -8.846  1.00  0.00     0.138 A 
ATOM      2  C   UNL     1      10.906  -6.137  -9.412  1.00  0.00     0.100 A 
ATOM      3  C   UNL     1      11.825  -6.163 -10.463  1.00  0.00     0.193 A 
ATOM      4  O   UNL     1      12.221  -5.077 -10.969  1.00  0.00    -0.289 OA
ATOM      5  C   UNL     1      12.294  -7.394 -10.940  1.00  0.00     0.065 A 
ATOM      6  C   UNL     1      13.221  -7.491 -11.995  1.00  0.00     0.016 A 
ATOM      7  C   UNL     1      13.655  -8.745 -12.432  1.00  0.00     0.001 A 
ATOM      8  C   UNL     1      13.173  -9.908 -11.824  1.00  0.00     0.004 A 
ATOM      9  C   UNL     1      12.253  -9.821 -10.775  1.00  0.00     0.048 A 
ATOM     10  C   UNL     1      11.811  -8.571 -10.329  1.00  0.00     0.138 A 
ATOM     11  O   UNL     1      10.936  -8.500  -9.332  1.00  0.00    -0.456 OA
ENDROOT
BRANCH   1  12
ATOM     12  C   UNL     1       9.482  -7.413  -7.719  1.00  0.00     0.017 A 
ATOM     13  C   UNL     1       7.620  -7.626  -5.607  1.00  0.00     0.000 A 
ATOM     14  C   UNL     1       7.995  -8.762  -6.326  1.00  0.00     0.001 A 
ATOM     15  C   UNL     1       8.167  -6.386  -5.934  1.00  0.00     0.001 A 
ATOM     16  C   UNL     1       8.916  -8.658  -7.372  1.00  0.00     0.012 A 
ATOM     17  C   UNL     1       9.089  -6.274  -6.979  1.00  0.00     0.012 A 
ENDBRANCH   1  12
TORSDOF 1
ENDMDL
