MODEL 1
REMARK VINA RESULT:    -4.605      0.000      0.000
REMARK INTER + INTRA:         -15.388
REMARK INTER:                 -12.142
REMARK INTRA:                  -3.246
REMARK UNBOUND:                -3.246
REMARK SMILES CCCCCCCCCCCCCCCCCCCCCCCCCCCCCC(=O)[O-]
REMARK SMILES IDX 16 1 17 2 18 3 19 4 20 5 21 6 22 7 23 8 24 9 25 10 26 11
REMARK SMILES IDX 27 12 28 13 29 14 30 15 31 16 32 17 15 18 14 19 13 20 12 21
REMARK SMILES IDX 11 22 10 23 9 24 8 25 7 26 6 27 5 28 4 29 3 30 2 31 1 32
REMARK H PARENT
REMARK Flexibility Score: inf
ROOT
ATOM      1  C   UNL     1      66.788  29.674  25.113  1.00  0.00     0.000 C 
ENDROOT
BRANCH   1   2
ATOM      2  C   UNL     1      65.999  30.434  24.026  1.00  0.00     0.000 C 
BRANCH   2   3
ATOM      3  C   UNL     1      66.876  31.022  22.902  1.00  0.00     0.000 C 
BRANCH   3   4
ATOM      4  C   UNL     1      66.426  32.376  22.321  1.00  0.00     0.000 C 
BRANCH   4   5
ATOM      5  C   UNL     1      66.980  32.737  20.925  1.00  0.00     0.000 C 
BRANCH   5   6
ATOM      6  C   UNL     1      66.232  33.875  20.205  1.00  0.00     0.000 C 
BRANCH   6   7
ATOM      7  C   UNL     1      66.353  33.816  18.670  1.00  0.00     0.000 C 
BRANCH   7   8
ATOM      8  C   UNL     1      65.646  34.997  17.967  1.00  0.00     0.000 C 
BRANCH   8   9
ATOM      9  C   UNL     1      65.398  34.779  16.460  1.00  0.00     0.000 C 
BRANCH   9  10
ATOM     10  C   UNL     1      65.941  33.458  15.890  1.00  0.00     0.000 C 
BRANCH  10  11
ATOM     11  C   UNL     1      64.930  32.740  14.985  1.00  0.00     0.000 C 
BRANCH  11  12
ATOM     12  C   UNL     1      63.944  33.739  14.366  1.00  0.00     0.000 C 
BRANCH  12  13
ATOM     13  C   UNL     1      62.522  33.165  14.347  1.00  0.00     0.006 C 
BRANCH  13  14
ATOM     14  C   UNL     1      62.244  32.423  13.036  1.00  0.00     0.053 C 
BRANCH  14  15
ATOM     15  C   UNL     1      61.925  30.984  13.297  1.00  0.00     0.041 C 
ATOM     16  O   UNL     1      62.300  30.437  14.368  1.00  0.00    -0.550 OA
ATOM     17  O   UNL     1      61.186  30.254  12.371  1.00  0.00    -0.550 OA
ENDBRANCH  14  15
ENDBRANCH  13  14
ENDBRANCH  12  13
ENDBRANCH  11  12
ENDBRANCH  10  11
ENDBRANCH   9  10
ENDBRANCH   8   9
ENDBRANCH   7   8
ENDBRANCH   6   7
ENDBRANCH   5   6
ENDBRANCH   4   5
ENDBRANCH   3   4
ENDBRANCH   2   3
ENDBRANCH   1   2
BRANCH   1  18
ATOM     18  C   UNL     1      66.369  30.064  26.537  1.00  0.00     0.000 C 
BRANCH  18  19
ATOM     19  C   UNL     1      64.921  29.642  26.826  1.00  0.00     0.000 C 
BRANCH  19  20
ATOM     20  C   UNL     1      64.045  30.868  27.123  1.00  0.00     0.000 C 
BRANCH  20  21
ATOM     21  C   UNL     1      63.118  30.656  28.336  1.00  0.00     0.000 C 
BRANCH  21  22
ATOM     22  C   UNL     1      62.914  29.178  28.726  1.00  0.00     0.000 C 
BRANCH  22  23
ATOM     23  C   UNL     1      61.450  28.855  29.069  1.00  0.00     0.000 C 
BRANCH  23  24
ATOM     24  C   UNL     1      61.046  27.474  28.532  1.00  0.00    -0.000 C 
BRANCH  24  25
ATOM     25  C   UNL     1      61.599  27.201  27.123  1.00  0.00    -0.000 C 
BRANCH  25  26
ATOM     26  C   UNL     1      60.491  26.989  26.078  1.00  0.00    -0.000 C 
BRANCH  26  27
ATOM     27  C   UNL     1      60.504  28.113  25.030  1.00  0.00    -0.000 C 
BRANCH  27  28
ATOM     28  C   UNL     1      61.779  28.971  25.095  1.00  0.00    -0.000 C 
BRANCH  28  29
ATOM     29  C   UNL     1      62.711  28.739  23.891  1.00  0.00    -0.000 C 
BRANCH  29  30
ATOM     30  C   UNL     1      63.109  27.263  23.724  1.00  0.00    -0.000 C 
BRANCH  30  31
ATOM     31  C   UNL     1      64.625  27.040  23.836  1.00  0.00    -0.003 C 
ATOM     32  C   UNL     1      64.968  26.201  25.065  1.00  0.00     0.004 C 
ENDBRANCH  30  31
ENDBRANCH  29  30
ENDBRANCH  28  29
ENDBRANCH  27  28
ENDBRANCH  26  27
ENDBRANCH  25  26
ENDBRANCH  24  25
ENDBRANCH  23  24
ENDBRANCH  22  23
ENDBRANCH  21  22
ENDBRANCH  20  21
ENDBRANCH  19  20
ENDBRANCH  18  19
ENDBRANCH   1  18
TORSDOF 28
ENDMDL
MODEL 2
REMARK VINA RESULT:    -4.594      1.295      3.428
REMARK INTER + INTRA:         -15.359
REMARK INTER:                 -12.714
REMARK INTRA:                  -2.644
REMARK UNBOUND:                -3.246
REMARK SMILES CCCCCCCCCCCCCCCCCCCCCCCCCCCCCC(=O)[O-]
REMARK SMILES IDX 16 1 17 2 18 3 19 4 20 5 21 6 22 7 23 8 24 9 25 10 26 11
REMARK SMILES IDX 27 12 28 13 29 14 30 15 31 16 32 17 15 18 14 19 13 20 12 21
REMARK SMILES IDX 11 22 10 23 9 24 8 25 7 26 6 27 5 28 4 29 3 30 2 31 1 32
REMARK H PARENT
REMARK Flexibility Score: inf
ROOT
ATOM      1  C   UNL     1      65.994  32.573  22.374  1.00  0.00     0.000 C 
ENDROOT
BRANCH   1   2
ATOM      2  C   UNL     1      66.352  33.640  21.318  1.00  0.00     0.000 C 
BRANCH   2   3
ATOM      3  C   UNL     1      66.699  33.064  19.930  1.00  0.00     0.000 C 
BRANCH   3   4
ATOM      4  C   UNL     1      66.642  34.049  18.747  1.00  0.00     0.000 C 
BRANCH   4   5
ATOM      5  C   UNL     1      66.747  33.428  17.336  1.00  0.00     0.000 C 
BRANCH   5   6
ATOM      6  C   UNL     1      65.890  34.117  16.258  1.00  0.00     0.000 C 
BRANCH   6   7
ATOM      7  C   UNL     1      65.410  33.160  15.150  1.00  0.00     0.000 C 
BRANCH   7   8
ATOM      8  C   UNL     1      64.325  33.788  14.245  1.00  0.00     0.000 C 
BRANCH   8   9
ATOM      9  C   UNL     1      63.088  32.893  14.026  1.00  0.00     0.000 C 
BRANCH   9  10
ATOM     10  C   UNL     1      61.902  33.174  14.963  1.00  0.00     0.000 C 
BRANCH  10  11
ATOM     11  C   UNL     1      60.609  33.506  14.204  1.00  0.00     0.000 C 
BRANCH  11  12
ATOM     12  C   UNL     1      60.549  32.751  12.870  1.00  0.00     0.000 C 
BRANCH  12  13
ATOM     13  C   UNL     1      59.798  31.423  13.023  1.00  0.00     0.006 C 
BRANCH  13  14
ATOM     14  C   UNL     1      60.333  30.371  12.048  1.00  0.00     0.053 C 
BRANCH  14  15
ATOM     15  C   UNL     1      60.093  28.989  12.573  1.00  0.00     0.041 C 
ATOM     16  O   UNL     1      58.931  28.503  12.567  1.00  0.00    -0.550 OA
ATOM     17  O   UNL     1      61.158  28.226  13.042  1.00  0.00    -0.550 OA
ENDBRANCH  14  15
ENDBRANCH  13  14
ENDBRANCH  12  13
ENDBRANCH  11  12
ENDBRANCH  10  11
ENDBRANCH   9  10
ENDBRANCH   8   9
ENDBRANCH   7   8
ENDBRANCH   6   7
ENDBRANCH   5   6
ENDBRANCH   4   5
ENDBRANCH   3   4
ENDBRANCH   2   3
ENDBRANCH   1   2
BRANCH   1  18
ATOM     18  C   UNL     1      67.033  31.447  22.461  1.00  0.00     0.000 C 
BRANCH  18  19
ATOM     19  C   UNL     1      66.390  30.131  22.920  1.00  0.00     0.000 C 
BRANCH  19  20
ATOM     20  C   UNL     1      65.544  30.348  24.184  1.00  0.00     0.000 C 
BRANCH  20  21
ATOM     21  C   UNL     1      66.313  30.015  25.478  1.00  0.00     0.000 C 
BRANCH  21  22
ATOM     22  C   UNL     1      65.483  30.179  26.767  1.00  0.00     0.000 C 
BRANCH  22  23
ATOM     23  C   UNL     1      63.972  30.261  26.490  1.00  0.00     0.000 C 
BRANCH  23  24
ATOM     24  C   UNL     1      63.192  30.619  27.764  1.00  0.00    -0.000 C 
BRANCH  24  25
ATOM     25  C   UNL     1      62.203  29.517  28.181  1.00  0.00    -0.000 C 
BRANCH  25  26
ATOM     26  C   UNL     1      62.435  28.193  27.434  1.00  0.00    -0.000 C 
BRANCH  26  27
ATOM     27  C   UNL     1      61.100  27.556  27.019  1.00  0.00    -0.000 C 
BRANCH  27  28
ATOM     28  C   UNL     1      61.001  27.316  25.503  1.00  0.00    -0.000 C 
BRANCH  28  29
ATOM     29  C   UNL     1      61.677  28.429  24.682  1.00  0.00    -0.000 C 
BRANCH  29  30
ATOM     30  C   UNL     1      62.805  27.898  23.781  1.00  0.00    -0.000 C 
BRANCH  30  31
ATOM     31  C   UNL     1      63.358  26.545  24.254  1.00  0.00    -0.003 C 
ATOM     32  C   UNL     1      64.712  26.714  24.941  1.00  0.00     0.004 C 
ENDBRANCH  30  31
ENDBRANCH  29  30
ENDBRANCH  28  29
ENDBRANCH  27  28
ENDBRANCH  26  27
ENDBRANCH  25  26
ENDBRANCH  24  25
ENDBRANCH  23  24
ENDBRANCH  22  23
ENDBRANCH  21  22
ENDBRANCH  20  21
ENDBRANCH  19  20
ENDBRANCH  18  19
ENDBRANCH   1  18
TORSDOF 28
ENDMDL
MODEL 3
REMARK VINA RESULT:    -4.558      1.408      2.327
REMARK INTER + INTRA:         -15.265
REMARK INTER:                 -12.081
REMARK INTRA:                  -3.184
REMARK UNBOUND:                -3.246
REMARK SMILES CCCCCCCCCCCCCCCCCCCCCCCCCCCCCC(=O)[O-]
REMARK SMILES IDX 16 1 17 2 18 3 19 4 20 5 21 6 22 7 23 8 24 9 25 10 26 11
REMARK SMILES IDX 27 12 28 13 29 14 30 15 31 16 32 17 15 18 14 19 13 20 12 21
REMARK SMILES IDX 11 22 10 23 9 24 8 25 7 26 6 27 5 28 4 29 3 30 2 31 1 32
REMARK H PARENT
REMARK Flexibility Score: inf
ROOT
ATOM      1  C   UNL     1      65.221  31.268  23.056  1.00  0.00     0.000 C 
ENDROOT
BRANCH   1   2
ATOM      2  C   UNL     1      66.647  31.774  22.751  1.00  0.00     0.000 C 
BRANCH   2   3
ATOM      3  C   UNL     1      66.693  33.078  21.929  1.00  0.00     0.000 C 
BRANCH   3   4
ATOM      4  C   UNL     1      65.338  33.745  21.630  1.00  0.00     0.000 C 
BRANCH   4   5
ATOM      5  C   UNL     1      65.359  34.910  20.615  1.00  0.00     0.000 C 
BRANCH   5   6
ATOM      6  C   UNL     1      65.876  34.540  19.212  1.00  0.00     0.000 C 
BRANCH   6   7
ATOM      7  C   UNL     1      65.712  35.670  18.178  1.00  0.00     0.000 C 
BRANCH   7   8
ATOM      8  C   UNL     1      64.639  35.354  17.110  1.00  0.00     0.000 C 
BRANCH   8   9
ATOM      9  C   UNL     1      65.141  34.462  15.955  1.00  0.00     0.000 C 
BRANCH   9  10
ATOM     10  C   UNL     1      64.127  34.224  14.824  1.00  0.00     0.000 C 
BRANCH  10  11
ATOM     11  C   UNL     1      63.927  32.734  14.507  1.00  0.00     0.000 C 
BRANCH  11  12
ATOM     12  C   UNL     1      63.536  32.535  13.038  1.00  0.00     0.000 C 
BRANCH  12  13
ATOM     13  C   UNL     1      62.161  31.864  12.923  1.00  0.00     0.006 C 
BRANCH  13  14
ATOM     14  C   UNL     1      61.036  32.904  12.950  1.00  0.00     0.053 C 
BRANCH  14  15
ATOM     15  C   UNL     1      60.239  32.791  14.212  1.00  0.00     0.041 C 
ATOM     16  O   UNL     1      59.389  31.870  14.343  1.00  0.00    -0.550 OA
ATOM     17  O   UNL     1      60.456  33.684  15.257  1.00  0.00    -0.550 OA
ENDBRANCH  14  15
ENDBRANCH  13  14
ENDBRANCH  12  13
ENDBRANCH  11  12
ENDBRANCH  10  11
ENDBRANCH   9  10
ENDBRANCH   8   9
ENDBRANCH   7   8
ENDBRANCH   6   7
ENDBRANCH   5   6
ENDBRANCH   4   5
ENDBRANCH   3   4
ENDBRANCH   2   3
ENDBRANCH   1   2
BRANCH   1  18
ATOM     18  C   UNL     1      65.210  30.012  23.939  1.00  0.00     0.000 C 
BRANCH  18  19
ATOM     19  C   UNL     1      66.542  29.846  24.686  1.00  0.00     0.000 C 
BRANCH  19  20
ATOM     20  C   UNL     1      66.312  29.768  26.202  1.00  0.00     0.000 C 
BRANCH  20  21
ATOM     21  C   UNL     1      64.827  29.921  26.587  1.00  0.00     0.000 C 
BRANCH  21  22
ATOM     22  C   UNL     1      64.585  30.170  28.089  1.00  0.00     0.000 C 
BRANCH  22  23
ATOM     23  C   UNL     1      63.116  30.495  28.405  1.00  0.00     0.000 C 
BRANCH  23  24
ATOM     24  C   UNL     1      62.167  29.770  27.438  1.00  0.00    -0.000 C 
BRANCH  24  25
ATOM     25  C   UNL     1      61.775  28.368  27.934  1.00  0.00    -0.000 C 
BRANCH  25  26
ATOM     26  C   UNL     1      61.500  27.383  26.784  1.00  0.00    -0.000 C 
BRANCH  26  27
ATOM     27  C   UNL     1      61.867  28.008  25.429  1.00  0.00    -0.000 C 
BRANCH  27  28
ATOM     28  C   UNL     1      62.823  27.126  24.608  1.00  0.00    -0.000 C 
BRANCH  28  29
ATOM     29  C   UNL     1      63.942  26.507  25.466  1.00  0.00    -0.000 C 
BRANCH  29  30
ATOM     30  C   UNL     1      65.186  26.137  24.640  1.00  0.00    -0.000 C 
BRANCH  30  31
ATOM     31  C   UNL     1      64.952  26.257  23.126  1.00  0.00    -0.003 C 
ATOM     32  C   UNL     1      66.201  26.777  22.417  1.00  0.00     0.004 C 
ENDBRANCH  30  31
ENDBRANCH  29  30
ENDBRANCH  28  29
ENDBRANCH  27  28
ENDBRANCH  26  27
ENDBRANCH  25  26
ENDBRANCH  24  25
ENDBRANCH  23  24
ENDBRANCH  22  23
ENDBRANCH  21  22
ENDBRANCH  20  21
ENDBRANCH  19  20
ENDBRANCH  18  19
ENDBRANCH   1  18
TORSDOF 28
ENDMDL
MODEL 4
REMARK VINA RESULT:    -4.404      2.981     11.069
REMARK INTER + INTRA:         -14.859
REMARK INTER:                 -12.177
REMARK INTRA:                  -2.681
REMARK UNBOUND:                -3.246
REMARK SMILES CCCCCCCCCCCCCCCCCCCCCCCCCCCCCC(=O)[O-]
REMARK SMILES IDX 16 1 17 2 18 3 19 4 20 5 21 6 22 7 23 8 24 9 25 10 26 11
REMARK SMILES IDX 27 12 28 13 29 14 30 15 31 16 32 17 15 18 14 19 13 20 12 21
REMARK SMILES IDX 11 22 10 23 9 24 8 25 7 26 6 27 5 28 4 29 3 30 2 31 1 32
REMARK H PARENT
REMARK Flexibility Score: inf
ROOT
ATOM      1  C   UNL     1      64.119  33.228  22.480  1.00  0.00     0.000 C 
ENDROOT
BRANCH   1   2
ATOM      2  C   UNL     1      65.399  32.382  22.651  1.00  0.00     0.000 C 
BRANCH   2   3
ATOM      3  C   UNL     1      65.235  31.170  23.591  1.00  0.00     0.000 C 
BRANCH   3   4
ATOM      4  C   UNL     1      63.789  30.758  23.929  1.00  0.00     0.000 C 
BRANCH   4   5
ATOM      5  C   UNL     1      63.388  30.837  25.420  1.00  0.00     0.000 C 
BRANCH   5   6
ATOM      6  C   UNL     1      64.520  30.518  26.414  1.00  0.00     0.000 C 
BRANCH   6   7
ATOM      7  C   UNL     1      64.014  30.060  27.795  1.00  0.00     0.000 C 
BRANCH   7   8
ATOM      8  C   UNL     1      62.478  29.893  27.845  1.00  0.00     0.000 C 
BRANCH   8   9
ATOM      9  C   UNL     1      61.996  28.433  27.721  1.00  0.00     0.000 C 
BRANCH   9  10
ATOM     10  C   UNL     1      61.140  28.128  26.480  1.00  0.00     0.000 C 
BRANCH  10  11
ATOM     11  C   UNL     1      61.920  27.384  25.387  1.00  0.00     0.000 C 
BRANCH  11  12
ATOM     12  C   UNL     1      63.203  26.765  25.956  1.00  0.00     0.000 C 
BRANCH  12  13
ATOM     13  C   UNL     1      64.437  27.269  25.199  1.00  0.00     0.006 C 
BRANCH  13  14
ATOM     14  C   UNL     1      65.265  26.101  24.653  1.00  0.00     0.053 C 
BRANCH  14  15
ATOM     15  C   UNL     1      64.972  25.875  23.203  1.00  0.00     0.041 C 
ATOM     16  O   UNL     1      63.786  25.921  22.781  1.00  0.00    -0.550 OA
ATOM     17  O   UNL     1      66.014  25.643  22.308  1.00  0.00    -0.550 OA
ENDBRANCH  14  15
ENDBRANCH  13  14
ENDBRANCH  12  13
ENDBRANCH  11  12
ENDBRANCH  10  11
ENDBRANCH   9  10
ENDBRANCH   8   9
ENDBRANCH   7   8
ENDBRANCH   6   7
ENDBRANCH   5   6
ENDBRANCH   4   5
ENDBRANCH   3   4
ENDBRANCH   2   3
ENDBRANCH   1   2
BRANCH   1  18
ATOM     18  C   UNL     1      64.224  34.242  21.332  1.00  0.00     0.000 C 
BRANCH  18  19
ATOM     19  C   UNL     1      65.615  34.205  20.683  1.00  0.00     0.000 C 
BRANCH  19  20
ATOM     20  C   UNL     1      65.635  35.028  19.387  1.00  0.00     0.000 C 
BRANCH  20  21
ATOM     21  C   UNL     1      66.033  34.189  18.157  1.00  0.00     0.000 C 
BRANCH  21  22
ATOM     22  C   UNL     1      65.924  34.942  16.815  1.00  0.00     0.000 C 
BRANCH  22  23
ATOM     23  C   UNL     1      65.821  33.991  15.611  1.00  0.00     0.000 C 
BRANCH  23  24
ATOM     24  C   UNL     1      64.467  34.138  14.901  1.00  0.00    -0.000 C 
BRANCH  24  25
ATOM     25  C   UNL     1      64.387  33.317  13.603  1.00  0.00    -0.000 C 
BRANCH  25  26
ATOM     26  C   UNL     1      62.999  32.695  13.375  1.00  0.00    -0.000 C 
BRANCH  26  27
ATOM     27  C   UNL     1      62.036  33.075  14.510  1.00  0.00    -0.000 C 
BRANCH  27  28
ATOM     28  C   UNL     1      61.084  31.928  14.890  1.00  0.00    -0.000 C 
BRANCH  28  29
ATOM     29  C   UNL     1      60.967  30.863  13.784  1.00  0.00    -0.000 C 
BRANCH  29  30
ATOM     30  C   UNL     1      61.367  29.459  14.268  1.00  0.00    -0.000 C 
BRANCH  30  31
ATOM     31  C   UNL     1      61.835  28.546  13.124  1.00  0.00    -0.003 C 
ATOM     32  C   UNL     1      62.412  29.363  11.970  1.00  0.00     0.004 C 
ENDBRANCH  30  31
ENDBRANCH  29  30
ENDBRANCH  28  29
ENDBRANCH  27  28
ENDBRANCH  26  27
ENDBRANCH  25  26
ENDBRANCH  24  25
ENDBRANCH  23  24
ENDBRANCH  22  23
ENDBRANCH  21  22
ENDBRANCH  20  21
ENDBRANCH  19  20
ENDBRANCH  18  19
ENDBRANCH   1  18
TORSDOF 28
ENDMDL
MODEL 5
REMARK VINA RESULT:    -4.389      1.396      3.569
REMARK INTER + INTRA:         -14.819
REMARK INTER:                 -11.486
REMARK INTRA:                  -3.334
REMARK UNBOUND:                -3.246
REMARK SMILES CCCCCCCCCCCCCCCCCCCCCCCCCCCCCC(=O)[O-]
REMARK SMILES IDX 16 1 17 2 18 3 19 4 20 5 21 6 22 7 23 8 24 9 25 10 26 11
REMARK SMILES IDX 27 12 28 13 29 14 30 15 31 16 32 17 15 18 14 19 13 20 12 21
REMARK SMILES IDX 11 22 10 23 9 24 8 25 7 26 6 27 5 28 4 29 3 30 2 31 1 32
REMARK H PARENT
REMARK Flexibility Score: inf
ROOT
ATOM      1  C   UNL     1      63.029  30.389  25.305  1.00  0.00     0.000 C 
ENDROOT
BRANCH   1   2
ATOM      2  C   UNL     1      63.435  30.707  23.850  1.00  0.00     0.000 C 
BRANCH   2   3
ATOM      3  C   UNL     1      64.451  31.859  23.715  1.00  0.00     0.000 C 
BRANCH   3   4
ATOM      4  C   UNL     1      64.071  32.995  22.746  1.00  0.00     0.000 C 
BRANCH   4   5
ATOM      5  C   UNL     1      65.192  33.495  21.808  1.00  0.00     0.000 C 
BRANCH   5   6
ATOM      6  C   UNL     1      64.741  34.510  20.741  1.00  0.00     0.000 C 
BRANCH   6   7
ATOM      7  C   UNL     1      65.910  35.243  20.057  1.00  0.00     0.000 C 
BRANCH   7   8
ATOM      8  C   UNL     1      65.528  35.823  18.675  1.00  0.00     0.000 C 
BRANCH   8   9
ATOM      9  C   UNL     1      65.662  34.821  17.510  1.00  0.00     0.000 C 
BRANCH   9  10
ATOM     10  C   UNL     1      64.700  35.053  16.333  1.00  0.00     0.000 C 
BRANCH  10  11
ATOM     11  C   UNL     1      64.728  33.910  15.307  1.00  0.00     0.000 C 
BRANCH  11  12
ATOM     12  C   UNL     1      63.340  33.696  14.690  1.00  0.00     0.000 C 
BRANCH  12  13
ATOM     13  C   UNL     1      63.160  32.242  14.236  1.00  0.00     0.006 C 
BRANCH  13  14
ATOM     14  C   UNL     1      62.681  32.174  12.783  1.00  0.00     0.053 C 
BRANCH  14  15
ATOM     15  C   UNL     1      61.214  31.884  12.721  1.00  0.00     0.041 C 
ATOM     16  O   UNL     1      60.807  30.754  12.340  1.00  0.00    -0.550 OA
ATOM     17  O   UNL     1      60.294  32.852  13.112  1.00  0.00    -0.550 OA
ENDBRANCH  14  15
ENDBRANCH  13  14
ENDBRANCH  12  13
ENDBRANCH  11  12
ENDBRANCH  10  11
ENDBRANCH   9  10
ENDBRANCH   8   9
ENDBRANCH   7   8
ENDBRANCH   6   7
ENDBRANCH   5   6
ENDBRANCH   4   5
ENDBRANCH   3   4
ENDBRANCH   2   3
ENDBRANCH   1   2
BRANCH   1  18
ATOM     18  C   UNL     1      63.999  30.979  26.337  1.00  0.00     0.000 C 
BRANCH  18  19
ATOM     19  C   UNL     1      64.739  29.871  27.102  1.00  0.00     0.000 C 
BRANCH  19  20
ATOM     20  C   UNL     1      66.227  30.216  27.260  1.00  0.00     0.000 C 
BRANCH  20  21
ATOM     21  C   UNL     1      66.982  30.221  25.916  1.00  0.00     0.000 C 
BRANCH  21  22
ATOM     22  C   UNL     1      66.732  28.973  25.045  1.00  0.00     0.000 C 
BRANCH  22  23
ATOM     23  C   UNL     1      66.912  29.256  23.544  1.00  0.00     0.000 C 
BRANCH  23  24
ATOM     24  C   UNL     1      65.924  28.433  22.702  1.00  0.00    -0.000 C 
BRANCH  24  25
ATOM     25  C   UNL     1      66.083  26.918  22.916  1.00  0.00    -0.000 C 
BRANCH  25  26
ATOM     26  C   UNL     1      64.795  26.251  23.428  1.00  0.00    -0.000 C 
BRANCH  26  27
ATOM     27  C   UNL     1      64.872  26.000  24.942  1.00  0.00    -0.000 C 
BRANCH  27  28
ATOM     28  C   UNL     1      63.714  26.657  25.713  1.00  0.00    -0.000 C 
BRANCH  28  29
ATOM     29  C   UNL     1      62.552  27.075  24.793  1.00  0.00    -0.000 C 
BRANCH  29  30
ATOM     30  C   UNL     1      61.214  27.186  25.542  1.00  0.00    -0.000 C 
BRANCH  30  31
ATOM     31  C   UNL     1      61.377  27.107  27.068  1.00  0.00    -0.003 C 
ATOM     32  C   UNL     1      61.238  28.487  27.707  1.00  0.00     0.004 C 
ENDBRANCH  30  31
ENDBRANCH  29  30
ENDBRANCH  28  29
ENDBRANCH  27  28
ENDBRANCH  26  27
ENDBRANCH  25  26
ENDBRANCH  24  25
ENDBRANCH  23  24
ENDBRANCH  22  23
ENDBRANCH  21  22
ENDBRANCH  20  21
ENDBRANCH  19  20
ENDBRANCH  18  19
ENDBRANCH   1  18
TORSDOF 28
ENDMDL
MODEL 6
REMARK VINA RESULT:    -4.346      3.832     12.310
REMARK INTER + INTRA:         -14.706
REMARK INTER:                 -12.085
REMARK INTRA:                  -2.621
REMARK UNBOUND:                -3.246
REMARK SMILES CCCCCCCCCCCCCCCCCCCCCCCCCCCCCC(=O)[O-]
REMARK SMILES IDX 16 1 17 2 18 3 19 4 20 5 21 6 22 7 23 8 24 9 25 10 26 11
REMARK SMILES IDX 27 12 28 13 29 14 30 15 31 16 32 17 15 18 14 19 13 20 12 21
REMARK SMILES IDX 11 22 10 23 9 24 8 25 7 26 6 27 5 28 4 29 3 30 2 31 1 32
REMARK H PARENT
REMARK Flexibility Score: inf
ROOT
ATOM      1  C   UNL     1      64.407  32.905  14.458  1.00  0.00     0.000 C 
ENDROOT
BRANCH   1   2
ATOM      2  C   UNL     1      63.995  34.172  15.236  1.00  0.00     0.000 C 
BRANCH   2   3
ATOM      3  C   UNL     1      65.104  34.748  16.140  1.00  0.00     0.000 C 
BRANCH   3   4
ATOM      4  C   UNL     1      64.642  35.401  17.456  1.00  0.00     0.000 C 
BRANCH   4   5
ATOM      5  C   UNL     1      65.652  35.370  18.625  1.00  0.00     0.000 C 
BRANCH   5   6
ATOM      6  C   UNL     1      65.884  33.980  19.246  1.00  0.00     0.000 C 
BRANCH   6   7
ATOM      7  C   UNL     1      65.733  33.958  20.779  1.00  0.00     0.000 C 
BRANCH   7   8
ATOM      8  C   UNL     1      64.298  34.296  21.244  1.00  0.00     0.000 C 
BRANCH   8   9
ATOM      9  C   UNL     1      63.771  33.390  22.377  1.00  0.00     0.000 C 
BRANCH   9  10
ATOM     10  C   UNL     1      64.837  32.540  23.086  1.00  0.00     0.000 C 
BRANCH  10  11
ATOM     11  C   UNL     1      64.382  31.093  23.327  1.00  0.00     0.000 C 
BRANCH  11  12
ATOM     12  C   UNL     1      63.752  30.943  24.718  1.00  0.00     0.000 C 
BRANCH  12  13
ATOM     13  C   UNL     1      63.364  29.484  24.989  1.00  0.00     0.006 C 
BRANCH  13  14
ATOM     14  C   UNL     1      61.870  29.255  24.739  1.00  0.00     0.053 C 
BRANCH  14  15
ATOM     15  C   UNL     1      61.308  28.285  25.732  1.00  0.00     0.041 C 
ATOM     16  O   UNL     1      60.922  27.147  25.356  1.00  0.00    -0.550 OA
ATOM     17  O   UNL     1      61.238  28.628  27.079  1.00  0.00    -0.550 OA
ENDBRANCH  14  15
ENDBRANCH  13  14
ENDBRANCH  12  13
ENDBRANCH  11  12
ENDBRANCH  10  11
ENDBRANCH   9  10
ENDBRANCH   8   9
ENDBRANCH   7   8
ENDBRANCH   6   7
ENDBRANCH   5   6
ENDBRANCH   4   5
ENDBRANCH   3   4
ENDBRANCH   2   3
ENDBRANCH   1   2
BRANCH   1  18
ATOM     18  C   UNL     1      64.672  33.178  12.971  1.00  0.00     0.000 C 
BRANCH  18  19
ATOM     19  C   UNL     1      64.519  31.900  12.134  1.00  0.00     0.000 C 
BRANCH  19  20
ATOM     20  C   UNL     1      64.874  32.163  10.663  1.00  0.00     0.000 C 
BRANCH  20  21
ATOM     21  C   UNL     1      64.534  30.971   9.748  1.00  0.00     0.000 C 
BRANCH  21  22
ATOM     22  C   UNL     1      63.643  29.900  10.407  1.00  0.00     0.000 C 
BRANCH  22  23
ATOM     23  C   UNL     1      63.037  28.924   9.384  1.00  0.00     0.000 C 
BRANCH  23  24
ATOM     24  C   UNL     1      61.594  28.553   9.758  1.00  0.00    -0.000 C 
BRANCH  24  25
ATOM     25  C   UNL     1      61.012  29.466  10.850  1.00  0.00    -0.000 C 
BRANCH  25  26
ATOM     26  C   UNL     1      59.874  28.798  11.641  1.00  0.00    -0.000 C 
BRANCH  26  27
ATOM     27  C   UNL     1      60.308  28.513  13.088  1.00  0.00    -0.000 C 
BRANCH  27  28
ATOM     28  C   UNL     1      61.799  28.802  13.329  1.00  0.00    -0.000 C 
BRANCH  28  29
ATOM     29  C   UNL     1      62.048  30.224  13.863  1.00  0.00    -0.000 C 
BRANCH  29  30
ATOM     30  C   UNL     1      60.908  30.728  14.764  1.00  0.00    -0.000 C 
BRANCH  30  31
ATOM     31  C   UNL     1      60.156  31.923  14.158  1.00  0.00    -0.003 C 
ATOM     32  C   UNL     1      60.962  32.567  13.032  1.00  0.00     0.004 C 
ENDBRANCH  30  31
ENDBRANCH  29  30
ENDBRANCH  28  29
ENDBRANCH  27  28
ENDBRANCH  26  27
ENDBRANCH  25  26
ENDBRANCH  24  25
ENDBRANCH  23  24
ENDBRANCH  22  23
ENDBRANCH  21  22
ENDBRANCH  20  21
ENDBRANCH  19  20
ENDBRANCH  18  19
ENDBRANCH   1  18
TORSDOF 28
ENDMDL
MODEL 7
REMARK VINA RESULT:    -4.329      1.416      4.374
REMARK INTER + INTRA:         -14.660
REMARK INTER:                 -12.350
REMARK INTRA:                  -2.310
REMARK UNBOUND:                -3.246
REMARK SMILES CCCCCCCCCCCCCCCCCCCCCCCCCCCCCC(=O)[O-]
REMARK SMILES IDX 16 1 17 2 18 3 19 4 20 5 21 6 22 7 23 8 24 9 25 10 26 11
REMARK SMILES IDX 27 12 28 13 29 14 30 15 31 16 32 17 15 18 14 19 13 20 12 21
REMARK SMILES IDX 11 22 10 23 9 24 8 25 7 26 6 27 5 28 4 29 3 30 2 31 1 32
REMARK H PARENT
REMARK Flexibility Score: inf
ROOT
ATOM      1  C   UNL     1      65.234  33.120  22.289  1.00  0.00     0.000 C 
ENDROOT
BRANCH   1   2
ATOM      2  C   UNL     1      64.789  34.025  21.121  1.00  0.00     0.000 C 
BRANCH   2   3
ATOM      3  C   UNL     1      65.840  34.176  20.002  1.00  0.00     0.000 C 
BRANCH   3   4
ATOM      4  C   UNL     1      65.499  35.168  18.874  1.00  0.00     0.000 C 
BRANCH   4   5
ATOM      5  C   UNL     1      65.970  34.777  17.455  1.00  0.00     0.000 C 
BRANCH   5   6
ATOM      6  C   UNL     1      64.860  34.750  16.387  1.00  0.00     0.000 C 
BRANCH   6   7
ATOM      7  C   UNL     1      65.392  34.858  14.946  1.00  0.00     0.000 C 
BRANCH   7   8
ATOM      8  C   UNL     1      64.672  33.901  13.968  1.00  0.00     0.000 C 
BRANCH   8   9
ATOM      9  C   UNL     1      63.358  33.307  14.517  1.00  0.00     0.000 C 
BRANCH   9  10
ATOM     10  C   UNL     1      62.802  32.109  13.730  1.00  0.00     0.000 C 
BRANCH  10  11
ATOM     11  C   UNL     1      61.808  31.269  14.547  1.00  0.00     0.000 C 
BRANCH  11  12
ATOM     12  C   UNL     1      60.881  30.468  13.625  1.00  0.00     0.000 C 
BRANCH  12  13
ATOM     13  C   UNL     1      61.076  28.960  13.827  1.00  0.00     0.006 C 
BRANCH  13  14
ATOM     14  C   UNL     1      60.286  28.158  12.789  1.00  0.00     0.053 C 
BRANCH  14  15
ATOM     15  C   UNL     1      60.596  28.632  11.403  1.00  0.00     0.041 C 
ATOM     16  O   UNL     1      59.704  29.193  10.711  1.00  0.00    -0.550 OA
ATOM     17  O   UNL     1      61.879  28.484  10.885  1.00  0.00    -0.550 OA
ENDBRANCH  14  15
ENDBRANCH  13  14
ENDBRANCH  12  13
ENDBRANCH  11  12
ENDBRANCH  10  11
ENDBRANCH   9  10
ENDBRANCH   8   9
ENDBRANCH   7   8
ENDBRANCH   6   7
ENDBRANCH   5   6
ENDBRANCH   4   5
ENDBRANCH   3   4
ENDBRANCH   2   3
ENDBRANCH   1   2
BRANCH   1  18
ATOM     18  C   UNL     1      66.723  32.751  22.224  1.00  0.00     0.000 C 
BRANCH  18  19
ATOM     19  C   UNL     1      66.944  31.271  22.565  1.00  0.00     0.000 C 
BRANCH  19  20
ATOM     20  C   UNL     1      65.773  30.720  23.391  1.00  0.00     0.000 C 
BRANCH  20  21
ATOM     21  C   UNL     1      66.223  30.134  24.743  1.00  0.00     0.000 C 
BRANCH  21  22
ATOM     22  C   UNL     1      65.864  28.647  24.939  1.00  0.00     0.000 C 
BRANCH  22  23
ATOM     23  C   UNL     1      65.629  27.916  23.607  1.00  0.00     0.000 C 
BRANCH  23  24
ATOM     24  C   UNL     1      64.202  27.352  23.527  1.00  0.00    -0.000 C 
BRANCH  24  25
ATOM     25  C   UNL     1      63.325  27.791  24.712  1.00  0.00    -0.000 C 
BRANCH  25  26
ATOM     26  C   UNL     1      61.894  28.164  24.289  1.00  0.00    -0.000 C 
BRANCH  26  27
ATOM     27  C   UNL     1      60.897  27.888  25.426  1.00  0.00    -0.000 C 
BRANCH  27  28
ATOM     28  C   UNL     1      61.536  27.139  26.608  1.00  0.00    -0.000 C 
BRANCH  28  29
ATOM     29  C   UNL     1      60.996  27.612  27.970  1.00  0.00    -0.000 C 
BRANCH  29  30
ATOM     30  C   UNL     1      61.471  29.028  28.337  1.00  0.00    -0.000 C 
BRANCH  30  31
ATOM     31  C   UNL     1      62.973  29.235  28.088  1.00  0.00    -0.003 C 
ATOM     32  C   UNL     1      63.227  30.521  27.304  1.00  0.00     0.004 C 
ENDBRANCH  30  31
ENDBRANCH  29  30
ENDBRANCH  28  29
ENDBRANCH  27  28
ENDBRANCH  26  27
ENDBRANCH  25  26
ENDBRANCH  24  25
ENDBRANCH  23  24
ENDBRANCH  22  23
ENDBRANCH  21  22
ENDBRANCH  20  21
ENDBRANCH  19  20
ENDBRANCH  18  19
ENDBRANCH   1  18
TORSDOF 28
ENDMDL
MODEL 8
REMARK VINA RESULT:    -4.278      2.957     11.018
REMARK INTER + INTRA:         -14.526
REMARK INTER:                 -11.769
REMARK INTRA:                  -2.757
REMARK UNBOUND:                -3.246
REMARK SMILES CCCCCCCCCCCCCCCCCCCCCCCCCCCCCC(=O)[O-]
REMARK SMILES IDX 16 1 17 2 18 3 19 4 20 5 21 6 22 7 23 8 24 9 25 10 26 11
REMARK SMILES IDX 27 12 28 13 29 14 30 15 31 16 32 17 15 18 14 19 13 20 12 21
REMARK SMILES IDX 11 22 10 23 9 24 8 25 7 26 6 27 5 28 4 29 3 30 2 31 1 32
REMARK H PARENT
REMARK Flexibility Score: inf
ROOT
ATOM      1  C   UNL     1      66.159  32.415  22.364  1.00  0.00     0.000 C 
ENDROOT
BRANCH   1   2
ATOM      2  C   UNL     1      66.611  31.057  22.943  1.00  0.00     0.000 C 
BRANCH   2   3
ATOM      3  C   UNL     1      65.633  30.450  23.969  1.00  0.00     0.000 C 
BRANCH   3   4
ATOM      4  C   UNL     1      66.261  29.854  25.243  1.00  0.00     0.000 C 
BRANCH   4   5
ATOM      5  C   UNL     1      65.326  29.718  26.466  1.00  0.00     0.000 C 
BRANCH   5   6
ATOM      6  C   UNL     1      63.968  30.430  26.328  1.00  0.00     0.000 C 
BRANCH   6   7
ATOM      7  C   UNL     1      63.333  30.810  27.679  1.00  0.00     0.000 C 
BRANCH   7   8
ATOM      8  C   UNL     1      62.982  29.578  28.544  1.00  0.00     0.000 C 
BRANCH   8   9
ATOM      9  C   UNL     1      61.636  28.916  28.186  1.00  0.00     0.000 C 
BRANCH   9  10
ATOM     10  C   UNL     1      61.722  27.439  27.767  1.00  0.00     0.000 C 
BRANCH  10  11
ATOM     11  C   UNL     1      60.797  27.098  26.589  1.00  0.00     0.000 C 
BRANCH  11  12
ATOM     12  C   UNL     1      61.301  27.745  25.293  1.00  0.00     0.000 C 
BRANCH  12  13
ATOM     13  C   UNL     1      62.256  26.805  24.547  1.00  0.00     0.006 C 
BRANCH  13  14
ATOM     14  C   UNL     1      63.519  27.545  24.097  1.00  0.00     0.053 C 
BRANCH  14  15
ATOM     15  C   UNL     1      64.677  26.603  23.987  1.00  0.00     0.041 C 
ATOM     16  O   UNL     1      65.101  26.000  25.009  1.00  0.00    -0.550 OA
ATOM     17  O   UNL     1      65.269  26.366  22.750  1.00  0.00    -0.550 OA
ENDBRANCH  14  15
ENDBRANCH  13  14
ENDBRANCH  12  13
ENDBRANCH  11  12
ENDBRANCH  10  11
ENDBRANCH   9  10
ENDBRANCH   8   9
ENDBRANCH   7   8
ENDBRANCH   6   7
ENDBRANCH   5   6
ENDBRANCH   4   5
ENDBRANCH   3   4
ENDBRANCH   2   3
ENDBRANCH   1   2
BRANCH   1  18
ATOM     18  C   UNL     1      64.715  32.773  22.744  1.00  0.00     0.000 C 
BRANCH  18  19
ATOM     19  C   UNL     1      64.158  33.874  21.830  1.00  0.00     0.000 C 
BRANCH  19  20
ATOM     20  C   UNL     1      65.109  34.141  20.653  1.00  0.00     0.000 C 
BRANCH  20  21
ATOM     21  C   UNL     1      65.435  35.637  20.480  1.00  0.00     0.000 C 
BRANCH  21  22
ATOM     22  C   UNL     1      65.642  36.074  19.016  1.00  0.00     0.000 C 
BRANCH  22  23
ATOM     23  C   UNL     1      65.295  34.961  18.013  1.00  0.00     0.000 C 
BRANCH  23  24
ATOM     24  C   UNL     1      65.278  35.496  16.573  1.00  0.00    -0.000 C 
BRANCH  24  25
ATOM     25  C   UNL     1      64.428  34.630  15.629  1.00  0.00    -0.000 C 
BRANCH  25  26
ATOM     26  C   UNL     1      65.170  34.252  14.335  1.00  0.00    -0.000 C 
BRANCH  26  27
ATOM     27  C   UNL     1      64.816  32.822  13.898  1.00  0.00    -0.000 C 
BRANCH  27  28
ATOM     28  C   UNL     1      63.733  32.785  12.806  1.00  0.00    -0.000 C 
BRANCH  28  29
ATOM     29  C   UNL     1      62.508  31.947  13.214  1.00  0.00    -0.000 C 
BRANCH  29  30
ATOM     30  C   UNL     1      61.262  32.808  13.481  1.00  0.00    -0.000 C 
BRANCH  30  31
ATOM     31  C   UNL     1      60.781  32.723  14.939  1.00  0.00    -0.003 C 
ATOM     32  C   UNL     1      60.755  34.104  15.589  1.00  0.00     0.004 C 
ENDBRANCH  30  31
ENDBRANCH  29  30
ENDBRANCH  28  29
ENDBRANCH  27  28
ENDBRANCH  26  27
ENDBRANCH  25  26
ENDBRANCH  24  25
ENDBRANCH  23  24
ENDBRANCH  22  23
ENDBRANCH  21  22
ENDBRANCH  20  21
ENDBRANCH  19  20
ENDBRANCH  18  19
ENDBRANCH   1  18
TORSDOF 28
ENDMDL
MODEL 9
REMARK VINA RESULT:    -4.269      1.320      3.533
REMARK INTER + INTRA:         -14.503
REMARK INTER:                 -11.749
REMARK INTRA:                  -2.754
REMARK UNBOUND:                -3.246
REMARK SMILES CCCCCCCCCCCCCCCCCCCCCCCCCCCCCC(=O)[O-]
REMARK SMILES IDX 16 1 17 2 18 3 19 4 20 5 21 6 22 7 23 8 24 9 25 10 26 11
REMARK SMILES IDX 27 12 28 13 29 14 30 15 31 16 32 17 15 18 14 19 13 20 12 21
REMARK SMILES IDX 11 22 10 23 9 24 8 25 7 26 6 27 5 28 4 29 3 30 2 31 1 32
REMARK H PARENT
REMARK Flexibility Score: inf
ROOT
ATOM      1  C   UNL     1      64.739  32.709  22.718  1.00  0.00     0.000 C 
ENDROOT
BRANCH   1   2
ATOM      2  C   UNL     1      64.117  33.882  21.931  1.00  0.00     0.000 C 
BRANCH   2   3
ATOM      3  C   UNL     1      64.833  34.203  20.603  1.00  0.00     0.000 C 
BRANCH   3   4
ATOM      4  C   UNL     1      65.491  35.592  20.502  1.00  0.00     0.000 C 
BRANCH   4   5
ATOM      5  C   UNL     1      66.323  35.862  19.228  1.00  0.00     0.000 C 
BRANCH   5   6
ATOM      6  C   UNL     1      65.507  35.936  17.923  1.00  0.00     0.000 C 
BRANCH   6   7
ATOM      7  C   UNL     1      65.714  34.721  16.999  1.00  0.00     0.000 C 
BRANCH   7   8
ATOM      8  C   UNL     1      64.562  34.536  15.985  1.00  0.00     0.000 C 
BRANCH   8   9
ATOM      9  C   UNL     1      65.002  34.606  14.508  1.00  0.00     0.000 C 
BRANCH   9  10
ATOM     10  C   UNL     1      64.713  33.345  13.677  1.00  0.00     0.000 C 
BRANCH  10  11
ATOM     11  C   UNL     1      63.583  32.489  14.267  1.00  0.00     0.000 C 
BRANCH  11  12
ATOM     12  C   UNL     1      62.211  33.026  13.840  1.00  0.00     0.000 C 
BRANCH  12  13
ATOM     13  C   UNL     1      61.134  31.941  13.968  1.00  0.00     0.006 C 
BRANCH  13  14
ATOM     14  C   UNL     1      61.723  30.643  14.530  1.00  0.00     0.053 C 
BRANCH  14  15
ATOM     15  C   UNL     1      61.409  29.486  13.634  1.00  0.00     0.041 C 
ATOM     16  O   UNL     1      62.269  28.588  13.434  1.00  0.00    -0.550 OA
ATOM     17  O   UNL     1      60.153  29.382  13.042  1.00  0.00    -0.550 OA
ENDBRANCH  14  15
ENDBRANCH  13  14
ENDBRANCH  12  13
ENDBRANCH  11  12
ENDBRANCH  10  11
ENDBRANCH   9  10
ENDBRANCH   8   9
ENDBRANCH   7   8
ENDBRANCH   6   7
ENDBRANCH   5   6
ENDBRANCH   4   5
ENDBRANCH   3   4
ENDBRANCH   2   3
ENDBRANCH   1   2
BRANCH   1  18
ATOM     18  C   UNL     1      66.216  32.476  22.372  1.00  0.00     0.000 C 
BRANCH  18  19
ATOM     19  C   UNL     1      66.670  31.069  22.788  1.00  0.00     0.000 C 
BRANCH  19  20
ATOM     20  C   UNL     1      65.602  30.385  23.654  1.00  0.00     0.000 C 
BRANCH  20  21
ATOM     21  C   UNL     1      66.209  29.459  24.725  1.00  0.00     0.000 C 
BRANCH  21  22
ATOM     22  C   UNL     1      65.422  29.421  26.050  1.00  0.00     0.000 C 
BRANCH  22  23
ATOM     23  C   UNL     1      66.122  30.200  27.175  1.00  0.00     0.000 C 
BRANCH  23  24
ATOM     24  C   UNL     1      65.105  30.750  28.187  1.00  0.00    -0.000 C 
BRANCH  24  25
ATOM     25  C   UNL     1      63.678  30.810  27.618  1.00  0.00    -0.000 C 
BRANCH  25  26
ATOM     26  C   UNL     1      62.641  30.142  28.537  1.00  0.00    -0.000 C 
BRANCH  26  27
ATOM     27  C   UNL     1      62.598  28.624  28.304  1.00  0.00    -0.000 C 
BRANCH  27  28
ATOM     28  C   UNL     1      61.178  28.106  28.022  1.00  0.00    -0.000 C 
BRANCH  28  29
ATOM     29  C   UNL     1      61.088  27.310  26.707  1.00  0.00    -0.000 C 
BRANCH  29  30
ATOM     30  C   UNL     1      62.415  27.294  25.931  1.00  0.00    -0.000 C 
BRANCH  30  31
ATOM     31  C   UNL     1      62.300  27.938  24.540  1.00  0.00    -0.003 C 
ATOM     32  C   UNL     1      61.933  29.416  24.648  1.00  0.00     0.004 C 
ENDBRANCH  30  31
ENDBRANCH  29  30
ENDBRANCH  28  29
ENDBRANCH  27  28
ENDBRANCH  26  27
ENDBRANCH  25  26
ENDBRANCH  24  25
ENDBRANCH  23  24
ENDBRANCH  22  23
ENDBRANCH  21  22
ENDBRANCH  20  21
ENDBRANCH  19  20
ENDBRANCH  18  19
ENDBRANCH   1  18
TORSDOF 28
ENDMDL
