MODEL 1
REMARK VINA RESULT:    27.158      0.000      0.000
REMARK INTER + INTRA:          40.203
REMARK INTER:                  35.890
REMARK INTRA:                   4.313
REMARK UNBOUND:                 4.313
REMARK SMILES CC(C)=CCC[C@H](C(=O)[O-])[C@@H]1CC[C@]2(C)C3=C(CC[C@]12C)[C@]1(C)CC[C@H](O)C(C)(C)[C@H]1CC3
REMARK SMILES IDX 6 1 7 2 8 3 9 4 10 5 11 6 12 7 20 8 13 9 14 10 19 11 21 12
REMARK SMILES IDX 15 13 16 14 18 15 17 16 33 17 22 18 32 19 31 20 24 21 23 22
REMARK SMILES IDX 28 23 25 24 26 25 29 26 30 27 27 28 5 30 4 31 2 32 1 33 3 34
REMARK H PARENT 27 29
REMARK Flexibility Score: inf
ROOT
ATOM      1  C   UNL     1      13.029  -5.147  14.622  1.00  0.00     0.014 C 
ENDROOT
BRANCH   1   2
ATOM      2  C   UNL     1      14.271  -4.346  14.138  1.00  0.00     0.039 C 
BRANCH   2   3
ATOM      3  C   UNL     1      14.251  -4.256  12.634  1.00  0.00     0.045 C 
ATOM      4  O   UNL     1      13.211  -3.875  12.032  1.00  0.00    -0.550 OA
ATOM      5  O   UNL     1      15.391  -4.568  11.900  1.00  0.00    -0.550 OA
ENDBRANCH   2   3
BRANCH   2   6
ATOM      6  C   UNL     1      15.612  -4.986  14.648  1.00  0.00     0.004 C 
ATOM      7  C   UNL     1      16.731  -4.876  13.607  1.00  0.00     0.006 C 
ATOM      8  C   UNL     1      15.613  -6.493  15.104  1.00  0.00    -0.020 C 
ATOM      9  C   UNL     1      17.727  -5.998  13.869  1.00  0.00     0.012 C 
ATOM     10  C   UNL     1      17.145  -6.908  14.984  1.00  0.00    -0.006 C 
ATOM     11  C   UNL     1      14.696  -7.410  14.216  1.00  0.00     0.012 C 
ATOM     12  C   UNL     1      15.082  -6.625  16.561  1.00  0.00     0.012 C 
ATOM     13  C   UNL     1      17.934  -6.567  16.290  1.00  0.00     0.017 C 
ATOM     14  C   UNL     1      17.335  -8.393  14.562  1.00  0.00    -0.064 C 
ATOM     15  C   UNL     1      15.424  -8.038  13.037  1.00  0.00     0.032 C 
ATOM     16  C   UNL     1      16.547  -8.916  13.571  1.00  0.00    -0.064 C 
ATOM     17  C   UNL     1      18.462  -9.212  15.204  1.00  0.00     0.032 C 
ATOM     18  C   UNL     1      16.847 -10.305  12.964  1.00  0.00    -0.008 C 
ATOM     19  C   UNL     1      18.581 -10.692  14.793  1.00  0.00     0.009 C 
ATOM     20  C   UNL     1      17.296 -11.241  14.148  1.00  0.00     0.007 C 
ATOM     21  C   UNL     1      15.592 -10.916  12.272  1.00  0.00     0.014 C 
ATOM     22  C   UNL     1      17.929 -10.049  11.875  1.00  0.00     0.016 C 
ATOM     23  C   UNL     1      17.339 -12.804  13.876  1.00  0.00    -0.006 C 
ATOM     24  C   UNL     1      15.757 -12.392  11.897  1.00  0.00     0.033 C 
ATOM     25  C   UNL     1      16.041 -13.255  13.131  1.00  0.00     0.120 C 
ATOM     26  C   UNL     1      17.395 -13.573  15.228  1.00  0.00     0.014 C 
ATOM     27  C   UNL     1      18.586 -13.257  13.068  1.00  0.00     0.014 C 
BRANCH  25  28
ATOM     28  O   UNL     1      14.930 -13.199  13.998  1.00  0.00    -0.393 OA
ATOM     29  H   UNL     1      15.289 -13.152  14.925  1.00  0.00     0.210 HD
ENDBRANCH  25  28
ENDBRANCH   2   6
ENDBRANCH   1   2
BRANCH   1  30
ATOM     30  C   UNL     1      12.438  -6.085  13.551  1.00  0.00     0.028 C 
BRANCH  30  31
ATOM     31  C   UNL     1      11.959  -7.397  14.126  1.00  0.00    -0.028 C 
ATOM     32  C   UNL     1      11.993  -8.582  13.474  1.00  0.00    -0.080 C 
ATOM     33  C   UNL     1      12.577  -8.720  12.086  1.00  0.00     0.039 C 
ATOM     34  C   UNL     1      11.443  -9.804  14.170  1.00  0.00     0.039 C 
ENDBRANCH  30  31
ENDBRANCH   1  30
TORSDOF 6
ENDMDL
