MODEL 1
REMARK VINA RESULT:    19.901      0.000      0.000
REMARK INTER + INTRA:          24.508
REMARK INTER:                  25.136
REMARK INTRA:                  -0.627
REMARK UNBOUND:                -0.627
REMARK SMILES Oc1ccc(CCc2cc(O)cc(O)c2)cc1
REMARK SMILES IDX 6 1 5 2 4 3 3 4 2 5 16 6 17 7 1 8 7 10 8 11 15 12 9 13 13 14
REMARK SMILES IDX 10 15 12 16 14 17 11 19
REMARK H PARENT 1 9 14 18 11 20
REMARK Flexibility Score: inf
ROOT
ATOM      1  C   UNL     1     -16.832  10.979 -23.979  1.00  0.00     0.040 C 
ENDROOT
BRANCH   1   2
ATOM      2  C   UNL     1     -17.308  10.201 -25.176  1.00  0.00    -0.047 A 
ATOM      3  C   UNL     1     -17.034  10.661 -26.475  1.00  0.00     0.007 A 
ATOM      4  C   UNL     1     -17.447   9.921 -27.587  1.00  0.00     0.046 A 
ATOM      5  C   UNL     1     -18.126   8.710 -27.414  1.00  0.00     0.115 A 
ATOM      6  C   UNL     1     -17.978   8.979 -25.006  1.00  0.00     0.007 A 
ATOM      7  C   UNL     1     -18.389   8.240 -26.120  1.00  0.00     0.046 A 
BRANCH   5   8
ATOM      8  O   UNL     1     -18.531   7.983 -28.530  1.00  0.00    -0.508 OA
ATOM      9  H   UNL     1     -19.119   8.396 -29.246  1.00  0.00     0.293 HD
ENDBRANCH   5   8
ENDBRANCH   1   2
BRANCH   1  10
ATOM     10  C   UNL     1     -17.929  11.927 -23.482  1.00  0.00     0.040 C 
BRANCH  10  11
ATOM     11  C   UNL     1     -17.682  13.327 -23.977  1.00  0.00    -0.040 A 
ATOM     12  C   UNL     1     -16.389  13.873 -23.939  1.00  0.00     0.050 A 
ATOM     13  C   UNL     1     -18.731  14.076 -24.533  1.00  0.00     0.050 A 
ATOM     14  C   UNL     1     -16.151  15.162 -24.428  1.00  0.00     0.119 A 
ATOM     15  C   UNL     1     -18.496  15.368 -25.023  1.00  0.00     0.119 A 
ATOM     16  C   UNL     1     -17.208  15.909 -24.968  1.00  0.00     0.092 A 
BRANCH  14  17
ATOM     17  O   UNL     1     -14.863  15.690 -24.377  1.00  0.00    -0.508 OA
ATOM     18  H   UNL     1     -14.700  16.669 -24.173  1.00  0.00     0.293 HD
ENDBRANCH  14  17
BRANCH  15  19
ATOM     19  O   UNL     1     -19.534  16.120 -25.570  1.00  0.00    -0.508 OA
ATOM     20  H   UNL     1     -20.157  16.666 -24.986  1.00  0.00     0.293 HD
ENDBRANCH  15  19
ENDBRANCH  10  11
ENDBRANCH   1  10
TORSDOF 6
ENDMDL
MODEL 2
REMARK VINA RESULT:    20.044      0.089      2.036
REMARK INTER + INTRA:          24.690
REMARK INTER:                  25.312
REMARK INTRA:                  -0.622
REMARK UNBOUND:                -0.627
REMARK SMILES Oc1ccc(CCc2cc(O)cc(O)c2)cc1
REMARK SMILES IDX 6 1 5 2 4 3 3 4 2 5 16 6 17 7 1 8 7 10 8 11 15 12 9 13 13 14
REMARK SMILES IDX 10 15 12 16 14 17 11 19
REMARK H PARENT 1 9 14 18 11 20
REMARK Flexibility Score: inf
ROOT
ATOM      1  C   UNL     1     -16.932  10.966 -23.919  1.00  0.00     0.040 C 
ENDROOT
BRANCH   1   2
ATOM      2  C   UNL     1     -17.375  10.183 -25.126  1.00  0.00    -0.047 A 
ATOM      3  C   UNL     1     -17.005  10.601 -26.416  1.00  0.00     0.007 A 
ATOM      4  C   UNL     1     -17.389   9.856 -27.535  1.00  0.00     0.046 A 
ATOM      5  C   UNL     1     -18.135   8.683 -27.377  1.00  0.00     0.115 A 
ATOM      6  C   UNL     1     -18.111   8.999 -24.971  1.00  0.00     0.007 A 
ATOM      7  C   UNL     1     -18.494   8.255 -26.092  1.00  0.00     0.046 A 
BRANCH   5   8
ATOM      8  O   UNL     1     -18.510   7.951 -28.500  1.00  0.00    -0.508 OA
ATOM      9  H   UNL     1     -17.832   7.422 -29.038  1.00  0.00     0.293 HD
ENDBRANCH   5   8
ENDBRANCH   1   2
BRANCH   1  10
ATOM     10  C   UNL     1     -18.022  11.951 -23.485  1.00  0.00     0.040 C 
BRANCH  10  11
ATOM     11  C   UNL     1     -17.733  13.328 -24.020  1.00  0.00    -0.040 A 
ATOM     12  C   UNL     1     -18.760  14.092 -24.598  1.00  0.00     0.050 A 
ATOM     13  C   UNL     1     -16.449  13.882 -23.893  1.00  0.00     0.050 A 
ATOM     14  C   UNL     1     -18.501  15.385 -25.067  1.00  0.00     0.119 A 
ATOM     15  C   UNL     1     -16.188  15.177 -24.362  1.00  0.00     0.119 A 
ATOM     16  C   UNL     1     -17.212  15.924 -24.949  1.00  0.00     0.092 A 
BRANCH  14  17
ATOM     17  O   UNL     1     -19.530  16.125 -25.643  1.00  0.00    -0.508 OA
ATOM     18  H   UNL     1     -19.352  16.794 -26.383  1.00  0.00     0.293 HD
ENDBRANCH  14  17
BRANCH  15  19
ATOM     19  O   UNL     1     -14.914  15.730 -24.245  1.00  0.00    -0.508 OA
ATOM     20  H   UNL     1     -14.102  15.154 -24.055  1.00  0.00     0.293 HD
ENDBRANCH  15  19
ENDBRANCH  10  11
ENDBRANCH   1  10
TORSDOF 6
ENDMDL
MODEL 3
REMARK VINA RESULT:    20.122     13.274     15.857
REMARK INTER + INTRA:          24.789
REMARK INTER:                  25.233
REMARK INTRA:                  -0.445
REMARK UNBOUND:                -0.627
REMARK SMILES Oc1ccc(CCc2cc(O)cc(O)c2)cc1
REMARK SMILES IDX 6 1 5 2 4 3 3 4 2 5 16 6 17 7 1 8 7 10 8 11 15 12 9 13 13 14
REMARK SMILES IDX 10 15 12 16 14 17 11 19
REMARK H PARENT 1 9 14 18 11 20
REMARK Flexibility Score: inf
ROOT
ATOM      1  C   UNL     1      -8.697  10.225 -14.518  1.00  0.00     0.040 C 
ENDROOT
BRANCH   1   2
ATOM      2  C   UNL     1      -8.224  11.562 -14.012  1.00  0.00    -0.047 A 
ATOM      3  C   UNL     1      -8.758  12.749 -14.542  1.00  0.00     0.007 A 
ATOM      4  C   UNL     1      -8.343  13.989 -14.048  1.00  0.00     0.046 A 
ATOM      5  C   UNL     1      -7.400  14.057 -13.017  1.00  0.00     0.115 A 
ATOM      6  C   UNL     1      -7.289  11.633 -12.969  1.00  0.00     0.007 A 
ATOM      7  C   UNL     1      -6.875  12.875 -12.477  1.00  0.00     0.046 A 
BRANCH   5   8
ATOM      8  O   UNL     1      -6.996  15.299 -12.535  1.00  0.00    -0.508 OA
ATOM      9  H   UNL     1      -7.668  16.024 -12.309  1.00  0.00     0.293 HD
ENDBRANCH   5   8
ENDBRANCH   1   2
BRANCH   1  10
ATOM     10  C   UNL     1      -8.723   9.197 -13.383  1.00  0.00     0.040 C 
BRANCH  10  11
ATOM     11  C   UNL     1      -9.866   8.235 -13.567  1.00  0.00    -0.040 A 
ATOM     12  C   UNL     1     -10.989   8.606 -14.323  1.00  0.00     0.050 A 
ATOM     13  C   UNL     1      -9.792   6.939 -13.032  1.00  0.00     0.050 A 
ATOM     14  C   UNL     1     -12.038   7.701 -14.523  1.00  0.00     0.119 A 
ATOM     15  C   UNL     1     -10.842   6.031 -13.230  1.00  0.00     0.119 A 
ATOM     16  C   UNL     1     -11.962   6.414 -13.972  1.00  0.00     0.092 A 
BRANCH  14  17
ATOM     17  O   UNL     1     -13.146   8.090 -15.270  1.00  0.00    -0.508 OA
ATOM     18  H   UNL     1     -14.055   7.663 -15.132  1.00  0.00     0.293 HD
ENDBRANCH  14  17
BRANCH  15  19
ATOM     19  O   UNL     1     -10.778   4.745 -12.696  1.00  0.00    -0.508 OA
ATOM     20  H   UNL     1     -11.402   4.448 -11.955  1.00  0.00     0.293 HD
ENDBRANCH  15  19
ENDBRANCH  10  11
ENDBRANCH   1  10
TORSDOF 6
ENDMDL
MODEL 4
REMARK VINA RESULT:    20.706     13.291     15.790
REMARK INTER + INTRA:          25.526
REMARK INTER:                  25.933
REMARK INTRA:                  -0.407
REMARK UNBOUND:                -0.627
REMARK SMILES Oc1ccc(CCc2cc(O)cc(O)c2)cc1
REMARK SMILES IDX 6 1 5 2 4 3 3 4 2 5 16 6 17 7 1 8 7 10 8 11 15 12 9 13 13 14
REMARK SMILES IDX 10 15 12 16 14 17 11 19
REMARK H PARENT 1 9 14 18 11 20
REMARK Flexibility Score: inf
ROOT
ATOM      1  C   UNL     1      -8.695  10.243 -14.328  1.00  0.00     0.040 C 
ENDROOT
BRANCH   1   2
ATOM      2  C   UNL     1      -8.222  11.607 -13.901  1.00  0.00    -0.047 A 
ATOM      3  C   UNL     1      -8.754  12.761 -14.501  1.00  0.00     0.007 A 
ATOM      4  C   UNL     1      -8.339  14.028 -14.081  1.00  0.00     0.046 A 
ATOM      5  C   UNL     1      -7.398  14.156 -13.053  1.00  0.00     0.115 A 
ATOM      6  C   UNL     1      -7.289  11.739 -12.861  1.00  0.00     0.007 A 
ATOM      7  C   UNL     1      -6.875  13.009 -12.443  1.00  0.00     0.046 A 
BRANCH   5   8
ATOM      8  O   UNL     1      -6.994  15.425 -12.646  1.00  0.00    -0.508 OA
ATOM      9  H   UNL     1      -7.264  16.257 -13.158  1.00  0.00     0.293 HD
ENDBRANCH   5   8
ENDBRANCH   1   2
BRANCH   1  10
ATOM     10  C   UNL     1      -8.997   9.371 -13.105  1.00  0.00     0.040 C 
BRANCH  10  11
ATOM     11  C   UNL     1     -10.008   8.310 -13.450  1.00  0.00    -0.040 A 
ATOM     12  C   UNL     1      -9.848   6.999 -12.976  1.00  0.00     0.050 A 
ATOM     13  C   UNL     1     -11.149   8.638 -14.200  1.00  0.00     0.050 A 
ATOM     14  C   UNL     1     -10.803   6.019 -13.268  1.00  0.00     0.119 A 
ATOM     15  C   UNL     1     -12.107   7.658 -14.495  1.00  0.00     0.119 A 
ATOM     16  C   UNL     1     -11.932   6.351 -14.030  1.00  0.00     0.092 A 
BRANCH  14  17
ATOM     17  O   UNL     1     -10.623   4.722 -12.794  1.00  0.00    -0.508 OA
ATOM     18  H   UNL     1     -10.346   4.541 -11.836  1.00  0.00     0.293 HD
ENDBRANCH  14  17
BRANCH  15  19
ATOM     19  O   UNL     1     -13.239   7.974 -15.245  1.00  0.00    -0.508 OA
ATOM     20  H   UNL     1     -14.049   7.364 -15.264  1.00  0.00     0.293 HD
ENDBRANCH  15  19
ENDBRANCH  10  11
ENDBRANCH   1  10
TORSDOF 6
ENDMDL
MODEL 5
REMARK VINA RESULT:    21.335      2.492      6.442
REMARK INTER + INTRA:          26.320
REMARK INTER:                  26.399
REMARK INTRA:                  -0.079
REMARK UNBOUND:                -0.627
REMARK SMILES Oc1ccc(CCc2cc(O)cc(O)c2)cc1
REMARK SMILES IDX 6 1 5 2 4 3 3 4 2 5 16 6 17 7 1 8 7 10 8 11 15 12 9 13 13 14
REMARK SMILES IDX 10 15 12 16 14 17 11 19
REMARK H PARENT 1 9 14 18 11 20
REMARK Flexibility Score: inf
ROOT
ATOM      1  C   UNL     1     -17.564  15.912 -24.742  1.00  0.00     0.040 C 
ENDROOT
BRANCH   1   2
ATOM      2  C   UNL     1     -16.103  15.997 -24.390  1.00  0.00    -0.047 A 
ATOM      3  C   UNL     1     -15.700  16.035 -23.045  1.00  0.00     0.007 A 
ATOM      4  C   UNL     1     -14.341  16.080 -22.717  1.00  0.00     0.046 A 
ATOM      5  C   UNL     1     -13.373  16.078 -23.727  1.00  0.00     0.115 A 
ATOM      6  C   UNL     1     -15.129  15.981 -25.400  1.00  0.00     0.007 A 
ATOM      7  C   UNL     1     -13.770  16.026 -25.070  1.00  0.00     0.046 A 
BRANCH   5   8
ATOM      8  O   UNL     1     -12.024  16.123 -23.387  1.00  0.00    -0.508 OA
ATOM      9  H   UNL     1     -11.705  16.592 -22.545  1.00  0.00     0.293 HD
ENDBRANCH   5   8
ENDBRANCH   1   2
BRANCH   1  10
ATOM     10  C   UNL     1     -17.828  14.716 -25.662  1.00  0.00     0.040 C 
BRANCH  10  11
ATOM     11  C   UNL     1     -17.681  13.424 -24.904  1.00  0.00    -0.040 A 
ATOM     12  C   UNL     1     -17.620  12.202 -25.593  1.00  0.00     0.050 A 
ATOM     13  C   UNL     1     -17.545  13.435 -23.506  1.00  0.00     0.050 A 
ATOM     14  C   UNL     1     -17.451  11.003 -24.892  1.00  0.00     0.119 A 
ATOM     15  C   UNL     1     -17.376  12.235 -22.802  1.00  0.00     0.119 A 
ATOM     16  C   UNL     1     -17.331  11.022 -23.496  1.00  0.00     0.092 A 
BRANCH  14  17
ATOM     17  O   UNL     1     -17.399   9.800 -25.593  1.00  0.00    -0.508 OA
ATOM     18  H   UNL     1     -16.826   9.027 -25.276  1.00  0.00     0.293 HD
ENDBRANCH  14  17
BRANCH  15  19
ATOM     19  O   UNL     1     -17.248  12.238 -21.415  1.00  0.00    -0.508 OA
ATOM     20  H   UNL     1     -16.412  12.588 -20.961  1.00  0.00     0.293 HD
ENDBRANCH  15  19
ENDBRANCH  10  11
ENDBRANCH   1  10
TORSDOF 6
ENDMDL
MODEL 6
REMARK VINA RESULT:    21.358      2.385      6.476
REMARK INTER + INTRA:          26.349
REMARK INTER:                  26.683
REMARK INTRA:                  -0.334
REMARK UNBOUND:                -0.627
REMARK SMILES Oc1ccc(CCc2cc(O)cc(O)c2)cc1
REMARK SMILES IDX 6 1 5 2 4 3 3 4 2 5 16 6 17 7 1 8 7 10 8 11 15 12 9 13 13 14
REMARK SMILES IDX 10 15 12 16 14 17 11 19
REMARK H PARENT 1 9 14 18 11 20
REMARK Flexibility Score: inf
ROOT
ATOM      1  C   UNL     1     -17.197  15.872 -24.922  1.00  0.00     0.040 C 
ENDROOT
BRANCH   1   2
ATOM      2  C   UNL     1     -15.768  15.966 -24.459  1.00  0.00    -0.047 A 
ATOM      3  C   UNL     1     -15.472  16.071 -23.089  1.00  0.00     0.007 A 
ATOM      4  C   UNL     1     -14.144  16.125 -22.657  1.00  0.00     0.046 A 
ATOM      5  C   UNL     1     -13.098  16.065 -23.585  1.00  0.00     0.115 A 
ATOM      6  C   UNL     1     -14.717  15.893 -25.386  1.00  0.00     0.007 A 
ATOM      7  C   UNL     1     -13.388  15.947 -24.951  1.00  0.00     0.046 A 
BRANCH   5   8
ATOM      8  O   UNL     1     -11.780  16.120 -23.141  1.00  0.00    -0.508 OA
ATOM      9  H   UNL     1     -11.379  16.978 -22.776  1.00  0.00     0.293 HD
ENDBRANCH   5   8
ENDBRANCH   1   2
BRANCH   1  10
ATOM     10  C   UNL     1     -17.366  14.719 -25.917  1.00  0.00     0.040 C 
BRANCH  10  11
ATOM     11  C   UNL     1     -17.399  13.398 -25.196  1.00  0.00    -0.040 A 
ATOM     12  C   UNL     1     -17.484  13.359 -23.795  1.00  0.00     0.050 A 
ATOM     13  C   UNL     1     -17.404  12.196 -25.922  1.00  0.00     0.050 A 
ATOM     14  C   UNL     1     -17.548  12.132 -23.125  1.00  0.00     0.119 A 
ATOM     15  C   UNL     1     -17.467  10.966 -25.252  1.00  0.00     0.119 A 
ATOM     16  C   UNL     1     -17.537  10.936 -23.856  1.00  0.00     0.092 A 
BRANCH  14  17
ATOM     17  O   UNL     1     -17.625  12.113 -21.734  1.00  0.00    -0.508 OA
ATOM     18  H   UNL     1     -16.857  11.776 -21.166  1.00  0.00     0.293 HD
ENDBRANCH  14  17
BRANCH  15  19
ATOM     19  O   UNL     1     -17.465   9.769 -25.966  1.00  0.00    -0.508 OA
ATOM     20  H   UNL     1     -16.617   9.400 -26.380  1.00  0.00     0.293 HD
ENDBRANCH  15  19
ENDBRANCH  10  11
ENDBRANCH   1  10
TORSDOF 6
ENDMDL
MODEL 7
REMARK VINA RESULT:    21.494      3.309      6.250
REMARK INTER + INTRA:          26.521
REMARK INTER:                  27.182
REMARK INTRA:                  -0.661
REMARK UNBOUND:                -0.627
REMARK SMILES Oc1ccc(CCc2cc(O)cc(O)c2)cc1
REMARK SMILES IDX 6 1 5 2 4 3 3 4 2 5 16 6 17 7 1 8 7 10 8 11 15 12 9 13 13 14
REMARK SMILES IDX 10 15 12 16 14 17 11 19
REMARK H PARENT 1 9 14 18 11 20
REMARK Flexibility Score: inf
ROOT
ATOM      1  C   UNL     1     -16.649  16.124 -25.487  1.00  0.00     0.040 C 
ENDROOT
BRANCH   1   2
ATOM      2  C   UNL     1     -15.298  16.057 -24.828  1.00  0.00    -0.047 A 
ATOM      3  C   UNL     1     -14.128  16.124 -25.604  1.00  0.00     0.007 A 
ATOM      4  C   UNL     1     -12.872  16.094 -24.989  1.00  0.00     0.046 A 
ATOM      5  C   UNL     1     -12.772  16.009 -23.596  1.00  0.00     0.115 A 
ATOM      6  C   UNL     1     -15.194  15.985 -23.430  1.00  0.00     0.007 A 
ATOM      7  C   UNL     1     -13.936  15.956 -22.818  1.00  0.00     0.046 A 
BRANCH   5   8
ATOM      8  O   UNL     1     -11.516  15.981 -22.998  1.00  0.00    -0.508 OA
ATOM      9  H   UNL     1     -11.396  16.165 -22.007  1.00  0.00     0.293 HD
ENDBRANCH   5   8
ENDBRANCH   1   2
BRANCH   1  10
ATOM     10  C   UNL     1     -17.123  14.725 -25.891  1.00  0.00     0.040 C 
BRANCH  10  11
ATOM     11  C   UNL     1     -17.831  14.054 -24.744  1.00  0.00    -0.040 A 
ATOM     12  C   UNL     1     -17.352  12.839 -24.230  1.00  0.00     0.050 A 
ATOM     13  C   UNL     1     -18.941  14.668 -24.143  1.00  0.00     0.050 A 
ATOM     14  C   UNL     1     -17.989  12.231 -23.143  1.00  0.00     0.119 A 
ATOM     15  C   UNL     1     -19.582  14.060 -23.054  1.00  0.00     0.119 A 
ATOM     16  C   UNL     1     -19.107  12.843 -22.558  1.00  0.00     0.092 A 
BRANCH  14  17
ATOM     17  O   UNL     1     -17.503  11.022 -22.650  1.00  0.00    -0.508 OA
ATOM     18  H   UNL     1     -16.596  10.958 -22.203  1.00  0.00     0.293 HD
ENDBRANCH  14  17
BRANCH  15  19
ATOM     19  O   UNL     1     -20.689  14.660 -22.457  1.00  0.00    -0.508 OA
ATOM     20  H   UNL     1     -21.623  14.538 -22.829  1.00  0.00     0.293 HD
ENDBRANCH  15  19
ENDBRANCH  10  11
ENDBRANCH   1  10
TORSDOF 6
ENDMDL
MODEL 8
REMARK VINA RESULT:    21.761      4.000      5.471
REMARK INTER + INTRA:          26.859
REMARK INTER:                  26.940
REMARK INTRA:                  -0.081
REMARK UNBOUND:                -0.627
REMARK SMILES Oc1ccc(CCc2cc(O)cc(O)c2)cc1
REMARK SMILES IDX 6 1 5 2 4 3 3 4 2 5 16 6 17 7 1 8 7 10 8 11 15 12 9 13 13 14
REMARK SMILES IDX 10 15 12 16 14 17 11 19
REMARK H PARENT 1 9 14 18 11 20
REMARK Flexibility Score: inf
ROOT
ATOM      1  C   UNL     1     -16.549  14.698 -26.146  1.00  0.00     0.040 C 
ENDROOT
BRANCH   1   2
ATOM      2  C   UNL     1     -17.706  14.660 -25.184  1.00  0.00    -0.047 A 
ATOM      3  C   UNL     1     -17.817  13.615 -24.251  1.00  0.00     0.007 A 
ATOM      4  C   UNL     1     -18.874  13.597 -23.336  1.00  0.00     0.046 A 
ATOM      5  C   UNL     1     -19.822  14.626 -23.336  1.00  0.00     0.115 A 
ATOM      6  C   UNL     1     -18.651  15.697 -25.172  1.00  0.00     0.007 A 
ATOM      7  C   UNL     1     -19.708  15.677 -24.256  1.00  0.00     0.046 A 
BRANCH   5   8
ATOM      8  O   UNL     1     -20.870  14.595 -22.419  1.00  0.00    -0.508 OA
ATOM      9  H   UNL     1     -21.685  14.009 -22.565  1.00  0.00     0.293 HD
ENDBRANCH   5   8
ENDBRANCH   1   2
BRANCH   1  10
ATOM     10  C   UNL     1     -15.778  16.015 -26.009  1.00  0.00     0.040 C 
BRANCH  10  11
ATOM     11  C   UNL     1     -14.965  16.024 -24.742  1.00  0.00    -0.040 A 
ATOM     12  C   UNL     1     -13.563  16.057 -24.801  1.00  0.00     0.050 A 
ATOM     13  C   UNL     1     -15.605  16.058 -23.492  1.00  0.00     0.050 A 
ATOM     14  C   UNL     1     -12.807  16.097 -23.624  1.00  0.00     0.119 A 
ATOM     15  C   UNL     1     -14.849  16.098 -22.312  1.00  0.00     0.119 A 
ATOM     16  C   UNL     1     -13.453  16.116 -22.380  1.00  0.00     0.092 A 
BRANCH  14  17
ATOM     17  O   UNL     1     -11.416  16.123 -23.702  1.00  0.00    -0.508 OA
ATOM     18  H   UNL     1     -10.837  15.936 -22.893  1.00  0.00     0.293 HD
ENDBRANCH  14  17
BRANCH  15  19
ATOM     19  O   UNL     1     -15.477  16.125 -21.068  1.00  0.00    -0.508 OA
ATOM     20  H   UNL     1     -15.724  16.999 -20.618  1.00  0.00     0.293 HD
ENDBRANCH  15  19
ENDBRANCH  10  11
ENDBRANCH   1  10
TORSDOF 6
ENDMDL
