MODEL 1
REMARK VINA RESULT:    -4.959      0.000      0.000
REMARK INTER + INTRA:          -6.284
REMARK INTER:                  -5.974
REMARK INTRA:                  -0.311
REMARK UNBOUND:                -0.311
REMARK SMILES O=c1c(O)c(-c2ccc(O)c(O)c2)oc2cc(O)cc(O)c12
REMARK SMILES IDX 5 1 3 2 2 3 1 4 22 5 20 6 19 7 17 8 16 9 15 10 14 11 6 12
REMARK SMILES IDX 7 13 8 14 9 15 13 16 11 17 10 18 12 20 4 22 21 24 18 26
REMARK H PARENT 10 19 12 21 4 23 21 25 18 27
REMARK Flexibility Score: inf
ROOT
ATOM      1  C   UNL     1      59.980 -16.433   2.956  1.00  0.00     0.180 A 
ATOM      2  C   UNL     1      60.637 -15.250   2.576  1.00  0.00     0.208 A 
ATOM      3  C   UNL     1      61.901 -15.336   1.973  1.00  0.00     0.238 A 
ATOM      4  O   UNL     1      62.461 -14.276   1.585  1.00  0.00    -0.285 OA
ATOM      5  C   UNL     1      62.500 -16.603   1.771  1.00  0.00     0.111 A 
ATOM      6  C   UNL     1      63.795 -16.805   1.206  1.00  0.00     0.134 A 
ATOM      7  C   UNL     1      64.233 -18.107   0.933  1.00  0.00     0.093 A 
ATOM      8  C   UNL     1      63.450 -19.215   1.266  1.00  0.00     0.123 A 
ATOM      9  C   UNL     1      62.211 -19.029   1.873  1.00  0.00     0.094 A 
ATOM     10  C   UNL     1      61.731 -17.741   2.124  1.00  0.00     0.146 A 
ATOM     11  O   UNL     1      60.539 -17.609   2.694  1.00  0.00    -0.452 OA
ENDROOT
BRANCH   1  12
ATOM     12  C   UNL     1      58.657 -16.421   3.620  1.00  0.00     0.025 A 
ATOM     13  C   UNL     1      57.508 -16.733   2.876  1.00  0.00     0.016 A 
ATOM     14  C   UNL     1      56.251 -16.748   3.487  1.00  0.00     0.051 A 
ATOM     15  C   UNL     1      56.124 -16.468   4.851  1.00  0.00     0.157 A 
ATOM     16  C   UNL     1      58.530 -16.160   4.996  1.00  0.00     0.062 A 
ATOM     17  C   UNL     1      57.269 -16.177   5.612  1.00  0.00     0.158 A 
BRANCH  15  18
ATOM     18  O   UNL     1      54.857 -16.488   5.432  1.00  0.00    -0.504 OA
ATOM     19  H   UNL     1      54.387 -17.354   5.668  1.00  0.00     0.293 HD
ENDBRANCH  15  18
BRANCH  17  20
ATOM     20  O   UNL     1      57.152 -15.910   6.975  1.00  0.00    -0.504 OA
ATOM     21  H   UNL     1      56.455 -16.372   7.548  1.00  0.00     0.293 HD
ENDBRANCH  17  20
ENDBRANCH   1  12
BRANCH   2  22
ATOM     22  O   UNL     1      60.017 -14.010   2.764  1.00  0.00    -0.502 OA
ATOM     23  H   UNL     1      60.020 -13.288   2.054  1.00  0.00     0.293 HD
ENDBRANCH   2  22
BRANCH   6  24
ATOM     24  O   UNL     1      64.694 -15.773   0.921  1.00  0.00    -0.507 OA
ATOM     25  H   UNL     1      64.922 -15.020   1.553  1.00  0.00     0.293 HD
ENDBRANCH   6  24
BRANCH   8  26
ATOM     26  O   UNL     1      63.900 -20.508   1.005  1.00  0.00    -0.508 OA
ATOM     27  H   UNL     1      63.736 -20.956   0.110  1.00  0.00     0.293 HD
ENDBRANCH   8  26
TORSDOF 6
ENDMDL
MODEL 2
REMARK VINA RESULT:    -4.869     12.321     14.352
REMARK INTER + INTRA:          -6.176
REMARK INTER:                  -5.894
REMARK INTRA:                  -0.281
REMARK UNBOUND:                -0.311
REMARK SMILES O=c1c(O)c(-c2ccc(O)c(O)c2)oc2cc(O)cc(O)c12
REMARK SMILES IDX 5 1 3 2 2 3 1 4 22 5 20 6 19 7 17 8 16 9 15 10 14 11 6 12
REMARK SMILES IDX 7 13 8 14 9 15 13 16 11 17 10 18 12 20 4 22 21 24 18 26
REMARK H PARENT 10 19 12 21 4 23 21 25 18 27
REMARK Flexibility Score: inf
ROOT
ATOM      1  C   UNL     1      52.876  -7.569  -4.021  1.00  0.00     0.180 A 
ATOM      2  C   UNL     1      51.939  -6.735  -3.385  1.00  0.00     0.208 A 
ATOM      3  C   UNL     1      52.339  -5.993  -2.263  1.00  0.00     0.238 A 
ATOM      4  O   UNL     1      51.512  -5.206  -1.730  1.00  0.00    -0.285 OA
ATOM      5  C   UNL     1      53.666  -6.105  -1.781  1.00  0.00     0.111 A 
ATOM      6  C   UNL     1      54.168  -5.431  -0.627  1.00  0.00     0.134 A 
ATOM      7  C   UNL     1      55.532  -5.514  -0.318  1.00  0.00     0.093 A 
ATOM      8  C   UNL     1      56.397  -6.300  -1.083  1.00  0.00     0.123 A 
ATOM      9  C   UNL     1      55.904  -7.010  -2.175  1.00  0.00     0.094 A 
ATOM     10  C   UNL     1      54.556  -6.918  -2.530  1.00  0.00     0.146 A 
ATOM     11  O   UNL     1      54.130  -7.602  -3.585  1.00  0.00    -0.452 OA
ENDROOT
BRANCH   1  12
ATOM     12  C   UNL     1      52.521  -8.400  -5.193  1.00  0.00     0.025 A 
ATOM     13  C   UNL     1      52.463  -7.810  -6.466  1.00  0.00     0.016 A 
ATOM     14  C   UNL     1      52.150  -8.579  -7.590  1.00  0.00     0.051 A 
ATOM     15  C   UNL     1      51.909  -9.950  -7.463  1.00  0.00     0.157 A 
ATOM     16  C   UNL     1      52.298  -9.783  -5.072  1.00  0.00     0.062 A 
ATOM     17  C   UNL     1      51.987 -10.558  -6.199  1.00  0.00     0.158 A 
BRANCH  15  18
ATOM     18  O   UNL     1      51.597 -10.692  -8.602  1.00  0.00    -0.504 OA
ATOM     19  H   UNL     1      51.551 -11.704  -8.588  1.00  0.00     0.293 HD
ENDBRANCH  15  18
BRANCH  17  20
ATOM     20  O   UNL     1      51.761 -11.927  -6.067  1.00  0.00    -0.504 OA
ATOM     21  H   UNL     1      50.823 -12.309  -6.025  1.00  0.00     0.293 HD
ENDBRANCH  17  20
ENDBRANCH   1  12
BRANCH   2  22
ATOM     22  O   UNL     1      50.641  -6.621  -3.891  1.00  0.00    -0.502 OA
ATOM     23  H   UNL     1      49.840  -7.041  -3.434  1.00  0.00     0.293 HD
ENDBRANCH   2  22
BRANCH   6  24
ATOM     24  O   UNL     1      53.373  -4.695   0.256  1.00  0.00    -0.507 OA
ATOM     25  H   UNL     1      53.652  -4.418   1.185  1.00  0.00     0.293 HD
ENDBRANCH   6  24
BRANCH   8  26
ATOM     26  O   UNL     1      57.749  -6.390  -0.760  1.00  0.00    -0.508 OA
ATOM     27  H   UNL     1      58.092  -7.081  -0.101  1.00  0.00     0.293 HD
ENDBRANCH   8  26
TORSDOF 6
ENDMDL
MODEL 3
REMARK VINA RESULT:    -4.827      6.633     11.191
REMARK INTER + INTRA:          -6.125
REMARK INTER:                  -5.836
REMARK INTRA:                  -0.289
REMARK UNBOUND:                -0.311
REMARK SMILES O=c1c(O)c(-c2ccc(O)c(O)c2)oc2cc(O)cc(O)c12
REMARK SMILES IDX 5 1 3 2 2 3 1 4 22 5 20 6 19 7 17 8 16 9 15 10 14 11 6 12
REMARK SMILES IDX 7 13 8 14 9 15 13 16 11 17 10 18 12 20 4 22 21 24 18 26
REMARK H PARENT 10 19 12 21 4 23 21 25 18 27
REMARK Flexibility Score: inf
ROOT
ATOM      1  C   UNL     1      67.088 -15.924  -4.055  1.00  0.00     0.180 A 
ATOM      2  C   UNL     1      67.917 -16.308  -2.986  1.00  0.00     0.208 A 
ATOM      3  C   UNL     1      67.361 -17.029  -1.917  1.00  0.00     0.238 A 
ATOM      4  O   UNL     1      68.118 -17.417  -0.989  1.00  0.00    -0.285 OA
ATOM      5  C   UNL     1      65.981 -17.344  -1.923  1.00  0.00     0.111 A 
ATOM      6  C   UNL     1      65.303 -18.035  -0.874  1.00  0.00     0.134 A 
ATOM      7  C   UNL     1      63.964 -18.408  -1.045  1.00  0.00     0.093 A 
ATOM      8  C   UNL     1      63.260 -18.056  -2.199  1.00  0.00     0.123 A 
ATOM      9  C   UNL     1      63.896 -17.329  -3.202  1.00  0.00     0.094 A 
ATOM     10  C   UNL     1      65.242 -16.975  -3.077  1.00  0.00     0.146 A 
ATOM     11  O   UNL     1      65.812 -16.292  -4.062  1.00  0.00    -0.452 OA
ENDROOT
BRANCH   1  12
ATOM     12  C   UNL     1      67.597 -15.142  -5.203  1.00  0.00     0.025 A 
ATOM     13  C   UNL     1      67.787 -15.776  -6.442  1.00  0.00     0.016 A 
ATOM     14  C   UNL     1      68.247 -15.052  -7.545  1.00  0.00     0.051 A 
ATOM     15  C   UNL     1      68.507 -13.683  -7.434  1.00  0.00     0.157 A 
ATOM     16  C   UNL     1      67.839 -13.760  -5.099  1.00  0.00     0.062 A 
ATOM     17  C   UNL     1      68.299 -13.031  -6.206  1.00  0.00     0.158 A 
BRANCH  15  18
ATOM     18  O   UNL     1      68.967 -12.987  -8.551  1.00  0.00    -0.504 OA
ATOM     19  H   UNL     1      69.953 -12.830  -8.719  1.00  0.00     0.293 HD
ENDBRANCH  15  18
BRANCH  17  20
ATOM     20  O   UNL     1      68.543 -11.664  -6.092  1.00  0.00    -0.504 OA
ATOM     21  H   UNL     1      69.453 -11.268  -6.295  1.00  0.00     0.293 HD
ENDBRANCH  17  20
ENDBRANCH   1  12
BRANCH   2  22
ATOM     22  O   UNL     1      69.282 -16.007  -3.011  1.00  0.00    -0.502 OA
ATOM     23  H   UNL     1      69.645 -15.166  -3.444  1.00  0.00     0.293 HD
ENDBRANCH   2  22
BRANCH   6  24
ATOM     24  O   UNL     1      65.886 -18.353   0.356  1.00  0.00    -0.507 OA
ATOM     25  H   UNL     1      65.462 -18.180   1.254  1.00  0.00     0.293 HD
ENDBRANCH   6  24
BRANCH   8  26
ATOM     26  O   UNL     1      61.923 -18.416  -2.355  1.00  0.00    -0.508 OA
ATOM     27  H   UNL     1      61.207 -17.725  -2.550  1.00  0.00     0.293 HD
ENDBRANCH   8  26
TORSDOF 6
ENDMDL
MODEL 4
REMARK VINA RESULT:    -4.820      1.964      6.981
REMARK INTER + INTRA:          -6.117
REMARK INTER:                  -5.929
REMARK INTRA:                  -0.188
REMARK UNBOUND:                -0.311
REMARK SMILES O=c1c(O)c(-c2ccc(O)c(O)c2)oc2cc(O)cc(O)c12
REMARK SMILES IDX 5 1 3 2 2 3 1 4 22 5 20 6 19 7 17 8 16 9 15 10 14 11 6 12
REMARK SMILES IDX 7 13 8 14 9 15 13 16 11 17 10 18 12 20 4 22 21 24 18 26
REMARK H PARENT 10 19 12 21 4 23 21 25 18 27
REMARK Flexibility Score: inf
ROOT
ATOM      1  C   UNL     1      62.301 -17.041   2.208  1.00  0.00     0.180 A 
ATOM      2  C   UNL     1      62.180 -16.215   3.339  1.00  0.00     0.208 A 
ATOM      3  C   UNL     1      60.929 -16.094   3.964  1.00  0.00     0.238 A 
ATOM      4  O   UNL     1      60.839 -15.396   5.008  1.00  0.00    -0.285 OA
ATOM      5  C   UNL     1      59.811 -16.787   3.441  1.00  0.00     0.111 A 
ATOM      6  C   UNL     1      58.487 -16.705   3.970  1.00  0.00     0.134 A 
ATOM      7  C   UNL     1      57.485 -17.536   3.453  1.00  0.00     0.093 A 
ATOM      8  C   UNL     1      57.743 -18.397   2.383  1.00  0.00     0.123 A 
ATOM      9  C   UNL     1      59.017 -18.439   1.821  1.00  0.00     0.094 A 
ATOM     10  C   UNL     1      60.047 -17.650   2.340  1.00  0.00     0.146 A 
ATOM     11  O   UNL     1      61.249 -17.730   1.781  1.00  0.00    -0.452 OA
ENDROOT
BRANCH   1  12
ATOM     12  C   UNL     1      63.581 -17.199   1.482  1.00  0.00     0.025 A 
ATOM     13  C   UNL     1      64.176 -18.468   1.397  1.00  0.00     0.016 A 
ATOM     14  C   UNL     1      65.373 -18.644   0.700  1.00  0.00     0.051 A 
ATOM     15  C   UNL     1      65.986 -17.561   0.062  1.00  0.00     0.157 A 
ATOM     16  C   UNL     1      64.188 -16.115   0.821  1.00  0.00     0.062 A 
ATOM     17  C   UNL     1      65.389 -16.290   0.118  1.00  0.00     0.158 A 
BRANCH  15  18
ATOM     18  O   UNL     1      67.181 -17.767  -0.626  1.00  0.00    -0.504 OA
ATOM     19  H   UNL     1      67.201 -18.009  -1.609  1.00  0.00     0.293 HD
ENDBRANCH  15  18
BRANCH  17  20
ATOM     20  O   UNL     1      65.986 -15.209  -0.527  1.00  0.00    -0.504 OA
ATOM     21  H   UNL     1      65.455 -14.388  -0.792  1.00  0.00     0.293 HD
ENDBRANCH  17  20
ENDBRANCH   1  12
BRANCH   2  22
ATOM     22  O   UNL     1      63.302 -15.557   3.852  1.00  0.00    -0.502 OA
ATOM     23  H   UNL     1      63.783 -14.825   3.344  1.00  0.00     0.293 HD
ENDBRANCH   2  22
BRANCH   6  24
ATOM     24  O   UNL     1      58.101 -15.814   4.975  1.00  0.00    -0.507 OA
ATOM     25  H   UNL     1      58.189 -14.811   4.917  1.00  0.00     0.293 HD
ENDBRANCH   6  24
BRANCH   8  26
ATOM     26  O   UNL     1      56.737 -19.208   1.864  1.00  0.00    -0.508 OA
ATOM     27  H   UNL     1      56.041 -19.639   2.464  1.00  0.00     0.293 HD
ENDBRANCH   8  26
TORSDOF 6
ENDMDL
MODEL 5
REMARK VINA RESULT:    -4.770      9.488     11.941
REMARK INTER + INTRA:          -6.057
REMARK INTER:                  -5.748
REMARK INTRA:                  -0.310
REMARK UNBOUND:                -0.311
REMARK SMILES O=c1c(O)c(-c2ccc(O)c(O)c2)oc2cc(O)cc(O)c12
REMARK SMILES IDX 5 1 3 2 2 3 1 4 22 5 20 6 19 7 17 8 16 9 15 10 14 11 6 12
REMARK SMILES IDX 7 13 8 14 9 15 13 16 11 17 10 18 12 20 4 22 21 24 18 26
REMARK H PARENT 10 19 12 21 4 23 21 25 18 27
REMARK Flexibility Score: inf
ROOT
ATOM      1  C   UNL     1      61.876  -6.967   5.255  1.00  0.00     0.180 A 
ATOM      2  C   UNL     1      61.041  -7.840   5.973  1.00  0.00     0.208 A 
ATOM      3  C   UNL     1      59.782  -8.167   5.444  1.00  0.00     0.238 A 
ATOM      4  O   UNL     1      59.060  -8.992   6.064  1.00  0.00    -0.285 OA
ATOM      5  C   UNL     1      59.369  -7.607   4.211  1.00  0.00     0.111 A 
ATOM      6  C   UNL     1      58.099  -7.837   3.602  1.00  0.00     0.134 A 
ATOM      7  C   UNL     1      57.848  -7.335   2.319  1.00  0.00     0.093 A 
ATOM      8  C   UNL     1      58.796  -6.556   1.652  1.00  0.00     0.123 A 
ATOM      9  C   UNL     1      60.015  -6.275   2.264  1.00  0.00     0.094 A 
ATOM     10  C   UNL     1      60.309  -6.792   3.528  1.00  0.00     0.146 A 
ATOM     11  O   UNL     1      61.487  -6.510   4.071  1.00  0.00    -0.452 OA
ENDROOT
BRANCH   1  12
ATOM     12  C   UNL     1      63.205  -6.556   5.761  1.00  0.00     0.025 A 
ATOM     13  C   UNL     1      64.362  -7.139   5.218  1.00  0.00     0.016 A 
ATOM     14  C   UNL     1      65.627  -6.751   5.666  1.00  0.00     0.051 A 
ATOM     15  C   UNL     1      65.759  -5.766   6.649  1.00  0.00     0.157 A 
ATOM     16  C   UNL     1      63.341  -5.550   6.734  1.00  0.00     0.062 A 
ATOM     17  C   UNL     1      64.610  -5.157   7.183  1.00  0.00     0.158 A 
BRANCH  15  18
ATOM     18  O   UNL     1      67.034  -5.400   7.077  1.00  0.00    -0.504 OA
ATOM     19  H   UNL     1      67.345  -5.551   8.029  1.00  0.00     0.293 HD
ENDBRANCH  15  18
BRANCH  17  20
ATOM     20  O   UNL     1      64.734  -4.164   8.153  1.00  0.00    -0.504 OA
ATOM     21  H   UNL     1      65.215  -3.293   7.963  1.00  0.00     0.293 HD
ENDBRANCH  17  20
ENDBRANCH   1  12
BRANCH   2  22
ATOM     22  O   UNL     1      61.477  -8.400   7.177  1.00  0.00    -0.502 OA
ATOM     23  H   UNL     1      62.212  -7.984   7.736  1.00  0.00     0.293 HD
ENDBRANCH   2  22
BRANCH   6  24
ATOM     24  O   UNL     1      57.050  -8.524   4.219  1.00  0.00    -0.507 OA
ATOM     25  H   UNL     1      56.080  -8.451   3.950  1.00  0.00     0.293 HD
ENDBRANCH   6  24
BRANCH   8  26
ATOM     26  O   UNL     1      58.533  -6.046   0.382  1.00  0.00    -0.508 OA
ATOM     27  H   UNL     1      59.143  -5.362  -0.051  1.00  0.00     0.293 HD
ENDBRANCH   8  26
TORSDOF 6
ENDMDL
MODEL 6
REMARK VINA RESULT:    -4.687     12.607     14.907
REMARK INTER + INTRA:          -5.957
REMARK INTER:                  -5.637
REMARK INTRA:                  -0.321
REMARK UNBOUND:                -0.311
REMARK SMILES O=c1c(O)c(-c2ccc(O)c(O)c2)oc2cc(O)cc(O)c12
REMARK SMILES IDX 5 1 3 2 2 3 1 4 22 5 20 6 19 7 17 8 16 9 15 10 14 11 6 12
REMARK SMILES IDX 7 13 8 14 9 15 13 16 11 17 10 18 12 20 4 22 21 24 18 26
REMARK H PARENT 10 19 12 21 4 23 21 25 18 27
REMARK Flexibility Score: inf
ROOT
ATOM      1  C   UNL     1      52.497  -7.932  -3.717  1.00  0.00     0.180 A 
ATOM      2  C   UNL     1      53.705  -8.076  -3.013  1.00  0.00     0.208 A 
ATOM      3  C   UNL     1      54.031  -7.138  -2.021  1.00  0.00     0.238 A 
ATOM      4  O   UNL     1      55.088  -7.302  -1.356  1.00  0.00    -0.285 OA
ATOM      5  C   UNL     1      53.152  -6.060  -1.755  1.00  0.00     0.111 A 
ATOM      6  C   UNL     1      53.401  -5.028  -0.801  1.00  0.00     0.134 A 
ATOM      7  C   UNL     1      52.403  -4.084  -0.529  1.00  0.00     0.093 A 
ATOM      8  C   UNL     1      51.192  -4.095  -1.224  1.00  0.00     0.123 A 
ATOM      9  C   UNL     1      50.964  -5.062  -2.201  1.00  0.00     0.094 A 
ATOM     10  C   UNL     1      51.926  -6.039  -2.469  1.00  0.00     0.146 A 
ATOM     11  O   UNL     1      51.663  -6.949  -3.400  1.00  0.00    -0.452 OA
ENDROOT
BRANCH   1  12
ATOM     12  C   UNL     1      52.097  -8.867  -4.793  1.00  0.00     0.025 A 
ATOM     13  C   UNL     1      52.474  -8.596  -6.119  1.00  0.00     0.016 A 
ATOM     14  C   UNL     1      52.125  -9.475  -7.148  1.00  0.00     0.051 A 
ATOM     15  C   UNL     1      51.412 -10.644  -6.868  1.00  0.00     0.157 A 
ATOM     16  C   UNL     1      51.397 -10.054  -4.512  1.00  0.00     0.062 A 
ATOM     17  C   UNL     1      51.049 -10.938  -5.543  1.00  0.00     0.158 A 
BRANCH  15  18
ATOM     18  O   UNL     1      51.076 -11.501  -7.915  1.00  0.00    -0.504 OA
ATOM     19  H   UNL     1      51.104 -11.204  -8.883  1.00  0.00     0.293 HD
ENDBRANCH  15  18
BRANCH  17  20
ATOM     20  O   UNL     1      50.349 -12.109  -5.254  1.00  0.00    -0.504 OA
ATOM     21  H   UNL     1      50.639 -12.732  -4.510  1.00  0.00     0.293 HD
ENDBRANCH  17  20
ENDBRANCH   1  12
BRANCH   2  22
ATOM     22  O   UNL     1      54.547  -9.160  -3.275  1.00  0.00    -0.502 OA
ATOM     23  H   UNL     1      54.206 -10.113  -3.331  1.00  0.00     0.293 HD
ENDBRANCH   2  22
BRANCH   6  24
ATOM     24  O   UNL     1      54.610  -4.871  -0.118  1.00  0.00    -0.507 OA
ATOM     25  H   UNL     1      54.995  -5.543   0.529  1.00  0.00     0.293 HD
ENDBRANCH   6  24
BRANCH   8  26
ATOM     26  O   UNL     1      50.210  -3.143  -0.959  1.00  0.00    -0.508 OA
ATOM     27  H   UNL     1      50.028  -2.378  -1.599  1.00  0.00     0.293 HD
ENDBRANCH   8  26
TORSDOF 6
ENDMDL
MODEL 7
REMARK VINA RESULT:    -4.638      2.156      3.177
REMARK INTER + INTRA:          -5.897
REMARK INTER:                  -5.644
REMARK INTRA:                  -0.253
REMARK UNBOUND:                -0.311
REMARK SMILES O=c1c(O)c(-c2ccc(O)c(O)c2)oc2cc(O)cc(O)c12
REMARK SMILES IDX 5 1 3 2 2 3 1 4 22 5 20 6 19 7 17 8 16 9 15 10 14 11 6 12
REMARK SMILES IDX 7 13 8 14 9 15 13 16 11 17 10 18 12 20 4 22 21 24 18 26
REMARK H PARENT 10 19 12 21 4 23 21 25 18 27
REMARK Flexibility Score: inf
ROOT
ATOM      1  C   UNL     1      58.491 -16.586   5.271  1.00  0.00     0.180 A 
ATOM      2  C   UNL     1      59.311 -15.716   6.011  1.00  0.00     0.208 A 
ATOM      3  C   UNL     1      60.604 -15.434   5.541  1.00  0.00     0.238 A 
ATOM      4  O   UNL     1      61.314 -14.612   6.179  1.00  0.00    -0.285 OA
ATOM      5  C   UNL     1      61.066 -16.038   4.347  1.00  0.00     0.111 A 
ATOM      6  C   UNL     1      62.372 -15.856   3.801  1.00  0.00     0.134 A 
ATOM      7  C   UNL     1      62.678 -16.398   2.546  1.00  0.00     0.093 A 
ATOM      8  C   UNL     1      61.746 -17.171   1.849  1.00  0.00     0.123 A 
ATOM      9  C   UNL     1      60.489 -17.404   2.403  1.00  0.00     0.094 A 
ATOM     10  C   UNL     1      60.143 -16.846   3.635  1.00  0.00     0.146 A 
ATOM     11  O   UNL     1      58.930 -17.084   4.121  1.00  0.00    -0.452 OA
ENDROOT
BRANCH   1  12
ATOM     12  C   UNL     1      57.127 -16.949   5.715  1.00  0.00     0.025 A 
ATOM     13  C   UNL     1      56.018 -16.491   4.986  1.00  0.00     0.016 A 
ATOM     14  C   UNL     1      54.721 -16.839   5.375  1.00  0.00     0.051 A 
ATOM     15  C   UNL     1      54.513 -17.662   6.486  1.00  0.00     0.157 A 
ATOM     16  C   UNL     1      56.916 -17.794   6.820  1.00  0.00     0.062 A 
ATOM     17  C   UNL     1      55.616 -18.147   7.210  1.00  0.00     0.158 A 
BRANCH  15  18
ATOM     18  O   UNL     1      53.209 -17.991   6.852  1.00  0.00    -0.504 OA
ATOM     19  H   UNL     1      52.589 -17.322   7.293  1.00  0.00     0.293 HD
ENDBRANCH  15  18
BRANCH  17  20
ATOM     20  O   UNL     1      55.416 -18.979   8.311  1.00  0.00    -0.504 OA
ATOM     21  H   UNL     1      54.547 -19.482   8.446  1.00  0.00     0.293 HD
ENDBRANCH  17  20
ENDBRANCH   1  12
BRANCH   2  22
ATOM     22  O   UNL     1      58.826 -15.113   7.175  1.00  0.00    -0.502 OA
ATOM     23  H   UNL     1      58.008 -14.516   7.179  1.00  0.00     0.293 HD
ENDBRANCH   2  22
BRANCH   6  24
ATOM     24  O   UNL     1      63.406 -15.180   4.456  1.00  0.00    -0.507 OA
ATOM     25  H   UNL     1      63.583 -14.190   4.380  1.00  0.00     0.293 HD
ENDBRANCH   6  24
BRANCH   8  26
ATOM     26  O   UNL     1      62.062 -17.720   0.609  1.00  0.00    -0.508 OA
ATOM     27  H   UNL     1      62.957 -17.545   0.164  1.00  0.00     0.293 HD
ENDBRANCH   8  26
TORSDOF 6
ENDMDL
MODEL 8
REMARK VINA RESULT:    -4.629      9.303     10.669
REMARK INTER + INTRA:          -5.887
REMARK INTER:                  -5.724
REMARK INTRA:                  -0.163
REMARK UNBOUND:                -0.311
REMARK SMILES O=c1c(O)c(-c2ccc(O)c(O)c2)oc2cc(O)cc(O)c12
REMARK SMILES IDX 5 1 3 2 2 3 1 4 22 5 20 6 19 7 17 8 16 9 15 10 14 11 6 12
REMARK SMILES IDX 7 13 8 14 9 15 13 16 11 17 10 18 12 20 4 22 21 24 18 26
REMARK H PARENT 10 19 12 21 4 23 21 25 18 27
REMARK Flexibility Score: inf
ROOT
ATOM      1  C   UNL     1      60.344  -7.169   4.499  1.00  0.00     0.180 A 
ATOM      2  C   UNL     1      59.860  -7.267   5.815  1.00  0.00     0.208 A 
ATOM      3  C   UNL     1      60.777  -7.301   6.878  1.00  0.00     0.238 A 
ATOM      4  O   UNL     1      60.337  -7.334   8.057  1.00  0.00    -0.285 OA
ATOM      5  C   UNL     1      62.167  -7.252   6.610  1.00  0.00     0.111 A 
ATOM      6  C   UNL     1      63.186  -7.321   7.607  1.00  0.00     0.134 A 
ATOM      7  C   UNL     1      64.524  -7.132   7.240  1.00  0.00     0.093 A 
ATOM      8  C   UNL     1      64.885  -6.943   5.903  1.00  0.00     0.123 A 
ATOM      9  C   UNL     1      63.902  -6.935   4.916  1.00  0.00     0.094 A 
ATOM     10  C   UNL     1      62.556  -7.084   5.256  1.00  0.00     0.146 A 
ATOM     11  O   UNL     1      61.650  -7.059   4.285  1.00  0.00    -0.452 OA
ENDROOT
BRANCH   1  12
ATOM     12  C   UNL     1      59.440  -7.153   3.327  1.00  0.00     0.025 A 
ATOM     13  C   UNL     1      59.457  -6.052   2.457  1.00  0.00     0.016 A 
ATOM     14  C   UNL     1      58.626  -6.024   1.333  1.00  0.00     0.051 A 
ATOM     15  C   UNL     1      57.782  -7.102   1.052  1.00  0.00     0.157 A 
ATOM     16  C   UNL     1      58.605  -8.245   3.030  1.00  0.00     0.062 A 
ATOM     17  C   UNL     1      57.773  -8.221   1.901  1.00  0.00     0.158 A 
BRANCH  15  18
ATOM     18  O   UNL     1      56.963  -7.046  -0.076  1.00  0.00    -0.504 OA
ATOM     19  H   UNL     1      57.245  -6.566  -0.922  1.00  0.00     0.293 HD
ENDBRANCH  15  18
BRANCH  17  20
ATOM     20  O   UNL     1      56.943  -9.305   1.620  1.00  0.00    -0.504 OA
ATOM     21  H   UNL     1      57.060 -10.198   2.084  1.00  0.00     0.293 HD
ENDBRANCH  17  20
ENDBRANCH   1  12
BRANCH   2  22
ATOM     22  O   UNL     1      58.484  -7.291   6.058  1.00  0.00    -0.502 OA
ATOM     23  H   UNL     1      58.073  -7.835   6.807  1.00  0.00     0.293 HD
ENDBRANCH   2  22
BRANCH   6  24
ATOM     24  O   UNL     1      62.943  -7.597   8.955  1.00  0.00    -0.507 OA
ATOM     25  H   UNL     1      62.716  -6.903   9.651  1.00  0.00     0.293 HD
ENDBRANCH   6  24
BRANCH   8  26
ATOM     26  O   UNL     1      66.220  -6.771   5.544  1.00  0.00    -0.508 OA
ATOM     27  H   UNL     1      66.946  -6.654   6.242  1.00  0.00     0.293 HD
ENDBRANCH   8  26
TORSDOF 6
ENDMDL
MODEL 9
REMARK VINA RESULT:    -4.605      9.203     10.769
REMARK INTER + INTRA:          -5.857
REMARK INTER:                  -5.669
REMARK INTRA:                  -0.188
REMARK UNBOUND:                -0.311
REMARK SMILES O=c1c(O)c(-c2ccc(O)c(O)c2)oc2cc(O)cc(O)c12
REMARK SMILES IDX 5 1 3 2 2 3 1 4 22 5 20 6 19 7 17 8 16 9 15 10 14 11 6 12
REMARK SMILES IDX 7 13 8 14 9 15 13 16 11 17 10 18 12 20 4 22 21 24 18 26
REMARK H PARENT 10 19 12 21 4 23 21 25 18 27
REMARK Flexibility Score: inf
ROOT
ATOM      1  C   UNL     1      60.772  -7.109   3.989  1.00  0.00     0.180 A 
ATOM      2  C   UNL     1      62.129  -7.106   3.621  1.00  0.00     0.208 A 
ATOM      3  C   UNL     1      63.108  -7.075   4.627  1.00  0.00     0.238 A 
ATOM      4  O   UNL     1      64.321  -7.127   4.293  1.00  0.00    -0.285 OA
ATOM      5  C   UNL     1      62.718  -7.032   5.987  1.00  0.00     0.111 A 
ATOM      6  C   UNL     1      63.624  -6.957   7.087  1.00  0.00     0.134 A 
ATOM      7  C   UNL     1      63.132  -7.051   8.395  1.00  0.00     0.093 A 
ATOM      8  C   UNL     1      61.761  -7.151   8.643  1.00  0.00     0.123 A 
ATOM      9  C   UNL     1      60.864  -7.164   7.577  1.00  0.00     0.094 A 
ATOM     10  C   UNL     1      61.328  -7.109   6.261  1.00  0.00     0.146 A 
ATOM     11  O   UNL     1      60.439  -7.135   5.274  1.00  0.00    -0.452 OA
ENDROOT
BRANCH   1  12
ATOM     12  C   UNL     1      59.684  -7.116   2.985  1.00  0.00     0.025 A 
ATOM     13  C   UNL     1      59.506  -6.000   2.151  1.00  0.00     0.016 A 
ATOM     14  C   UNL     1      58.498  -5.993   1.183  1.00  0.00     0.051 A 
ATOM     15  C   UNL     1      57.666  -7.105   1.020  1.00  0.00     0.157 A 
ATOM     16  C   UNL     1      58.859  -8.241   2.805  1.00  0.00     0.062 A 
ATOM     17  C   UNL     1      57.849  -8.237   1.832  1.00  0.00     0.158 A 
BRANCH  15  18
ATOM     18  O   UNL     1      56.669  -7.068   0.047  1.00  0.00    -0.504 OA
ATOM     19  H   UNL     1      56.488  -6.241  -0.507  1.00  0.00     0.293 HD
ENDBRANCH  15  18
BRANCH  17  20
ATOM     20  O   UNL     1      57.032  -9.354   1.666  1.00  0.00    -0.504 OA
ATOM     21  H   UNL     1      56.645  -9.600   0.762  1.00  0.00     0.293 HD
ENDBRANCH  17  20
ENDBRANCH   1  12
BRANCH   2  22
ATOM     22  O   UNL     1      62.492  -7.172   2.272  1.00  0.00    -0.502 OA
ATOM     23  H   UNL     1      62.228  -7.946   1.675  1.00  0.00     0.293 HD
ENDBRANCH   2  22
BRANCH   6  24
ATOM     24  O   UNL     1      65.002  -6.764   6.952  1.00  0.00    -0.507 OA
ATOM     25  H   UNL     1      65.494  -6.736   6.072  1.00  0.00     0.293 HD
ENDBRANCH   6  24
BRANCH   8  26
ATOM     26  O   UNL     1      61.277  -7.229   9.947  1.00  0.00    -0.508 OA
ATOM     27  H   UNL     1      61.405  -6.468  10.606  1.00  0.00     0.293 HD
ENDBRANCH   8  26
TORSDOF 6
ENDMDL
