MODEL 1
REMARK VINA RESULT:     0.000      0.000      0.000
REMARK INTER + INTRA:          -1.030
REMARK INTER:                   0.000
REMARK INTRA:                  -1.030
REMARK UNBOUND:                -1.030
REMARK SMILES O=C([O-])CCCCCCCC(=O)[O-]
REMARK SMILES IDX 7 1 6 2 5 3 4 4 2 5 1 6 3 7 8 8 9 9 10 10 11 11 12 12 13 13
REMARK H PARENT
REMARK Flexibility Score: inf
ROOT
ATOM      1  C   UNL     1     165.589 183.878 191.904  1.00  0.00     0.000 C 
ENDROOT
BRANCH   1   2
ATOM      2  C   UNL     1     165.669 184.038 193.430  1.00  0.00     0.000 C 
BRANCH   2   3
ATOM      3  C   UNL     1     164.284 184.053 194.097  1.00  0.00     0.006 C 
BRANCH   3   4
ATOM      4  C   UNL     1     164.107 185.230 195.065  1.00  0.00     0.053 C 
BRANCH   4   5
ATOM      5  C   UNL     1     162.830 185.954 194.777  1.00  0.00     0.041 C 
ATOM      6  O   UNL     1     162.033 185.512 193.908  1.00  0.00    -0.550 OA
ATOM      7  O   UNL     1     162.543 187.145 195.432  1.00  0.00    -0.550 OA
ENDBRANCH   4   5
ENDBRANCH   3   4
ENDBRANCH   2   3
ENDBRANCH   1   2
BRANCH   1   8
ATOM      8  C   UNL     1     164.358 184.602 191.341  1.00  0.00     0.000 C 
BRANCH   8   9
ATOM      9  C   UNL     1     164.696 185.978 190.736  1.00  0.00     0.006 C 
BRANCH   9  10
ATOM     10  C   UNL     1     164.215 187.173 191.575  1.00  0.00     0.053 C 
BRANCH  10  11
ATOM     11  C   UNL     1     165.288 187.689 192.484  1.00  0.00     0.041 C 
ATOM     12  O   UNL     1     164.994 188.449 193.443  1.00  0.00    -0.550 OA
ATOM     13  O   UNL     1     166.609 187.302 192.292  1.00  0.00    -0.550 OA
ENDBRANCH  10  11
ENDBRANCH   9  10
ENDBRANCH   8   9
ENDBRANCH   1   8
TORSDOF 8
ENDMDL
MODEL 2
REMARK VINA RESULT:     0.000      5.833      6.863
REMARK INTER + INTRA:          -1.030
REMARK INTER:                   0.000
REMARK INTRA:                  -1.030
REMARK UNBOUND:                -1.030
REMARK SMILES O=C([O-])CCCCCCCC(=O)[O-]
REMARK SMILES IDX 7 1 6 2 5 3 4 4 2 5 1 6 3 7 8 8 9 9 10 10 11 11 12 12 13 13
REMARK H PARENT
REMARK Flexibility Score: inf
ROOT
ATOM      1  C   UNL     1     169.377 187.586 186.735  1.00  0.00     0.000 C 
ENDROOT
BRANCH   1   2
ATOM      2  C   UNL     1     170.626 187.089 187.479  1.00  0.00     0.000 C 
BRANCH   2   3
ATOM      3  C   UNL     1     170.366 185.805 188.281  1.00  0.00     0.006 C 
BRANCH   3   4
ATOM      4  C   UNL     1     170.864 185.901 189.729  1.00  0.00     0.053 C 
BRANCH   4   5
ATOM      5  C   UNL     1     169.791 185.472 190.680  1.00  0.00     0.041 C 
ATOM      6  O   UNL     1     168.701 185.019 190.241  1.00  0.00    -0.550 OA
ATOM      7  O   UNL     1     169.974 185.619 192.048  1.00  0.00    -0.550 OA
ENDBRANCH   4   5
ENDBRANCH   3   4
ENDBRANCH   2   3
ENDBRANCH   1   2
BRANCH   1   8
ATOM      8  C   UNL     1     168.107 187.308 187.551  1.00  0.00     0.000 C 
BRANCH   8   9
ATOM      9  C   UNL     1     167.603 188.548 188.314  1.00  0.00     0.006 C 
BRANCH   9  10
ATOM     10  C   UNL     1     167.817 188.484 189.835  1.00  0.00     0.053 C 
BRANCH  10  11
ATOM     11  C   UNL     1     169.085 189.165 190.253  1.00  0.00     0.041 C 
ATOM     12  O   UNL     1     169.570 188.954 191.395  1.00  0.00    -0.550 OA
ATOM     13  O   UNL     1     169.748 190.004 189.367  1.00  0.00    -0.550 OA
ENDBRANCH  10  11
ENDBRANCH   9  10
ENDBRANCH   8   9
ENDBRANCH   1   8
TORSDOF 8
ENDMDL
MODEL 3
REMARK VINA RESULT:     0.000     10.992     12.440
REMARK INTER + INTRA:          -1.029
REMARK INTER:                   0.000
REMARK INTRA:                  -1.029
REMARK UNBOUND:                -1.030
REMARK SMILES O=C([O-])CCCCCCCC(=O)[O-]
REMARK SMILES IDX 7 1 6 2 5 3 4 4 2 5 1 6 3 7 8 8 9 9 10 10 11 11 12 12 13 13
REMARK H PARENT
REMARK Flexibility Score: inf
ROOT
ATOM      1  C   UNL     1     167.028 183.400 183.229  1.00  0.00     0.000 C 
ENDROOT
BRANCH   1   2
ATOM      2  C   UNL     1     167.367 184.847 183.616  1.00  0.00     0.000 C 
BRANCH   2   3
ATOM      3  C   UNL     1     166.287 185.847 183.174  1.00  0.00     0.006 C 
BRANCH   3   4
ATOM      4  C   UNL     1     166.870 187.055 182.427  1.00  0.00     0.053 C 
BRANCH   4   5
ATOM      5  C   UNL     1     166.118 187.295 181.156  1.00  0.00     0.041 C 
ATOM      6  O   UNL     1     165.115 186.589 180.871  1.00  0.00    -0.550 OA
ATOM      7  O   UNL     1     166.553 188.265 180.263  1.00  0.00    -0.550 OA
ENDBRANCH   4   5
ENDBRANCH   3   4
ENDBRANCH   2   3
ENDBRANCH   1   2
BRANCH   1   8
ATOM      8  C   UNL     1     166.275 183.354 181.891  1.00  0.00     0.000 C 
BRANCH   8   9
ATOM      9  C   UNL     1     167.183 182.976 180.706  1.00  0.00     0.006 C 
BRANCH   9  10
ATOM     10  C   UNL     1     167.484 184.138 179.745  1.00  0.00     0.053 C 
BRANCH  10  11
ATOM     11  C   UNL     1     168.764 184.835 180.091  1.00  0.00     0.041 C 
ATOM     12  O   UNL     1     169.593 184.290 180.866  1.00  0.00    -0.550 OA
ATOM     13  O   UNL     1     169.057 186.072 179.529  1.00  0.00    -0.550 OA
ENDBRANCH  10  11
ENDBRANCH   9  10
ENDBRANCH   8   9
ENDBRANCH   1   8
TORSDOF 8
ENDMDL
MODEL 4
REMARK VINA RESULT:     0.000      9.858     11.277
REMARK INTER + INTRA:          -1.029
REMARK INTER:                   0.000
REMARK INTRA:                  -1.029
REMARK UNBOUND:                -1.030
REMARK SMILES O=C([O-])CCCCCCCC(=O)[O-]
REMARK SMILES IDX 7 1 6 2 5 3 4 4 2 5 1 6 3 7 8 8 9 9 10 10 11 11 12 12 13 13
REMARK H PARENT
REMARK Flexibility Score: inf
ROOT
ATOM      1  C   UNL     1     165.381 193.618 183.338  1.00  0.00     0.000 C 
ENDROOT
BRANCH   1   2
ATOM      2  C   UNL     1     165.223 194.959 184.071  1.00  0.00     0.000 C 
BRANCH   2   3
ATOM      3  C   UNL     1     165.867 194.950 185.467  1.00  0.00     0.006 C 
BRANCH   3   4
ATOM      4  C   UNL     1     164.927 195.485 186.555  1.00  0.00     0.053 C 
BRANCH   4   5
ATOM      5  C   UNL     1     164.880 194.541 187.714  1.00  0.00     0.041 C 
ATOM      6  O   UNL     1     165.605 193.511 187.722  1.00  0.00    -0.550 OA
ATOM      7  O   UNL     1     164.001 194.770 188.764  1.00  0.00    -0.550 OA
ENDBRANCH   4   5
ENDBRANCH   3   4
ENDBRANCH   2   3
ENDBRANCH   1   2
BRANCH   1   8
ATOM      8  C   UNL     1     165.288 192.442 184.321  1.00  0.00     0.000 C 
BRANCH   8   9
ATOM      9  C   UNL     1     163.895 191.786 184.340  1.00  0.00     0.006 C 
BRANCH   9  10
ATOM     10  C   UNL     1     163.090 192.047 185.624  1.00  0.00     0.053 C 
BRANCH  10  11
ATOM     11  C   UNL     1     162.161 193.213 185.478  1.00  0.00     0.041 C 
ATOM     12  O   UNL     1     161.892 193.668 184.336  1.00  0.00    -0.550 OA
ATOM     13  O   UNL     1     161.567 193.774 186.601  1.00  0.00    -0.550 OA
ENDBRANCH  10  11
ENDBRANCH   9  10
ENDBRANCH   8   9
ENDBRANCH   1   8
TORSDOF 8
ENDMDL
MODEL 5
REMARK VINA RESULT:     0.000      8.977     10.426
REMARK INTER + INTRA:          -1.029
REMARK INTER:                   0.000
REMARK INTRA:                  -1.029
REMARK UNBOUND:                -1.030
REMARK SMILES O=C([O-])CCCCCCCC(=O)[O-]
REMARK SMILES IDX 7 1 6 2 5 3 4 4 2 5 1 6 3 7 8 8 9 9 10 10 11 11 12 12 13 13
REMARK H PARENT
REMARK Flexibility Score: inf
ROOT
ATOM      1  C   UNL     1     164.873 190.046 184.307  1.00  0.00     0.000 C 
ENDROOT
BRANCH   1   2
ATOM      2  C   UNL     1     163.441 190.574 184.134  1.00  0.00     0.000 C 
BRANCH   2   3
ATOM      3  C   UNL     1     162.438 189.882 185.070  1.00  0.00     0.006 C 
BRANCH   3   4
ATOM      4  C   UNL     1     161.188 189.383 184.333  1.00  0.00     0.053 C 
BRANCH   4   5
ATOM      5  C   UNL     1     160.899 187.962 184.698  1.00  0.00     0.041 C 
ATOM      6  O   UNL     1     161.610 187.371 185.554  1.00  0.00    -0.550 OA
ATOM      7  O   UNL     1     159.878 187.272 184.058  1.00  0.00    -0.550 OA
ENDBRANCH   4   5
ENDBRANCH   3   4
ENDBRANCH   2   3
ENDBRANCH   1   2
BRANCH   1   8
ATOM      8  C   UNL     1     164.868 188.547 184.638  1.00  0.00     0.000 C 
BRANCH   8   9
ATOM      9  C   UNL     1     165.172 187.662 183.415  1.00  0.00     0.006 C 
BRANCH   9  10
ATOM     10  C   UNL     1     163.960 186.878 182.886  1.00  0.00     0.053 C 
BRANCH  10  11
ATOM     11  C   UNL     1     163.258 187.608 181.781  1.00  0.00     0.041 C 
ATOM     12  O   UNL     1     163.826 188.565 181.195  1.00  0.00    -0.550 OA
ATOM     13  O   UNL     1     161.990 187.206 181.378  1.00  0.00    -0.550 OA
ENDBRANCH  10  11
ENDBRANCH   9  10
ENDBRANCH   8   9
ENDBRANCH   1   8
TORSDOF 8
ENDMDL
MODEL 6
REMARK VINA RESULT:     0.001      8.801     11.089
REMARK INTER + INTRA:          -1.029
REMARK INTER:                   0.000
REMARK INTRA:                  -1.029
REMARK UNBOUND:                -1.030
REMARK SMILES O=C([O-])CCCCCCCC(=O)[O-]
REMARK SMILES IDX 7 1 6 2 5 3 4 4 2 5 1 6 3 7 8 8 9 9 10 10 11 11 12 12 13 13
REMARK H PARENT
REMARK Flexibility Score: inf
ROOT
ATOM      1  C   UNL     1     171.187 188.145 184.062  1.00  0.00     0.000 C 
ENDROOT
BRANCH   1   2
ATOM      2  C   UNL     1     170.941 189.623 183.723  1.00  0.00     0.000 C 
BRANCH   2   3
ATOM      3  C   UNL     1     172.024 190.550 184.298  1.00  0.00     0.006 C 
BRANCH   3   4
ATOM      4  C   UNL     1     171.435 191.740 185.067  1.00  0.00     0.053 C 
BRANCH   4   5
ATOM      5  C   UNL     1     172.101 191.881 186.400  1.00  0.00     0.041 C 
ATOM      6  O   UNL     1     173.060 191.127 186.711  1.00  0.00    -0.550 OA
ATOM      7  O   UNL     1     171.630 192.811 187.317  1.00  0.00    -0.550 OA
ENDBRANCH   4   5
ENDBRANCH   3   4
ENDBRANCH   2   3
ENDBRANCH   1   2
BRANCH   1   8
ATOM      8  C   UNL     1     171.837 188.001 185.445  1.00  0.00     0.000 C 
BRANCH   8   9
ATOM      9  C   UNL     1     170.831 187.610 186.543  1.00  0.00     0.006 C 
BRANCH   9  10
ATOM     10  C   UNL     1     170.509 188.739 187.537  1.00  0.00     0.053 C 
BRANCH  10  11
ATOM     11  C   UNL     1     169.273 189.491 187.151  1.00  0.00     0.041 C 
ATOM     12  O   UNL     1     169.021 190.607 187.676  1.00  0.00    -0.550 OA
ATOM     13  O   UNL     1     168.416 188.975 186.186  1.00  0.00    -0.550 OA
ENDBRANCH  10  11
ENDBRANCH   9  10
ENDBRANCH   8   9
ENDBRANCH   1   8
TORSDOF 8
ENDMDL
MODEL 7
REMARK VINA RESULT:     0.001     10.423     11.660
REMARK INTER + INTRA:          -1.029
REMARK INTER:                   0.000
REMARK INTRA:                  -1.029
REMARK UNBOUND:                -1.030
REMARK SMILES O=C([O-])CCCCCCCC(=O)[O-]
REMARK SMILES IDX 7 1 6 2 5 3 4 4 2 5 1 6 3 7 8 8 9 9 10 10 11 11 12 12 13 13
REMARK H PARENT
REMARK Flexibility Score: inf
ROOT
ATOM      1  C   UNL     1     166.966 196.122 191.891  1.00  0.00     0.000 C 
ENDROOT
BRANCH   1   2
ATOM      2  C   UNL     1     165.924 195.359 192.722  1.00  0.00     0.000 C 
BRANCH   2   3
ATOM      3  C   UNL     1     164.509 195.453 192.130  1.00  0.00     0.006 C 
BRANCH   3   4
ATOM      4  C   UNL     1     163.458 195.862 193.171  1.00  0.00     0.053 C 
BRANCH   4   5
ATOM      5  C   UNL     1     162.636 197.003 192.662  1.00  0.00     0.041 C 
ATOM      6  O   UNL     1     162.784 197.413 191.480  1.00  0.00    -0.550 OA
ATOM      7  O   UNL     1     161.741 197.648 193.506  1.00  0.00    -0.550 OA
ENDBRANCH   4   5
ENDBRANCH   3   4
ENDBRANCH   2   3
ENDBRANCH   1   2
BRANCH   1   8
ATOM      8  C   UNL     1     166.360 197.401 191.296  1.00  0.00     0.000 C 
BRANCH   8   9
ATOM      9  C   UNL     1     166.719 198.665 192.099  1.00  0.00     0.006 C 
BRANCH   9  10
ATOM     10  C   UNL     1     165.550 199.255 192.905  1.00  0.00     0.053 C 
BRANCH  10  11
ATOM     11  C   UNL     1     165.543 198.769 194.322  1.00  0.00     0.041 C 
ATOM     12  O   UNL     1     164.510 198.897 195.030  1.00  0.00    -0.550 OA
ATOM     13  O   UNL     1     166.666 198.143 194.849  1.00  0.00    -0.550 OA
ENDBRANCH  10  11
ENDBRANCH   9  10
ENDBRANCH   8   9
ENDBRANCH   1   8
TORSDOF 8
ENDMDL
MODEL 8
REMARK VINA RESULT:     0.001      7.405      9.623
REMARK INTER + INTRA:          -1.029
REMARK INTER:                   0.000
REMARK INTRA:                  -1.029
REMARK UNBOUND:                -1.030
REMARK SMILES O=C([O-])CCCCCCCC(=O)[O-]
REMARK SMILES IDX 7 1 6 2 5 3 4 4 2 5 1 6 3 7 8 8 9 9 10 10 11 11 12 12 13 13
REMARK H PARENT
REMARK Flexibility Score: inf
ROOT
ATOM      1  C   UNL     1     167.729 192.769 185.961  1.00  0.00     0.000 C 
ENDROOT
BRANCH   1   2
ATOM      2  C   UNL     1     168.315 191.382 185.656  1.00  0.00     0.000 C 
BRANCH   2   3
ATOM      3  C   UNL     1     167.856 190.312 186.659  1.00  0.00     0.006 C 
BRANCH   3   4
ATOM      4  C   UNL     1     169.024 189.494 187.227  1.00  0.00     0.053 C 
BRANCH   4   5
ATOM      5  C   UNL     1     168.954 189.453 188.721  1.00  0.00     0.041 C 
ATOM      6  O   UNL     1     167.958 189.937 189.322  1.00  0.00    -0.550 OA
ATOM      7  O   UNL     1     170.010 188.927 189.453  1.00  0.00    -0.550 OA
ENDBRANCH   4   5
ENDBRANCH   3   4
ENDBRANCH   2   3
ENDBRANCH   1   2
BRANCH   1   8
ATOM      8  C   UNL     1     167.612 192.992 187.476  1.00  0.00     0.000 C 
BRANCH   8   9
ATOM      9  C   UNL     1     168.764 193.839 188.048  1.00  0.00     0.006 C 
BRANCH   9  10
ATOM     10  C   UNL     1     169.778 193.043 188.885  1.00  0.00     0.053 C 
BRANCH  10  11
ATOM     11  C   UNL     1     170.957 192.605 188.072  1.00  0.00     0.041 C 
ATOM     12  O   UNL     1     171.719 191.699 188.499  1.00  0.00    -0.550 OA
ATOM     13  O   UNL     1     171.194 193.173 186.826  1.00  0.00    -0.550 OA
ENDBRANCH  10  11
ENDBRANCH   9  10
ENDBRANCH   8   9
ENDBRANCH   1   8
TORSDOF 8
ENDMDL
MODEL 9
REMARK VINA RESULT:     0.001      9.681     11.008
REMARK INTER + INTRA:          -1.029
REMARK INTER:                   0.000
REMARK INTRA:                  -1.029
REMARK UNBOUND:                -1.030
REMARK SMILES O=C([O-])CCCCCCCC(=O)[O-]
REMARK SMILES IDX 7 1 6 2 5 3 4 4 2 5 1 6 3 7 8 8 9 9 10 10 11 11 12 12 13 13
REMARK H PARENT
REMARK Flexibility Score: inf
ROOT
ATOM      1  C   UNL     1     167.923 194.850 192.358  1.00  0.00     0.000 C 
ENDROOT
BRANCH   1   2
ATOM      2  C   UNL     1     166.660 194.333 193.063  1.00  0.00     0.000 C 
BRANCH   2   3
ATOM      3  C   UNL     1     165.403 195.132 192.688  1.00  0.00     0.006 C 
BRANCH   3   4
ATOM      4  C   UNL     1     164.601 195.584 193.916  1.00  0.00     0.053 C 
BRANCH   4   5
ATOM      5  C   UNL     1     164.317 197.051 193.842  1.00  0.00     0.041 C 
ATOM      6  O   UNL     1     164.633 197.706 192.814  1.00  0.00    -0.550 OA
ATOM      7  O   UNL     1     163.749 197.706 194.927  1.00  0.00    -0.550 OA
ENDBRANCH   4   5
ENDBRANCH   3   4
ENDBRANCH   2   3
ENDBRANCH   1   2
BRANCH   1   8
ATOM      8  C   UNL     1     167.904 196.382 192.255  1.00  0.00     0.000 C 
BRANCH   8   9
ATOM      9  C   UNL     1     168.728 197.067 193.361  1.00  0.00     0.006 C 
BRANCH   9  10
ATOM     10  C   UNL     1     167.883 197.795 194.420  1.00  0.00     0.053 C 
BRANCH  10  11
ATOM     11  C   UNL     1     167.646 196.945 195.630  1.00  0.00     0.041 C 
ATOM     12  O   UNL     1     166.746 197.253 196.454  1.00  0.00    -0.550 OA
ATOM     13  O   UNL     1     168.397 195.793 195.830  1.00  0.00    -0.550 OA
ENDBRANCH  10  11
ENDBRANCH   9  10
ENDBRANCH   8   9
ENDBRANCH   1   8
TORSDOF 8
ENDMDL
