MODEL 1
REMARK VINA RESULT:     8.871      0.000      0.000
REMARK INTER + INTRA:          12.474
REMARK INTER:                  11.983
REMARK INTRA:                   0.492
REMARK UNBOUND:                 0.492
REMARK SMILES O=c1c(-c2ccc(O)cc2)coc2c([C@@H]3O[C@@H](CO)[C@H](O)[C@@H](O)[C@H]3O)c(O)ccc12
REMARK SMILES IDX 3 1 11 2 12 3 13 4 30 5 2 6 1 7 29 8 28 9 26 10 14 11 4 12
REMARK SMILES IDX 5 13 6 14 7 15 10 16 9 17 8 18 15 20 24 21 16 22 22 23 17 24
REMARK SMILES IDX 20 25 25 26 23 28 18 30 19 31 21 33 27 35
REMARK H PARENT 8 19 25 27 23 29 19 32 21 34 27 36
REMARK Flexibility Score: inf
ROOT
ATOM      1  C   UNL     1      20.839   8.377  -5.831  1.00  0.00     0.065 A 
ATOM      2  C   UNL     1      20.433   8.353  -7.172  1.00  0.00     0.208 A 
ATOM      3  O   UNL     1      19.897   9.425  -7.741  1.00  0.00    -0.463 OA
ATOM      4  C   UNL     1      19.709  10.578  -7.101  1.00  0.00     0.147 A 
ATOM      5  C   UNL     1      20.086  10.686  -5.743  1.00  0.00     0.066 A 
ATOM      6  C   UNL     1      20.666   9.571  -5.109  1.00  0.00     0.200 A 
ATOM      7  O   UNL     1      21.045   9.647  -3.908  1.00  0.00    -0.288 OA
ATOM      8  C   UNL     1      19.878  11.891  -5.061  1.00  0.00     0.020 A 
ATOM      9  C   UNL     1      19.285  12.966  -5.710  1.00  0.00     0.047 A 
ATOM     10  C   UNL     1      18.900  12.878  -7.055  1.00  0.00     0.125 A 
ATOM     11  C   UNL     1      19.138  11.681  -7.791  1.00  0.00     0.069 A 
ENDROOT
BRANCH   1  12
ATOM     12  C   UNL     1      21.435   7.165  -5.216  1.00  0.00    -0.011 A 
ATOM     13  C   UNL     1      22.451   6.458  -5.884  1.00  0.00     0.013 A 
ATOM     14  C   UNL     1      23.009   5.312  -5.311  1.00  0.00     0.047 A 
ATOM     15  C   UNL     1      22.558   4.854  -4.069  1.00  0.00     0.115 A 
ATOM     16  C   UNL     1      20.981   6.694  -3.971  1.00  0.00     0.013 A 
ATOM     17  C   UNL     1      21.540   5.547  -3.401  1.00  0.00     0.047 A 
BRANCH  15  18
ATOM     18  O   UNL     1      23.125   3.710  -3.510  1.00  0.00    -0.508 OA
ATOM     19  H   UNL     1      22.750   2.788  -3.699  1.00  0.00     0.293 HD
ENDBRANCH  15  18
ENDBRANCH   1  12
BRANCH  11  20
ATOM     20  C   UNL     1      18.793  11.467  -9.282  1.00  0.00     0.188 C 
ATOM     21  C   UNL     1      17.646  12.281  -9.956  1.00  0.00     0.179 C 
ATOM     22  O   UNL     1      19.965  11.522 -10.087  1.00  0.00    -0.362 OA
ATOM     23  C   UNL     1      18.094  13.726 -10.283  1.00  0.00     0.177 C 
ATOM     24  C   UNL     1      20.461  12.847 -10.206  1.00  0.00     0.176 C 
ATOM     25  C   UNL     1      19.461  13.731 -10.989  1.00  0.00     0.177 C 
BRANCH  21  26
ATOM     26  O   UNL     1      17.204  11.630 -11.125  1.00  0.00    -0.387 OA
ATOM     27  H   UNL     1      17.950  11.085 -11.486  1.00  0.00     0.211 HD
ENDBRANCH  21  26
BRANCH  23  28
ATOM     28  O   UNL     1      17.143  14.360 -11.099  1.00  0.00    -0.387 OA
ATOM     29  H   UNL     1      17.649  14.878 -11.777  1.00  0.00     0.211 HD
ENDBRANCH  23  28
BRANCH  24  30
ATOM     30  C   UNL     1      21.832  12.794 -10.897  1.00  0.00     0.191 C 
BRANCH  30  31
ATOM     31  O   UNL     1      22.623  13.896 -10.537  1.00  0.00    -0.394 OA
ATOM     32  H   UNL     1      22.847  14.374 -11.378  1.00  0.00     0.210 HD
ENDBRANCH  30  31
ENDBRANCH  24  30
BRANCH  25  33
ATOM     33  O   UNL     1      19.940  15.048 -11.125  1.00  0.00    -0.388 OA
ATOM     34  H   UNL     1      19.725  15.356 -12.044  1.00  0.00     0.211 HD
ENDBRANCH  25  33
ENDBRANCH  11  20
BRANCH  10  35
ATOM     35  O   UNL     1      18.278  13.984  -7.623  1.00  0.00    -0.507 OA
ATOM     36  H   UNL     1      17.268  14.072  -7.668  1.00  0.00     0.293 HD
ENDBRANCH  10  35
TORSDOF 9
ENDMDL
MODEL 2
REMARK VINA RESULT:     9.374      1.963      3.065
REMARK INTER + INTRA:          13.153
REMARK INTER:                  12.786
REMARK INTRA:                   0.367
REMARK UNBOUND:                 0.492
REMARK SMILES O=c1c(-c2ccc(O)cc2)coc2c([C@@H]3O[C@@H](CO)[C@H](O)[C@@H](O)[C@H]3O)c(O)ccc12
REMARK SMILES IDX 3 1 11 2 12 3 13 4 30 5 2 6 1 7 29 8 28 9 26 10 14 11 4 12
REMARK SMILES IDX 5 13 6 14 7 15 10 16 9 17 8 18 15 20 24 21 16 22 22 23 17 24
REMARK SMILES IDX 20 25 25 26 23 28 18 30 19 31 21 33 27 35
REMARK H PARENT 8 19 25 27 23 29 19 32 21 34 27 36
REMARK Flexibility Score: inf
ROOT
ATOM      1  C   UNL     1      20.821   8.525  -5.668  1.00  0.00     0.065 A 
ATOM      2  C   UNL     1      19.724   9.290  -6.086  1.00  0.00     0.208 A 
ATOM      3  O   UNL     1      19.776   9.999  -7.207  1.00  0.00    -0.463 OA
ATOM      4  C   UNL     1      20.843  10.036  -8.003  1.00  0.00     0.147 A 
ATOM      5  C   UNL     1      21.995   9.296  -7.652  1.00  0.00     0.066 A 
ATOM      6  C   UNL     1      21.973   8.526  -6.474  1.00  0.00     0.200 A 
ATOM      7  O   UNL     1      22.974   7.827  -6.152  1.00  0.00    -0.288 OA
ATOM      8  C   UNL     1      23.125   9.343  -8.476  1.00  0.00     0.020 A 
ATOM      9  C   UNL     1      23.120  10.129  -9.622  1.00  0.00     0.047 A 
ATOM     10  C   UNL     1      21.990  10.873  -9.985  1.00  0.00     0.125 A 
ATOM     11  C   UNL     1      20.808  10.814  -9.192  1.00  0.00     0.069 A 
ENDROOT
BRANCH   1  12
ATOM     12  C   UNL     1      20.741   7.741  -4.411  1.00  0.00    -0.011 A 
ATOM     13  C   UNL     1      20.898   8.380  -3.167  1.00  0.00     0.013 A 
ATOM     14  C   UNL     1      20.831   7.643  -1.981  1.00  0.00     0.047 A 
ATOM     15  C   UNL     1      20.613   6.262  -2.020  1.00  0.00     0.115 A 
ATOM     16  C   UNL     1      20.530   6.351  -4.442  1.00  0.00     0.013 A 
ATOM     17  C   UNL     1      20.465   5.617  -3.255  1.00  0.00     0.047 A 
BRANCH  15  18
ATOM     18  O   UNL     1      20.549   5.541  -0.829  1.00  0.00    -0.508 OA
ATOM     19  H   UNL     1      21.159   5.754  -0.048  1.00  0.00     0.293 HD
ENDBRANCH  15  18
ENDBRANCH   1  12
BRANCH  11  20
ATOM     20  C   UNL     1      19.488  11.557  -9.499  1.00  0.00     0.188 C 
ATOM     21  C   UNL     1      18.604  12.113  -8.342  1.00  0.00     0.179 C 
ATOM     22  O   UNL     1      19.691  12.565 -10.483  1.00  0.00    -0.362 OA
ATOM     23  C   UNL     1      19.190  13.424  -7.762  1.00  0.00     0.177 C 
ATOM     24  C   UNL     1      20.405  13.675  -9.961  1.00  0.00     0.176 C 
ATOM     25  C   UNL     1      19.564  14.404  -8.887  1.00  0.00     0.177 C 
BRANCH  21  26
ATOM     26  O   UNL     1      17.284  12.324  -8.790  1.00  0.00    -0.387 OA
ATOM     27  H   UNL     1      16.793  11.464  -8.746  1.00  0.00     0.211 HD
ENDBRANCH  21  26
BRANCH  23  28
ATOM     28  O   UNL     1      18.264  14.033  -6.898  1.00  0.00    -0.387 OA
ATOM     29  H   UNL     1      17.879  13.310  -6.337  1.00  0.00     0.211 HD
ENDBRANCH  23  28
BRANCH  24  30
ATOM     30  C   UNL     1      20.771  14.610 -11.124  1.00  0.00     0.191 C 
BRANCH  30  31
ATOM     31  O   UNL     1      21.929  15.349 -10.835  1.00  0.00    -0.394 OA
ATOM     32  H   UNL     1      22.527  14.751 -10.315  1.00  0.00     0.210 HD
ENDBRANCH  30  31
ENDBRANCH  24  30
BRANCH  25  33
ATOM     33  O   UNL     1      20.253  15.515  -8.363  1.00  0.00    -0.388 OA
ATOM     34  H   UNL     1      20.504  16.102  -9.122  1.00  0.00     0.211 HD
ENDBRANCH  25  33
ENDBRANCH  11  20
BRANCH  10  35
ATOM     35  O   UNL     1      22.076  11.665 -11.125  1.00  0.00    -0.507 OA
ATOM     36  H   UNL     1      21.526  11.477 -11.956  1.00  0.00     0.293 HD
ENDBRANCH  10  35
TORSDOF 9
ENDMDL
MODEL 3
REMARK VINA RESULT:    10.479      1.994      3.824
REMARK INTER + INTRA:          14.646
REMARK INTER:                  12.036
REMARK INTRA:                   2.611
REMARK UNBOUND:                 0.492
REMARK SMILES O=c1c(-c2ccc(O)cc2)coc2c([C@@H]3O[C@@H](CO)[C@H](O)[C@@H](O)[C@H]3O)c(O)ccc12
REMARK SMILES IDX 3 1 11 2 12 3 13 4 30 5 2 6 1 7 29 8 28 9 26 10 14 11 4 12
REMARK SMILES IDX 5 13 6 14 7 15 10 16 9 17 8 18 15 20 24 21 16 22 22 23 17 24
REMARK SMILES IDX 20 25 25 26 23 28 18 30 19 31 21 33 27 35
REMARK H PARENT 8 19 25 27 23 29 19 32 21 34 27 36
REMARK Flexibility Score: inf
ROOT
ATOM      1  C   UNL     1      20.111  10.110  -6.077  1.00  0.00     0.065 A 
ATOM      2  C   UNL     1      19.906  11.446  -5.709  1.00  0.00     0.208 A 
ATOM      3  O   UNL     1      19.541  12.352  -6.607  1.00  0.00    -0.463 OA
ATOM      4  C   UNL     1      19.344  12.071  -7.894  1.00  0.00     0.147 A 
ATOM      5  C   UNL     1      19.534  10.746  -8.351  1.00  0.00     0.066 A 
ATOM      6  C   UNL     1      19.914   9.758  -7.424  1.00  0.00     0.200 A 
ATOM      7  O   UNL     1      20.058   8.559  -7.794  1.00  0.00    -0.288 OA
ATOM      8  C   UNL     1      19.343  10.448  -9.704  1.00  0.00     0.020 A 
ATOM      9  C   UNL     1      18.989  11.452 -10.597  1.00  0.00     0.047 A 
ATOM     10  C   UNL     1      18.799  12.771 -10.165  1.00  0.00     0.125 A 
ATOM     11  C   UNL     1      18.943  13.101  -8.787  1.00  0.00     0.069 A 
ENDROOT
BRANCH   1  12
ATOM     12  C   UNL     1      20.520   9.114  -5.055  1.00  0.00    -0.011 A 
ATOM     13  C   UNL     1      20.578   7.747  -5.382  1.00  0.00     0.013 A 
ATOM     14  C   UNL     1      20.956   6.806  -4.420  1.00  0.00     0.047 A 
ATOM     15  C   UNL     1      21.273   7.214  -3.121  1.00  0.00     0.115 A 
ATOM     16  C   UNL     1      20.833   9.517  -3.745  1.00  0.00     0.013 A 
ATOM     17  C   UNL     1      21.209   8.573  -2.785  1.00  0.00     0.047 A 
BRANCH  15  18
ATOM     18  O   UNL     1      21.648   6.264  -2.173  1.00  0.00    -0.508 OA
ATOM     19  H   UNL     1      22.304   5.525  -2.396  1.00  0.00     0.293 HD
ENDBRANCH  15  18
ENDBRANCH   1  12
BRANCH  11  20
ATOM     20  C   UNL     1      18.730  14.505  -8.178  1.00  0.00     0.188 C 
ATOM     21  C   UNL     1      19.950  15.387  -7.773  1.00  0.00     0.179 C 
ATOM     22  O   UNL     1      17.821  15.267  -8.964  1.00  0.00    -0.362 OA
ATOM     23  C   UNL     1      20.612  16.041  -9.011  1.00  0.00     0.177 C 
ATOM     24  C   UNL     1      18.405  15.688 -10.187  1.00  0.00     0.176 C 
ATOM     25  C   UNL     1      19.555  16.689  -9.922  1.00  0.00     0.177 C 
BRANCH  21  26
ATOM     26  O   UNL     1      19.556  16.377  -6.850  1.00  0.00    -0.387 OA
ATOM     27  H   UNL     1      19.185  15.931  -6.046  1.00  0.00     0.211 HD
ENDBRANCH  21  26
BRANCH  23  28
ATOM     28  O   UNL     1      21.545  17.012  -8.611  1.00  0.00    -0.387 OA
ATOM     29  H   UNL     1      22.312  16.947  -9.237  1.00  0.00     0.211 HD
ENDBRANCH  23  28
BRANCH  24  30
ATOM     30  C   UNL     1      17.307  16.307 -11.065  1.00  0.00     0.191 C 
BRANCH  30  31
ATOM     31  O   UNL     1      16.261  16.819 -10.283  1.00  0.00    -0.394 OA
ATOM     32  H   UNL     1      16.218  16.262  -9.462  1.00  0.00     0.210 HD
ENDBRANCH  30  31
ENDBRANCH  24  30
BRANCH  25  33
ATOM     33  O   UNL     1      20.143  17.125 -11.124  1.00  0.00    -0.388 OA
ATOM     34  H   UNL     1      21.085  17.370 -10.930  1.00  0.00     0.211 HD
ENDBRANCH  25  33
ENDBRANCH  11  20
BRANCH  10  35
ATOM     35  O   UNL     1      18.483  13.727 -11.125  1.00  0.00    -0.507 OA
ATOM     36  H   UNL     1      19.046  14.559 -11.264  1.00  0.00     0.293 HD
ENDBRANCH  10  35
TORSDOF 9
ENDMDL
MODEL 4
REMARK VINA RESULT:    11.140      2.061      3.439
REMARK INTER + INTRA:          15.539
REMARK INTER:                  13.969
REMARK INTRA:                   1.571
REMARK UNBOUND:                 0.492
REMARK SMILES O=c1c(-c2ccc(O)cc2)coc2c([C@@H]3O[C@@H](CO)[C@H](O)[C@@H](O)[C@H]3O)c(O)ccc12
REMARK SMILES IDX 3 1 11 2 12 3 13 4 30 5 2 6 1 7 29 8 28 9 26 10 14 11 4 12
REMARK SMILES IDX 5 13 6 14 7 15 10 16 9 17 8 18 15 20 24 21 16 22 22 23 17 24
REMARK SMILES IDX 20 25 25 26 23 28 18 30 19 31 21 33 27 35
REMARK H PARENT 8 19 25 27 23 29 19 32 21 34 27 36
REMARK Flexibility Score: inf
ROOT
ATOM      1  C   UNL     1      20.507   9.653  -5.692  1.00  0.00     0.065 A 
ATOM      2  C   UNL     1      19.625  10.735  -5.578  1.00  0.00     0.208 A 
ATOM      3  O   UNL     1      19.431  11.566  -6.595  1.00  0.00    -0.463 OA
ATOM      4  C   UNL     1      20.039  11.439  -7.772  1.00  0.00     0.147 A 
ATOM      5  C   UNL     1      20.950  10.376  -7.970  1.00  0.00     0.066 A 
ATOM      6  C   UNL     1      21.174   9.470  -6.917  1.00  0.00     0.200 A 
ATOM      7  O   UNL     1      21.955   8.490  -7.074  1.00  0.00    -0.288 OA
ATOM      8  C   UNL     1      21.604  10.246  -9.201  1.00  0.00     0.020 A 
ATOM      9  C   UNL     1      21.375  11.169 -10.213  1.00  0.00     0.047 A 
ATOM     10  C   UNL     1      20.480  12.232 -10.036  1.00  0.00     0.125 A 
ATOM     11  C   UNL     1      19.764  12.369  -8.811  1.00  0.00     0.069 A 
ENDROOT
BRANCH   1  12
ATOM     12  C   UNL     1      20.709   8.737  -4.542  1.00  0.00    -0.011 A 
ATOM     13  C   UNL     1      20.732   7.345  -4.741  1.00  0.00     0.013 A 
ATOM     14  C   UNL     1      20.914   6.480  -3.658  1.00  0.00     0.047 A 
ATOM     15  C   UNL     1      21.071   6.990  -2.366  1.00  0.00     0.115 A 
ATOM     16  C   UNL     1      20.860   9.243  -3.239  1.00  0.00     0.013 A 
ATOM     17  C   UNL     1      21.041   8.375  -2.158  1.00  0.00     0.047 A 
BRANCH  15  18
ATOM     18  O   UNL     1      21.252   6.115  -1.297  1.00  0.00    -0.508 OA
ATOM     19  H   UNL     1      20.558   5.415  -1.062  1.00  0.00     0.293 HD
ENDBRANCH  15  18
ENDBRANCH   1  12
BRANCH  11  20
ATOM     20  C   UNL     1      18.728  13.473  -8.501  1.00  0.00     0.188 C 
ATOM     21  C   UNL     1      18.827  14.305  -7.187  1.00  0.00     0.179 C 
ATOM     22  O   UNL     1      18.565  14.342  -9.615  1.00  0.00    -0.362 OA
ATOM     23  C   UNL     1      19.929  15.388  -7.284  1.00  0.00     0.177 C 
ATOM     24  C   UNL     1      19.687  15.193  -9.790  1.00  0.00     0.176 C 
ATOM     25  C   UNL     1      19.813  16.175  -8.601  1.00  0.00     0.177 C 
BRANCH  21  26
ATOM     26  O   UNL     1      17.584  14.899  -6.888  1.00  0.00    -0.387 OA
ATOM     27  H   UNL     1      17.745  15.723  -6.360  1.00  0.00     0.211 HD
ENDBRANCH  21  26
BRANCH  23  28
ATOM     28  O   UNL     1      19.840  16.275  -6.198  1.00  0.00    -0.387 OA
ATOM     29  H   UNL     1      20.258  17.127  -6.490  1.00  0.00     0.211 HD
ENDBRANCH  23  28
BRANCH  24  30
ATOM     30  C   UNL     1      19.533  15.938 -11.125  1.00  0.00     0.191 C 
BRANCH  30  31
ATOM     31  O   UNL     1      18.717  17.071 -10.981  1.00  0.00    -0.394 OA
ATOM     32  H   UNL     1      17.966  16.809 -10.386  1.00  0.00     0.210 HD
ENDBRANCH  30  31
ENDBRANCH  24  30
BRANCH  25  33
ATOM     33  O   UNL     1      20.917  17.034  -8.759  1.00  0.00    -0.388 OA
ATOM     34  H   UNL     1      21.446  16.709  -9.534  1.00  0.00     0.211 HD
ENDBRANCH  25  33
ENDBRANCH  11  20
BRANCH  10  35
ATOM     35  O   UNL     1      20.333  13.136 -11.083  1.00  0.00    -0.507 OA
ATOM     36  H   UNL     1      20.530  12.884 -12.045  1.00  0.00     0.293 HD
ENDBRANCH  10  35
TORSDOF 9
ENDMDL
