MODEL 1
REMARK VINA RESULT:    -7.689      0.000      0.000
REMARK INTER + INTRA:          -9.580
REMARK INTER:                  -9.262
REMARK INTRA:                  -0.319
REMARK UNBOUND:                -0.319
REMARK SMILES O=c1c(O)c(-c2ccc(O)c(O)c2)oc2cc(O)cc(O)c12
REMARK SMILES IDX 5 1 3 2 2 3 1 4 22 5 20 6 19 7 17 8 16 9 15 10 14 11 6 12
REMARK SMILES IDX 7 13 8 14 9 15 13 16 11 17 10 18 12 20 4 22 21 24 18 26
REMARK H PARENT 10 19 12 21 4 23 21 25 18 27
REMARK Flexibility Score: inf
ROOT
ATOM      1  C   UNL     1      38.038  -6.932  19.018  1.00  0.00     0.180 A 
ATOM      2  C   UNL     1      38.638  -7.974  19.750  1.00  0.00     0.208 A 
ATOM      3  C   UNL     1      38.051  -8.378  20.960  1.00  0.00     0.238 A 
ATOM      4  O   UNL     1      38.585  -9.302  21.631  1.00  0.00    -0.285 OA
ATOM      5  C   UNL     1      36.869  -7.750  21.405  1.00  0.00     0.111 A 
ATOM      6  C   UNL     1      36.213  -8.100  22.609  1.00  0.00     0.134 A 
ATOM      7  C   UNL     1      35.034  -7.435  22.979  1.00  0.00     0.093 A 
ATOM      8  C   UNL     1      34.500  -6.430  22.169  1.00  0.00     0.123 A 
ATOM      9  C   UNL     1      35.144  -6.079  20.979  1.00  0.00     0.094 A 
ATOM     10  C   UNL     1      36.321  -6.729  20.593  1.00  0.00     0.146 A 
ATOM     11  O   UNL     1      36.915  -6.374  19.460  1.00  0.00    -0.452 OA
ENDROOT
BRANCH   1  12
ATOM     12  C   UNL     1      38.608  -6.437  17.743  1.00  0.00     0.025 A 
ATOM     13  C   UNL     1      39.508  -5.360  17.762  1.00  0.00     0.016 A 
ATOM     14  C   UNL     1      40.073  -4.889  16.574  1.00  0.00     0.051 A 
ATOM     15  C   UNL     1      39.762  -5.497  15.354  1.00  0.00     0.157 A 
ATOM     16  C   UNL     1      38.312  -7.060  16.518  1.00  0.00     0.062 A 
ATOM     17  C   UNL     1      38.880  -6.590  15.324  1.00  0.00     0.158 A 
BRANCH  15  18
ATOM     18  O   UNL     1      40.339  -5.004  14.184  1.00  0.00    -0.504 OA
ATOM     19  H   UNL     1      40.665  -5.614  13.446  1.00  0.00     0.293 HD
ENDBRANCH  15  18
BRANCH  17  20
ATOM     20  O   UNL     1      38.576  -7.209  14.113  1.00  0.00    -0.504 OA
ATOM     21  H   UNL     1      39.292  -7.649  13.547  1.00  0.00     0.293 HD
ENDBRANCH  17  20
ENDBRANCH   1  12
BRANCH   2  22
ATOM     22  O   UNL     1      39.781  -8.613  19.264  1.00  0.00    -0.502 OA
ATOM     23  H   UNL     1      40.297  -9.293  19.808  1.00  0.00     0.293 HD
ENDBRANCH   2  22
BRANCH   6  24
ATOM     24  O   UNL     1      36.721  -9.102  23.439  1.00  0.00    -0.507 OA
ATOM     25  H   UNL     1      37.161  -9.933  23.062  1.00  0.00     0.293 HD
ENDBRANCH   6  24
BRANCH   8  26
ATOM     26  O   UNL     1      33.328  -5.785  22.558  1.00  0.00    -0.508 OA
ATOM     27  H   UNL     1      32.428  -6.040  22.167  1.00  0.00     0.293 HD
ENDBRANCH   8  26
TORSDOF 6
ENDMDL
MODEL 2
REMARK VINA RESULT:    -7.434     11.336     13.170
REMARK INTER + INTRA:          -9.274
REMARK INTER:                  -9.159
REMARK INTRA:                  -0.115
REMARK UNBOUND:                -0.319
REMARK SMILES O=c1c(O)c(-c2ccc(O)c(O)c2)oc2cc(O)cc(O)c12
REMARK SMILES IDX 5 1 3 2 2 3 1 4 22 5 20 6 19 7 17 8 16 9 15 10 14 11 6 12
REMARK SMILES IDX 7 13 8 14 9 15 13 16 11 17 10 18 12 20 4 22 21 24 18 26
REMARK H PARENT 10 19 12 21 4 23 21 25 18 27
REMARK Flexibility Score: inf
ROOT
ATOM      1  C   UNL     1      44.221   4.418  19.965  1.00  0.00     0.180 A 
ATOM      2  C   UNL     1      44.134   5.217  21.120  1.00  0.00     0.208 A 
ATOM      3  C   UNL     1      42.977   5.142  21.912  1.00  0.00     0.238 A 
ATOM      4  O   UNL     1      42.882   5.861  22.943  1.00  0.00    -0.285 OA
ATOM      5  C   UNL     1      41.941   4.257  21.548  1.00  0.00     0.111 A 
ATOM      6  C   UNL     1      40.746   4.117  22.294  1.00  0.00     0.134 A 
ATOM      7  C   UNL     1      39.765   3.207  21.871  1.00  0.00     0.093 A 
ATOM      8  C   UNL     1      39.956   2.436  20.723  1.00  0.00     0.123 A 
ATOM      9  C   UNL     1      41.134   2.571  19.982  1.00  0.00     0.094 A 
ATOM     10  C   UNL     1      42.123   3.473  20.385  1.00  0.00     0.146 A 
ATOM     11  O   UNL     1      43.231   3.584  19.661  1.00  0.00    -0.452 OA
ENDROOT
BRANCH   1  12
ATOM     12  C   UNL     1      45.400   4.456  19.069  1.00  0.00     0.025 A 
ATOM     13  C   UNL     1      46.079   3.264  18.770  1.00  0.00     0.016 A 
ATOM     14  C   UNL     1      47.181   3.273  17.911  1.00  0.00     0.051 A 
ATOM     15  C   UNL     1      47.610   4.468  17.325  1.00  0.00     0.157 A 
ATOM     16  C   UNL     1      45.820   5.653  18.462  1.00  0.00     0.062 A 
ATOM     17  C   UNL     1      46.926   5.664  17.598  1.00  0.00     0.158 A 
BRANCH  15  18
ATOM     18  O   UNL     1      48.715   4.447  16.474  1.00  0.00    -0.504 OA
ATOM     19  H   UNL     1      48.751   3.855  15.655  1.00  0.00     0.293 HD
ENDBRANCH  15  18
BRANCH  17  20
ATOM     20  O   UNL     1      47.339   6.856  17.006  1.00  0.00    -0.504 OA
ATOM     21  H   UNL     1      47.105   7.757  17.405  1.00  0.00     0.293 HD
ENDBRANCH  17  20
ENDBRANCH   1  12
BRANCH   2  22
ATOM     22  O   UNL     1      45.195   6.050  21.485  1.00  0.00    -0.502 OA
ATOM     23  H   UNL     1      45.437   6.882  20.963  1.00  0.00     0.293 HD
ENDBRANCH   2  22
BRANCH   6  24
ATOM     24  O   UNL     1      40.526   4.872  23.447  1.00  0.00    -0.507 OA
ATOM     25  H   UNL     1      40.445   5.882  23.415  1.00  0.00     0.293 HD
ENDBRANCH   6  24
BRANCH   8  26
ATOM     26  O   UNL     1      38.966   1.539  20.326  1.00  0.00    -0.508 OA
ATOM     27  H   UNL     1      39.198   0.623  19.959  1.00  0.00     0.293 HD
ENDBRANCH   8  26
TORSDOF 6
ENDMDL
MODEL 3
REMARK VINA RESULT:    -7.270      7.267      8.454
REMARK INTER + INTRA:          -9.076
REMARK INTER:                  -8.745
REMARK INTRA:                  -0.331
REMARK UNBOUND:                -0.319
REMARK SMILES O=c1c(O)c(-c2ccc(O)c(O)c2)oc2cc(O)cc(O)c12
REMARK SMILES IDX 5 1 3 2 2 3 1 4 22 5 20 6 19 7 17 8 16 9 15 10 14 11 6 12
REMARK SMILES IDX 7 13 8 14 9 15 13 16 11 17 10 18 12 20 4 22 21 24 18 26
REMARK H PARENT 10 19 12 21 4 23 21 25 18 27
REMARK Flexibility Score: inf
ROOT
ATOM      1  C   UNL     1      44.909  -3.921  21.202  1.00  0.00     0.180 A 
ATOM      2  C   UNL     1      45.387  -2.763  21.844  1.00  0.00     0.208 A 
ATOM      3  C   UNL     1      45.299  -2.678  23.243  1.00  0.00     0.238 A 
ATOM      4  O   UNL     1      45.713  -1.642  23.829  1.00  0.00    -0.285 OA
ATOM      5  C   UNL     1      44.757  -3.756  23.974  1.00  0.00     0.111 A 
ATOM      6  C   UNL     1      44.637  -3.752  25.384  1.00  0.00     0.134 A 
ATOM      7  C   UNL     1      44.095  -4.868  26.040  1.00  0.00     0.093 A 
ATOM      8  C   UNL     1      43.672  -5.984  25.315  1.00  0.00     0.123 A 
ATOM      9  C   UNL     1      43.787  -5.993  23.921  1.00  0.00     0.094 A 
ATOM     10  C   UNL     1      44.323  -4.891  23.249  1.00  0.00     0.146 A 
ATOM     11  O   UNL     1      44.418  -4.924  21.925  1.00  0.00    -0.452 OA
ENDROOT
BRANCH   1  12
ATOM     12  C   UNL     1      44.948  -4.077  19.730  1.00  0.00     0.025 A 
ATOM     13  C   UNL     1      46.033  -4.742  19.135  1.00  0.00     0.016 A 
ATOM     14  C   UNL     1      46.081  -4.918  17.750  1.00  0.00     0.051 A 
ATOM     15  C   UNL     1      45.042  -4.449  16.940  1.00  0.00     0.157 A 
ATOM     16  C   UNL     1      43.894  -3.625  18.916  1.00  0.00     0.062 A 
ATOM     17  C   UNL     1      43.940  -3.803  17.525  1.00  0.00     0.158 A 
BRANCH  15  18
ATOM     18  O   UNL     1      45.119  -4.637  15.561  1.00  0.00    -0.504 OA
ATOM     19  H   UNL     1      44.620  -4.045  14.909  1.00  0.00     0.293 HD
ENDBRANCH  15  18
BRANCH  17  20
ATOM     20  O   UNL     1      42.894  -3.346  16.726  1.00  0.00    -0.504 OA
ATOM     21  H   UNL     1      43.055  -2.722  15.944  1.00  0.00     0.293 HD
ENDBRANCH  17  20
ENDBRANCH   1  12
BRANCH   2  22
ATOM     22  O   UNL     1      45.964  -1.730  21.102  1.00  0.00    -0.502 OA
ATOM     23  H   UNL     1      45.476  -1.266  20.346  1.00  0.00     0.293 HD
ENDBRANCH   2  22
BRANCH   6  24
ATOM     24  O   UNL     1      45.051  -2.652  26.137  1.00  0.00    -0.507 OA
ATOM     25  H   UNL     1      46.032  -2.456  26.298  1.00  0.00     0.293 HD
ENDBRANCH   6  24
BRANCH   8  26
ATOM     26  O   UNL     1      43.138  -7.079  25.990  1.00  0.00    -0.508 OA
ATOM     27  H   UNL     1      42.454  -6.964  26.729  1.00  0.00     0.293 HD
ENDBRANCH   8  26
TORSDOF 6
ENDMDL
MODEL 4
REMARK VINA RESULT:    -7.268     12.031     14.899
REMARK INTER + INTRA:          -9.073
REMARK INTER:                  -8.750
REMARK INTRA:                  -0.323
REMARK UNBOUND:                -0.319
REMARK SMILES O=c1c(O)c(-c2ccc(O)c(O)c2)oc2cc(O)cc(O)c12
REMARK SMILES IDX 5 1 3 2 2 3 1 4 22 5 20 6 19 7 17 8 16 9 15 10 14 11 6 12
REMARK SMILES IDX 7 13 8 14 9 15 13 16 11 17 10 18 12 20 4 22 21 24 18 26
REMARK H PARENT 10 19 12 21 4 23 21 25 18 27
REMARK Flexibility Score: inf
ROOT
ATOM      1  C   UNL     1      43.891   4.686  20.323  1.00  0.00     0.180 A 
ATOM      2  C   UNL     1      44.629   4.894  21.503  1.00  0.00     0.208 A 
ATOM      3  C   UNL     1      45.805   5.660  21.442  1.00  0.00     0.238 A 
ATOM      4  O   UNL     1      46.481   5.844  22.490  1.00  0.00    -0.285 OA
ATOM      5  C   UNL     1      46.208   6.219  20.211  1.00  0.00     0.111 A 
ATOM      6  C   UNL     1      47.376   7.006  20.065  1.00  0.00     0.134 A 
ATOM      7  C   UNL     1      47.705   7.535  18.808  1.00  0.00     0.093 A 
ATOM      8  C   UNL     1      46.891   7.295  17.698  1.00  0.00     0.123 A 
ATOM      9  C   UNL     1      45.738   6.517  17.837  1.00  0.00     0.094 A 
ATOM     10  C   UNL     1      45.393   5.979  19.080  1.00  0.00     0.146 A 
ATOM     11  O   UNL     1      44.294   5.241  19.184  1.00  0.00    -0.452 OA
ENDROOT
BRANCH   1  12
ATOM     12  C   UNL     1      42.653   3.874  20.304  1.00  0.00     0.025 A 
ATOM     13  C   UNL     1      41.419   4.489  20.575  1.00  0.00     0.016 A 
ATOM     14  C   UNL     1      40.236   3.747  20.543  1.00  0.00     0.051 A 
ATOM     15  C   UNL     1      40.264   2.386  20.222  1.00  0.00     0.157 A 
ATOM     16  C   UNL     1      42.676   2.510  19.961  1.00  0.00     0.062 A 
ATOM     17  C   UNL     1      41.488   1.764  19.927  1.00  0.00     0.158 A 
BRANCH  15  18
ATOM     18  O   UNL     1      39.067   1.670  20.200  1.00  0.00    -0.504 OA
ATOM     19  H   UNL     1      38.281   1.954  19.629  1.00  0.00     0.293 HD
ENDBRANCH  15  18
BRANCH  17  20
ATOM     20  O   UNL     1      41.521   0.411  19.593  1.00  0.00    -0.504 OA
ATOM     21  H   UNL     1      40.764  -0.030  19.085  1.00  0.00     0.293 HD
ENDBRANCH  17  20
ENDBRANCH   1  12
BRANCH   2  22
ATOM     22  O   UNL     1      44.182   4.371  22.719  1.00  0.00    -0.502 OA
ATOM     23  H   UNL     1      43.229   4.059  22.859  1.00  0.00     0.293 HD
ENDBRANCH   2  22
BRANCH   6  24
ATOM     24  O   UNL     1      48.209   7.265  21.155  1.00  0.00    -0.507 OA
ATOM     25  H   UNL     1      48.764   8.112  21.211  1.00  0.00     0.293 HD
ENDBRANCH   6  24
BRANCH   8  26
ATOM     26  O   UNL     1      47.240   7.833  16.462  1.00  0.00    -0.508 OA
ATOM     27  H   UNL     1      46.608   7.794  15.670  1.00  0.00     0.293 HD
ENDBRANCH   8  26
TORSDOF 6
ENDMDL
MODEL 5
REMARK VINA RESULT:    -7.238     13.102     15.578
REMARK INTER + INTRA:          -9.038
REMARK INTER:                  -8.713
REMARK INTRA:                  -0.325
REMARK UNBOUND:                -0.319
REMARK SMILES O=c1c(O)c(-c2ccc(O)c(O)c2)oc2cc(O)cc(O)c12
REMARK SMILES IDX 5 1 3 2 2 3 1 4 22 5 20 6 19 7 17 8 16 9 15 10 14 11 6 12
REMARK SMILES IDX 7 13 8 14 9 15 13 16 11 17 10 18 12 20 4 22 21 24 18 26
REMARK H PARENT 10 19 12 21 4 23 21 25 18 27
REMARK Flexibility Score: inf
ROOT
ATOM      1  C   UNL     1      44.116   4.327  23.983  1.00  0.00     0.180 A 
ATOM      2  C   UNL     1      43.354   3.450  23.190  1.00  0.00     0.208 A 
ATOM      3  C   UNL     1      43.826   3.108  21.912  1.00  0.00     0.238 A 
ATOM      4  O   UNL     1      43.146   2.332  21.186  1.00  0.00    -0.285 OA
ATOM      5  C   UNL     1      45.056   3.629  21.461  1.00  0.00     0.111 A 
ATOM      6  C   UNL     1      45.604   3.331  20.191  1.00  0.00     0.134 A 
ATOM      7  C   UNL     1      46.839   3.882  19.818  1.00  0.00     0.093 A 
ATOM      8  C   UNL     1      47.535   4.723  20.690  1.00  0.00     0.123 A 
ATOM      9  C   UNL     1      46.999   5.022  21.945  1.00  0.00     0.094 A 
ATOM     10  C   UNL     1      45.768   4.484  22.335  1.00  0.00     0.146 A 
ATOM     11  O   UNL     1      45.279   4.787  23.531  1.00  0.00    -0.452 OA
ENDROOT
BRANCH   1  12
ATOM     12  C   UNL     1      43.676   4.750  25.333  1.00  0.00     0.025 A 
ATOM     13  C   UNL     1      44.031   3.976  26.449  1.00  0.00     0.016 A 
ATOM     14  C   UNL     1      43.644   4.367  27.734  1.00  0.00     0.051 A 
ATOM     15  C   UNL     1      42.911   5.543  27.924  1.00  0.00     0.157 A 
ATOM     16  C   UNL     1      42.958   5.943  25.528  1.00  0.00     0.062 A 
ATOM     17  C   UNL     1      42.569   6.338  26.818  1.00  0.00     0.158 A 
BRANCH  15  18
ATOM     18  O   UNL     1      42.537   5.906  29.217  1.00  0.00    -0.504 OA
ATOM     19  H   UNL     1      43.000   5.534  30.036  1.00  0.00     0.293 HD
ENDBRANCH  15  18
BRANCH  17  20
ATOM     20  O   UNL     1      41.852   7.519  27.001  1.00  0.00    -0.504 OA
ATOM     21  H   UNL     1      42.305   8.375  27.297  1.00  0.00     0.293 HD
ENDBRANCH  17  20
ENDBRANCH   1  12
BRANCH   2  22
ATOM     22  O   UNL     1      42.162   2.908  23.678  1.00  0.00    -0.502 OA
ATOM     23  H   UNL     1      41.270   3.372  23.569  1.00  0.00     0.293 HD
ENDBRANCH   2  22
BRANCH   6  24
ATOM     24  O   UNL     1      44.933   2.493  19.298  1.00  0.00    -0.507 OA
ATOM     25  H   UNL     1      43.944   2.294  19.395  1.00  0.00     0.293 HD
ENDBRANCH   6  24
BRANCH   8  26
ATOM     26  O   UNL     1      48.760   5.257  20.296  1.00  0.00    -0.508 OA
ATOM     27  H   UNL     1      49.105   5.149  19.349  1.00  0.00     0.293 HD
ENDBRANCH   8  26
TORSDOF 6
ENDMDL
MODEL 6
REMARK VINA RESULT:    -7.229      7.520      8.809
REMARK INTER + INTRA:          -9.027
REMARK INTER:                  -8.915
REMARK INTRA:                  -0.112
REMARK UNBOUND:                -0.319
REMARK SMILES O=c1c(O)c(-c2ccc(O)c(O)c2)oc2cc(O)cc(O)c12
REMARK SMILES IDX 5 1 3 2 2 3 1 4 22 5 20 6 19 7 17 8 16 9 15 10 14 11 6 12
REMARK SMILES IDX 7 13 8 14 9 15 13 16 11 17 10 18 12 20 4 22 21 24 18 26
REMARK H PARENT 10 19 12 21 4 23 21 25 18 27
REMARK Flexibility Score: inf
ROOT
ATOM      1  C   UNL     1      45.297  -4.164  20.538  1.00  0.00     0.180 A 
ATOM      2  C   UNL     1      46.067  -3.028  20.852  1.00  0.00     0.208 A 
ATOM      3  C   UNL     1      46.172  -2.630  22.195  1.00  0.00     0.238 A 
ATOM      4  O   UNL     1      46.849  -1.608  22.488  1.00  0.00    -0.285 OA
ATOM      5  C   UNL     1      45.525  -3.383  23.197  1.00  0.00     0.111 A 
ATOM      6  C   UNL     1      45.584  -3.053  24.572  1.00  0.00     0.134 A 
ATOM      7  C   UNL     1      44.921  -3.858  25.510  1.00  0.00     0.093 A 
ATOM      8  C   UNL     1      44.203  -4.984  25.101  1.00  0.00     0.123 A 
ATOM      9  C   UNL     1      44.140  -5.314  23.744  1.00  0.00     0.094 A 
ATOM     10  C   UNL     1      44.793  -4.524  22.793  1.00  0.00     0.146 A 
ATOM     11  O   UNL     1      44.714  -4.858  21.511  1.00  0.00    -0.452 OA
ENDROOT
BRANCH   1  12
ATOM     12  C   UNL     1      45.122  -4.634  19.144  1.00  0.00     0.025 A 
ATOM     13  C   UNL     1      44.538  -3.780  18.195  1.00  0.00     0.016 A 
ATOM     14  C   UNL     1      44.382  -4.195  16.870  1.00  0.00     0.051 A 
ATOM     15  C   UNL     1      44.821  -5.461  16.470  1.00  0.00     0.157 A 
ATOM     16  C   UNL     1      45.582  -5.899  18.735  1.00  0.00     0.062 A 
ATOM     17  C   UNL     1      45.427  -6.317  17.404  1.00  0.00     0.158 A 
BRANCH  15  18
ATOM     18  O   UNL     1      44.649  -5.849  15.142  1.00  0.00    -0.504 OA
ATOM     19  H   UNL     1      44.444  -6.806  14.883  1.00  0.00     0.293 HD
ENDBRANCH  15  18
BRANCH  17  20
ATOM     20  O   UNL     1      45.880  -7.574  17.009  1.00  0.00    -0.504 OA
ATOM     21  H   UNL     1      46.784  -7.928  17.298  1.00  0.00     0.293 HD
ENDBRANCH  17  20
ENDBRANCH   1  12
BRANCH   2  22
ATOM     22  O   UNL     1      46.738  -2.328  19.846  1.00  0.00    -0.502 OA
ATOM     23  H   UNL     1      46.249  -1.839  19.107  1.00  0.00     0.293 HD
ENDBRANCH   2  22
BRANCH   6  24
ATOM     24  O   UNL     1      46.295  -1.935  25.012  1.00  0.00    -0.507 OA
ATOM     25  H   UNL     1      45.938  -1.331  25.744  1.00  0.00     0.293 HD
ENDBRANCH   6  24
BRANCH   8  26
ATOM     26  O   UNL     1      43.554  -5.767  26.053  1.00  0.00    -0.508 OA
ATOM     27  H   UNL     1      44.062  -6.423  26.635  1.00  0.00     0.293 HD
ENDBRANCH   8  26
TORSDOF 6
ENDMDL
MODEL 7
REMARK VINA RESULT:    -7.226     10.820     12.569
REMARK INTER + INTRA:          -9.023
REMARK INTER:                  -8.708
REMARK INTRA:                  -0.314
REMARK UNBOUND:                -0.319
REMARK SMILES O=c1c(O)c(-c2ccc(O)c(O)c2)oc2cc(O)cc(O)c12
REMARK SMILES IDX 5 1 3 2 2 3 1 4 22 5 20 6 19 7 17 8 16 9 15 10 14 11 6 12
REMARK SMILES IDX 7 13 8 14 9 15 13 16 11 17 10 18 12 20 4 22 21 24 18 26
REMARK H PARENT 10 19 12 21 4 23 21 25 18 27
REMARK Flexibility Score: inf
ROOT
ATOM      1  C   UNL     1      43.821   3.809  19.608  1.00  0.00     0.180 A 
ATOM      2  C   UNL     1      43.656   2.414  19.510  1.00  0.00     0.208 A 
ATOM      3  C   UNL     1      42.499   1.829  20.048  1.00  0.00     0.238 A 
ATOM      4  O   UNL     1      42.345   0.579  19.977  1.00  0.00    -0.285 OA
ATOM      5  C   UNL     1      41.522   2.646  20.654  1.00  0.00     0.111 A 
ATOM      6  C   UNL     1      40.327   2.136  21.216  1.00  0.00     0.134 A 
ATOM      7  C   UNL     1      39.399   3.016  21.793  1.00  0.00     0.093 A 
ATOM      8  C   UNL     1      39.641   4.391  21.818  1.00  0.00     0.123 A 
ATOM      9  C   UNL     1      40.820   4.900  21.265  1.00  0.00     0.094 A 
ATOM     10  C   UNL     1      41.759   4.040  20.687  1.00  0.00     0.146 A 
ATOM     11  O   UNL     1      42.872   4.549  20.172  1.00  0.00    -0.452 OA
ENDROOT
BRANCH   1  12
ATOM     12  C   UNL     1      45.022   4.497  19.082  1.00  0.00     0.025 A 
ATOM     13  C   UNL     1      44.946   5.181  17.858  1.00  0.00     0.016 A 
ATOM     14  C   UNL     1      46.060   5.854  17.352  1.00  0.00     0.051 A 
ATOM     15  C   UNL     1      47.262   5.870  18.068  1.00  0.00     0.157 A 
ATOM     16  C   UNL     1      46.225   4.532  19.810  1.00  0.00     0.062 A 
ATOM     17  C   UNL     1      47.345   5.209  19.304  1.00  0.00     0.158 A 
BRANCH  15  18
ATOM     18  O   UNL     1      48.358   6.548  17.537  1.00  0.00    -0.504 OA
ATOM     19  H   UNL     1      48.253   7.320  16.892  1.00  0.00     0.293 HD
ENDBRANCH  15  18
BRANCH  17  20
ATOM     20  O   UNL     1      48.535   5.232  20.030  1.00  0.00    -0.504 OA
ATOM     21  H   UNL     1      49.246   5.934  19.862  1.00  0.00     0.293 HD
ENDBRANCH  17  20
ENDBRANCH   1  12
BRANCH   2  22
ATOM     22  O   UNL     1      44.616   1.633  18.861  1.00  0.00    -0.502 OA
ATOM     23  H   UNL     1      44.514   0.632  18.746  1.00  0.00     0.293 HD
ENDBRANCH   2  22
BRANCH   6  24
ATOM     24  O   UNL     1      40.056   0.766  21.206  1.00  0.00    -0.507 OA
ATOM     25  H   UNL     1      39.424   0.354  20.530  1.00  0.00     0.293 HD
ENDBRANCH   6  24
BRANCH   8  26
ATOM     26  O   UNL     1      38.702   5.243  22.396  1.00  0.00    -0.508 OA
ATOM     27  H   UNL     1      38.980   6.100  22.861  1.00  0.00     0.293 HD
ENDBRANCH   8  26
TORSDOF 6
ENDMDL
MODEL 8
REMARK VINA RESULT:    -7.191      6.557      8.931
REMARK INTER + INTRA:          -8.981
REMARK INTER:                  -8.648
REMARK INTRA:                  -0.332
REMARK UNBOUND:                -0.319
REMARK SMILES O=c1c(O)c(-c2ccc(O)c(O)c2)oc2cc(O)cc(O)c12
REMARK SMILES IDX 5 1 3 2 2 3 1 4 22 5 20 6 19 7 17 8 16 9 15 10 14 11 6 12
REMARK SMILES IDX 7 13 8 14 9 15 13 16 11 17 10 18 12 20 4 22 21 24 18 26
REMARK H PARENT 10 19 12 21 4 23 21 25 18 27
REMARK Flexibility Score: inf
ROOT
ATOM      1  C   UNL     1      44.399  -4.246  18.555  1.00  0.00     0.180 A 
ATOM      2  C   UNL     1      44.957  -5.265  17.761  1.00  0.00     0.208 A 
ATOM      3  C   UNL     1      44.257  -5.699  16.624  1.00  0.00     0.238 A 
ATOM      4  O   UNL     1      44.740  -6.620  15.911  1.00  0.00    -0.285 OA
ATOM      5  C   UNL     1      43.028  -5.094  16.289  1.00  0.00     0.111 A 
ATOM      6  C   UNL     1      42.262  -5.469  15.159  1.00  0.00     0.134 A 
ATOM      7  C   UNL     1      41.052  -4.812  14.889  1.00  0.00     0.093 A 
ATOM      8  C   UNL     1      40.595  -3.790  15.723  1.00  0.00     0.123 A 
ATOM      9  C   UNL     1      41.346  -3.416  16.842  1.00  0.00     0.094 A 
ATOM     10  C   UNL     1      42.553  -4.059  17.130  1.00  0.00     0.146 A 
ATOM     11  O   UNL     1      43.245  -3.688  18.200  1.00  0.00    -0.452 OA
ENDROOT
BRANCH   1  12
ATOM     12  C   UNL     1      45.067  -3.748  19.779  1.00  0.00     0.025 A 
ATOM     13  C   UNL     1      45.918  -2.634  19.698  1.00  0.00     0.016 A 
ATOM     14  C   UNL     1      46.543  -2.135  20.844  1.00  0.00     0.051 A 
ATOM     15  C   UNL     1      46.315  -2.730  22.089  1.00  0.00     0.157 A 
ATOM     16  C   UNL     1      44.824  -4.332  21.036  1.00  0.00     0.062 A 
ATOM     17  C   UNL     1      45.450  -3.832  22.187  1.00  0.00     0.158 A 
BRANCH  15  18
ATOM     18  O   UNL     1      46.955  -2.212  23.214  1.00  0.00    -0.504 OA
ATOM     19  H   UNL     1      47.755  -2.667  23.635  1.00  0.00     0.293 HD
ENDBRANCH  15  18
BRANCH  17  20
ATOM     20  O   UNL     1      45.207  -4.421  23.427  1.00  0.00    -0.504 OA
ATOM     21  H   UNL     1      45.264  -5.423  23.559  1.00  0.00     0.293 HD
ENDBRANCH  17  20
ENDBRANCH   1  12
BRANCH   2  22
ATOM     22  O   UNL     1      46.200  -5.815  18.086  1.00  0.00    -0.502 OA
ATOM     23  H   UNL     1      46.658  -5.636  18.971  1.00  0.00     0.293 HD
ENDBRANCH   2  22
BRANCH   6  24
ATOM     24  O   UNL     1      42.693  -6.486  14.305  1.00  0.00    -0.507 OA
ATOM     25  H   UNL     1      42.986  -7.390  14.659  1.00  0.00     0.293 HD
ENDBRANCH   6  24
BRANCH   8  26
ATOM     26  O   UNL     1      39.391  -3.153  15.432  1.00  0.00    -0.508 OA
ATOM     27  H   UNL     1      39.249  -2.665  14.555  1.00  0.00     0.293 HD
ENDBRANCH   8  26
TORSDOF 6
ENDMDL
MODEL 9
REMARK VINA RESULT:    -7.088     11.348     14.310
REMARK INTER + INTRA:          -8.857
REMARK INTER:                  -8.533
REMARK INTRA:                  -0.324
REMARK UNBOUND:                -0.319
REMARK SMILES O=c1c(O)c(-c2ccc(O)c(O)c2)oc2cc(O)cc(O)c12
REMARK SMILES IDX 5 1 3 2 2 3 1 4 22 5 20 6 19 7 17 8 16 9 15 10 14 11 6 12
REMARK SMILES IDX 7 13 8 14 9 15 13 16 11 17 10 18 12 20 4 22 21 24 18 26
REMARK H PARENT 10 19 12 21 4 23 21 25 18 27
REMARK Flexibility Score: inf
ROOT
ATOM      1  C   UNL     1      43.334   4.001  20.380  1.00  0.00     0.180 A 
ATOM      2  C   UNL     1      44.363   3.495  21.195  1.00  0.00     0.208 A 
ATOM      3  C   UNL     1      45.693   3.835  20.898  1.00  0.00     0.238 A 
ATOM      4  O   UNL     1      46.625   3.379  21.614  1.00  0.00    -0.285 OA
ATOM      5  C   UNL     1      45.967   4.688  19.809  1.00  0.00     0.111 A 
ATOM      6  C   UNL     1      47.277   5.082  19.445  1.00  0.00     0.134 A 
ATOM      7  C   UNL     1      47.467   5.941  18.353  1.00  0.00     0.093 A 
ATOM      8  C   UNL     1      46.376   6.414  17.620  1.00  0.00     0.123 A 
ATOM      9  C   UNL     1      45.080   6.027  17.973  1.00  0.00     0.094 A 
ATOM     10  C   UNL     1      44.869   5.170  19.058  1.00  0.00     0.146 A 
ATOM     11  O   UNL     1      43.629   4.815  19.370  1.00  0.00    -0.452 OA
ENDROOT
BRANCH   1  12
ATOM     12  C   UNL     1      41.909   3.672  20.617  1.00  0.00     0.025 A 
ATOM     13  C   UNL     1      41.368   2.504  20.056  1.00  0.00     0.016 A 
ATOM     14  C   UNL     1      40.032   2.163  20.282  1.00  0.00     0.051 A 
ATOM     15  C   UNL     1      39.222   2.973  21.085  1.00  0.00     0.157 A 
ATOM     16  C   UNL     1      41.099   4.474  21.440  1.00  0.00     0.062 A 
ATOM     17  C   UNL     1      39.758   4.133  21.670  1.00  0.00     0.158 A 
BRANCH  15  18
ATOM     18  O   UNL     1      37.892   2.610  21.291  1.00  0.00    -0.504 OA
ATOM     19  H   UNL     1      37.545   1.687  21.063  1.00  0.00     0.293 HD
ENDBRANCH  15  18
BRANCH  17  20
ATOM     20  O   UNL     1      38.960   4.937  22.483  1.00  0.00    -0.504 OA
ATOM     21  H   UNL     1      38.166   5.445  22.113  1.00  0.00     0.293 HD
ENDBRANCH  17  20
ENDBRANCH   1  12
BRANCH   2  22
ATOM     22  O   UNL     1      44.062   2.692  22.298  1.00  0.00    -0.502 OA
ATOM     23  H   UNL     1      44.600   2.721  23.155  1.00  0.00     0.293 HD
ENDBRANCH   2  22
BRANCH   6  24
ATOM     24  O   UNL     1      48.388   4.628  20.159  1.00  0.00    -0.507 OA
ATOM     25  H   UNL     1      49.332   4.885  19.895  1.00  0.00     0.293 HD
ENDBRANCH   6  24
BRANCH   8  26
ATOM     26  O   UNL     1      46.593   7.267  16.540  1.00  0.00    -0.508 OA
ATOM     27  H   UNL     1      46.314   8.241  16.571  1.00  0.00     0.293 HD
ENDBRANCH   8  26
TORSDOF 6
ENDMDL
