MODEL 1
REMARK VINA RESULT:    -5.580      0.000      0.000
REMARK INTER + INTRA:          -9.243
REMARK INTER:                  -7.863
REMARK INTRA:                  -1.380
REMARK UNBOUND:                -1.380
REMARK SMILES O=C(C=Cc1ccc(O)cc1)CC(=O)C=Cc1ccc(O)cc1
REMARK SMILES IDX 12 1 2 2 1 3 3 4 4 5 5 6 6 7 7 8 8 9 11 10 10 11 9 12 13 14
REMARK SMILES IDX 14 15 15 16 16 17 17 18 18 19 23 20 19 21 22 22 20 23 21 24
REMARK H PARENT 9 13 21 25
REMARK Flexibility Score: inf
ROOT
ATOM      1  C   UNL     1     130.239 140.541 122.458  1.00  0.00     0.160 C 
ENDROOT
BRANCH   1   2
ATOM      2  C   UNL     1     129.212 140.200 121.422  1.00  0.00     0.163 C 
ATOM      3  O   UNL     1     128.954 138.989 121.183  1.00  0.00    -0.294 OA
BRANCH   2   4
ATOM      4  C   UNL     1     128.477 141.278 120.727  1.00  0.00     0.048 C 
ATOM      5  C   UNL     1     128.955 141.871 119.624  1.00  0.00     0.012 C 
BRANCH   5   6
ATOM      6  C   UNL     1     128.239 142.939 118.882  1.00  0.00    -0.025 A 
ATOM      7  C   UNL     1     128.601 144.276 119.116  1.00  0.00     0.012 A 
ATOM      8  C   UNL     1     127.952 145.317 118.445  1.00  0.00     0.047 A 
ATOM      9  C   UNL     1     126.925 145.037 117.537  1.00  0.00     0.115 A 
ATOM     10  C   UNL     1     127.192 142.667 117.977  1.00  0.00     0.012 A 
ATOM     11  C   UNL     1     126.546 143.712 117.309  1.00  0.00     0.047 A 
BRANCH   9  12
ATOM     12  O   UNL     1     126.273 146.068 116.862  1.00  0.00    -0.508 OA
ATOM     13  H   UNL     1     126.777 146.707 116.260  1.00  0.00     0.293 HD
ENDBRANCH   9  12
ENDBRANCH   5   6
ENDBRANCH   2   4
ENDBRANCH   1   2
BRANCH   1  14
ATOM     14  C   UNL     1     131.556 140.829 121.803  1.00  0.00     0.163 C 
ATOM     15  O   UNL     1     132.214 139.881 121.295  1.00  0.00    -0.294 OA
BRANCH  14  16
ATOM     16  C   UNL     1     132.053 142.218 121.722  1.00  0.00     0.048 C 
ATOM     17  C   UNL     1     131.388 143.249 122.262  1.00  0.00     0.012 C 
BRANCH  17  18
ATOM     18  C   UNL     1     131.848 144.657 122.180  1.00  0.00    -0.025 A 
ATOM     19  C   UNL     1     132.472 145.313 123.262  1.00  0.00     0.012 A 
ATOM     20  C   UNL     1     131.708 145.343 120.961  1.00  0.00     0.012 A 
ATOM     21  C   UNL     1     132.926 146.628 123.125  1.00  0.00     0.047 A 
ATOM     22  C   UNL     1     132.162 146.659 120.829  1.00  0.00     0.047 A 
ATOM     23  C   UNL     1     132.773 147.304 121.907  1.00  0.00     0.115 A 
BRANCH  23  24
ATOM     24  O   UNL     1     133.230 148.610 121.758  1.00  0.00    -0.508 OA
ATOM     25  H   UNL     1     133.566 149.146 122.550  1.00  0.00     0.293 HD
ENDBRANCH  23  24
ENDBRANCH  17  18
ENDBRANCH  14  16
ENDBRANCH   1  14
TORSDOF 8
ENDMDL
MODEL 2
REMARK VINA RESULT:    -5.515     17.387     18.928
REMARK INTER + INTRA:          -9.152
REMARK INTER:                  -8.231
REMARK INTRA:                  -0.920
REMARK UNBOUND:                -1.380
REMARK SMILES O=C(C=Cc1ccc(O)cc1)CC(=O)C=Cc1ccc(O)cc1
REMARK SMILES IDX 12 1 2 2 1 3 3 4 4 5 5 6 6 7 7 8 8 9 11 10 10 11 9 12 13 14
REMARK SMILES IDX 14 15 15 16 16 17 17 18 18 19 23 20 19 21 22 22 20 23 21 24
REMARK H PARENT 9 13 21 25
REMARK Flexibility Score: inf
ROOT
ATOM      1  C   UNL     1     141.602 132.761 105.682  1.00  0.00     0.160 C 
ENDROOT
BRANCH   1   2
ATOM      2  C   UNL     1     140.544 133.790 105.422  1.00  0.00     0.163 C 
ATOM      3  O   UNL     1     140.887 134.956 105.085  1.00  0.00    -0.294 OA
BRANCH   2   4
ATOM      4  C   UNL     1     139.116 133.422 105.514  1.00  0.00     0.048 C 
ATOM      5  C   UNL     1     138.209 134.219 106.095  1.00  0.00     0.012 C 
BRANCH   5   6
ATOM      6  C   UNL     1     136.763 133.899 106.187  1.00  0.00    -0.025 A 
ATOM      7  C   UNL     1     136.312 133.138 107.278  1.00  0.00     0.012 A 
ATOM      8  C   UNL     1     134.960 132.807 107.406  1.00  0.00     0.047 A 
ATOM      9  C   UNL     1     134.039 133.224 106.439  1.00  0.00     0.115 A 
ATOM     10  C   UNL     1     135.830 134.302 105.209  1.00  0.00     0.012 A 
ATOM     11  C   UNL     1     134.478 133.967 105.341  1.00  0.00     0.047 A 
BRANCH   9  12
ATOM     12  O   UNL     1     132.688 132.900 106.558  1.00  0.00    -0.508 OA
ATOM     13  H   UNL     1     132.053 133.473 107.100  1.00  0.00     0.293 HD
ENDBRANCH   9  12
ENDBRANCH   5   6
ENDBRANCH   2   4
ENDBRANCH   1   2
BRANCH   1  14
ATOM     14  C   UNL     1     142.440 133.169 106.854  1.00  0.00     0.163 C 
ATOM     15  O   UNL     1     143.498 133.827 106.659  1.00  0.00    -0.294 OA
BRANCH  14  16
ATOM     16  C   UNL     1     142.006 132.833 108.226  1.00  0.00     0.048 C 
ATOM     17  C   UNL     1     140.997 133.472 108.834  1.00  0.00     0.012 C 
BRANCH  17  18
ATOM     18  C   UNL     1     140.550 133.175 110.217  1.00  0.00    -0.025 A 
ATOM     19  C   UNL     1     139.564 133.940 110.874  1.00  0.00     0.012 A 
ATOM     20  C   UNL     1     141.089 132.055 110.875  1.00  0.00     0.012 A 
ATOM     21  C   UNL     1     139.145 133.597 112.163  1.00  0.00     0.047 A 
ATOM     22  C   UNL     1     140.668 131.717 112.165  1.00  0.00     0.047 A 
ATOM     23  C   UNL     1     139.695 132.484 112.811  1.00  0.00     0.115 A 
BRANCH  23  24
ATOM     24  O   UNL     1     139.279 132.130 114.091  1.00  0.00    -0.508 OA
ATOM     25  H   UNL     1     138.478 132.572 114.528  1.00  0.00     0.293 HD
ENDBRANCH  23  24
ENDBRANCH  17  18
ENDBRANCH  14  16
ENDBRANCH   1  14
TORSDOF 8
ENDMDL
MODEL 3
REMARK VINA RESULT:    -5.453     12.620     15.492
REMARK INTER + INTRA:          -9.064
REMARK INTER:                  -7.679
REMARK INTRA:                  -1.384
REMARK UNBOUND:                -1.380
REMARK SMILES O=C(C=Cc1ccc(O)cc1)CC(=O)C=Cc1ccc(O)cc1
REMARK SMILES IDX 12 1 2 2 1 3 3 4 4 5 5 6 6 7 7 8 8 9 11 10 10 11 9 12 13 14
REMARK SMILES IDX 14 15 15 16 16 17 17 18 18 19 23 20 19 21 22 22 20 23 21 24
REMARK H PARENT 9 13 21 25
REMARK Flexibility Score: inf
ROOT
ATOM      1  C   UNL     1     137.743 134.804 120.429  1.00  0.00     0.160 C 
ENDROOT
BRANCH   1   2
ATOM      2  C   UNL     1     137.844 135.433 119.073  1.00  0.00     0.163 C 
ATOM      3  O   UNL     1     137.939 136.687 118.980  1.00  0.00    -0.294 OA
BRANCH   2   4
ATOM      4  C   UNL     1     137.880 134.583 117.864  1.00  0.00     0.048 C 
ATOM      5  C   UNL     1     138.831 134.712 116.929  1.00  0.00     0.012 C 
BRANCH   5   6
ATOM      6  C   UNL     1     138.918 133.864 115.713  1.00  0.00    -0.025 A 
ATOM      7  C   UNL     1     140.179 133.650 115.133  1.00  0.00     0.012 A 
ATOM      8  C   UNL     1     140.311 132.863 113.985  1.00  0.00     0.047 A 
ATOM      9  C   UNL     1     139.181 132.287 113.393  1.00  0.00     0.115 A 
ATOM     10  C   UNL     1     137.783 133.293 115.101  1.00  0.00     0.012 A 
ATOM     11  C   UNL     1     137.920 132.507 113.952  1.00  0.00     0.047 A 
BRANCH   9  12
ATOM     12  O   UNL     1     139.302 131.500 112.249  1.00  0.00    -0.508 OA
ATOM     13  H   UNL     1     138.523 130.959 111.895  1.00  0.00     0.293 HD
ENDBRANCH   9  12
ENDBRANCH   5   6
ENDBRANCH   2   4
ENDBRANCH   1   2
BRANCH   1  14
ATOM     14  C   UNL     1     139.111 134.508 120.963  1.00  0.00     0.163 C 
ATOM     15  O   UNL     1     139.495 135.072 122.024  1.00  0.00    -0.294 OA
BRANCH  14  16
ATOM     16  C   UNL     1     139.982 133.536 120.271  1.00  0.00     0.048 C 
ATOM     17  C   UNL     1     141.180 133.874 119.774  1.00  0.00     0.012 C 
BRANCH  17  18
ATOM     18  C   UNL     1     142.069 132.929 119.055  1.00  0.00    -0.025 A 
ATOM     19  C   UNL     1     142.531 131.732 119.641  1.00  0.00     0.012 A 
ATOM     20  C   UNL     1     142.415 133.209 117.722  1.00  0.00     0.012 A 
ATOM     21  C   UNL     1     143.334 130.851 118.910  1.00  0.00     0.047 A 
ATOM     22  C   UNL     1     143.219 132.326 116.995  1.00  0.00     0.047 A 
ATOM     23  C   UNL     1     143.679 131.145 117.585  1.00  0.00     0.115 A 
BRANCH  23  24
ATOM     24  O   UNL     1     144.470 130.271 116.845  1.00  0.00    -0.508 OA
ATOM     25  H   UNL     1     144.717 130.469 115.882  1.00  0.00     0.293 HD
ENDBRANCH  23  24
ENDBRANCH  17  18
ENDBRANCH  14  16
ENDBRANCH   1  14
TORSDOF 8
ENDMDL
MODEL 4
REMARK VINA RESULT:    -5.403     13.003     15.727
REMARK INTER + INTRA:          -8.994
REMARK INTER:                  -7.539
REMARK INTRA:                  -1.455
REMARK UNBOUND:                -1.380
REMARK SMILES O=C(C=Cc1ccc(O)cc1)CC(=O)C=Cc1ccc(O)cc1
REMARK SMILES IDX 12 1 2 2 1 3 3 4 4 5 5 6 6 7 7 8 8 9 11 10 10 11 9 12 13 14
REMARK SMILES IDX 14 15 15 16 16 17 17 18 18 19 23 20 19 21 22 22 20 23 21 24
REMARK H PARENT 9 13 21 25
REMARK Flexibility Score: inf
ROOT
ATOM      1  C   UNL     1     137.117 134.935 117.391  1.00  0.00     0.160 C 
ENDROOT
BRANCH   1   2
ATOM      2  C   UNL     1     136.587 133.788 116.585  1.00  0.00     0.163 C 
ATOM      3  O   UNL     1     135.415 133.372 116.799  1.00  0.00    -0.294 OA
BRANCH   2   4
ATOM      4  C   UNL     1     137.417 133.188 115.519  1.00  0.00     0.048 C 
ATOM      5  C   UNL     1     138.655 133.622 115.249  1.00  0.00     0.012 C 
BRANCH   5   6
ATOM      6  C   UNL     1     139.530 133.032 114.205  1.00  0.00    -0.025 A 
ATOM      7  C   UNL     1     140.917 133.237 114.296  1.00  0.00     0.012 A 
ATOM      8  C   UNL     1     141.781 132.706 113.334  1.00  0.00     0.047 A 
ATOM      9  C   UNL     1     141.270 131.969 112.260  1.00  0.00     0.115 A 
ATOM     10  C   UNL     1     139.024 132.301 113.111  1.00  0.00     0.012 A 
ATOM     11  C   UNL     1     139.892 131.772 112.150  1.00  0.00     0.047 A 
BRANCH   9  12
ATOM     12  O   UNL     1     142.124 131.435 111.296  1.00  0.00    -0.508 OA
ATOM     13  H   UNL     1     143.101 131.256 111.496  1.00  0.00     0.293 HD
ENDBRANCH   9  12
ENDBRANCH   5   6
ENDBRANCH   2   4
ENDBRANCH   1   2
BRANCH   1  14
ATOM     14  C   UNL     1     137.415 134.487 118.789  1.00  0.00     0.163 C 
ATOM     15  O   UNL     1     136.565 134.692 119.698  1.00  0.00    -0.294 OA
BRANCH  14  16
ATOM     16  C   UNL     1     138.678 133.779 119.086  1.00  0.00     0.048 C 
ATOM     17  C   UNL     1     139.854 134.170 118.577  1.00  0.00     0.012 C 
BRANCH  17  18
ATOM     18  C   UNL     1     141.136 133.470 118.837  1.00  0.00    -0.025 A 
ATOM     19  C   UNL     1     141.413 132.831 120.063  1.00  0.00     0.012 A 
ATOM     20  C   UNL     1     142.084 133.391 117.802  1.00  0.00     0.012 A 
ATOM     21  C   UNL     1     142.618 132.147 120.248  1.00  0.00     0.047 A 
ATOM     22  C   UNL     1     143.289 132.708 117.991  1.00  0.00     0.047 A 
ATOM     23  C   UNL     1     143.559 132.083 119.212  1.00  0.00     0.115 A 
BRANCH  23  24
ATOM     24  O   UNL     1     144.758 131.398 119.383  1.00  0.00    -0.508 OA
ATOM     25  H   UNL     1     144.784 130.386 119.452  1.00  0.00     0.293 HD
ENDBRANCH  23  24
ENDBRANCH  17  18
ENDBRANCH  14  16
ENDBRANCH   1  14
TORSDOF 8
ENDMDL
MODEL 5
REMARK VINA RESULT:    -5.351      2.436      5.150
REMARK INTER + INTRA:          -8.920
REMARK INTER:                  -7.560
REMARK INTRA:                  -1.360
REMARK UNBOUND:                -1.380
REMARK SMILES O=C(C=Cc1ccc(O)cc1)CC(=O)C=Cc1ccc(O)cc1
REMARK SMILES IDX 12 1 2 2 1 3 3 4 4 5 5 6 6 7 7 8 8 9 11 10 10 11 9 12 13 14
REMARK SMILES IDX 14 15 15 16 16 17 17 18 18 19 23 20 19 21 22 22 20 23 21 24
REMARK H PARENT 9 13 21 25
REMARK Flexibility Score: inf
ROOT
ATOM      1  C   UNL     1     132.507 147.100 120.750  1.00  0.00     0.160 C 
ENDROOT
BRANCH   1   2
ATOM      2  C   UNL     1     132.255 146.225 119.560  1.00  0.00     0.163 C 
ATOM      3  O   UNL     1     133.217 145.593 119.044  1.00  0.00    -0.294 OA
BRANCH   2   4
ATOM      4  C   UNL     1     130.884 146.073 119.032  1.00  0.00     0.048 C 
ATOM      5  C   UNL     1     130.356 144.873 118.751  1.00  0.00     0.012 C 
BRANCH   5   6
ATOM      6  C   UNL     1     128.976 144.674 118.243  1.00  0.00    -0.025 A 
ATOM      7  C   UNL     1     128.421 143.385 118.295  1.00  0.00     0.012 A 
ATOM      8  C   UNL     1     127.126 143.147 117.823  1.00  0.00     0.047 A 
ATOM      9  C   UNL     1     126.371 144.193 117.282  1.00  0.00     0.115 A 
ATOM     10  C   UNL     1     128.213 145.719 117.682  1.00  0.00     0.012 A 
ATOM     11  C   UNL     1     126.918 145.476 117.211  1.00  0.00     0.047 A 
BRANCH   9  12
ATOM     12  O   UNL     1     125.079 143.966 116.810  1.00  0.00    -0.508 OA
ATOM     13  H   UNL     1     124.752 143.032 116.594  1.00  0.00     0.293 HD
ENDBRANCH   9  12
ENDBRANCH   5   6
ENDBRANCH   2   4
ENDBRANCH   1   2
BRANCH   1  14
ATOM     14  C   UNL     1     132.461 146.286 122.007  1.00  0.00     0.163 C 
ATOM     15  O   UNL     1     133.307 146.504 122.916  1.00  0.00    -0.294 OA
BRANCH  14  16
ATOM     16  C   UNL     1     131.408 145.266 122.189  1.00  0.00     0.048 C 
ATOM     17  C   UNL     1     130.267 145.524 122.844  1.00  0.00     0.012 C 
BRANCH  17  18
ATOM     18  C   UNL     1     129.199 144.518 123.063  1.00  0.00    -0.025 A 
ATOM     19  C   UNL     1     128.382 144.521 124.213  1.00  0.00     0.012 A 
ATOM     20  C   UNL     1     128.957 143.562 122.062  1.00  0.00     0.012 A 
ATOM     21  C   UNL     1     127.361 143.577 124.357  1.00  0.00     0.047 A 
ATOM     22  C   UNL     1     127.935 142.618 122.210  1.00  0.00     0.047 A 
ATOM     23  C   UNL     1     127.134 142.624 123.356  1.00  0.00     0.115 A 
BRANCH  23  24
ATOM     24  O   UNL     1     126.114 141.686 123.485  1.00  0.00    -0.508 OA
ATOM     25  H   UNL     1     125.667 141.512 124.379  1.00  0.00     0.293 HD
ENDBRANCH  23  24
ENDBRANCH  17  18
ENDBRANCH  14  16
ENDBRANCH   1  14
TORSDOF 8
ENDMDL
MODEL 6
REMARK VINA RESULT:    -5.287     12.928     16.416
REMARK INTER + INTRA:          -8.831
REMARK INTER:                  -7.441
REMARK INTRA:                  -1.390
REMARK UNBOUND:                -1.380
REMARK SMILES O=C(C=Cc1ccc(O)cc1)CC(=O)C=Cc1ccc(O)cc1
REMARK SMILES IDX 12 1 2 2 1 3 3 4 4 5 5 6 6 7 7 8 8 9 11 10 10 11 9 12 13 14
REMARK SMILES IDX 14 15 15 16 16 17 17 18 18 19 23 20 19 21 22 22 20 23 21 24
REMARK H PARENT 9 13 21 25
REMARK Flexibility Score: inf
ROOT
ATOM      1  C   UNL     1     136.952 135.067 117.170  1.00  0.00     0.160 C 
ENDROOT
BRANCH   1   2
ATOM      2  C   UNL     1     137.282 134.735 118.594  1.00  0.00     0.163 C 
ATOM      3  O   UNL     1     136.491 135.092 119.510  1.00  0.00    -0.294 OA
BRANCH   2   4
ATOM      4  C   UNL     1     138.497 133.956 118.910  1.00  0.00     0.048 C 
ATOM      5  C   UNL     1     139.695 134.261 118.392  1.00  0.00     0.012 C 
BRANCH   5   6
ATOM      6  C   UNL     1     140.944 133.521 118.701  1.00  0.00    -0.025 A 
ATOM      7  C   UNL     1     141.977 133.521 117.750  1.00  0.00     0.012 A 
ATOM      8  C   UNL     1     143.170 132.834 117.994  1.00  0.00     0.047 A 
ATOM      9  C   UNL     1     143.343 132.127 119.188  1.00  0.00     0.115 A 
ATOM     10  C   UNL     1     141.121 132.793 119.896  1.00  0.00     0.012 A 
ATOM     11  C   UNL     1     142.316 132.106 120.134  1.00  0.00     0.047 A 
BRANCH   9  12
ATOM     12  O   UNL     1     144.530 131.439 119.441  1.00  0.00    -0.508 OA
ATOM     13  H   UNL     1     144.555 130.428 119.486  1.00  0.00     0.293 HD
ENDBRANCH   9  12
ENDBRANCH   5   6
ENDBRANCH   2   4
ENDBRANCH   1   2
BRANCH   1  14
ATOM     14  C   UNL     1     136.538 133.829 116.436  1.00  0.00     0.163 C 
ATOM     15  O   UNL     1     135.420 133.303 116.691  1.00  0.00    -0.294 OA
BRANCH  14  16
ATOM     16  C   UNL     1     137.418 133.256 115.395  1.00  0.00     0.048 C 
ATOM     17  C   UNL     1     138.691 133.646 115.241  1.00  0.00     0.012 C 
BRANCH  17  18
ATOM     18  C   UNL     1     139.594 133.108 114.194  1.00  0.00    -0.025 A 
ATOM     19  C   UNL     1     140.994 133.271 114.247  1.00  0.00     0.012 A 
ATOM     20  C   UNL     1     139.038 132.360 113.142  1.00  0.00     0.012 A 
ATOM     21  C   UNL     1     141.809 132.710 113.259  1.00  0.00     0.047 A 
ATOM     22  C   UNL     1     139.856 131.803 112.155  1.00  0.00     0.047 A 
ATOM     23  C   UNL     1     141.242 131.974 112.211  1.00  0.00     0.115 A 
BRANCH  23  24
ATOM     24  O   UNL     1     142.045 131.405 111.227  1.00  0.00    -0.508 OA
ATOM     25  H   UNL     1     142.114 131.812 110.301  1.00  0.00     0.293 HD
ENDBRANCH  23  24
ENDBRANCH  17  18
ENDBRANCH  14  16
ENDBRANCH   1  14
TORSDOF 8
ENDMDL
MODEL 7
REMARK VINA RESULT:    -5.259     12.568     16.225
REMARK INTER + INTRA:          -8.791
REMARK INTER:                  -7.533
REMARK INTRA:                  -1.258
REMARK UNBOUND:                -1.380
REMARK SMILES O=C(C=Cc1ccc(O)cc1)CC(=O)C=Cc1ccc(O)cc1
REMARK SMILES IDX 12 1 2 2 1 3 3 4 4 5 5 6 6 7 7 8 8 9 11 10 10 11 9 12 13 14
REMARK SMILES IDX 14 15 15 16 16 17 17 18 18 19 23 20 19 21 22 22 20 23 21 24
REMARK H PARENT 9 13 21 25
REMARK Flexibility Score: inf
ROOT
ATOM      1  C   UNL     1     137.063 134.644 119.804  1.00  0.00     0.160 C 
ENDROOT
BRANCH   1   2
ATOM      2  C   UNL     1     138.229 134.217 120.642  1.00  0.00     0.163 C 
ATOM      3  O   UNL     1     138.241 134.496 121.872  1.00  0.00    -0.294 OA
BRANCH   2   4
ATOM      4  C   UNL     1     139.328 133.436 120.036  1.00  0.00     0.048 C 
ATOM      5  C   UNL     1     140.600 133.857 120.058  1.00  0.00     0.012 C 
BRANCH   5   6
ATOM      6  C   UNL     1     141.735 133.094 119.483  1.00  0.00    -0.025 A 
ATOM      7  C   UNL     1     142.470 132.246 120.328  1.00  0.00     0.012 A 
ATOM      8  C   UNL     1     143.551 131.510 119.834  1.00  0.00     0.047 A 
ATOM      9  C   UNL     1     143.921 131.620 118.489  1.00  0.00     0.115 A 
ATOM     10  C   UNL     1     142.125 133.210 118.132  1.00  0.00     0.012 A 
ATOM     11  C   UNL     1     143.208 132.472 117.643  1.00  0.00     0.047 A 
BRANCH   9  12
ATOM     12  O   UNL     1     144.997 130.890 117.986  1.00  0.00    -0.508 OA
ATOM     13  H   UNL     1     145.193 130.853 116.993  1.00  0.00     0.293 HD
ENDBRANCH   9  12
ENDBRANCH   5   6
ENDBRANCH   2   4
ENDBRANCH   1   2
BRANCH   1  14
ATOM     14  C   UNL     1     137.544 135.329 118.561  1.00  0.00     0.163 C 
ATOM     15  O   UNL     1     137.829 136.556 118.602  1.00  0.00    -0.294 OA
BRANCH  14  16
ATOM     16  C   UNL     1     137.718 134.557 117.313  1.00  0.00     0.048 C 
ATOM     17  C   UNL     1     138.916 134.394 116.733  1.00  0.00     0.012 C 
BRANCH  17  18
ATOM     18  C   UNL     1     139.122 133.645 115.469  1.00  0.00    -0.025 A 
ATOM     19  C   UNL     1     140.406 133.333 114.977  1.00  0.00     0.012 A 
ATOM     20  C   UNL     1     137.995 133.180 114.769  1.00  0.00     0.012 A 
ATOM     21  C   UNL     1     140.551 132.589 113.803  1.00  0.00     0.047 A 
ATOM     22  C   UNL     1     138.145 132.437 113.594  1.00  0.00     0.047 A 
ATOM     23  C   UNL     1     139.421 132.138 113.108  1.00  0.00     0.115 A 
BRANCH  23  24
ATOM     24  O   UNL     1     139.555 131.389 111.943  1.00  0.00    -0.508 OA
ATOM     25  H   UNL     1     140.446 131.309 111.466  1.00  0.00     0.293 HD
ENDBRANCH  23  24
ENDBRANCH  17  18
ENDBRANCH  14  16
ENDBRANCH   1  14
TORSDOF 8
ENDMDL
MODEL 8
REMARK VINA RESULT:    -5.219     17.038     19.516
REMARK INTER + INTRA:          -8.734
REMARK INTER:                  -8.134
REMARK INTRA:                  -0.600
REMARK UNBOUND:                -1.380
REMARK SMILES O=C(C=Cc1ccc(O)cc1)CC(=O)C=Cc1ccc(O)cc1
REMARK SMILES IDX 12 1 2 2 1 3 3 4 4 5 5 6 6 7 7 8 8 9 11 10 10 11 9 12 13 14
REMARK SMILES IDX 14 15 15 16 16 17 17 18 18 19 23 20 19 21 22 22 20 23 21 24
REMARK H PARENT 9 13 21 25
REMARK Flexibility Score: inf
ROOT
ATOM      1  C   UNL     1     141.032 134.270 106.517  1.00  0.00     0.160 C 
ENDROOT
BRANCH   1   2
ATOM      2  C   UNL     1     141.804 133.540 107.574  1.00  0.00     0.163 C 
ATOM      3  O   UNL     1     142.798 132.839 107.239  1.00  0.00    -0.294 OA
BRANCH   2   4
ATOM      4  C   UNL     1     141.428 133.684 108.996  1.00  0.00     0.048 C 
ATOM      5  C   UNL     1     141.087 132.633 109.753  1.00  0.00     0.012 C 
BRANCH   5   6
ATOM      6  C   UNL     1     140.726 132.730 111.190  1.00  0.00    -0.025 A 
ATOM      7  C   UNL     1     141.005 133.925 111.873  1.00  0.00     0.012 A 
ATOM      8  C   UNL     1     140.688 134.062 113.228  1.00  0.00     0.047 A 
ATOM      9  C   UNL     1     140.098 133.001 113.923  1.00  0.00     0.115 A 
ATOM     10  C   UNL     1     140.145 131.660 111.903  1.00  0.00     0.012 A 
ATOM     11  C   UNL     1     139.831 131.802 113.258  1.00  0.00     0.047 A 
BRANCH   9  12
ATOM     12  O   UNL     1     139.777 133.128 115.274  1.00  0.00    -0.508 OA
ATOM     13  H   UNL     1     139.030 133.736 115.585  1.00  0.00     0.293 HD
ENDBRANCH   9  12
ENDBRANCH   5   6
ENDBRANCH   2   4
ENDBRANCH   1   2
BRANCH   1  14
ATOM     14  C   UNL     1     140.377 133.292 105.590  1.00  0.00     0.163 C 
ATOM     15  O   UNL     1     141.093 132.507 104.912  1.00  0.00    -0.294 OA
BRANCH  14  16
ATOM     16  C   UNL     1     138.902 133.228 105.506  1.00  0.00     0.048 C 
ATOM     17  C   UNL     1     138.109 133.648 106.501  1.00  0.00     0.012 C 
BRANCH  17  18
ATOM     18  C   UNL     1     136.628 133.578 106.458  1.00  0.00    -0.025 A 
ATOM     19  C   UNL     1     135.874 134.164 105.420  1.00  0.00     0.012 A 
ATOM     20  C   UNL     1     135.957 132.851 107.457  1.00  0.00     0.012 A 
ATOM     21  C   UNL     1     134.482 134.036 105.399  1.00  0.00     0.047 A 
ATOM     22  C   UNL     1     134.565 132.727 107.432  1.00  0.00     0.047 A 
ATOM     23  C   UNL     1     133.824 133.317 106.404  1.00  0.00     0.115 A 
BRANCH  23  24
ATOM     24  O   UNL     1     132.439 133.176 106.388  1.00  0.00    -0.508 OA
ATOM     25  H   UNL     1     131.989 132.342 106.747  1.00  0.00     0.293 HD
ENDBRANCH  23  24
ENDBRANCH  17  18
ENDBRANCH  14  16
ENDBRANCH   1  14
TORSDOF 8
ENDMDL
MODEL 9
REMARK VINA RESULT:    -5.132      2.503      6.695
REMARK INTER + INTRA:          -8.612
REMARK INTER:                  -7.265
REMARK INTRA:                  -1.347
REMARK UNBOUND:                -1.380
REMARK SMILES O=C(C=Cc1ccc(O)cc1)CC(=O)C=Cc1ccc(O)cc1
REMARK SMILES IDX 12 1 2 2 1 3 3 4 4 5 5 6 6 7 7 8 8 9 11 10 10 11 9 12 13 14
REMARK SMILES IDX 14 15 15 16 16 17 17 18 18 19 23 20 19 21 22 22 20 23 21 24
REMARK H PARENT 9 13 21 25
REMARK Flexibility Score: inf
ROOT
ATOM      1  C   UNL     1     132.376 147.361 119.978  1.00  0.00     0.160 C 
ENDROOT
BRANCH   1   2
ATOM      2  C   UNL     1     132.390 146.812 121.373  1.00  0.00     0.163 C 
ATOM      3  O   UNL     1     133.446 146.895 122.058  1.00  0.00    -0.294 OA
BRANCH   2   4
ATOM      4  C   UNL     1     131.162 146.226 121.949  1.00  0.00     0.048 C 
ATOM      5  C   UNL     1     130.999 144.903 122.087  1.00  0.00     0.012 C 
BRANCH   5   6
ATOM      6  C   UNL     1     129.794 144.275 122.682  1.00  0.00    -0.025 A 
ATOM      7  C   UNL     1     129.292 144.792 123.887  1.00  0.00     0.012 A 
ATOM      8  C   UNL     1     128.162 144.231 124.489  1.00  0.00     0.047 A 
ATOM      9  C   UNL     1     127.523 143.135 123.899  1.00  0.00     0.115 A 
ATOM     10  C   UNL     1     129.152 143.160 122.103  1.00  0.00     0.012 A 
ATOM     11  C   UNL     1     128.022 142.601 122.709  1.00  0.00     0.047 A 
BRANCH   9  12
ATOM     12  O   UNL     1     126.394 142.568 124.490  1.00  0.00    -0.508 OA
ATOM     13  H   UNL     1     126.467 141.769 125.109  1.00  0.00     0.293 HD
ENDBRANCH   9  12
ENDBRANCH   5   6
ENDBRANCH   2   4
ENDBRANCH   1   2
BRANCH   1  14
ATOM     14  C   UNL     1     132.154 146.255 118.992  1.00  0.00     0.163 C 
ATOM     15  O   UNL     1     133.123 145.518 118.660  1.00  0.00    -0.294 OA
BRANCH  14  16
ATOM     16  C   UNL     1     130.802 146.010 118.447  1.00  0.00     0.048 C 
ATOM     17  C   UNL     1     130.127 144.878 118.688  1.00  0.00     0.012 C 
BRANCH  17  18
ATOM     18  C   UNL     1     128.779 144.592 118.139  1.00  0.00    -0.025 A 
ATOM     19  C   UNL     1     128.174 143.322 118.244  1.00  0.00     0.012 A 
ATOM     20  C   UNL     1     128.056 145.641 117.543  1.00  0.00     0.012 A 
ATOM     21  C   UNL     1     126.884 143.111 117.748  1.00  0.00     0.047 A 
ATOM     22  C   UNL     1     126.767 145.424 117.047  1.00  0.00     0.047 A 
ATOM     23  C   UNL     1     126.177 144.161 117.149  1.00  0.00     0.115 A 
BRANCH  23  24
ATOM     24  O   UNL     1     124.889 143.963 116.659  1.00  0.00    -0.508 OA
ATOM     25  H   UNL     1     124.722 143.426 115.815  1.00  0.00     0.293 HD
ENDBRANCH  23  24
ENDBRANCH  17  18
ENDBRANCH  14  16
ENDBRANCH   1  14
TORSDOF 8
ENDMDL
