MODEL 1
REMARK VINA RESULT:    -3.550      0.000      0.000
REMARK INTER + INTRA:          -6.360
REMARK INTER:                  -6.040
REMARK INTRA:                  -0.320
REMARK UNBOUND:                -0.320
REMARK SMILES CCCCCCCCCCCCCC(=O)[O-]
REMARK SMILES IDX 8 1 9 2 10 3 11 4 12 5 13 6 14 7 15 8 16 9 7 10 6 11 5 12
REMARK SMILES IDX 4 13 3 14 2 15 1 16
REMARK H PARENT
REMARK Flexibility Score: inf
ROOT
ATOM      1  C   UNL     1      -2.489  -2.528   9.386  1.00  0.00     0.000 C 
ENDROOT
BRANCH   1   2
ATOM      2  C   UNL     1      -3.768  -3.116  10.015  1.00  0.00     0.000 C 
BRANCH   2   3
ATOM      3  C   UNL     1      -3.910  -4.644   9.897  1.00  0.00     0.000 C 
BRANCH   3   4
ATOM      4  C   UNL     1      -5.173  -5.068   9.128  1.00  0.00     0.000 C 
BRANCH   4   5
ATOM      5  C   UNL     1      -5.275  -6.592   8.956  1.00  0.00     0.006 C 
BRANCH   5   6
ATOM      6  C   UNL     1      -6.451  -7.198   9.735  1.00  0.00     0.053 C 
BRANCH   6   7
ATOM      7  C   UNL     1      -7.725  -7.026   8.971  1.00  0.00     0.041 C 
ATOM      8  O   UNL     1      -8.662  -6.332   9.448  1.00  0.00    -0.550 OA
ATOM      9  O   UNL     1      -7.900  -7.671   7.753  1.00  0.00    -0.550 OA
ENDBRANCH   6   7
ENDBRANCH   5   6
ENDBRANCH   4   5
ENDBRANCH   3   4
ENDBRANCH   2   3
ENDBRANCH   1   2
BRANCH   1  10
ATOM     10  C   UNL     1      -1.939  -1.264  10.076  1.00  0.00     0.000 C 
BRANCH  10  11
ATOM     11  C   UNL     1      -0.465  -0.945   9.765  1.00  0.00    -0.000 C 
BRANCH  11  12
ATOM     12  C   UNL     1      -0.078   0.497  10.125  1.00  0.00    -0.000 C 
BRANCH  12  13
ATOM     13  C   UNL     1       1.388   0.777   9.764  1.00  0.00    -0.000 C 
BRANCH  13  14
ATOM     14  C   UNL     1       1.762   2.260   9.910  1.00  0.00    -0.000 C 
BRANCH  14  15
ATOM     15  C   UNL     1       3.268   2.472  10.125  1.00  0.00    -0.003 C 
ATOM     16  C   UNL     1       4.036   1.165   9.946  1.00  0.00     0.004 C 
ENDBRANCH  14  15
ENDBRANCH  13  14
ENDBRANCH  12  13
ENDBRANCH  11  12
ENDBRANCH  10  11
ENDBRANCH   1  10
TORSDOF 12
ENDMDL
MODEL 2
REMARK VINA RESULT:    -3.478      4.764     10.143
REMARK INTER + INTRA:          -6.238
REMARK INTER:                  -5.716
REMARK INTRA:                  -0.522
REMARK UNBOUND:                -0.320
REMARK SMILES CCCCCCCCCCCCCC(=O)[O-]
REMARK SMILES IDX 8 1 9 2 10 3 11 4 12 5 13 6 14 7 15 8 16 9 7 10 6 11 5 12
REMARK SMILES IDX 4 13 3 14 2 15 1 16
REMARK H PARENT
REMARK Flexibility Score: inf
ROOT
ATOM      1  C   UNL     1      -3.522  -3.754   9.816  1.00  0.00     0.000 C 
ENDROOT
BRANCH   1   2
ATOM      2  C   UNL     1      -3.663  -2.248   9.515  1.00  0.00     0.000 C 
BRANCH   2   3
ATOM      3  C   UNL     1      -2.530  -1.363  10.065  1.00  0.00     0.000 C 
BRANCH   3   4
ATOM      4  C   UNL     1      -1.194  -1.584   9.335  1.00  0.00     0.000 C 
BRANCH   4   5
ATOM      5  C   UNL     1      -0.000  -0.988  10.099  1.00  0.00     0.006 C 
BRANCH   5   6
ATOM      6  C   UNL     1       0.005   0.546  10.087  1.00  0.00     0.053 C 
BRANCH   6   7
ATOM      7  C   UNL     1       1.408   1.062  10.026  1.00  0.00     0.041 C 
ATOM      8  O   UNL     1       2.380   0.263  10.076  1.00  0.00    -0.550 OA
ATOM      9  O   UNL     1       1.644   2.429   9.963  1.00  0.00    -0.550 OA
ENDBRANCH   6   7
ENDBRANCH   5   6
ENDBRANCH   4   5
ENDBRANCH   3   4
ENDBRANCH   2   3
ENDBRANCH   1   2
BRANCH   1  10
ATOM     10  C   UNL     1      -4.851  -4.522   9.962  1.00  0.00     0.000 C 
BRANCH  10  11
ATOM     11  C   UNL     1      -5.011  -5.724   9.014  1.00  0.00    -0.000 C 
BRANCH  11  12
ATOM     12  C   UNL     1      -4.539  -7.044   9.640  1.00  0.00    -0.000 C 
BRANCH  12  13
ATOM     13  C   UNL     1      -5.361  -8.228   9.109  1.00  0.00    -0.000 C 
BRANCH  13  14
ATOM     14  C   UNL     1      -6.734  -8.348   9.788  1.00  0.00    -0.000 C 
BRANCH  14  15
ATOM     15  C   UNL     1      -7.868  -8.610   8.786  1.00  0.00    -0.003 C 
ATOM     16  C   UNL     1      -8.103  -7.393   7.895  1.00  0.00     0.004 C 
ENDBRANCH  14  15
ENDBRANCH  13  14
ENDBRANCH  12  13
ENDBRANCH  11  12
ENDBRANCH  10  11
ENDBRANCH   1  10
TORSDOF 12
ENDMDL
MODEL 3
REMARK VINA RESULT:    -3.271      7.972     12.575
REMARK INTER + INTRA:          -5.886
REMARK INTER:                  -5.409
REMARK INTRA:                  -0.476
REMARK UNBOUND:                -0.320
REMARK SMILES CCCCCCCCCCCCCC(=O)[O-]
REMARK SMILES IDX 8 1 9 2 10 3 11 4 12 5 13 6 14 7 15 8 16 9 7 10 6 11 5 12
REMARK SMILES IDX 4 13 3 14 2 15 1 16
REMARK H PARENT
REMARK Flexibility Score: inf
ROOT
ATOM      1  C   UNL     1       1.783   1.784   9.372  1.00  0.00     0.000 C 
ENDROOT
BRANCH   1   2
ATOM      2  C   UNL     1       2.621   2.895  10.036  1.00  0.00     0.000 C 
BRANCH   2   3
ATOM      3  C   UNL     1       4.042   3.068   9.472  1.00  0.00     0.000 C 
BRANCH   3   4
ATOM      4  C   UNL     1       4.794   4.254  10.101  1.00  0.00     0.000 C 
BRANCH   4   5
ATOM      5  C   UNL     1       5.208   5.307   9.060  1.00  0.00     0.006 C 
BRANCH   5   6
ATOM      6  C   UNL     1       6.718   5.307   8.787  1.00  0.00     0.053 C 
BRANCH   6   7
ATOM      7  C   UNL     1       7.180   6.681   8.417  1.00  0.00     0.041 C 
ATOM      8  O   UNL     1       7.550   6.930   7.239  1.00  0.00    -0.550 OA
ATOM      9  O   UNL     1       7.249   7.676   9.384  1.00  0.00    -0.550 OA
ENDBRANCH   6   7
ENDBRANCH   5   6
ENDBRANCH   4   5
ENDBRANCH   3   4
ENDBRANCH   2   3
ENDBRANCH   1   2
BRANCH   1  10
ATOM     10  C   UNL     1       1.908   0.391  10.020  1.00  0.00     0.000 C 
BRANCH  10  11
ATOM     11  C   UNL     1       0.590  -0.400  10.113  1.00  0.00    -0.000 C 
BRANCH  11  12
ATOM     12  C   UNL     1      -0.652   0.491   9.965  1.00  0.00    -0.000 C 
BRANCH  12  13
ATOM     13  C   UNL     1      -1.938  -0.342  10.066  1.00  0.00    -0.000 C 
BRANCH  13  14
ATOM     14  C   UNL     1      -1.670  -1.855  10.029  1.00  0.00    -0.000 C 
BRANCH  14  15
ATOM     15  C   UNL     1      -2.962  -2.685  10.051  1.00  0.00    -0.003 C 
ATOM     16  C   UNL     1      -4.194  -1.783  10.043  1.00  0.00     0.004 C 
ENDBRANCH  14  15
ENDBRANCH  13  14
ENDBRANCH  12  13
ENDBRANCH  11  12
ENDBRANCH  10  11
ENDBRANCH   1  10
TORSDOF 12
ENDMDL
MODEL 4
REMARK VINA RESULT:    -3.069     21.174     21.976
REMARK INTER + INTRA:          -5.542
REMARK INTER:                  -5.107
REMARK INTRA:                  -0.435
REMARK UNBOUND:                -0.320
REMARK SMILES CCCCCCCCCCCCCC(=O)[O-]
REMARK SMILES IDX 8 1 9 2 10 3 11 4 12 5 13 6 14 7 15 8 16 9 7 10 6 11 5 12
REMARK SMILES IDX 4 13 3 14 2 15 1 16
REMARK H PARENT
REMARK Flexibility Score: inf
ROOT
ATOM      1  C   UNL     1      -5.908   4.379  -9.043  1.00  0.00     0.000 C 
ENDROOT
BRANCH   1   2
ATOM      2  C   UNL     1      -7.321   4.475  -9.654  1.00  0.00     0.000 C 
BRANCH   2   3
ATOM      3  C   UNL     1      -7.815   5.906  -9.934  1.00  0.00     0.000 C 
BRANCH   3   4
ATOM      4  C   UNL     1      -8.338   6.614  -8.673  1.00  0.00     0.000 C 
BRANCH   4   5
ATOM      5  C   UNL     1      -7.509   7.856  -8.308  1.00  0.00     0.006 C 
BRANCH   5   6
ATOM      6  C   UNL     1      -7.136   8.701  -9.534  1.00  0.00     0.053 C 
BRANCH   6   7
ATOM      7  C   UNL     1      -5.664   8.964  -9.556  1.00  0.00     0.041 C 
ATOM      8  O   UNL     1      -5.217  10.093  -9.223  1.00  0.00    -0.550 OA
ATOM      9  O   UNL     1      -4.787   7.979  -9.991  1.00  0.00    -0.550 OA
ENDBRANCH   6   7
ENDBRANCH   5   6
ENDBRANCH   4   5
ENDBRANCH   3   4
ENDBRANCH   2   3
ENDBRANCH   1   2
BRANCH   1  10
ATOM     10  C   UNL     1      -4.781   4.997  -9.895  1.00  0.00     0.000 C 
BRANCH  10  11
ATOM     11  C   UNL     1      -3.390   4.373  -9.681  1.00  0.00    -0.000 C 
BRANCH  11  12
ATOM     12  C   UNL     1      -3.325   2.901 -10.113  1.00  0.00    -0.000 C 
BRANCH  12  13
ATOM     13  C   UNL     1      -1.874   2.397 -10.125  1.00  0.00    -0.000 C 
BRANCH  13  14
ATOM     14  C   UNL     1      -1.776   0.867 -10.017  1.00  0.00    -0.000 C 
BRANCH  14  15
ATOM     15  C   UNL     1      -0.331   0.359 -10.114  1.00  0.00    -0.003 C 
ATOM     16  C   UNL     1      -0.253  -1.135  -9.809  1.00  0.00     0.004 C 
ENDBRANCH  14  15
ENDBRANCH  13  14
ENDBRANCH  12  13
ENDBRANCH  11  12
ENDBRANCH  10  11
ENDBRANCH   1  10
TORSDOF 12
ENDMDL
MODEL 5
REMARK VINA RESULT:    -2.871     20.800     21.466
REMARK INTER + INTRA:          -5.205
REMARK INTER:                  -4.785
REMARK INTRA:                  -0.420
REMARK UNBOUND:                -0.320
REMARK SMILES CCCCCCCCCCCCCC(=O)[O-]
REMARK SMILES IDX 8 1 9 2 10 3 11 4 12 5 13 6 14 7 15 8 16 9 7 10 6 11 5 12
REMARK SMILES IDX 4 13 3 14 2 15 1 16
REMARK H PARENT
REMARK Flexibility Score: inf
ROOT
ATOM      1  C   UNL     1      -4.740   3.630  -9.141  1.00  0.00     0.000 C 
ENDROOT
BRANCH   1   2
ATOM      2  C   UNL     1      -4.564   5.113  -9.525  1.00  0.00     0.000 C 
BRANCH   2   3
ATOM      3  C   UNL     1      -5.311   6.114  -8.624  1.00  0.00     0.000 C 
BRANCH   3   4
ATOM      4  C   UNL     1      -6.674   5.585  -8.148  1.00  0.00     0.000 C 
BRANCH   4   5
ATOM      5  C   UNL     1      -7.852   6.244  -8.884  1.00  0.00     0.006 C 
BRANCH   5   6
ATOM      6  C   UNL     1      -7.591   7.720  -9.216  1.00  0.00     0.053 C 
BRANCH   6   7
ATOM      7  C   UNL     1      -8.881   8.477  -9.266  1.00  0.00     0.041 C 
ATOM      8  O   UNL     1      -9.973   7.884  -9.065  1.00  0.00    -0.550 OA
ATOM      9  O   UNL     1      -8.881   9.830  -9.583  1.00  0.00    -0.550 OA
ENDBRANCH   6   7
ENDBRANCH   5   6
ENDBRANCH   4   5
ENDBRANCH   3   4
ENDBRANCH   2   3
ENDBRANCH   1   2
BRANCH   1  10
ATOM     10  C   UNL     1      -4.113   2.619 -10.122  1.00  0.00     0.000 C 
BRANCH  10  11
ATOM     11  C   UNL     1      -2.576   2.557 -10.095  1.00  0.00    -0.000 C 
BRANCH  11  12
ATOM     12  C   UNL     1      -2.042   1.174  -9.693  1.00  0.00    -0.000 C 
BRANCH  12  13
ATOM     13  C   UNL     1      -0.578   1.005 -10.124  1.00  0.00    -0.000 C 
BRANCH  13  14
ATOM     14  C   UNL     1       0.019  -0.340  -9.682  1.00  0.00    -0.000 C 
BRANCH  14  15
ATOM     15  C   UNL     1       1.501  -0.482 -10.061  1.00  0.00    -0.003 C 
ATOM     16  C   UNL     1       1.946  -1.941  -9.995  1.00  0.00     0.004 C 
ENDBRANCH  14  15
ENDBRANCH  13  14
ENDBRANCH  12  13
ENDBRANCH  11  12
ENDBRANCH  10  11
ENDBRANCH   1  10
TORSDOF 12
ENDMDL
MODEL 6
REMARK VINA RESULT:    -2.860      8.900     13.523
REMARK INTER + INTRA:          -5.187
REMARK INTER:                  -4.613
REMARK INTRA:                  -0.575
REMARK UNBOUND:                -0.320
REMARK SMILES CCCCCCCCCCCCCC(=O)[O-]
REMARK SMILES IDX 8 1 9 2 10 3 11 4 12 5 13 6 14 7 15 8 16 9 7 10 6 11 5 12
REMARK SMILES IDX 4 13 3 14 2 15 1 16
REMARK H PARENT
REMARK Flexibility Score: inf
ROOT
ATOM      1  C   UNL     1       4.215   3.180   9.079  1.00  0.00     0.000 C 
ENDROOT
BRANCH   1   2
ATOM      2  C   UNL     1       4.468   4.425   9.954  1.00  0.00     0.000 C 
BRANCH   2   3
ATOM      3  C   UNL     1       4.121   5.770   9.291  1.00  0.00     0.000 C 
BRANCH   3   4
ATOM      4  C   UNL     1       4.637   6.979  10.090  1.00  0.00     0.000 C 
BRANCH   4   5
ATOM      5  C   UNL     1       6.168   7.113  10.032  1.00  0.00     0.006 C 
BRANCH   5   6
ATOM      6  C   UNL     1       6.743   6.746   8.657  1.00  0.00     0.053 C 
BRANCH   6   7
ATOM      7  C   UNL     1       7.633   7.839   8.156  1.00  0.00     0.041 C 
ATOM      8  O   UNL     1       8.341   7.661   7.131  1.00  0.00    -0.550 OA
ATOM      9  O   UNL     1       7.718   9.040   8.850  1.00  0.00    -0.550 OA
ENDBRANCH   6   7
ENDBRANCH   5   6
ENDBRANCH   4   5
ENDBRANCH   3   4
ENDBRANCH   2   3
ENDBRANCH   1   2
BRANCH   1  10
ATOM     10  C   UNL     1       4.490   1.827   9.766  1.00  0.00     0.000 C 
BRANCH  10  11
ATOM     11  C   UNL     1       3.232   1.016  10.124  1.00  0.00    -0.000 C 
BRANCH  11  12
ATOM     12  C   UNL     1       1.929   1.745   9.766  1.00  0.00    -0.000 C 
BRANCH  12  13
ATOM     13  C   UNL     1       0.707   0.864  10.065  1.00  0.00    -0.000 C 
BRANCH  13  14
ATOM     14  C   UNL     1       0.982  -0.630   9.830  1.00  0.00    -0.000 C 
BRANCH  14  15
ATOM     15  C   UNL     1      -0.296  -1.480   9.876  1.00  0.00    -0.003 C 
ATOM     16  C   UNL     1      -1.525  -0.609  10.125  1.00  0.00     0.004 C 
ENDBRANCH  14  15
ENDBRANCH  13  14
ENDBRANCH  12  13
ENDBRANCH  11  12
ENDBRANCH  10  11
ENDBRANCH   1  10
TORSDOF 12
ENDMDL
MODEL 7
REMARK VINA RESULT:    -2.707     21.169     21.796
REMARK INTER + INTRA:          -4.927
REMARK INTER:                  -4.288
REMARK INTRA:                  -0.639
REMARK UNBOUND:                -0.320
REMARK SMILES CCCCCCCCCCCCCC(=O)[O-]
REMARK SMILES IDX 8 1 9 2 10 3 11 4 12 5 13 6 14 7 15 8 16 9 7 10 6 11 5 12
REMARK SMILES IDX 4 13 3 14 2 15 1 16
REMARK H PARENT
REMARK Flexibility Score: inf
ROOT
ATOM      1  C   UNL     1      -7.586   6.004  -7.521  1.00  0.00     0.000 C 
ENDROOT
BRANCH   1   2
ATOM      2  C   UNL     1      -6.839   5.525  -8.782  1.00  0.00     0.000 C 
BRANCH   2   3
ATOM      3  C   UNL     1      -7.593   4.487  -9.633  1.00  0.00     0.000 C 
BRANCH   3   4
ATOM      4  C   UNL     1      -6.686   3.345 -10.123  1.00  0.00     0.000 C 
BRANCH   4   5
ATOM      5  C   UNL     1      -5.195   3.638  -9.894  1.00  0.00     0.006 C 
BRANCH   5   6
ATOM      6  C   UNL     1      -4.317   2.388 -10.038  1.00  0.00     0.053 C 
BRANCH   6   7
ATOM      7  C   UNL     1      -2.874   2.742  -9.864  1.00  0.00     0.041 C 
ATOM      8  O   UNL     1      -2.474   3.910 -10.109  1.00  0.00    -0.550 OA
ATOM      9  O   UNL     1      -1.960   1.769  -9.478  1.00  0.00    -0.550 OA
ENDBRANCH   6   7
ENDBRANCH   5   6
ENDBRANCH   4   5
ENDBRANCH   3   4
ENDBRANCH   2   3
ENDBRANCH   1   2
BRANCH   1  10
ATOM     10  C   UNL     1      -7.849   7.522  -7.451  1.00  0.00     0.000 C 
BRANCH  10  11
ATOM     11  C   UNL     1      -8.726   8.081  -8.585  1.00  0.00    -0.000 C 
BRANCH  11  12
ATOM     12  C   UNL     1      -7.926   8.393  -9.858  1.00  0.00    -0.000 C 
BRANCH  12  13
ATOM     13  C   UNL     1      -7.338   9.811  -9.802  1.00  0.00    -0.000 C 
BRANCH  13  14
ATOM     14  C   UNL     1      -5.952   9.853  -9.139  1.00  0.00    -0.000 C 
BRANCH  14  15
ATOM     15  C   UNL     1      -4.826   9.434 -10.096  1.00  0.00    -0.003 C 
ATOM     16  C   UNL     1      -4.534   7.941  -9.979  1.00  0.00     0.004 C 
ENDBRANCH  14  15
ENDBRANCH  13  14
ENDBRANCH  12  13
ENDBRANCH  11  12
ENDBRANCH  10  11
ENDBRANCH   1  10
TORSDOF 12
ENDMDL
