MODEL 1
REMARK VINA RESULT:    -2.361      0.000      0.000
REMARK INTER + INTRA:          -6.783
REMARK INTER:                  -5.949
REMARK INTRA:                  -0.834
REMARK UNBOUND:                -0.834
REMARK SMILES CCCCCCCCCCCCCCCCCCCCCCCCCCCC(=O)[O-]
REMARK SMILES IDX 15 1 16 2 17 3 18 4 19 5 20 6 21 7 22 8 23 9 24 10 25 11
REMARK SMILES IDX 26 12 27 13 28 14 29 15 30 16 14 17 13 18 12 19 11 20 10 21
REMARK SMILES IDX 9 22 8 23 7 24 6 25 5 26 4 27 3 28 2 29 1 30
REMARK H PARENT
REMARK Flexibility Score: inf
ROOT
ATOM      1  C   UNL     1      19.704   8.264 -15.804  1.00  0.00     0.000 C 
ENDROOT
BRANCH   1   2
ATOM      2  C   UNL     1      20.916   8.844 -15.053  1.00  0.00     0.000 C 
BRANCH   2   3
ATOM      3  C   UNL     1      22.252   8.504 -15.749  1.00  0.00     0.000 C 
BRANCH   3   4
ATOM      4  C   UNL     1      23.121   9.735 -16.062  1.00  0.00     0.000 C 
BRANCH   4   5
ATOM      5  C   UNL     1      22.308  11.037 -16.125  1.00  0.00     0.000 C 
BRANCH   5   6
ATOM      6  C   UNL     1      22.896  12.162 -15.254  1.00  0.00     0.000 C 
BRANCH   6   7
ATOM      7  C   UNL     1      22.772  11.961 -13.732  1.00  0.00     0.000 C 
BRANCH   7   8
ATOM      8  C   UNL     1      23.027  13.248 -12.929  1.00  0.00     0.000 C 
BRANCH   8   9
ATOM      9  C   UNL     1      22.574  14.516 -13.674  1.00  0.00     0.000 C 
BRANCH   9  10
ATOM     10  C   UNL     1      22.162  14.305 -15.145  1.00  0.00     0.000 C 
BRANCH  10  11
ATOM     11  C   UNL     1      22.102  15.584 -16.000  1.00  0.00     0.000 C 
BRANCH  11  12
ATOM     12  C   UNL     1      20.734  16.285 -15.931  1.00  0.00     0.006 C 
BRANCH  12  13
ATOM     13  C   UNL     1      20.865  17.813 -15.908  1.00  0.00     0.053 C 
BRANCH  13  14
ATOM     14  C   UNL     1      22.133  18.254 -15.243  1.00  0.00     0.041 C 
ATOM     15  O   UNL     1      22.316  18.037 -14.017  1.00  0.00    -0.550 OA
ATOM     16  O   UNL     1      23.124  18.882 -15.986  1.00  0.00    -0.550 OA
ENDBRANCH  13  14
ENDBRANCH  12  13
ENDBRANCH  11  12
ENDBRANCH  10  11
ENDBRANCH   9  10
ENDBRANCH   8   9
ENDBRANCH   7   8
ENDBRANCH   6   7
ENDBRANCH   5   6
ENDBRANCH   4   5
ENDBRANCH   3   4
ENDBRANCH   2   3
ENDBRANCH   1   2
BRANCH   1  17
ATOM     17  C   UNL     1      18.506   9.226 -15.836  1.00  0.00     0.000 C 
BRANCH  17  18
ATOM     18  C   UNL     1      17.701   9.221 -14.525  1.00  0.00     0.000 C 
BRANCH  18  19
ATOM     19  C   UNL     1      16.456   8.323 -14.613  1.00  0.00     0.000 C 
BRANCH  19  20
ATOM     20  C   UNL     1      15.668   8.543 -15.913  1.00  0.00     0.000 C 
BRANCH  20  21
ATOM     21  C   UNL     1      15.328  10.025 -16.104  1.00  0.00     0.000 C 
BRANCH  21  22
ATOM     22  C   UNL     1      14.058  10.411 -15.329  1.00  0.00    -0.000 C 
BRANCH  22  23
ATOM     23  C   UNL     1      14.366  11.016 -13.951  1.00  0.00    -0.000 C 
BRANCH  23  24
ATOM     24  C   UNL     1      15.725  11.739 -13.903  1.00  0.00    -0.000 C 
BRANCH  24  25
ATOM     25  C   UNL     1      15.640  13.166 -14.485  1.00  0.00    -0.000 C 
BRANCH  25  26
ATOM     26  C   UNL     1      16.105  13.268 -15.949  1.00  0.00    -0.000 C 
BRANCH  26  27
ATOM     27  C   UNL     1      17.448  14.001 -16.104  1.00  0.00    -0.000 C 
BRANCH  27  28
ATOM     28  C   UNL     1      18.662  13.067 -15.957  1.00  0.00    -0.000 C 
BRANCH  28  29
ATOM     29  C   UNL     1      19.384  13.146 -14.601  1.00  0.00    -0.003 C 
ATOM     30  C   UNL     1      19.146  11.919 -13.721  1.00  0.00     0.004 C 
ENDBRANCH  28  29
ENDBRANCH  27  28
ENDBRANCH  26  27
ENDBRANCH  25  26
ENDBRANCH  24  25
ENDBRANCH  23  24
ENDBRANCH  22  23
ENDBRANCH  21  22
ENDBRANCH  20  21
ENDBRANCH  19  20
ENDBRANCH  18  19
ENDBRANCH  17  18
ENDBRANCH   1  17
TORSDOF 26
ENDMDL
MODEL 2
REMARK VINA RESULT:    -0.131      2.347      7.588
REMARK INTER + INTRA:          -1.165
REMARK INTER:                  -1.831
REMARK INTRA:                   0.667
REMARK UNBOUND:                -0.834
REMARK SMILES CCCCCCCCCCCCCCCCCCCCCCCCCCCC(=O)[O-]
REMARK SMILES IDX 15 1 16 2 17 3 18 4 19 5 20 6 21 7 22 8 23 9 24 10 25 11
REMARK SMILES IDX 26 12 27 13 28 14 29 15 30 16 14 17 13 18 12 19 11 20 10 21
REMARK SMILES IDX 9 22 8 23 7 24 6 25 5 26 4 27 3 28 2 29 1 30
REMARK H PARENT
REMARK Flexibility Score: inf
ROOT
ATOM      1  C   UNL     1      18.406  11.958 -14.404  1.00  0.00     0.000 C 
ENDROOT
BRANCH   1   2
ATOM      2  C   UNL     1      17.883  11.691 -12.981  1.00  0.00     0.000 C 
BRANCH   2   3
ATOM      3  C   UNL     1      18.321  10.309 -12.448  1.00  0.00     0.000 C 
BRANCH   3   4
ATOM      4  C   UNL     1      17.467   9.141 -12.972  1.00  0.00     0.000 C 
BRANCH   4   5
ATOM      5  C   UNL     1      17.683   8.871 -14.468  1.00  0.00     0.000 C 
BRANCH   5   6
ATOM      6  C   UNL     1      16.379   8.544 -15.220  1.00  0.00     0.000 C 
BRANCH   6   7
ATOM      7  C   UNL     1      15.139   8.317 -14.336  1.00  0.00     0.000 C 
BRANCH   7   8
ATOM      8  C   UNL     1      13.893   7.900 -15.135  1.00  0.00     0.000 C 
BRANCH   8   9
ATOM      9  C   UNL     1      13.430   8.985 -16.125  1.00  0.00     0.000 C 
BRANCH   9  10
ATOM     10  C   UNL     1      13.361  10.414 -15.551  1.00  0.00     0.000 C 
BRANCH  10  11
ATOM     11  C   UNL     1      14.205  10.654 -14.286  1.00  0.00     0.000 C 
BRANCH  11  12
ATOM     12  C   UNL     1      14.870  12.041 -14.267  1.00  0.00     0.006 C 
BRANCH  12  13
ATOM     13  C   UNL     1      15.579  12.363 -15.589  1.00  0.00     0.053 C 
BRANCH  13  14
ATOM     14  C   UNL     1      15.973  13.806 -15.673  1.00  0.00     0.041 C 
ATOM     15  O   UNL     1      15.169  14.706 -15.316  1.00  0.00    -0.550 OA
ATOM     16  O   UNL     1      17.240  14.155 -16.123  1.00  0.00    -0.550 OA
ENDBRANCH  13  14
ENDBRANCH  12  13
ENDBRANCH  11  12
ENDBRANCH  10  11
ENDBRANCH   9  10
ENDBRANCH   8   9
ENDBRANCH   7   8
ENDBRANCH   6   7
ENDBRANCH   5   6
ENDBRANCH   4   5
ENDBRANCH   3   4
ENDBRANCH   2   3
ENDBRANCH   1   2
BRANCH   1  17
ATOM     17  C   UNL     1      19.899  11.630 -14.562  1.00  0.00     0.000 C 
BRANCH  17  18
ATOM     18  C   UNL     1      20.471  12.087 -15.916  1.00  0.00     0.000 C 
BRANCH  18  19
ATOM     19  C   UNL     1      22.007  12.128 -15.911  1.00  0.00     0.000 C 
BRANCH  19  20
ATOM     20  C   UNL     1      22.598  11.730 -14.549  1.00  0.00     0.000 C 
BRANCH  20  21
ATOM     21  C   UNL     1      23.106  12.963 -13.792  1.00  0.00     0.000 C 
BRANCH  21  22
ATOM     22  C   UNL     1      22.054  14.083 -13.781  1.00  0.00    -0.000 C 
BRANCH  22  23
ATOM     23  C   UNL     1      22.681  15.484 -13.710  1.00  0.00    -0.000 C 
BRANCH  23  24
ATOM     24  C   UNL     1      22.849  16.138 -15.093  1.00  0.00    -0.000 C 
BRANCH  24  25
ATOM     25  C   UNL     1      21.677  15.799 -16.038  1.00  0.00    -0.000 C 
BRANCH  25  26
ATOM     26  C   UNL     1      20.500  16.789 -15.947  1.00  0.00    -0.000 C 
BRANCH  26  27
ATOM     27  C   UNL     1      20.936  18.256 -16.098  1.00  0.00    -0.000 C 
BRANCH  27  28
ATOM     28  C   UNL     1      21.717  18.779 -14.880  1.00  0.00    -0.000 C 
BRANCH  28  29
ATOM     29  C   UNL     1      23.112  19.347 -15.195  1.00  0.00    -0.003 C 
ATOM     30  C   UNL     1      23.064  20.638 -16.013  1.00  0.00     0.004 C 
ENDBRANCH  28  29
ENDBRANCH  27  28
ENDBRANCH  26  27
ENDBRANCH  25  26
ENDBRANCH  24  25
ENDBRANCH  23  24
ENDBRANCH  22  23
ENDBRANCH  21  22
ENDBRANCH  20  21
ENDBRANCH  19  20
ENDBRANCH  18  19
ENDBRANCH  17  18
ENDBRANCH   1  17
TORSDOF 26
ENDMDL
MODEL 3
REMARK VINA RESULT:     0.000      1.108      2.176
REMARK INTER + INTRA:          -0.833
REMARK INTER:                  -2.198
REMARK INTRA:                   1.365
REMARK UNBOUND:                -0.834
REMARK SMILES CCCCCCCCCCCCCCCCCCCCCCCCCCCC(=O)[O-]
REMARK SMILES IDX 15 1 16 2 17 3 18 4 19 5 20 6 21 7 22 8 23 9 24 10 25 11
REMARK SMILES IDX 26 12 27 13 28 14 29 15 30 16 14 17 13 18 12 19 11 20 10 21
REMARK SMILES IDX 9 22 8 23 7 24 6 25 5 26 4 27 3 28 2 29 1 30
REMARK H PARENT
REMARK Flexibility Score: inf
ROOT
ATOM      1  C   UNL     1      17.005   9.805 -14.025  1.00  0.00     0.000 C 
ENDROOT
BRANCH   1   2
ATOM      2  C   UNL     1      18.508   9.586 -14.276  1.00  0.00     0.000 C 
BRANCH   2   3
ATOM      3  C   UNL     1      18.770   8.474 -15.316  1.00  0.00     0.000 C 
BRANCH   3   4
ATOM      4  C   UNL     1      20.220   7.958 -15.322  1.00  0.00     0.000 C 
BRANCH   4   5
ATOM      5  C   UNL     1      21.170   8.860 -16.125  1.00  0.00     0.000 C 
BRANCH   5   6
ATOM      6  C   UNL     1      22.058   9.750 -15.236  1.00  0.00     0.000 C 
BRANCH   6   7
ATOM      7  C   UNL     1      22.817  10.874 -15.966  1.00  0.00     0.000 C 
BRANCH   7   8
ATOM      8  C   UNL     1      22.839  12.197 -15.182  1.00  0.00     0.000 C 
BRANCH   8   9
ATOM      9  C   UNL     1      23.118  13.417 -16.078  1.00  0.00     0.000 C 
BRANCH   9  10
ATOM     10  C   UNL     1      23.114  14.780 -15.357  1.00  0.00     0.000 C 
BRANCH  10  11
ATOM     11  C   UNL     1      22.290  15.884 -16.045  1.00  0.00     0.000 C 
BRANCH  11  12
ATOM     12  C   UNL     1      21.416  16.678 -15.060  1.00  0.00     0.006 C 
BRANCH  12  13
ATOM     13  C   UNL     1      21.120  18.098 -15.561  1.00  0.00     0.053 C 
BRANCH  13  14
ATOM     14  C   UNL     1      22.040  19.108 -14.948  1.00  0.00     0.041 C 
ATOM     15  O   UNL     1      21.948  20.324 -15.261  1.00  0.00    -0.550 OA
ATOM     16  O   UNL     1      22.984  18.710 -14.010  1.00  0.00    -0.550 OA
ENDBRANCH  13  14
ENDBRANCH  12  13
ENDBRANCH  11  12
ENDBRANCH  10  11
ENDBRANCH   9  10
ENDBRANCH   8   9
ENDBRANCH   7   8
ENDBRANCH   6   7
ENDBRANCH   5   6
ENDBRANCH   4   5
ENDBRANCH   3   4
ENDBRANCH   2   3
ENDBRANCH   1   2
BRANCH   1  17
ATOM     17  C   UNL     1      16.121   9.197 -15.125  1.00  0.00     0.000 C 
BRANCH  17  18
ATOM     18  C   UNL     1      15.353   7.950 -14.652  1.00  0.00     0.000 C 
BRANCH  18  19
ATOM     19  C   UNL     1      13.902   7.937 -15.160  1.00  0.00     0.000 C 
BRANCH  19  20
ATOM     20  C   UNL     1      13.525   9.237 -15.887  1.00  0.00     0.000 C 
BRANCH  20  21
ATOM     21  C   UNL     1      14.595  10.314 -15.673  1.00  0.00     0.000 C 
BRANCH  21  22
ATOM     22  C   UNL     1      14.159  11.328 -14.603  1.00  0.00    -0.000 C 
BRANCH  22  23
ATOM     23  C   UNL     1      15.005  12.610 -14.623  1.00  0.00    -0.000 C 
BRANCH  23  24
ATOM     24  C   UNL     1      15.476  12.997 -16.037  1.00  0.00    -0.000 C 
BRANCH  24  25
ATOM     25  C   UNL     1      16.232  14.343 -16.045  1.00  0.00    -0.000 C 
BRANCH  25  26
ATOM     26  C   UNL     1      17.759  14.198 -15.912  1.00  0.00    -0.000 C 
BRANCH  26  27
ATOM     27  C   UNL     1      18.225  12.733 -15.903  1.00  0.00    -0.000 C 
BRANCH  27  28
ATOM     28  C   UNL     1      19.694  12.572 -15.473  1.00  0.00    -0.000 C 
BRANCH  28  29
ATOM     29  C   UNL     1      20.072  13.289 -14.165  1.00  0.00    -0.003 C 
ATOM     30  C   UNL     1      20.002  12.378 -12.940  1.00  0.00     0.004 C 
ENDBRANCH  28  29
ENDBRANCH  27  28
ENDBRANCH  26  27
ENDBRANCH  25  26
ENDBRANCH  24  25
ENDBRANCH  23  24
ENDBRANCH  22  23
ENDBRANCH  21  22
ENDBRANCH  20  21
ENDBRANCH  19  20
ENDBRANCH  18  19
ENDBRANCH  17  18
ENDBRANCH   1  17
TORSDOF 26
ENDMDL
