MODEL 1
REMARK VINA RESULT:     2.006      0.000      0.000
REMARK INTER + INTRA:           6.818
REMARK INTER:                   4.586
REMARK INTRA:                   2.233
REMARK UNBOUND:                 2.233
REMARK SMILES CCCCCCCCCCCCCCCCCCCCCCCC(=O)[O-]
REMARK SMILES IDX 13 1 14 2 15 3 16 4 17 5 18 6 19 7 20 8 21 9 22 10 23 11
REMARK SMILES IDX 24 12 25 13 26 14 12 15 11 16 10 17 9 18 8 19 7 20 6 21 5 22
REMARK SMILES IDX 4 23 3 24 2 25 1 26
REMARK H PARENT
REMARK Flexibility Score: inf
ROOT
ATOM      1  C   UNL     1      32.020  35.224   1.181  1.00  0.00     0.000 C 
ENDROOT
BRANCH   1   2
ATOM      2  C   UNL     1      30.822  34.961   2.110  1.00  0.00     0.000 C 
BRANCH   2   3
ATOM      3  C   UNL     1      29.992  36.227   2.382  1.00  0.00     0.000 C 
BRANCH   3   4
ATOM      4  C   UNL     1      30.492  37.448   1.592  1.00  0.00     0.000 C 
BRANCH   4   5
ATOM      5  C   UNL     1      31.338  38.406   2.452  1.00  0.00     0.000 C 
BRANCH   5   6
ATOM      6  C   UNL     1      32.602  37.778   3.070  1.00  0.00     0.000 C 
BRANCH   6   7
ATOM      7  C   UNL     1      33.519  38.763   3.823  1.00  0.00     0.000 C 
BRANCH   7   8
ATOM      8  C   UNL     1      33.040  39.085   5.255  1.00  0.00     0.000 C 
BRANCH   8   9
ATOM      9  C   UNL     1      34.201  39.123   6.264  1.00  0.00     0.000 C 
BRANCH   9  10
ATOM     10  C   UNL     1      34.372  37.795   7.019  1.00  0.00     0.006 C 
BRANCH  10  11
ATOM     11  C   UNL     1      35.062  37.972   8.378  1.00  0.00     0.053 C 
BRANCH  11  12
ATOM     12  C   UNL     1      34.081  38.455   9.400  1.00  0.00     0.041 C 
ATOM     13  O   UNL     1      34.489  38.948  10.485  1.00  0.00    -0.550 OA
ATOM     14  O   UNL     1      32.719  38.410   9.132  1.00  0.00    -0.550 OA
ENDBRANCH  11  12
ENDBRANCH  10  11
ENDBRANCH   9  10
ENDBRANCH   8   9
ENDBRANCH   7   8
ENDBRANCH   6   7
ENDBRANCH   5   6
ENDBRANCH   4   5
ENDBRANCH   3   4
ENDBRANCH   2   3
ENDBRANCH   1   2
BRANCH   1  15
ATOM     15  C   UNL     1      33.310  34.536   1.662  1.00  0.00     0.000 C 
BRANCH  15  16
ATOM     16  C   UNL     1      34.620  35.274   1.320  1.00  0.00     0.000 C 
BRANCH  16  17
ATOM     17  C   UNL     1      35.086  36.312   2.359  1.00  0.00     0.000 C 
BRANCH  17  18
ATOM     18  C   UNL     1      34.949  37.759   1.860  1.00  0.00    -0.000 C 
BRANCH  18  19
ATOM     19  C   UNL     1      35.125  37.884   0.337  1.00  0.00    -0.000 C 
BRANCH  19  20
ATOM     20  C   UNL     1      34.241  38.977  -0.301  1.00  0.00    -0.000 C 
BRANCH  20  21
ATOM     21  C   UNL     1      33.241  38.393  -1.315  1.00  0.00    -0.000 C 
BRANCH  21  22
ATOM     22  C   UNL     1      33.348  36.865  -1.439  1.00  0.00    -0.000 C 
BRANCH  22  23
ATOM     23  C   UNL     1      32.784  36.340  -2.772  1.00  0.00    -0.000 C 
BRANCH  23  24
ATOM     24  C   UNL     1      32.316  37.471  -3.700  1.00  0.00    -0.000 C 
BRANCH  24  25
ATOM     25  C   UNL     1      33.212  38.715  -3.615  1.00  0.00    -0.003 C 
ATOM     26  C   UNL     1      34.431  38.578  -4.524  1.00  0.00     0.004 C 
ENDBRANCH  24  25
ENDBRANCH  23  24
ENDBRANCH  22  23
ENDBRANCH  21  22
ENDBRANCH  20  21
ENDBRANCH  19  20
ENDBRANCH  18  19
ENDBRANCH  17  18
ENDBRANCH  16  17
ENDBRANCH  15  16
ENDBRANCH   1  15
TORSDOF 22
ENDMDL
MODEL 2
REMARK VINA RESULT:     4.880     16.454     19.461
REMARK INTER + INTRA:          13.388
REMARK INTER:                  14.756
REMARK INTRA:                  -1.368
REMARK UNBOUND:                 2.233
REMARK SMILES CCCCCCCCCCCCCCCCCCCCCCCC(=O)[O-]
REMARK SMILES IDX 13 1 14 2 15 3 16 4 17 5 18 6 19 7 20 8 21 9 22 10 23 11
REMARK SMILES IDX 24 12 25 13 26 14 12 15 11 16 10 17 9 18 8 19 7 20 6 21 5 22
REMARK SMILES IDX 4 23 3 24 2 25 1 26
REMARK H PARENT
REMARK Flexibility Score: inf
ROOT
ATOM      1  C   UNL     1      14.917  27.031   9.887  1.00  0.00     0.000 C 
ENDROOT
BRANCH   1   2
ATOM      2  C   UNL     1      15.259  27.282  11.365  1.00  0.00     0.000 C 
BRANCH   2   3
ATOM      3  C   UNL     1      15.341  25.983  12.185  1.00  0.00     0.000 C 
BRANCH   3   4
ATOM      4  C   UNL     1      16.123  26.156  13.497  1.00  0.00     0.000 C 
BRANCH   4   5
ATOM      5  C   UNL     1      17.003  27.420  13.503  1.00  0.00     0.000 C 
BRANCH   5   6
ATOM      6  C   UNL     1      18.487  27.180  13.167  1.00  0.00     0.000 C 
BRANCH   6   7
ATOM      7  C   UNL     1      18.785  26.908  11.679  1.00  0.00     0.000 C 
BRANCH   7   8
ATOM      8  C   UNL     1      19.918  27.782  11.103  1.00  0.00     0.000 C 
BRANCH   8   9
ATOM      9  C   UNL     1      21.273  27.502  11.778  1.00  0.00     0.000 C 
BRANCH   9  10
ATOM     10  C   UNL     1      22.187  28.738  11.804  1.00  0.00     0.006 C 
BRANCH  10  11
ATOM     11  C   UNL     1      23.661  28.377  12.036  1.00  0.00     0.053 C 
BRANCH  11  12
ATOM     12  C   UNL     1      24.552  29.422  11.441  1.00  0.00     0.041 C 
ATOM     13  O   UNL     1      24.971  29.298  10.259  1.00  0.00    -0.550 OA
ATOM     14  O   UNL     1      24.877  30.557  12.172  1.00  0.00    -0.550 OA
ENDBRANCH  11  12
ENDBRANCH  10  11
ENDBRANCH   9  10
ENDBRANCH   8   9
ENDBRANCH   7   8
ENDBRANCH   6   7
ENDBRANCH   5   6
ENDBRANCH   4   5
ENDBRANCH   3   4
ENDBRANCH   2   3
ENDBRANCH   1   2
BRANCH   1  15
ATOM     15  C   UNL     1      15.088  25.557   9.476  1.00  0.00     0.000 C 
BRANCH  15  16
ATOM     16  C   UNL     1      14.875  25.260   7.978  1.00  0.00     0.000 C 
BRANCH  16  17
ATOM     17  C   UNL     1      15.486  26.287   7.006  1.00  0.00     0.000 C 
BRANCH  17  18
ATOM     18  C   UNL     1      15.800  25.690   5.626  1.00  0.00    -0.000 C 
BRANCH  18  19
ATOM     19  C   UNL     1      17.052  26.308   4.980  1.00  0.00    -0.000 C 
BRANCH  19  20
ATOM     20  C   UNL     1      17.367  25.748   3.576  1.00  0.00    -0.000 C 
BRANCH  20  21
ATOM     21  C   UNL     1      18.880  25.655   3.316  1.00  0.00    -0.000 C 
BRANCH  21  22
ATOM     22  C   UNL     1      19.715  26.251   4.460  1.00  0.00    -0.000 C 
BRANCH  22  23
ATOM     23  C   UNL     1      20.688  25.228   5.075  1.00  0.00    -0.000 C 
BRANCH  23  24
ATOM     24  C   UNL     1      22.114  25.363   4.521  1.00  0.00    -0.000 C 
BRANCH  24  25
ATOM     25  C   UNL     1      23.188  25.186   5.603  1.00  0.00    -0.003 C 
ATOM     26  C   UNL     1      22.580  24.661   6.900  1.00  0.00     0.004 C 
ENDBRANCH  24  25
ENDBRANCH  23  24
ENDBRANCH  22  23
ENDBRANCH  21  22
ENDBRANCH  20  21
ENDBRANCH  19  20
ENDBRANCH  18  19
ENDBRANCH  17  18
ENDBRANCH  16  17
ENDBRANCH  15  16
ENDBRANCH   1  15
TORSDOF 22
ENDMDL
