MODEL 1
REMARK VINA RESULT:    -7.749      0.000      0.000
REMARK INTER + INTRA:          -9.887
REMARK INTER:                  -9.561
REMARK INTRA:                  -0.326
REMARK UNBOUND:                -0.326
REMARK SMILES Oc1cc(O)c2cc(O)c(-c3cc(O)c(O)c(O)c3)[o+]c2c1
REMARK SMILES IDX 10 1 20 2 21 3 22 4 2 5 3 6 4 7 6 8 7 9 8 10 11 11 12 12
REMARK SMILES IDX 13 13 19 14 15 15 17 16 14 17 16 19 18 21 9 23 1 25 5 27
REMARK H PARENT 14 18 16 20 18 22 9 24 1 26 5 28
REMARK Flexibility Score: inf
ROOT
ATOM      1  C   UNL     1      41.065 -11.403   8.710  1.00  0.00     0.402 A 
ATOM      2  O   UNL     1      41.439 -12.652   8.979  1.00  0.00    -0.202 OA
ATOM      3  C   UNL     1      42.086 -12.997  10.087  1.00  0.00     0.368 A 
ATOM      4  C   UNL     1      42.435 -14.336  10.282  1.00  0.00     0.162 A 
ATOM      5  C   UNL     1      43.115 -14.727  11.440  1.00  0.00     0.128 A 
ATOM      6  C   UNL     1      43.443 -13.775  12.407  1.00  0.00     0.093 A 
ATOM      7  C   UNL     1      43.105 -12.427  12.236  1.00  0.00     0.136 A 
ATOM      8  C   UNL     1      42.419 -12.025  11.061  1.00  0.00     0.125 A 
ATOM      9  C   UNL     1      42.051 -10.694  10.799  1.00  0.00     0.078 A 
ATOM     10  C   UNL     1      41.380 -10.373   9.615  1.00  0.00     0.223 A 
ENDROOT
BRANCH   1  11
ATOM     11  C   UNL     1      40.340 -11.147   7.445  1.00  0.00     0.091 A 
ATOM     12  C   UNL     1      38.989 -11.502   7.291  1.00  0.00     0.068 A 
ATOM     13  C   UNL     1      38.326 -11.271   6.077  1.00  0.00     0.162 A 
ATOM     14  C   UNL     1      41.028 -10.589   6.356  1.00  0.00     0.068 A 
ATOM     15  C   UNL     1      39.017 -10.692   5.000  1.00  0.00     0.200 A 
ATOM     16  C   UNL     1      40.370 -10.354   5.141  1.00  0.00     0.162 A 
BRANCH  13  17
ATOM     17  O   UNL     1      36.983 -11.622   5.936  1.00  0.00    -0.504 OA
ATOM     18  H   UNL     1      36.455 -12.022   6.703  1.00  0.00     0.293 HD
ENDBRANCH  13  17
BRANCH  15  19
ATOM     19  O   UNL     1      38.378 -10.449   3.785  1.00  0.00    -0.502 OA
ATOM     20  H   UNL     1      37.544 -10.950   3.504  1.00  0.00     0.293 HD
ENDBRANCH  15  19
BRANCH  16  21
ATOM     21  O   UNL     1      41.054  -9.787   4.068  1.00  0.00    -0.504 OA
ATOM     22  H   UNL     1      40.672  -9.003   3.551  1.00  0.00     0.293 HD
ENDBRANCH  16  21
ENDBRANCH   1  11
BRANCH  10  23
ATOM     23  O   UNL     1      41.059  -9.046   9.331  1.00  0.00    -0.500 OA
ATOM     24  H   UNL     1      41.212  -8.304  10.005  1.00  0.00     0.294 HD
ENDBRANCH  10  23
BRANCH   5  25
ATOM     25  O   UNL     1      43.465 -16.060  11.640  1.00  0.00    -0.507 OA
ATOM     26  H   UNL     1      43.305 -16.524  12.526  1.00  0.00     0.293 HD
ENDBRANCH   5  25
BRANCH   7  27
ATOM     27  O   UNL     1      43.468 -11.538  13.252  1.00  0.00    -0.507 OA
ATOM     28  H   UNL     1      44.404 -11.441  13.617  1.00  0.00     0.293 HD
ENDBRANCH   7  27
TORSDOF 7
ENDMDL
MODEL 2
REMARK VINA RESULT:    -7.704      0.084      1.790
REMARK INTER + INTRA:          -9.831
REMARK INTER:                  -9.515
REMARK INTRA:                  -0.316
REMARK UNBOUND:                -0.326
REMARK SMILES Oc1cc(O)c2cc(O)c(-c3cc(O)c(O)c(O)c3)[o+]c2c1
REMARK SMILES IDX 10 1 20 2 21 3 22 4 2 5 3 6 4 7 6 8 7 9 8 10 11 11 12 12
REMARK SMILES IDX 13 13 19 14 15 15 17 16 14 17 16 19 18 21 9 23 1 25 5 27
REMARK H PARENT 14 18 16 20 18 22 9 24 1 26 5 28
REMARK Flexibility Score: inf
ROOT
ATOM      1  C   UNL     1      41.130 -11.405   8.629  1.00  0.00     0.402 A 
ATOM      2  O   UNL     1      41.499 -12.652   8.909  1.00  0.00    -0.202 OA
ATOM      3  C   UNL     1      42.121 -12.995  10.032  1.00  0.00     0.368 A 
ATOM      4  C   UNL     1      42.467 -14.333  10.237  1.00  0.00     0.162 A 
ATOM      5  C   UNL     1      43.120 -14.721  11.411  1.00  0.00     0.128 A 
ATOM      6  C   UNL     1      43.426 -13.767  12.383  1.00  0.00     0.093 A 
ATOM      7  C   UNL     1      43.091 -12.419  12.202  1.00  0.00     0.136 A 
ATOM      8  C   UNL     1      42.431 -12.020  11.012  1.00  0.00     0.125 A 
ATOM      9  C   UNL     1      42.069 -10.691  10.738  1.00  0.00     0.078 A 
ATOM     10  C   UNL     1      41.424 -10.372   9.539  1.00  0.00     0.223 A 
ENDROOT
BRANCH   1  11
ATOM     11  C   UNL     1      40.434 -11.151   7.347  1.00  0.00     0.091 A 
ATOM     12  C   UNL     1      41.091 -10.540   6.265  1.00  0.00     0.068 A 
ATOM     13  C   UNL     1      40.408 -10.287   5.067  1.00  0.00     0.162 A 
ATOM     14  C   UNL     1      39.074 -11.475   7.225  1.00  0.00     0.068 A 
ATOM     15  C   UNL     1      39.052 -10.636   4.947  1.00  0.00     0.200 A 
ATOM     16  C   UNL     1      38.387 -11.227   6.029  1.00  0.00     0.162 A 
BRANCH  13  17
ATOM     17  O   UNL     1      41.070  -9.685   3.998  1.00  0.00    -0.504 OA
ATOM     18  H   UNL     1      41.300  -8.698   4.003  1.00  0.00     0.293 HD
ENDBRANCH  13  17
BRANCH  15  19
ATOM     19  O   UNL     1      38.353 -10.399   3.764  1.00  0.00    -0.502 OA
ATOM     20  H   UNL     1      37.671  -9.655   3.681  1.00  0.00     0.293 HD
ENDBRANCH  15  19
BRANCH  16  21
ATOM     21  O   UNL     1      37.040 -11.564   5.908  1.00  0.00    -0.504 OA
ATOM     22  H   UNL     1      36.305 -10.913   6.159  1.00  0.00     0.293 HD
ENDBRANCH  16  21
ENDBRANCH   1  11
BRANCH  10  23
ATOM     23  O   UNL     1      41.109  -9.046   9.245  1.00  0.00    -0.500 OA
ATOM     24  H   UNL     1      41.378  -8.615   8.368  1.00  0.00     0.294 HD
ENDBRANCH  10  23
BRANCH   5  25
ATOM     25  O   UNL     1      43.467 -16.053  11.621  1.00  0.00    -0.507 OA
ATOM     26  H   UNL     1      44.229 -16.312  12.237  1.00  0.00     0.293 HD
ENDBRANCH   5  25
BRANCH   7  27
ATOM     27  O   UNL     1      43.431 -11.528  13.225  1.00  0.00    -0.507 OA
ATOM     28  H   UNL     1      42.777 -10.911  13.683  1.00  0.00     0.293 HD
ENDBRANCH   7  27
TORSDOF 7
ENDMDL
MODEL 3
REMARK VINA RESULT:    -7.557      2.257      7.263
REMARK INTER + INTRA:          -9.651
REMARK INTER:                  -9.316
REMARK INTRA:                  -0.335
REMARK UNBOUND:                -0.326
REMARK SMILES Oc1cc(O)c2cc(O)c(-c3cc(O)c(O)c(O)c3)[o+]c2c1
REMARK SMILES IDX 10 1 20 2 21 3 22 4 2 5 3 6 4 7 6 8 7 9 8 10 11 11 12 12
REMARK SMILES IDX 13 13 19 14 15 15 17 16 14 17 16 19 18 21 9 23 1 25 5 27
REMARK H PARENT 14 18 16 20 18 22 9 24 1 26 5 28
REMARK Flexibility Score: inf
ROOT
ATOM      1  C   UNL     1      39.000 -11.733   8.325  1.00  0.00     0.402 A 
ATOM      2  O   UNL     1      39.126 -11.412   7.039  1.00  0.00    -0.202 OA
ATOM      3  C   UNL     1      38.184 -11.651   6.133  1.00  0.00     0.368 A 
ATOM      4  C   UNL     1      38.407 -11.275   4.806  1.00  0.00     0.162 A 
ATOM      5  C   UNL     1      37.433 -11.512   3.831  1.00  0.00     0.128 A 
ATOM      6  C   UNL     1      36.230 -12.125   4.187  1.00  0.00     0.093 A 
ATOM      7  C   UNL     1      35.981 -12.512   5.510  1.00  0.00     0.136 A 
ATOM      8  C   UNL     1      36.969 -12.276   6.502  1.00  0.00     0.125 A 
ATOM      9  C   UNL     1      36.812 -12.641   7.849  1.00  0.00     0.078 A 
ATOM     10  C   UNL     1      37.833 -12.381   8.769  1.00  0.00     0.223 A 
ENDROOT
BRANCH   1  11
ATOM     11  C   UNL     1      40.117 -11.406   9.241  1.00  0.00     0.091 A 
ATOM     12  C   UNL     1      40.025 -10.343  10.156  1.00  0.00     0.068 A 
ATOM     13  C   UNL     1      41.102 -10.035  11.000  1.00  0.00     0.162 A 
ATOM     14  C   UNL     1      41.314 -12.134   9.157  1.00  0.00     0.068 A 
ATOM     15  C   UNL     1      42.289 -10.784  10.923  1.00  0.00     0.200 A 
ATOM     16  C   UNL     1      42.393 -11.831   9.998  1.00  0.00     0.162 A 
BRANCH  13  17
ATOM     17  O   UNL     1      40.999  -8.982  11.908  1.00  0.00    -0.504 OA
ATOM     18  H   UNL     1      40.100  -8.638  12.224  1.00  0.00     0.293 HD
ENDBRANCH  13  17
BRANCH  15  19
ATOM     19  O   UNL     1      43.371 -10.498  11.755  1.00  0.00    -0.502 OA
ATOM     20  H   UNL     1      44.329 -10.662  11.469  1.00  0.00     0.293 HD
ENDBRANCH  15  19
BRANCH  16  21
ATOM     21  O   UNL     1      43.574 -12.566   9.921  1.00  0.00    -0.504 OA
ATOM     22  H   UNL     1      44.170 -12.528   9.103  1.00  0.00     0.293 HD
ENDBRANCH  16  21
ENDBRANCH   1  11
BRANCH  10  23
ATOM     23  O   UNL     1      37.699 -12.788  10.096  1.00  0.00    -0.500 OA
ATOM     24  H   UNL     1      38.163 -13.617  10.449  1.00  0.00     0.294 HD
ENDBRANCH  10  23
BRANCH   5  25
ATOM     25  O   UNL     1      37.649 -11.140   2.507  1.00  0.00    -0.507 OA
ATOM     26  H   UNL     1      37.039 -11.453   1.761  1.00  0.00     0.293 HD
ENDBRANCH   5  25
BRANCH   7  27
ATOM     27  O   UNL     1      34.751 -13.117   5.784  1.00  0.00    -0.507 OA
ATOM     28  H   UNL     1      34.150 -12.864   6.554  1.00  0.00     0.293 HD
ENDBRANCH   7  27
TORSDOF 7
ENDMDL
MODEL 4
REMARK VINA RESULT:    -7.539      2.219      7.343
REMARK INTER + INTRA:          -9.627
REMARK INTER:                  -9.318
REMARK INTRA:                  -0.310
REMARK UNBOUND:                -0.326
REMARK SMILES Oc1cc(O)c2cc(O)c(-c3cc(O)c(O)c(O)c3)[o+]c2c1
REMARK SMILES IDX 10 1 20 2 21 3 22 4 2 5 3 6 4 7 6 8 7 9 8 10 11 11 12 12
REMARK SMILES IDX 13 13 19 14 15 15 17 16 14 17 16 19 18 21 9 23 1 25 5 27
REMARK H PARENT 14 18 16 20 18 22 9 24 1 26 5 28
REMARK Flexibility Score: inf
ROOT
ATOM      1  C   UNL     1      38.981 -11.782   8.281  1.00  0.00     0.402 A 
ATOM      2  O   UNL     1      39.096 -11.501   6.985  1.00  0.00    -0.202 OA
ATOM      3  C   UNL     1      38.132 -11.730   6.101  1.00  0.00     0.368 A 
ATOM      4  C   UNL     1      38.346 -11.400   4.760  1.00  0.00     0.162 A 
ATOM      5  C   UNL     1      37.347 -11.628   3.808  1.00  0.00     0.128 A 
ATOM      6  C   UNL     1      36.129 -12.186   4.200  1.00  0.00     0.093 A 
ATOM      7  C   UNL     1      35.889 -12.527   5.537  1.00  0.00     0.136 A 
ATOM      8  C   UNL     1      36.901 -12.300   6.506  1.00  0.00     0.125 A 
ATOM      9  C   UNL     1      36.753 -12.622   7.866  1.00  0.00     0.078 A 
ATOM     10  C   UNL     1      37.798 -12.374   8.762  1.00  0.00     0.223 A 
ENDROOT
BRANCH   1  11
ATOM     11  C   UNL     1      40.124 -11.470   9.170  1.00  0.00     0.091 A 
ATOM     12  C   UNL     1      41.287 -12.260   9.170  1.00  0.00     0.068 A 
ATOM     13  C   UNL     1      42.349 -11.962  10.035  1.00  0.00     0.162 A 
ATOM     14  C   UNL     1      40.025 -10.399  10.072  1.00  0.00     0.068 A 
ATOM     15  C   UNL     1      42.250 -10.874  10.918  1.00  0.00     0.200 A 
ATOM     16  C   UNL     1      41.085 -10.096  10.937  1.00  0.00     0.162 A 
BRANCH  13  17
ATOM     17  O   UNL     1      43.501 -12.748  10.024  1.00  0.00    -0.504 OA
ATOM     18  H   UNL     1      43.766 -13.292   9.210  1.00  0.00     0.293 HD
ENDBRANCH  13  17
BRANCH  15  19
ATOM     19  O   UNL     1      43.295 -10.556  11.785  1.00  0.00    -0.502 OA
ATOM     20  H   UNL     1      44.267 -10.664  11.520  1.00  0.00     0.293 HD
ENDBRANCH  15  19
BRANCH  16  21
ATOM     21  O   UNL     1      40.987  -9.023  11.820  1.00  0.00    -0.504 OA
ATOM     22  H   UNL     1      40.508  -9.109  12.709  1.00  0.00     0.293 HD
ENDBRANCH  16  21
ENDBRANCH   1  11
BRANCH  10  23
ATOM     23  O   UNL     1      37.672 -12.739  10.102  1.00  0.00    -0.500 OA
ATOM     24  H   UNL     1      38.460 -12.712  10.739  1.00  0.00     0.294 HD
ENDBRANCH  10  23
BRANCH   5  25
ATOM     25  O   UNL     1      37.555 -11.300   2.471  1.00  0.00    -0.507 OA
ATOM     26  H   UNL     1      38.475 -11.349   2.049  1.00  0.00     0.293 HD
ENDBRANCH   5  25
BRANCH   7  27
ATOM     27  O   UNL     1      34.642 -13.079   5.847  1.00  0.00    -0.507 OA
ATOM     28  H   UNL     1      34.033 -12.737   6.574  1.00  0.00     0.293 HD
ENDBRANCH   7  27
TORSDOF 7
ENDMDL
MODEL 5
REMARK VINA RESULT:    -7.468      0.910      1.119
REMARK INTER + INTRA:          -9.541
REMARK INTER:                  -9.294
REMARK INTRA:                  -0.247
REMARK UNBOUND:                -0.326
REMARK SMILES Oc1cc(O)c2cc(O)c(-c3cc(O)c(O)c(O)c3)[o+]c2c1
REMARK SMILES IDX 10 1 20 2 21 3 22 4 2 5 3 6 4 7 6 8 7 9 8 10 11 11 12 12
REMARK SMILES IDX 13 13 19 14 15 15 17 16 14 17 16 19 18 21 9 23 1 25 5 27
REMARK H PARENT 14 18 16 20 18 22 9 24 1 26 5 28
REMARK Flexibility Score: inf
ROOT
ATOM      1  C   UNL     1      40.302 -11.702   8.688  1.00  0.00     0.402 A 
ATOM      2  O   UNL     1      40.780 -12.899   9.019  1.00  0.00    -0.202 OA
ATOM      3  C   UNL     1      41.647 -13.090  10.008  1.00  0.00     0.368 A 
ATOM      4  C   UNL     1      42.090 -14.386  10.282  1.00  0.00     0.162 A 
ATOM      5  C   UNL     1      43.001 -14.617  11.319  1.00  0.00     0.128 A 
ATOM      6  C   UNL     1      43.467 -13.546  12.084  1.00  0.00     0.093 A 
ATOM      7  C   UNL     1      43.038 -12.237  11.829  1.00  0.00     0.136 A 
ATOM      8  C   UNL     1      42.117 -11.998  10.777  1.00  0.00     0.125 A 
ATOM      9  C   UNL     1      41.643 -10.719  10.442  1.00  0.00     0.078 A 
ATOM     10  C   UNL     1      40.739 -10.561   9.387  1.00  0.00     0.223 A 
ENDROOT
BRANCH   1  11
ATOM     11  C   UNL     1      39.332 -11.619   7.572  1.00  0.00     0.091 A 
ATOM     12  C   UNL     1      38.048 -12.181   7.676  1.00  0.00     0.068 A 
ATOM     13  C   UNL     1      37.152 -12.112   6.599  1.00  0.00     0.162 A 
ATOM     14  C   UNL     1      39.719 -11.017   6.364  1.00  0.00     0.068 A 
ATOM     15  C   UNL     1      37.541 -11.488   5.402  1.00  0.00     0.200 A 
ATOM     16  C   UNL     1      38.827 -10.945   5.287  1.00  0.00     0.162 A 
BRANCH  13  17
ATOM     17  O   UNL     1      35.878 -12.668   6.714  1.00  0.00    -0.504 OA
ATOM     18  H   UNL     1      35.041 -12.118   6.554  1.00  0.00     0.293 HD
ENDBRANCH  13  17
BRANCH  15  19
ATOM     19  O   UNL     1      36.666 -11.404   4.320  1.00  0.00    -0.502 OA
ATOM     20  H   UNL     1      35.747 -10.984   4.401  1.00  0.00     0.293 HD
ENDBRANCH  15  19
BRANCH  16  21
ATOM     21  O   UNL     1      39.211 -10.333   4.095  1.00  0.00    -0.504 OA
ATOM     22  H   UNL     1      38.532 -10.070   3.390  1.00  0.00     0.293 HD
ENDBRANCH  16  21
ENDBRANCH   1  11
BRANCH  10  23
ATOM     23  O   UNL     1      40.307  -9.287   9.021  1.00  0.00    -0.500 OA
ATOM     24  H   UNL     1      39.468  -9.145   8.470  1.00  0.00     0.294 HD
ENDBRANCH  10  23
BRANCH   5  25
ATOM     25  O   UNL     1      43.446 -15.906  11.597  1.00  0.00    -0.507 OA
ATOM     26  H   UNL     1      43.361 -16.309  12.523  1.00  0.00     0.293 HD
ENDBRANCH   5  25
BRANCH   7  27
ATOM     27  O   UNL     1      43.551 -11.222  12.643  1.00  0.00    -0.507 OA
ATOM     28  H   UNL     1      44.023 -10.400  12.299  1.00  0.00     0.293 HD
ENDBRANCH   7  27
TORSDOF 7
ENDMDL
MODEL 6
REMARK VINA RESULT:    -7.262      1.594      2.761
REMARK INTER + INTRA:          -9.286
REMARK INTER:                  -8.937
REMARK INTRA:                  -0.349
REMARK UNBOUND:                -0.326
REMARK SMILES Oc1cc(O)c2cc(O)c(-c3cc(O)c(O)c(O)c3)[o+]c2c1
REMARK SMILES IDX 10 1 20 2 21 3 22 4 2 5 3 6 4 7 6 8 7 9 8 10 11 11 12 12
REMARK SMILES IDX 13 13 19 14 15 15 17 16 14 17 16 19 18 21 9 23 1 25 5 27
REMARK H PARENT 14 18 16 20 18 22 9 24 1 26 5 28
REMARK Flexibility Score: inf
ROOT
ATOM      1  C   UNL     1      39.439 -11.928   8.174  1.00  0.00     0.402 A 
ATOM      2  O   UNL     1      40.145 -13.007   8.504  1.00  0.00    -0.202 OA
ATOM      3  C   UNL     1      41.072 -13.010   9.456  1.00  0.00     0.368 A 
ATOM      4  C   UNL     1      41.759 -14.194   9.732  1.00  0.00     0.162 A 
ATOM      5  C   UNL     1      42.738 -14.227  10.731  1.00  0.00     0.128 A 
ATOM      6  C   UNL     1      43.028 -13.070  11.456  1.00  0.00     0.093 A 
ATOM      7  C   UNL     1      42.353 -11.869  11.199  1.00  0.00     0.136 A 
ATOM      8  C   UNL     1      41.362 -11.831  10.185  1.00  0.00     0.125 A 
ATOM      9  C   UNL     1      40.645 -10.671   9.850  1.00  0.00     0.078 A 
ATOM     10  C   UNL     1      39.684 -10.709   8.834  1.00  0.00     0.223 A 
ENDROOT
BRANCH   1  11
ATOM     11  C   UNL     1      38.427 -12.054   7.102  1.00  0.00     0.091 A 
ATOM     12  C   UNL     1      38.693 -11.626   5.789  1.00  0.00     0.068 A 
ATOM     13  C   UNL     1      37.713 -11.733   4.793  1.00  0.00     0.162 A 
ATOM     14  C   UNL     1      37.153 -12.558   7.410  1.00  0.00     0.068 A 
ATOM     15  C   UNL     1      36.449 -12.260   5.107  1.00  0.00     0.200 A 
ATOM     16  C   UNL     1      36.171 -12.669   6.417  1.00  0.00     0.162 A 
BRANCH  13  17
ATOM     17  O   UNL     1      37.989 -11.311   3.492  1.00  0.00    -0.504 OA
ATOM     18  H   UNL     1      37.726 -11.866   2.686  1.00  0.00     0.293 HD
ENDBRANCH  13  17
BRANCH  15  19
ATOM     19  O   UNL     1      35.460 -12.380   4.131  1.00  0.00    -0.502 OA
ATOM     20  H   UNL     1      35.677 -12.601   3.166  1.00  0.00     0.293 HD
ENDBRANCH  15  19
BRANCH  16  21
ATOM     21  O   UNL     1      34.914 -13.184   6.726  1.00  0.00    -0.504 OA
ATOM     22  H   UNL     1      34.771 -14.175   6.884  1.00  0.00     0.293 HD
ENDBRANCH  16  21
ENDBRANCH   1  11
BRANCH  10  23
ATOM     23  O   UNL     1      39.008  -9.546   8.467  1.00  0.00    -0.500 OA
ATOM     24  H   UNL     1      38.858  -9.300   7.495  1.00  0.00     0.294 HD
ENDBRANCH  10  23
BRANCH   5  25
ATOM     25  O   UNL     1      43.427 -15.404  11.010  1.00  0.00    -0.507 OA
ATOM     26  H   UNL     1      42.939 -16.264  11.234  1.00  0.00     0.293 HD
ENDBRANCH   5  25
BRANCH   7  27
ATOM     27  O   UNL     1      42.701 -10.757  11.972  1.00  0.00    -0.507 OA
ATOM     28  H   UNL     1      42.211  -9.875  11.954  1.00  0.00     0.293 HD
ENDBRANCH   7  27
TORSDOF 7
ENDMDL
MODEL 7
REMARK VINA RESULT:    -7.211      8.037     13.160
REMARK INTER + INTRA:          -9.223
REMARK INTER:                  -8.866
REMARK INTRA:                  -0.357
REMARK UNBOUND:                -0.326
REMARK SMILES Oc1cc(O)c2cc(O)c(-c3cc(O)c(O)c(O)c3)[o+]c2c1
REMARK SMILES IDX 10 1 20 2 21 3 22 4 2 5 3 6 4 7 6 8 7 9 8 10 11 11 12 12
REMARK SMILES IDX 13 13 19 14 15 15 17 16 14 17 16 19 18 21 9 23 1 25 5 27
REMARK H PARENT 14 18 16 20 18 22 9 24 1 26 5 28
REMARK Flexibility Score: inf
ROOT
ATOM      1  C   UNL     1      32.989 -14.168   1.787  1.00  0.00     0.402 A 
ATOM      2  O   UNL     1      32.160 -13.166   1.505  1.00  0.00    -0.202 OA
ATOM      3  C   UNL     1      31.065 -13.310   0.766  1.00  0.00     0.368 A 
ATOM      4  C   UNL     1      30.254 -12.197   0.527  1.00  0.00     0.162 A 
ATOM      5  C   UNL     1      29.095 -12.321  -0.246  1.00  0.00     0.128 A 
ATOM      6  C   UNL     1      28.746 -13.563  -0.779  1.00  0.00     0.093 A 
ATOM      7  C   UNL     1      29.541 -14.694  -0.554  1.00  0.00     0.136 A 
ATOM      8  C   UNL     1      30.719 -14.572   0.226  1.00  0.00     0.125 A 
ATOM      9  C   UNL     1      31.583 -15.648   0.493  1.00  0.00     0.078 A 
ATOM     10  C   UNL     1      32.731 -15.450   1.267  1.00  0.00     0.223 A 
ENDROOT
BRANCH   1  11
ATOM     11  C   UNL     1      34.172 -13.882   2.630  1.00  0.00     0.091 A 
ATOM     12  C   UNL     1      35.343 -13.328   2.086  1.00  0.00     0.068 A 
ATOM     13  C   UNL     1      36.461 -13.086   2.897  1.00  0.00     0.162 A 
ATOM     14  C   UNL     1      34.147 -14.223   3.992  1.00  0.00     0.068 A 
ATOM     15  C   UNL     1      36.418 -13.410   4.263  1.00  0.00     0.200 A 
ATOM     16  C   UNL     1      35.260 -13.982   4.807  1.00  0.00     0.162 A 
BRANCH  13  17
ATOM     17  O   UNL     1      37.616 -12.530   2.348  1.00  0.00    -0.504 OA
ATOM     18  H   UNL     1      38.027 -12.893   1.495  1.00  0.00     0.293 HD
ENDBRANCH  13  17
BRANCH  15  19
ATOM     19  O   UNL     1      37.515 -13.175   5.090  1.00  0.00    -0.502 OA
ATOM     20  H   UNL     1      37.506 -12.460   5.808  1.00  0.00     0.293 HD
ENDBRANCH  15  19
BRANCH  16  21
ATOM     21  O   UNL     1      35.225 -14.309   6.162  1.00  0.00    -0.504 OA
ATOM     22  H   UNL     1      36.054 -14.253   6.742  1.00  0.00     0.293 HD
ENDBRANCH  16  21
ENDBRANCH   1  11
BRANCH  10  23
ATOM     23  O   UNL     1      33.615 -16.505   1.490  1.00  0.00    -0.500 OA
ATOM     24  H   UNL     1      33.327 -17.472   1.393  1.00  0.00     0.294 HD
ENDBRANCH  10  23
BRANCH   5  25
ATOM     25  O   UNL     1      28.283 -11.216  -0.487  1.00  0.00    -0.507 OA
ATOM     26  H   UNL     1      27.323 -11.320  -0.794  1.00  0.00     0.293 HD
ENDBRANCH   5  25
BRANCH   7  27
ATOM     27  O   UNL     1      29.120 -15.901  -1.121  1.00  0.00    -0.507 OA
ATOM     28  H   UNL     1      29.569 -16.791  -0.966  1.00  0.00     0.293 HD
ENDBRANCH   7  27
TORSDOF 7
ENDMDL
MODEL 8
REMARK VINA RESULT:    -7.064      8.671     13.382
REMARK INTER + INTRA:          -9.041
REMARK INTER:                  -8.728
REMARK INTRA:                  -0.314
REMARK UNBOUND:                -0.326
REMARK SMILES Oc1cc(O)c2cc(O)c(-c3cc(O)c(O)c(O)c3)[o+]c2c1
REMARK SMILES IDX 10 1 20 2 21 3 22 4 2 5 3 6 4 7 6 8 7 9 8 10 11 11 12 12
REMARK SMILES IDX 13 13 19 14 15 15 17 16 14 17 16 19 18 21 9 23 1 25 5 27
REMARK H PARENT 14 18 16 20 18 22 9 24 1 26 5 28
REMARK Flexibility Score: inf
ROOT
ATOM      1  C   UNL     1      32.351 -14.002   1.083  1.00  0.00     0.402 A 
ATOM      2  O   UNL     1      31.312 -14.040   1.914  1.00  0.00    -0.202 OA
ATOM      3  C   UNL     1      30.162 -14.633   1.617  1.00  0.00     0.368 A 
ATOM      4  C   UNL     1      29.128 -14.623   2.557  1.00  0.00     0.162 A 
ATOM      5  C   UNL     1      27.907 -15.242   2.271  1.00  0.00     0.128 A 
ATOM      6  C   UNL     1      27.721 -15.875   1.040  1.00  0.00     0.093 A 
ATOM      7  C   UNL     1      28.741 -15.899   0.080  1.00  0.00     0.136 A 
ATOM      8  C   UNL     1      29.980 -15.270   0.365  1.00  0.00     0.125 A 
ATOM      9  C   UNL     1      31.053 -15.233  -0.541  1.00  0.00     0.078 A 
ATOM     10  C   UNL     1      32.244 -14.589  -0.191  1.00  0.00     0.223 A 
ENDROOT
BRANCH   1  11
ATOM     11  C   UNL     1      33.584 -13.318   1.534  1.00  0.00     0.091 A 
ATOM     12  C   UNL     1      33.941 -12.050   1.041  1.00  0.00     0.068 A 
ATOM     13  C   UNL     1      35.125 -11.429   1.464  1.00  0.00     0.162 A 
ATOM     14  C   UNL     1      34.447 -13.969   2.430  1.00  0.00     0.068 A 
ATOM     15  C   UNL     1      35.970 -12.080   2.378  1.00  0.00     0.200 A 
ATOM     16  C   UNL     1      35.630 -13.352   2.857  1.00  0.00     0.162 A 
BRANCH  13  17
ATOM     17  O   UNL     1      35.467 -10.169   0.973  1.00  0.00    -0.504 OA
ATOM     18  H   UNL     1      34.803  -9.600   0.460  1.00  0.00     0.293 HD
ENDBRANCH  13  17
BRANCH  15  19
ATOM     19  O   UNL     1      37.150 -11.480   2.816  1.00  0.00    -0.502 OA
ATOM     20  H   UNL     1      37.155 -10.743   3.512  1.00  0.00     0.293 HD
ENDBRANCH  15  19
BRANCH  16  21
ATOM     21  O   UNL     1      36.475 -13.997   3.758  1.00  0.00    -0.504 OA
ATOM     22  H   UNL     1      36.303 -13.973   4.757  1.00  0.00     0.293 HD
ENDBRANCH  16  21
ENDBRANCH   1  11
BRANCH  10  23
ATOM     23  O   UNL     1      33.291 -14.508  -1.109  1.00  0.00    -0.500 OA
ATOM     24  H   UNL     1      33.218 -14.908  -2.038  1.00  0.00     0.294 HD
ENDBRANCH  10  23
BRANCH   5  25
ATOM     25  O   UNL     1      26.873 -15.236   3.204  1.00  0.00    -0.507 OA
ATOM     26  H   UNL     1      27.052 -15.112   4.193  1.00  0.00     0.293 HD
ENDBRANCH   5  25
BRANCH   7  27
ATOM     27  O   UNL     1      28.475 -16.556  -1.125  1.00  0.00    -0.507 OA
ATOM     28  H   UNL     1      27.551 -16.694  -1.507  1.00  0.00     0.293 HD
ENDBRANCH   7  27
TORSDOF 7
ENDMDL
MODEL 9
REMARK VINA RESULT:    -7.028      1.958      7.061
REMARK INTER + INTRA:          -8.997
REMARK INTER:                  -8.619
REMARK INTRA:                  -0.378
REMARK UNBOUND:                -0.326
REMARK SMILES Oc1cc(O)c2cc(O)c(-c3cc(O)c(O)c(O)c3)[o+]c2c1
REMARK SMILES IDX 10 1 20 2 21 3 22 4 2 5 3 6 4 7 6 8 7 9 8 10 11 11 12 12
REMARK SMILES IDX 13 13 19 14 15 15 17 16 14 17 16 19 18 21 9 23 1 25 5 27
REMARK H PARENT 14 18 16 20 18 22 9 24 1 26 5 28
REMARK Flexibility Score: inf
ROOT
ATOM      1  C   UNL     1      39.630 -11.351   7.533  1.00  0.00     0.402 A 
ATOM      2  O   UNL     1      38.560 -12.137   7.638  1.00  0.00    -0.202 OA
ATOM      3  C   UNL     1      37.707 -12.345   6.642  1.00  0.00     0.368 A 
ATOM      4  C   UNL     1      36.613 -13.189   6.848  1.00  0.00     0.162 A 
ATOM      5  C   UNL     1      35.701 -13.428   5.816  1.00  0.00     0.128 A 
ATOM      6  C   UNL     1      35.885 -12.822   4.572  1.00  0.00     0.093 A 
ATOM      7  C   UNL     1      36.973 -11.971   4.339  1.00  0.00     0.136 A 
ATOM      8  C   UNL     1      37.899 -11.723   5.384  1.00  0.00     0.125 A 
ATOM      9  C   UNL     1      39.011 -10.875   5.246  1.00  0.00     0.078 A 
ATOM     10  C   UNL     1      39.879 -10.676   6.324  1.00  0.00     0.223 A 
ENDROOT
BRANCH   1  11
ATOM     11  C   UNL     1      40.512 -11.207   8.713  1.00  0.00     0.091 A 
ATOM     12  C   UNL     1      40.274 -10.224   9.689  1.00  0.00     0.068 A 
ATOM     13  C   UNL     1      41.134 -10.088  10.788  1.00  0.00     0.162 A 
ATOM     14  C   UNL     1      41.642 -12.030   8.835  1.00  0.00     0.068 A 
ATOM     15  C   UNL     1      42.251 -10.931  10.912  1.00  0.00     0.200 A 
ATOM     16  C   UNL     1      42.504 -11.900   9.932  1.00  0.00     0.162 A 
BRANCH  13  17
ATOM     17  O   UNL     1      40.886  -9.113  11.753  1.00  0.00    -0.504 OA
ATOM     18  H   UNL     1      40.647  -8.161  11.499  1.00  0.00     0.293 HD
ENDBRANCH  13  17
BRANCH  15  19
ATOM     19  O   UNL     1      43.117 -10.818  11.998  1.00  0.00    -0.502 OA
ATOM     20  H   UNL     1      43.091 -10.026  12.629  1.00  0.00     0.293 HD
ENDBRANCH  15  19
BRANCH  16  21
ATOM     21  O   UNL     1      43.617 -12.729  10.055  1.00  0.00    -0.504 OA
ATOM     22  H   UNL     1      44.551 -12.351  10.167  1.00  0.00     0.293 HD
ENDBRANCH  16  21
ENDBRANCH   1  11
BRANCH  10  23
ATOM     23  O   UNL     1      40.954  -9.795   6.202  1.00  0.00    -0.500 OA
ATOM     24  H   UNL     1      41.906 -10.085   6.397  1.00  0.00     0.294 HD
ENDBRANCH  10  23
BRANCH   5  25
ATOM     25  O   UNL     1      34.608 -14.269   6.016  1.00  0.00    -0.507 OA
ATOM     26  H   UNL     1      34.653 -15.258   5.800  1.00  0.00     0.293 HD
ENDBRANCH   5  25
BRANCH   7  27
ATOM     27  O   UNL     1      37.087 -11.405   3.065  1.00  0.00    -0.507 OA
ATOM     28  H   UNL     1      37.727 -11.726   2.355  1.00  0.00     0.293 HD
ENDBRANCH   7  27
TORSDOF 7
ENDMDL
