MODEL 1
REMARK VINA RESULT:    -2.134      0.000      0.000
REMARK INTER + INTRA:          -5.704
REMARK INTER:                  -4.130
REMARK INTRA:                  -1.574
REMARK UNBOUND:                -1.574
REMARK SMILES CCCCCCCCCCCCCCCCCC(=O)[O-]
REMARK SMILES IDX 10 1 11 2 12 3 13 4 14 5 15 6 16 7 17 8 18 9 19 10 20 11
REMARK SMILES IDX 9 12 8 13 7 14 6 15 5 16 4 17 3 18 2 19 1 20
REMARK H PARENT
REMARK Flexibility Score: inf
ROOT
ATOM      1  C   UNL     1       8.621 -21.054 -14.797  1.00  0.00     0.000 C 
ENDROOT
BRANCH   1   2
ATOM      2  C   UNL     1       9.855 -20.139 -14.696  1.00  0.00     0.000 C 
BRANCH   2   3
ATOM      3  C   UNL     1      11.091 -20.629 -15.476  1.00  0.00     0.000 C 
BRANCH   3   4
ATOM      4  C   UNL     1      10.813 -21.850 -16.379  1.00  0.00     0.000 C 
BRANCH   4   5
ATOM      5  C   UNL     1      11.121 -21.565 -17.860  1.00  0.00     0.000 C 
BRANCH   5   6
ATOM      6  C   UNL     1      10.255 -22.410 -18.812  1.00  0.00     0.000 C 
BRANCH   6   7
ATOM      7  C   UNL     1       9.386 -21.567 -19.771  1.00  0.00     0.006 C 
BRANCH   7   8
ATOM      8  C   UNL     1       9.031 -22.299 -21.075  1.00  0.00     0.053 C 
BRANCH   8   9
ATOM      9  C   UNL     1       9.149 -21.407 -22.273  1.00  0.00     0.041 C 
ATOM     10  O   UNL     1       8.932 -20.172 -22.167  1.00  0.00    -0.550 OA
ATOM     11  O   UNL     1       9.467 -21.949 -23.512  1.00  0.00    -0.550 OA
ENDBRANCH   8   9
ENDBRANCH   7   8
ENDBRANCH   6   7
ENDBRANCH   5   6
ENDBRANCH   4   5
ENDBRANCH   3   4
ENDBRANCH   2   3
ENDBRANCH   1   2
BRANCH   1  12
ATOM     12  C   UNL     1       7.346 -20.370 -15.322  1.00  0.00     0.000 C 
BRANCH  12  13
ATOM     13  C   UNL     1       7.009 -20.726 -16.787  1.00  0.00    -0.000 C 
BRANCH  13  14
ATOM     14  C   UNL     1       7.096 -22.239 -17.055  1.00  0.00    -0.000 C 
BRANCH  14  15
ATOM     15  C   UNL     1       5.944 -23.021 -16.402  1.00  0.00    -0.000 C 
BRANCH  15  16
ATOM     16  C   UNL     1       4.567 -22.407 -16.708  1.00  0.00    -0.000 C 
BRANCH  16  17
ATOM     17  C   UNL     1       3.912 -21.781 -15.467  1.00  0.00    -0.000 C 
BRANCH  17  18
ATOM     18  C   UNL     1       2.437 -21.410 -15.701  1.00  0.00    -0.000 C 
BRANCH  18  19
ATOM     19  C   UNL     1       1.514 -22.637 -15.707  1.00  0.00    -0.003 C 
ATOM     20  C   UNL     1       0.076 -22.291 -16.093  1.00  0.00     0.004 C 
ENDBRANCH  18  19
ENDBRANCH  17  18
ENDBRANCH  16  17
ENDBRANCH  15  16
ENDBRANCH  14  15
ENDBRANCH  13  14
ENDBRANCH  12  13
ENDBRANCH   1  12
TORSDOF 16
ENDMDL
MODEL 2
REMARK VINA RESULT:    -1.963      5.331      9.837
REMARK INTER + INTRA:          -5.373
REMARK INTER:                  -4.670
REMARK INTRA:                  -0.703
REMARK UNBOUND:                -1.574
REMARK SMILES CCCCCCCCCCCCCCCCCC(=O)[O-]
REMARK SMILES IDX 10 1 11 2 12 3 13 4 14 5 15 6 16 7 17 8 18 9 19 10 20 11
REMARK SMILES IDX 9 12 8 13 7 14 6 15 5 16 4 17 3 18 2 19 1 20
REMARK H PARENT
REMARK Flexibility Score: inf
ROOT
ATOM      1  C   UNL     1      -2.085 -22.355 -15.111  1.00  0.00     0.000 C 
ENDROOT
BRANCH   1   2
ATOM      2  C   UNL     1      -0.757 -23.122 -15.244  1.00  0.00     0.000 C 
BRANCH   2   3
ATOM      3  C   UNL     1       0.389 -22.325 -15.898  1.00  0.00     0.000 C 
BRANCH   3   4
ATOM      4  C   UNL     1       1.787 -22.936 -15.658  1.00  0.00     0.000 C 
BRANCH   4   5
ATOM      5  C   UNL     1       2.913 -21.896 -15.808  1.00  0.00     0.000 C 
BRANCH   5   6
ATOM      6  C   UNL     1       4.251 -22.538 -16.218  1.00  0.00     0.000 C 
BRANCH   6   7
ATOM      7  C   UNL     1       5.472 -21.618 -15.993  1.00  0.00     0.006 C 
BRANCH   7   8
ATOM      8  C   UNL     1       6.811 -22.372 -15.995  1.00  0.00     0.053 C 
BRANCH   8   9
ATOM      9  C   UNL     1       7.908 -21.573 -16.629  1.00  0.00     0.041 C 
ATOM     10  O   UNL     1       7.889 -21.342 -17.866  1.00  0.00    -0.550 OA
ATOM     11  O   UNL     1       8.965 -21.110 -15.857  1.00  0.00    -0.550 OA
ENDBRANCH   8   9
ENDBRANCH   7   8
ENDBRANCH   6   7
ENDBRANCH   5   6
ENDBRANCH   4   5
ENDBRANCH   3   4
ENDBRANCH   2   3
ENDBRANCH   1   2
BRANCH   1  12
ATOM     12  C   UNL     1      -3.329 -23.120 -15.599  1.00  0.00     0.000 C 
BRANCH  12  13
ATOM     13  C   UNL     1      -4.659 -22.384 -15.323  1.00  0.00    -0.000 C 
BRANCH  13  14
ATOM     14  C   UNL     1      -5.382 -21.979 -16.619  1.00  0.00    -0.000 C 
BRANCH  14  15
ATOM     15  C   UNL     1      -6.605 -21.085 -16.358  1.00  0.00    -0.000 C 
BRANCH  15  16
ATOM     16  C   UNL     1      -7.882 -21.621 -17.030  1.00  0.00    -0.000 C 
BRANCH  16  17
ATOM     17  C   UNL     1      -8.956 -22.033 -16.011  1.00  0.00    -0.000 C 
BRANCH  17  18
ATOM     18  C   UNL     1      -8.885 -21.210 -14.713  1.00  0.00    -0.000 C 
BRANCH  18  19
ATOM     19  C   UNL     1      -8.491 -22.060 -13.497  1.00  0.00    -0.003 C 
ATOM     20  C   UNL     1      -7.550 -21.325 -12.542  1.00  0.00     0.004 C 
ENDBRANCH  18  19
ENDBRANCH  17  18
ENDBRANCH  16  17
ENDBRANCH  15  16
ENDBRANCH  14  15
ENDBRANCH  13  14
ENDBRANCH  12  13
ENDBRANCH   1  12
TORSDOF 16
ENDMDL
MODEL 3
REMARK VINA RESULT:    -1.822      7.445     13.032
REMARK INTER + INTRA:          -5.100
REMARK INTER:                  -4.451
REMARK INTRA:                  -0.649
REMARK UNBOUND:                -1.574
REMARK SMILES CCCCCCCCCCCCCCCCCC(=O)[O-]
REMARK SMILES IDX 10 1 11 2 12 3 13 4 14 5 15 6 16 7 17 8 18 9 19 10 20 11
REMARK SMILES IDX 9 12 8 13 7 14 6 15 5 16 4 17 3 18 2 19 1 20
REMARK H PARENT
REMARK Flexibility Score: inf
ROOT
ATOM      1  C   UNL     1      -1.376 -22.076 -15.592  1.00  0.00     0.000 C 
ENDROOT
BRANCH   1   2
ATOM      2  C   UNL     1      -2.408 -22.743 -14.664  1.00  0.00     0.000 C 
BRANCH   2   3
ATOM      3  C   UNL     1      -3.788 -22.993 -15.304  1.00  0.00     0.000 C 
BRANCH   3   4
ATOM      4  C   UNL     1      -4.225 -21.889 -16.291  1.00  0.00     0.000 C 
BRANCH   4   5
ATOM      5  C   UNL     1      -5.611 -22.166 -16.902  1.00  0.00     0.000 C 
BRANCH   5   6
ATOM      6  C   UNL     1      -6.580 -20.984 -16.717  1.00  0.00     0.000 C 
BRANCH   6   7
ATOM      7  C   UNL     1      -7.876 -21.359 -15.964  1.00  0.00     0.006 C 
BRANCH   7   8
ATOM      8  C   UNL     1      -7.640 -21.741 -14.495  1.00  0.00     0.053 C 
BRANCH   8   9
ATOM      9  C   UNL     1      -8.230 -20.741 -13.549  1.00  0.00     0.041 C 
ATOM     10  O   UNL     1      -8.170 -20.930 -12.307  1.00  0.00    -0.550 OA
ATOM     11  O   UNL     1      -8.875 -19.614 -14.045  1.00  0.00    -0.550 OA
ENDBRANCH   8   9
ENDBRANCH   7   8
ENDBRANCH   6   7
ENDBRANCH   5   6
ENDBRANCH   4   5
ENDBRANCH   3   4
ENDBRANCH   2   3
ENDBRANCH   1   2
BRANCH   1  12
ATOM     12  C   UNL     1       0.043 -22.670 -15.518  1.00  0.00     0.000 C 
BRANCH  12  13
ATOM     13  C   UNL     1       1.103 -21.840 -16.275  1.00  0.00    -0.000 C 
BRANCH  13  14
ATOM     14  C   UNL     1       2.416 -21.710 -15.483  1.00  0.00    -0.000 C 
BRANCH  14  15
ATOM     15  C   UNL     1       3.576 -22.482 -16.132  1.00  0.00    -0.000 C 
BRANCH  15  16
ATOM     16  C   UNL     1       4.911 -21.721 -16.049  1.00  0.00    -0.000 C 
BRANCH  16  17
ATOM     17  C   UNL     1       6.030 -22.406 -16.850  1.00  0.00    -0.000 C 
BRANCH  17  18
ATOM     18  C   UNL     1       7.416 -22.215 -16.209  1.00  0.00    -0.000 C 
BRANCH  18  19
ATOM     19  C   UNL     1       7.544 -20.874 -15.472  1.00  0.00    -0.003 C 
ATOM     20  C   UNL     1       8.809 -20.789 -14.617  1.00  0.00     0.004 C 
ENDBRANCH  18  19
ENDBRANCH  17  18
ENDBRANCH  16  17
ENDBRANCH  15  16
ENDBRANCH  14  15
ENDBRANCH  13  14
ENDBRANCH  12  13
ENDBRANCH   1  12
TORSDOF 16
ENDMDL
MODEL 4
REMARK VINA RESULT:    -1.804      4.377      8.213
REMARK INTER + INTRA:          -5.065
REMARK INTER:                  -4.316
REMARK INTRA:                  -0.749
REMARK UNBOUND:                -1.574
REMARK SMILES CCCCCCCCCCCCCCCCCC(=O)[O-]
REMARK SMILES IDX 10 1 11 2 12 3 13 4 14 5 15 6 16 7 17 8 18 9 19 10 20 11
REMARK SMILES IDX 9 12 8 13 7 14 6 15 5 16 4 17 3 18 2 19 1 20
REMARK H PARENT
REMARK Flexibility Score: inf
ROOT
ATOM      1  C   UNL     1       0.224 -22.235 -15.882  1.00  0.00     0.000 C 
ENDROOT
BRANCH   1   2
ATOM      2  C   UNL     1       1.501 -23.091 -15.948  1.00  0.00     0.000 C 
BRANCH   2   3
ATOM      3  C   UNL     1       2.817 -22.308 -15.768  1.00  0.00     0.000 C 
BRANCH   3   4
ATOM      4  C   UNL     1       4.080 -23.122 -16.124  1.00  0.00     0.000 C 
BRANCH   4   5
ATOM      5  C   UNL     1       5.190 -22.244 -16.730  1.00  0.00     0.000 C 
BRANCH   5   6
ATOM      6  C   UNL     1       5.557 -21.055 -15.823  1.00  0.00     0.000 C 
BRANCH   6   7
ATOM      7  C   UNL     1       7.079 -20.841 -15.670  1.00  0.00     0.006 C 
BRANCH   7   8
ATOM      8  C   UNL     1       7.912 -22.068 -16.076  1.00  0.00     0.053 C 
BRANCH   8   9
ATOM      9  C   UNL     1       8.759 -21.801 -17.281  1.00  0.00     0.041 C 
ATOM     10  O   UNL     1       8.221 -21.546 -18.390  1.00  0.00    -0.550 OA
ATOM     11  O   UNL     1      10.143 -21.866 -17.184  1.00  0.00    -0.550 OA
ENDBRANCH   8   9
ENDBRANCH   7   8
ENDBRANCH   6   7
ENDBRANCH   5   6
ENDBRANCH   4   5
ENDBRANCH   3   4
ENDBRANCH   2   3
ENDBRANCH   1   2
BRANCH   1  12
ATOM     12  C   UNL     1      -0.958 -22.888 -15.142  1.00  0.00     0.000 C 
BRANCH  12  13
ATOM     13  C   UNL     1      -2.332 -22.288 -15.515  1.00  0.00    -0.000 C 
BRANCH  13  14
ATOM     14  C   UNL     1      -3.502 -23.114 -14.951  1.00  0.00    -0.000 C 
BRANCH  14  15
ATOM     15  C   UNL     1      -4.870 -22.489 -15.267  1.00  0.00    -0.000 C 
BRANCH  15  16
ATOM     16  C   UNL     1      -4.891 -21.769 -16.626  1.00  0.00    -0.000 C 
BRANCH  16  17
ATOM     17  C   UNL     1      -6.313 -21.403 -17.079  1.00  0.00    -0.000 C 
BRANCH  17  18
ATOM     18  C   UNL     1      -7.281 -21.224 -15.896  1.00  0.00    -0.000 C 
BRANCH  18  19
ATOM     19  C   UNL     1      -8.563 -22.055 -16.053  1.00  0.00    -0.003 C 
ATOM     20  C   UNL     1      -8.766 -23.048 -14.909  1.00  0.00     0.004 C 
ENDBRANCH  18  19
ENDBRANCH  17  18
ENDBRANCH  16  17
ENDBRANCH  15  16
ENDBRANCH  14  15
ENDBRANCH  13  14
ENDBRANCH  12  13
ENDBRANCH   1  12
TORSDOF 16
ENDMDL
MODEL 5
REMARK VINA RESULT:    -1.769      2.951      7.117
REMARK INTER + INTRA:          -4.997
REMARK INTER:                  -3.295
REMARK INTRA:                  -1.702
REMARK UNBOUND:                -1.574
REMARK SMILES CCCCCCCCCCCCCCCCCC(=O)[O-]
REMARK SMILES IDX 10 1 11 2 12 3 13 4 14 5 15 6 16 7 17 8 18 9 19 10 20 11
REMARK SMILES IDX 9 12 8 13 7 14 6 15 5 16 4 17 3 18 2 19 1 20
REMARK H PARENT
REMARK Flexibility Score: inf
ROOT
ATOM      1  C   UNL     1       7.095 -23.030 -19.399  1.00  0.00     0.000 C 
ENDROOT
BRANCH   1   2
ATOM      2  C   UNL     1       5.736 -22.923 -18.683  1.00  0.00     0.000 C 
BRANCH   2   3
ATOM      3  C   UNL     1       5.798 -23.073 -17.150  1.00  0.00     0.000 C 
BRANCH   3   4
ATOM      4  C   UNL     1       4.583 -22.462 -16.417  1.00  0.00     0.000 C 
BRANCH   4   5
ATOM      5  C   UNL     1       4.953 -21.190 -15.632  1.00  0.00     0.000 C 
BRANCH   5   6
ATOM      6  C   UNL     1       6.179 -20.473 -16.225  1.00  0.00     0.000 C 
BRANCH   6   7
ATOM      7  C   UNL     1       7.319 -20.251 -15.206  1.00  0.00     0.006 C 
BRANCH   7   8
ATOM      8  C   UNL     1       8.500 -21.216 -15.392  1.00  0.00     0.053 C 
BRANCH   8   9
ATOM      9  C   UNL     1       9.780 -20.652 -14.856  1.00  0.00     0.041 C 
ATOM     10  O   UNL     1      10.623 -20.140 -15.637  1.00  0.00    -0.550 OA
ATOM     11  O   UNL     1      10.052 -20.720 -13.495  1.00  0.00    -0.550 OA
ENDBRANCH   8   9
ENDBRANCH   7   8
ENDBRANCH   6   7
ENDBRANCH   5   6
ENDBRANCH   4   5
ENDBRANCH   3   4
ENDBRANCH   2   3
ENDBRANCH   1   2
BRANCH   1  12
ATOM     12  C   UNL     1       8.292 -22.470 -18.607  1.00  0.00     0.000 C 
BRANCH  12  13
ATOM     13  C   UNL     1       9.649 -23.083 -19.016  1.00  0.00    -0.000 C 
BRANCH  13  14
ATOM     14  C   UNL     1      10.545 -22.075 -19.757  1.00  0.00    -0.000 C 
BRANCH  14  15
ATOM     15  C   UNL     1      11.125 -22.648 -21.060  1.00  0.00    -0.000 C 
BRANCH  15  16
ATOM     16  C   UNL     1      10.961 -21.688 -22.251  1.00  0.00    -0.000 C 
BRANCH  16  17
ATOM     17  C   UNL     1      10.120 -20.450 -21.899  1.00  0.00    -0.000 C 
BRANCH  17  18
ATOM     18  C   UNL     1       8.838 -20.348 -22.743  1.00  0.00    -0.000 C 
BRANCH  18  19
ATOM     19  C   UNL     1       7.718 -21.262 -22.224  1.00  0.00    -0.003 C 
ATOM     20  C   UNL     1       7.805 -22.681 -22.788  1.00  0.00     0.004 C 
ENDBRANCH  18  19
ENDBRANCH  17  18
ENDBRANCH  16  17
ENDBRANCH  15  16
ENDBRANCH  14  15
ENDBRANCH  13  14
ENDBRANCH  12  13
ENDBRANCH   1  12
TORSDOF 16
ENDMDL
MODEL 6
REMARK VINA RESULT:    -1.584      4.846      9.055
REMARK INTER + INTRA:          -4.640
REMARK INTER:                  -3.843
REMARK INTRA:                  -0.797
REMARK UNBOUND:                -1.574
REMARK SMILES CCCCCCCCCCCCCCCCCC(=O)[O-]
REMARK SMILES IDX 10 1 11 2 12 3 13 4 14 5 15 6 16 7 17 8 18 9 19 10 20 11
REMARK SMILES IDX 9 12 8 13 7 14 6 15 5 16 4 17 3 18 2 19 1 20
REMARK H PARENT
REMARK Flexibility Score: inf
ROOT
ATOM      1  C   UNL     1       6.444 -20.582 -16.188  1.00  0.00     0.000 C 
ENDROOT
BRANCH   1   2
ATOM      2  C   UNL     1       5.134 -21.235 -15.713  1.00  0.00     0.000 C 
BRANCH   2   3
ATOM      3  C   UNL     1       4.743 -22.524 -16.463  1.00  0.00     0.000 C 
BRANCH   3   4
ATOM      4  C   UNL     1       3.301 -22.997 -16.177  1.00  0.00     0.000 C 
BRANCH   4   5
ATOM      5  C   UNL     1       2.418 -21.870 -15.610  1.00  0.00     0.000 C 
BRANCH   5   6
ATOM      6  C   UNL     1       0.978 -21.924 -16.154  1.00  0.00     0.000 C 
BRANCH   6   7
ATOM      7  C   UNL     1      -0.028 -22.572 -15.177  1.00  0.00     0.006 C 
BRANCH   7   8
ATOM      8  C   UNL     1      -1.481 -22.520 -15.676  1.00  0.00     0.053 C 
BRANCH   8   9
ATOM      9  C   UNL     1      -2.467 -22.659 -14.557  1.00  0.00     0.041 C 
ATOM     10  O   UNL     1      -2.080 -22.610 -13.361  1.00  0.00    -0.550 OA
ATOM     11  O   UNL     1      -3.810 -22.875 -14.839  1.00  0.00    -0.550 OA
ENDBRANCH   8   9
ENDBRANCH   7   8
ENDBRANCH   6   7
ENDBRANCH   5   6
ENDBRANCH   4   5
ENDBRANCH   3   4
ENDBRANCH   2   3
ENDBRANCH   1   2
BRANCH   1  12
ATOM     12  C   UNL     1       7.652 -20.797 -15.258  1.00  0.00     0.000 C 
BRANCH  12  13
ATOM     13  C   UNL     1       8.932 -21.248 -15.996  1.00  0.00    -0.000 C 
BRANCH  13  14
ATOM     14  C   UNL     1       8.622 -21.903 -17.353  1.00  0.00    -0.000 C 
BRANCH  14  15
ATOM     15  C   UNL     1       9.893 -22.245 -18.147  1.00  0.00    -0.000 C 
BRANCH  15  16
ATOM     16  C   UNL     1       9.836 -21.740 -19.599  1.00  0.00    -0.000 C 
BRANCH  16  17
ATOM     17  C   UNL     1       9.316 -22.808 -20.575  1.00  0.00    -0.000 C 
BRANCH  17  18
ATOM     18  C   UNL     1       8.076 -22.340 -21.355  1.00  0.00    -0.000 C 
BRANCH  18  19
ATOM     19  C   UNL     1       8.425 -21.809 -22.753  1.00  0.00    -0.003 C 
ATOM     20  C   UNL     1       9.812 -22.251 -23.222  1.00  0.00     0.004 C 
ENDBRANCH  18  19
ENDBRANCH  17  18
ENDBRANCH  16  17
ENDBRANCH  15  16
ENDBRANCH  14  15
ENDBRANCH  13  14
ENDBRANCH  12  13
ENDBRANCH   1  12
TORSDOF 16
ENDMDL
MODEL 7
REMARK VINA RESULT:    -1.447      1.636      4.824
REMARK INTER + INTRA:          -4.374
REMARK INTER:                  -3.917
REMARK INTRA:                  -0.457
REMARK UNBOUND:                -1.574
REMARK SMILES CCCCCCCCCCCCCCCCCC(=O)[O-]
REMARK SMILES IDX 10 1 11 2 12 3 13 4 14 5 15 6 16 7 17 8 18 9 19 10 20 11
REMARK SMILES IDX 9 12 8 13 7 14 6 15 5 16 4 17 3 18 2 19 1 20
REMARK H PARENT
REMARK Flexibility Score: inf
ROOT
ATOM      1  C   UNL     1       5.907 -23.085 -16.667  1.00  0.00     0.000 C 
ENDROOT
BRANCH   1   2
ATOM      2  C   UNL     1       6.721 -23.102 -17.973  1.00  0.00     0.000 C 
BRANCH   2   3
ATOM      3  C   UNL     1       7.763 -21.973 -18.101  1.00  0.00     0.000 C 
BRANCH   3   4
ATOM      4  C   UNL     1       9.200 -22.409 -17.744  1.00  0.00     0.000 C 
BRANCH   4   5
ATOM      5  C   UNL     1      10.035 -22.751 -18.991  1.00  0.00     0.000 C 
BRANCH   5   6
ATOM      6  C   UNL     1      10.571 -21.494 -19.700  1.00  0.00     0.000 C 
BRANCH   6   7
ATOM      7  C   UNL     1      10.598 -21.615 -21.240  1.00  0.00     0.006 C 
BRANCH   7   8
ATOM      8  C   UNL     1      10.025 -22.944 -21.757  1.00  0.00     0.053 C 
BRANCH   8   9
ATOM      9  C   UNL     1       8.612 -22.803 -22.232  1.00  0.00     0.041 C 
ATOM     10  O   UNL     1       8.374 -22.507 -23.432  1.00  0.00    -0.550 OA
ATOM     11  O   UNL     1       7.561 -22.969 -21.341  1.00  0.00    -0.550 OA
ENDBRANCH   8   9
ENDBRANCH   7   8
ENDBRANCH   6   7
ENDBRANCH   5   6
ENDBRANCH   4   5
ENDBRANCH   3   4
ENDBRANCH   2   3
ENDBRANCH   1   2
BRANCH   1  12
ATOM     12  C   UNL     1       4.554 -22.354 -16.754  1.00  0.00     0.000 C 
BRANCH  12  13
ATOM     13  C   UNL     1       4.157 -21.627 -15.451  1.00  0.00    -0.000 C 
BRANCH  13  14
ATOM     14  C   UNL     1       5.338 -20.864 -14.824  1.00  0.00    -0.000 C 
BRANCH  14  15
ATOM     15  C   UNL     1       6.287 -20.277 -15.881  1.00  0.00    -0.000 C 
BRANCH  15  16
ATOM     16  C   UNL     1       7.535 -19.626 -15.257  1.00  0.00    -0.000 C 
BRANCH  16  17
ATOM     17  C   UNL     1       8.611 -20.657 -14.882  1.00  0.00    -0.000 C 
BRANCH  17  18
ATOM     18  C   UNL     1       9.718 -20.058 -13.996  1.00  0.00    -0.000 C 
BRANCH  18  19
ATOM     19  C   UNL     1      11.125 -20.323 -14.551  1.00  0.00    -0.003 C 
ATOM     20  C   UNL     1      11.124 -20.597 -16.056  1.00  0.00     0.004 C 
ENDBRANCH  18  19
ENDBRANCH  17  18
ENDBRANCH  16  17
ENDBRANCH  15  16
ENDBRANCH  14  15
ENDBRANCH  13  14
ENDBRANCH  12  13
ENDBRANCH   1  12
TORSDOF 16
ENDMDL
MODEL 8
REMARK VINA RESULT:    -1.444      1.572      3.036
REMARK INTER + INTRA:          -4.368
REMARK INTER:                  -3.655
REMARK INTRA:                  -0.713
REMARK UNBOUND:                -1.574
REMARK SMILES CCCCCCCCCCCCCCCCCC(=O)[O-]
REMARK SMILES IDX 10 1 11 2 12 3 13 4 14 5 15 6 16 7 17 8 18 9 19 10 20 11
REMARK SMILES IDX 9 12 8 13 7 14 6 15 5 16 4 17 3 18 2 19 1 20
REMARK H PARENT
REMARK Flexibility Score: inf
ROOT
ATOM      1  C   UNL     1       5.768 -20.822 -15.626  1.00  0.00     0.000 C 
ENDROOT
BRANCH   1   2
ATOM      2  C   UNL     1       7.176 -20.276 -15.332  1.00  0.00     0.000 C 
BRANCH   2   3
ATOM      3  C   UNL     1       8.280 -21.348 -15.235  1.00  0.00     0.000 C 
BRANCH   3   4
ATOM      4  C   UNL     1       9.349 -21.241 -16.344  1.00  0.00     0.000 C 
BRANCH   4   5
ATOM      5  C   UNL     1       9.012 -22.113 -17.567  1.00  0.00     0.000 C 
BRANCH   5   6
ATOM      6  C   UNL     1      10.272 -22.675 -18.251  1.00  0.00     0.000 C 
BRANCH   6   7
ATOM      7  C   UNL     1      10.581 -22.016 -19.614  1.00  0.00     0.006 C 
BRANCH   7   8
ATOM      8  C   UNL     1       9.343 -21.410 -20.294  1.00  0.00     0.053 C 
BRANCH   8   9
ATOM      9  C   UNL     1       9.625 -20.982 -21.701  1.00  0.00     0.041 C 
ATOM     10  O   UNL     1       8.940 -21.441 -22.652  1.00  0.00    -0.550 OA
ATOM     11  O   UNL     1      10.664 -20.100 -21.963  1.00  0.00    -0.550 OA
ENDBRANCH   8   9
ENDBRANCH   7   8
ENDBRANCH   6   7
ENDBRANCH   5   6
ENDBRANCH   4   5
ENDBRANCH   3   4
ENDBRANCH   2   3
ENDBRANCH   1   2
BRANCH   1  12
ATOM     12  C   UNL     1       5.730 -22.076 -16.518  1.00  0.00     0.000 C 
BRANCH  12  13
ATOM     13  C   UNL     1       4.399 -22.855 -16.440  1.00  0.00    -0.000 C 
BRANCH  13  14
ATOM     14  C   UNL     1       3.266 -22.013 -15.825  1.00  0.00    -0.000 C 
BRANCH  14  15
ATOM     15  C   UNL     1       1.975 -22.823 -15.620  1.00  0.00    -0.000 C 
BRANCH  15  16
ATOM     16  C   UNL     1       0.711 -22.013 -15.959  1.00  0.00    -0.000 C 
BRANCH  16  17
ATOM     17  C   UNL     1      -0.582 -22.791 -15.667  1.00  0.00    -0.000 C 
BRANCH  17  18
ATOM     18  C   UNL     1      -1.382 -22.187 -14.500  1.00  0.00    -0.000 C 
BRANCH  18  19
ATOM     19  C   UNL     1      -2.690 -22.945 -14.230  1.00  0.00    -0.003 C 
ATOM     20  C   UNL     1      -3.544 -23.117 -15.487  1.00  0.00     0.004 C 
ENDBRANCH  18  19
ENDBRANCH  17  18
ENDBRANCH  16  17
ENDBRANCH  15  16
ENDBRANCH  14  15
ENDBRANCH  13  14
ENDBRANCH  12  13
ENDBRANCH   1  12
TORSDOF 16
ENDMDL
MODEL 9
REMARK VINA RESULT:    -1.342      6.850     12.069
REMARK INTER + INTRA:          -4.171
REMARK INTER:                  -3.357
REMARK INTRA:                  -0.814
REMARK UNBOUND:                -1.574
REMARK SMILES CCCCCCCCCCCCCCCCCC(=O)[O-]
REMARK SMILES IDX 10 1 11 2 12 3 13 4 14 5 15 6 16 7 17 8 18 9 19 10 20 11
REMARK SMILES IDX 9 12 8 13 7 14 6 15 5 16 4 17 3 18 2 19 1 20
REMARK H PARENT
REMARK Flexibility Score: inf
ROOT
ATOM      1  C   UNL     1       0.423 -22.714 -15.646  1.00  0.00     0.000 C 
ENDROOT
BRANCH   1   2
ATOM      2  C   UNL     1      -0.923 -22.166 -15.137  1.00  0.00     0.000 C 
BRANCH   2   3
ATOM      3  C   UNL     1      -2.118 -23.125 -15.305  1.00  0.00     0.000 C 
BRANCH   3   4
ATOM      4  C   UNL     1      -3.345 -22.744 -14.448  1.00  0.00     0.000 C 
BRANCH   4   5
ATOM      5  C   UNL     1      -4.668 -22.898 -15.221  1.00  0.00     0.000 C 
BRANCH   5   6
ATOM      6  C   UNL     1      -4.961 -21.688 -16.126  1.00  0.00     0.000 C 
BRANCH   6   7
ATOM      7  C   UNL     1      -5.940 -22.001 -17.280  1.00  0.00     0.006 C 
BRANCH   7   8
ATOM      8  C   UNL     1      -7.279 -21.257 -17.163  1.00  0.00     0.053 C 
BRANCH   8   9
ATOM      9  C   UNL     1      -7.945 -21.497 -15.843  1.00  0.00     0.041 C 
ATOM     10  O   UNL     1      -8.399 -22.636 -15.560  1.00  0.00    -0.550 OA
ATOM     11  O   UNL     1      -8.092 -20.452 -14.940  1.00  0.00    -0.550 OA
ENDBRANCH   8   9
ENDBRANCH   7   8
ENDBRANCH   6   7
ENDBRANCH   5   6
ENDBRANCH   4   5
ENDBRANCH   3   4
ENDBRANCH   2   3
ENDBRANCH   1   2
BRANCH   1  12
ATOM     12  C   UNL     1       1.469 -21.641 -16.002  1.00  0.00     0.000 C 
BRANCH  12  13
ATOM     13  C   UNL     1       2.885 -21.955 -15.474  1.00  0.00    -0.000 C 
BRANCH  13  14
ATOM     14  C   UNL     1       3.622 -22.980 -16.354  1.00  0.00    -0.000 C 
BRANCH  14  15
ATOM     15  C   UNL     1       5.125 -22.682 -16.474  1.00  0.00    -0.000 C 
BRANCH  15  16
ATOM     16  C   UNL     1       5.495 -21.288 -15.938  1.00  0.00    -0.000 C 
BRANCH  16  17
ATOM     17  C   UNL     1       6.817 -20.764 -16.519  1.00  0.00    -0.000 C 
BRANCH  17  18
ATOM     18  C   UNL     1       8.043 -21.507 -15.960  1.00  0.00    -0.000 C 
BRANCH  18  19
ATOM     19  C   UNL     1       8.978 -22.016 -17.066  1.00  0.00    -0.003 C 
ATOM     20  C   UNL     1       8.354 -21.915 -18.459  1.00  0.00     0.004 C 
ENDBRANCH  18  19
ENDBRANCH  17  18
ENDBRANCH  16  17
ENDBRANCH  15  16
ENDBRANCH  14  15
ENDBRANCH  13  14
ENDBRANCH  12  13
ENDBRANCH   1  12
TORSDOF 16
ENDMDL
