MODEL 1
REMARK VINA RESULT:    -4.624      0.000      0.000
REMARK INTER + INTRA:          -7.984
REMARK INTER:                  -7.327
REMARK INTRA:                  -0.657
REMARK UNBOUND:                -0.657
REMARK SMILES CCCCCCCCCCCC(=O)[O-]
REMARK SMILES IDX 7 1 8 2 9 3 10 4 11 5 12 6 13 7 14 8 6 9 5 10 4 11 3 12 2 13
REMARK SMILES IDX 1 14
REMARK H PARENT
REMARK Flexibility Score: inf
ROOT
ATOM      1  C   UNL     1      29.115  -1.853  29.861  1.00  0.00     0.000 C 
ENDROOT
BRANCH   1   2
ATOM      2  C   UNL     1      29.993  -3.114  29.847  1.00  0.00     0.000 C 
BRANCH   2   3
ATOM      3  C   UNL     1      29.144  -4.371  29.624  1.00  0.00     0.000 C 
BRANCH   3   4
ATOM      4  C   UNL     1      29.525  -5.475  30.621  1.00  0.00     0.006 C 
BRANCH   4   5
ATOM      5  C   UNL     1      28.462  -6.580  30.698  1.00  0.00     0.053 C 
BRANCH   5   6
ATOM      6  C   UNL     1      29.016  -7.913  30.299  1.00  0.00     0.041 C 
ATOM      7  O   UNL     1      29.399  -8.729  31.178  1.00  0.00    -0.550 OA
ATOM      8  O   UNL     1      29.076  -8.269  28.958  1.00  0.00    -0.550 OA
ENDBRANCH   5   6
ENDBRANCH   4   5
ENDBRANCH   3   4
ENDBRANCH   2   3
ENDBRANCH   1   2
BRANCH   1   9
ATOM      9  C   UNL     1      29.876  -0.599  30.327  1.00  0.00     0.000 C 
BRANCH   9  10
ATOM     10  C   UNL     1      29.337   0.050  31.619  1.00  0.00    -0.000 C 
BRANCH  10  11
ATOM     11  C   UNL     1      27.835  -0.163  31.879  1.00  0.00    -0.000 C 
BRANCH  11  12
ATOM     12  C   UNL     1      26.953   0.867  31.158  1.00  0.00    -0.000 C 
BRANCH  12  13
ATOM     13  C   UNL     1      26.024   0.182  30.150  1.00  0.00    -0.003 C 
ATOM     14  C   UNL     1      26.465   0.462  28.716  1.00  0.00     0.004 C 
ENDBRANCH  12  13
ENDBRANCH  11  12
ENDBRANCH  10  11
ENDBRANCH   9  10
ENDBRANCH   1   9
TORSDOF 10
ENDMDL
MODEL 2
REMARK VINA RESULT:    -4.585      7.691     10.412
REMARK INTER + INTRA:          -7.923
REMARK INTER:                  -7.215
REMARK INTRA:                  -0.708
REMARK UNBOUND:                -0.657
REMARK SMILES CCCCCCCCCCCC(=O)[O-]
REMARK SMILES IDX 7 1 8 2 9 3 10 4 11 5 12 6 13 7 14 8 6 9 5 10 4 11 3 12 2 13
REMARK SMILES IDX 1 14
REMARK H PARENT
REMARK Flexibility Score: inf
ROOT
ATOM      1  C   UNL     1      27.843   2.650  29.244  1.00  0.00     0.000 C 
ENDROOT
BRANCH   1   2
ATOM      2  C   UNL     1      27.342   4.083  29.014  1.00  0.00     0.000 C 
BRANCH   2   3
ATOM      3  C   UNL     1      27.621   4.966  30.235  1.00  0.00     0.000 C 
BRANCH   3   4
ATOM      4  C   UNL     1      27.151   6.408  29.991  1.00  0.00     0.006 C 
BRANCH   4   5
ATOM      5  C   UNL     1      28.222   7.440  30.368  1.00  0.00     0.053 C 
BRANCH   5   6
ATOM      6  C   UNL     1      27.796   8.834  30.025  1.00  0.00     0.041 C 
ATOM      7  O   UNL     1      28.656   9.702  29.722  1.00  0.00    -0.550 OA
ATOM      8  O   UNL     1      26.448   9.165  30.008  1.00  0.00    -0.550 OA
ENDBRANCH   5   6
ENDBRANCH   4   5
ENDBRANCH   3   4
ENDBRANCH   2   3
ENDBRANCH   1   2
BRANCH   1   9
ATOM      9  C   UNL     1      26.774   1.585  28.944  1.00  0.00     0.000 C 
BRANCH   9  10
ATOM     10  C   UNL     1      26.563   0.537  30.055  1.00  0.00    -0.000 C 
BRANCH  10  11
ATOM     11  C   UNL     1      27.142   0.917  31.429  1.00  0.00    -0.000 C 
BRANCH  11  12
ATOM     12  C   UNL     1      28.222  -0.062  31.913  1.00  0.00    -0.000 C 
BRANCH  12  13
ATOM     13  C   UNL     1      29.614   0.576  31.836  1.00  0.00    -0.003 C 
ATOM     14  C   UNL     1      30.317   0.210  30.532  1.00  0.00     0.004 C 
ENDBRANCH  12  13
ENDBRANCH  11  12
ENDBRANCH  10  11
ENDBRANCH   9  10
ENDBRANCH   1   9
TORSDOF 10
ENDMDL
MODEL 3
REMARK VINA RESULT:    -4.573      7.800     10.432
REMARK INTER + INTRA:          -7.904
REMARK INTER:                  -7.230
REMARK INTRA:                  -0.674
REMARK UNBOUND:                -0.657
REMARK SMILES CCCCCCCCCCCC(=O)[O-]
REMARK SMILES IDX 7 1 8 2 9 3 10 4 11 5 12 6 13 7 14 8 6 9 5 10 4 11 3 12 2 13
REMARK SMILES IDX 1 14
REMARK H PARENT
REMARK Flexibility Score: inf
ROOT
ATOM      1  C   UNL     1      28.149   3.029  30.980  1.00  0.00     0.000 C 
ENDROOT
BRANCH   1   2
ATOM      2  C   UNL     1      28.041   4.284  31.857  1.00  0.00     0.000 C 
BRANCH   2   3
ATOM      3  C   UNL     1      28.420   5.541  31.066  1.00  0.00     0.000 C 
BRANCH   3   4
ATOM      4  C   UNL     1      27.184   6.413  30.793  1.00  0.00     0.006 C 
BRANCH   4   5
ATOM      5  C   UNL     1      27.531   7.682  30.003  1.00  0.00     0.053 C 
BRANCH   5   6
ATOM      6  C   UNL     1      27.278   8.922  30.803  1.00  0.00     0.041 C 
ATOM      7  O   UNL     1      26.278   8.991  31.565  1.00  0.00    -0.550 OA
ATOM      8  O   UNL     1      28.165   9.989  30.734  1.00  0.00    -0.550 OA
ENDBRANCH   5   6
ENDBRANCH   4   5
ENDBRANCH   3   4
ENDBRANCH   2   3
ENDBRANCH   1   2
BRANCH   1   9
ATOM      9  C   UNL     1      29.046   1.942  31.598  1.00  0.00     0.000 C 
BRANCH   9  10
ATOM     10  C   UNL     1      29.714   0.990  30.584  1.00  0.00    -0.000 C 
BRANCH  10  11
ATOM     11  C   UNL     1      29.151   1.060  29.154  1.00  0.00    -0.000 C 
BRANCH  11  12
ATOM     12  C   UNL     1      28.253  -0.137  28.807  1.00  0.00    -0.000 C 
BRANCH  12  13
ATOM     13  C   UNL     1      26.772   0.257  28.861  1.00  0.00    -0.003 C 
ATOM     14  C   UNL     1      26.143  -0.147  30.192  1.00  0.00     0.004 C 
ENDBRANCH  12  13
ENDBRANCH  11  12
ENDBRANCH  10  11
ENDBRANCH   9  10
ENDBRANCH   1   9
TORSDOF 10
ENDMDL
MODEL 4
REMARK VINA RESULT:    -4.536      3.245      4.416
REMARK INTER + INTRA:          -7.845
REMARK INTER:                  -6.828
REMARK INTRA:                  -1.017
REMARK UNBOUND:                -0.657
REMARK SMILES CCCCCCCCCCCC(=O)[O-]
REMARK SMILES IDX 7 1 8 2 9 3 10 4 11 5 12 6 13 7 14 8 6 9 5 10 4 11 3 12 2 13
REMARK SMILES IDX 1 14
REMARK H PARENT
REMARK Flexibility Score: inf
ROOT
ATOM      1  C   UNL     1      29.096   1.055  29.049  1.00  0.00     0.000 C 
ENDROOT
BRANCH   1   2
ATOM      2  C   UNL     1      28.369  -0.266  28.761  1.00  0.00     0.000 C 
BRANCH   2   3
ATOM      3  C   UNL     1      26.874  -0.152  29.082  1.00  0.00     0.000 C 
BRANCH   3   4
ATOM      4  C   UNL     1      26.523  -0.935  30.356  1.00  0.00     0.006 C 
BRANCH   4   5
ATOM      5  C   UNL     1      27.558  -2.024  30.673  1.00  0.00     0.053 C 
BRANCH   5   6
ATOM      6  C   UNL     1      26.910  -3.350  30.927  1.00  0.00     0.041 C 
ATOM      7  O   UNL     1      25.686  -3.514  30.681  1.00  0.00    -0.550 OA
ATOM      8  O   UNL     1      27.665  -4.414  31.403  1.00  0.00    -0.550 OA
ENDBRANCH   5   6
ENDBRANCH   4   5
ENDBRANCH   3   4
ENDBRANCH   2   3
ENDBRANCH   1   2
BRANCH   1   9
ATOM      9  C   UNL     1      29.917   1.017  30.350  1.00  0.00     0.000 C 
BRANCH   9  10
ATOM     10  C   UNL     1      29.166   1.489  31.612  1.00  0.00    -0.000 C 
BRANCH  10  11
ATOM     11  C   UNL     1      27.980   2.434  31.351  1.00  0.00    -0.000 C 
BRANCH  11  12
ATOM     12  C   UNL     1      28.329   3.910  31.592  1.00  0.00    -0.000 C 
BRANCH  12  13
ATOM     13  C   UNL     1      27.873   4.780  30.414  1.00  0.00    -0.003 C 
ATOM     14  C   UNL     1      27.931   6.263  30.769  1.00  0.00     0.004 C 
ENDBRANCH  12  13
ENDBRANCH  11  12
ENDBRANCH  10  11
ENDBRANCH   9  10
ENDBRANCH   1   9
TORSDOF 10
ENDMDL
MODEL 5
REMARK VINA RESULT:    -4.487      5.383      7.122
REMARK INTER + INTRA:          -7.767
REMARK INTER:                  -7.209
REMARK INTRA:                  -0.558
REMARK UNBOUND:                -0.657
REMARK SMILES CCCCCCCCCCCC(=O)[O-]
REMARK SMILES IDX 7 1 8 2 9 3 10 4 11 5 12 6 13 7 14 8 6 9 5 10 4 11 3 12 2 13
REMARK SMILES IDX 1 14
REMARK H PARENT
REMARK Flexibility Score: inf
ROOT
ATOM      1  C   UNL     1      27.864   2.629  29.459  1.00  0.00     0.000 C 
ENDROOT
BRANCH   1   2
ATOM      2  C   UNL     1      26.785   1.678  28.921  1.00  0.00     0.000 C 
BRANCH   2   3
ATOM      3  C   UNL     1      26.446   0.594  29.949  1.00  0.00     0.000 C 
BRANCH   3   4
ATOM      4  C   UNL     1      27.045   0.931  31.323  1.00  0.00     0.006 C 
BRANCH   4   5
ATOM      5  C   UNL     1      27.893  -0.218  31.886  1.00  0.00     0.053 C 
BRANCH   5   6
ATOM      6  C   UNL     1      29.331  -0.094  31.489  1.00  0.00     0.041 C 
ATOM      7  O   UNL     1      29.754  -0.671  30.453  1.00  0.00    -0.550 OA
ATOM      8  O   UNL     1      30.198   0.685  32.245  1.00  0.00    -0.550 OA
ENDBRANCH   5   6
ENDBRANCH   4   5
ENDBRANCH   3   4
ENDBRANCH   2   3
ENDBRANCH   1   2
BRANCH   1   9
ATOM      9  C   UNL     1      27.539   4.111  29.201  1.00  0.00     0.000 C 
BRANCH   9  10
ATOM     10  C   UNL     1      27.701   5.039  30.423  1.00  0.00    -0.000 C 
BRANCH  10  11
ATOM     11  C   UNL     1      26.952   6.380  30.328  1.00  0.00    -0.000 C 
BRANCH  11  12
ATOM     12  C   UNL     1      27.897   7.586  30.231  1.00  0.00    -0.000 C 
BRANCH  12  13
ATOM     13  C   UNL     1      27.108   8.900  30.203  1.00  0.00    -0.003 C 
ATOM     14  C   UNL     1      26.429   9.163  31.544  1.00  0.00     0.004 C 
ENDBRANCH  12  13
ENDBRANCH  11  12
ENDBRANCH  10  11
ENDBRANCH   9  10
ENDBRANCH   1   9
TORSDOF 10
ENDMDL
MODEL 6
REMARK VINA RESULT:    -4.476      4.088      7.333
REMARK INTER + INTRA:          -7.750
REMARK INTER:                  -7.214
REMARK INTRA:                  -0.535
REMARK UNBOUND:                -0.657
REMARK SMILES CCCCCCCCCCCC(=O)[O-]
REMARK SMILES IDX 7 1 8 2 9 3 10 4 11 5 12 6 13 7 14 8 6 9 5 10 4 11 3 12 2 13
REMARK SMILES IDX 1 14
REMARK H PARENT
REMARK Flexibility Score: inf
ROOT
ATOM      1  C   UNL     1      27.605  -2.033  30.855  1.00  0.00     0.000 C 
ENDROOT
BRANCH   1   2
ATOM      2  C   UNL     1      26.479  -1.133  30.327  1.00  0.00     0.000 C 
BRANCH   2   3
ATOM      3  C   UNL     1      27.019  -0.114  29.317  1.00  0.00     0.000 C 
BRANCH   3   4
ATOM      4  C   UNL     1      28.540  -0.255  29.153  1.00  0.00     0.006 C 
BRANCH   4   5
ATOM      5  C   UNL     1      29.284   1.043  29.497  1.00  0.00     0.053 C 
BRANCH   5   6
ATOM      6  C   UNL     1      29.206   1.358  30.959  1.00  0.00     0.041 C 
ATOM      7  O   UNL     1      28.569   2.370  31.355  1.00  0.00    -0.550 OA
ATOM      8  O   UNL     1      29.807   0.517  31.886  1.00  0.00    -0.550 OA
ENDBRANCH   5   6
ENDBRANCH   4   5
ENDBRANCH   3   4
ENDBRANCH   2   3
ENDBRANCH   1   2
BRANCH   1   9
ATOM      9  C   UNL     1      27.194  -3.513  30.951  1.00  0.00     0.000 C 
BRANCH   9  10
ATOM     10  C   UNL     1      28.215  -4.515  30.373  1.00  0.00    -0.000 C 
BRANCH  10  11
ATOM     11  C   UNL     1      28.394  -5.808  31.187  1.00  0.00    -0.000 C 
BRANCH  11  12
ATOM     12  C   UNL     1      28.369  -7.071  30.314  1.00  0.00    -0.000 C 
BRANCH  12  13
ATOM     13  C   UNL     1      29.399  -8.096  30.804  1.00  0.00    -0.003 C 
ATOM     14  C   UNL     1      28.823  -8.966  31.918  1.00  0.00     0.004 C 
ENDBRANCH  12  13
ENDBRANCH  11  12
ENDBRANCH  10  11
ENDBRANCH   9  10
ENDBRANCH   1   9
TORSDOF 10
ENDMDL
MODEL 7
REMARK VINA RESULT:    -4.449      3.763      6.942
REMARK INTER + INTRA:          -7.708
REMARK INTER:                  -7.072
REMARK INTRA:                  -0.635
REMARK UNBOUND:                -0.657
REMARK SMILES CCCCCCCCCCCC(=O)[O-]
REMARK SMILES IDX 7 1 8 2 9 3 10 4 11 5 12 6 13 7 14 8 6 9 5 10 4 11 3 12 2 13
REMARK SMILES IDX 1 14
REMARK H PARENT
REMARK Flexibility Score: inf
ROOT
ATOM      1  C   UNL     1      29.139  -1.918  29.952  1.00  0.00     0.000 C 
ENDROOT
BRANCH   1   2
ATOM      2  C   UNL     1      29.989  -0.694  30.324  1.00  0.00     0.000 C 
BRANCH   2   3
ATOM      3  C   UNL     1      29.324   0.117  31.442  1.00  0.00     0.000 C 
BRANCH   3   4
ATOM      4  C   UNL     1      27.871  -0.331  31.658  1.00  0.00     0.006 C 
BRANCH   4   5
ATOM      5  C   UNL     1      26.863   0.763  31.282  1.00  0.00     0.053 C 
BRANCH   5   6
ATOM      6  C   UNL     1      26.872   1.047  29.811  1.00  0.00     0.041 C 
ATOM      7  O   UNL     1      26.416   0.199  29.000  1.00  0.00    -0.550 OA
ATOM      8  O   UNL     1      27.353   2.262  29.340  1.00  0.00    -0.550 OA
ENDBRANCH   5   6
ENDBRANCH   4   5
ENDBRANCH   3   4
ENDBRANCH   2   3
ENDBRANCH   1   2
BRANCH   1   9
ATOM      9  C   UNL     1      29.973  -3.202  29.797  1.00  0.00     0.000 C 
BRANCH   9  10
ATOM     10  C   UNL     1      29.162  -4.474  29.475  1.00  0.00    -0.000 C 
BRANCH  10  11
ATOM     11  C   UNL     1      28.163  -4.904  30.563  1.00  0.00    -0.000 C 
BRANCH  11  12
ATOM     12  C   UNL     1      28.483  -6.286  31.153  1.00  0.00    -0.000 C 
BRANCH  12  13
ATOM     13  C   UNL     1      28.471  -7.363  30.062  1.00  0.00    -0.003 C 
ATOM     14  C   UNL     1      29.328  -8.561  30.461  1.00  0.00     0.004 C 
ENDBRANCH  12  13
ENDBRANCH  11  12
ENDBRANCH  10  11
ENDBRANCH   9  10
ENDBRANCH   1   9
TORSDOF 10
ENDMDL
MODEL 8
REMARK VINA RESULT:    -4.401      5.806      7.496
REMARK INTER + INTRA:          -7.631
REMARK INTER:                  -7.010
REMARK INTRA:                  -0.621
REMARK UNBOUND:                -0.657
REMARK SMILES CCCCCCCCCCCC(=O)[O-]
REMARK SMILES IDX 7 1 8 2 9 3 10 4 11 5 12 6 13 7 14 8 6 9 5 10 4 11 3 12 2 13
REMARK SMILES IDX 1 14
REMARK H PARENT
REMARK Flexibility Score: inf
ROOT
ATOM      1  C   UNL     1      27.579   3.446  29.582  1.00  0.00     0.000 C 
ENDROOT
BRANCH   1   2
ATOM      2  C   UNL     1      28.166   2.957  30.915  1.00  0.00     0.000 C 
BRANCH   2   3
ATOM      3  C   UNL     1      28.824   1.582  30.753  1.00  0.00     0.000 C 
BRANCH   3   4
ATOM      4  C   UNL     1      29.017   1.236  29.269  1.00  0.00     0.006 C 
BRANCH   4   5
ATOM      5  C   UNL     1      28.475  -0.158  28.922  1.00  0.00     0.053 C 
BRANCH   5   6
ATOM      6  C   UNL     1      26.988  -0.232  29.084  1.00  0.00     0.041 C 
ATOM      7  O   UNL     1      26.485  -0.930  30.003  1.00  0.00    -0.550 OA
ATOM      8  O   UNL     1      26.159   0.498  28.241  1.00  0.00    -0.550 OA
ENDBRANCH   5   6
ENDBRANCH   4   5
ENDBRANCH   3   4
ENDBRANCH   2   3
ENDBRANCH   1   2
BRANCH   1   9
ATOM      9  C   UNL     1      27.666   4.973  29.414  1.00  0.00     0.000 C 
BRANCH   9  10
ATOM     10  C   UNL     1      27.921   5.761  30.715  1.00  0.00    -0.000 C 
BRANCH  10  11
ATOM     11  C   UNL     1      27.181   7.106  30.820  1.00  0.00    -0.000 C 
BRANCH  11  12
ATOM     12  C   UNL     1      27.925   8.253  30.121  1.00  0.00    -0.000 C 
BRANCH  12  13
ATOM     13  C   UNL     1      27.586   9.601  30.767  1.00  0.00    -0.003 C 
ATOM     14  C   UNL     1      26.141   9.628  31.258  1.00  0.00     0.004 C 
ENDBRANCH  12  13
ENDBRANCH  11  12
ENDBRANCH  10  11
ENDBRANCH   9  10
ENDBRANCH   1   9
TORSDOF 10
ENDMDL
MODEL 9
REMARK VINA RESULT:    -4.361      1.578      2.781
REMARK INTER + INTRA:          -7.567
REMARK INTER:                  -6.959
REMARK INTRA:                  -0.608
REMARK UNBOUND:                -0.657
REMARK SMILES CCCCCCCCCCCC(=O)[O-]
REMARK SMILES IDX 7 1 8 2 9 3 10 4 11 5 12 6 13 7 14 8 6 9 5 10 4 11 3 12 2 13
REMARK SMILES IDX 1 14
REMARK H PARENT
REMARK Flexibility Score: inf
ROOT
ATOM      1  C   UNL     1      27.356  -2.148  30.773  1.00  0.00     0.000 C 
ENDROOT
BRANCH   1   2
ATOM      2  C   UNL     1      26.853  -3.597  30.835  1.00  0.00     0.000 C 
BRANCH   2   3
ATOM      3  C   UNL     1      28.011  -4.570  31.085  1.00  0.00     0.000 C 
BRANCH   3   4
ATOM      4  C   UNL     1      27.900  -5.804  30.177  1.00  0.00     0.006 C 
BRANCH   4   5
ATOM      5  C   UNL     1      29.038  -6.806  30.415  1.00  0.00     0.053 C 
BRANCH   5   6
ATOM      6  C   UNL     1      28.519  -8.152  30.817  1.00  0.00     0.041 C 
ATOM      7  O   UNL     1      28.132  -8.969  29.941  1.00  0.00    -0.550 OA
ATOM      8  O   UNL     1      28.495  -8.517  32.157  1.00  0.00    -0.550 OA
ENDBRANCH   5   6
ENDBRANCH   4   5
ENDBRANCH   3   4
ENDBRANCH   2   3
ENDBRANCH   1   2
BRANCH   1   9
ATOM      9  C   UNL     1      26.255  -1.148  30.381  1.00  0.00     0.000 C 
BRANCH   9  10
ATOM     10  C   UNL     1      26.757   0.155  29.725  1.00  0.00    -0.000 C 
BRANCH  10  11
ATOM     11  C   UNL     1      28.011   0.002  28.846  1.00  0.00    -0.000 C 
BRANCH  11  12
ATOM     12  C   UNL     1      29.169   0.905  29.297  1.00  0.00    -0.000 C 
BRANCH  12  13
ATOM     13  C   UNL     1      28.975   1.361  30.748  1.00  0.00    -0.003 C 
ATOM     14  C   UNL     1      29.815   0.522  31.706  1.00  0.00     0.004 C 
ENDBRANCH  12  13
ENDBRANCH  11  12
ENDBRANCH  10  11
ENDBRANCH   9  10
ENDBRANCH   1   9
TORSDOF 10
ENDMDL
