MODEL 1
REMARK VINA RESULT:    -2.960      0.000      0.000
REMARK INTER + INTRA:          -3.509
REMARK INTER:                  -3.479
REMARK INTRA:                  -0.030
REMARK UNBOUND:                -0.030
REMARK SMILES O=C([O-])CCC(=O)[O-]
REMARK SMILES IDX 4 1 2 2 1 3 3 4 5 5 6 6 7 7 8 8
REMARK H PARENT
REMARK Flexibility Score: inf
ROOT
ATOM      1  C   UNL     1     143.272 142.157 145.208  1.00  0.00     0.059 C 
ENDROOT
BRANCH   1   2
ATOM      2  C   UNL     1     144.209 141.731 144.119  1.00  0.00     0.042 C 
ATOM      3  O   UNL     1     144.539 140.521 144.004  1.00  0.00    -0.550 OA
ATOM      4  O   UNL     1     144.685 142.663 143.206  1.00  0.00    -0.550 OA
ENDBRANCH   1   2
BRANCH   1   5
ATOM      5  C   UNL     1     142.221 141.081 145.501  1.00  0.00     0.059 C 
BRANCH   5   6
ATOM      6  C   UNL     1     140.953 141.678 146.033  1.00  0.00     0.042 C 
ATOM      7  O   UNL     1     139.875 141.545 145.396  1.00  0.00    -0.550 OA
ATOM      8  O   UNL     1     140.956 142.346 147.250  1.00  0.00    -0.550 OA
ENDBRANCH   5   6
ENDBRANCH   1   5
TORSDOF 3
ENDMDL
MODEL 2
REMARK VINA RESULT:    -2.896     19.363     20.453
REMARK INTER + INTRA:          -3.433
REMARK INTER:                  -3.268
REMARK INTRA:                  -0.165
REMARK UNBOUND:                -0.030
REMARK SMILES O=C([O-])CCC(=O)[O-]
REMARK SMILES IDX 4 1 2 2 1 3 3 4 5 5 6 6 7 7 8 8
REMARK H PARENT
REMARK Flexibility Score: inf
ROOT
ATOM      1  C   UNL     1     146.208 156.192 158.165  1.00  0.00     0.059 C 
ENDROOT
BRANCH   1   2
ATOM      2  C   UNL     1     146.512 157.475 158.876  1.00  0.00     0.042 C 
ATOM      3  O   UNL     1     147.337 158.290 158.388  1.00  0.00    -0.550 OA
ATOM      4  O   UNL     1     145.851 157.790 160.058  1.00  0.00    -0.550 OA
ENDBRANCH   1   2
BRANCH   1   5
ATOM      5  C   UNL     1     145.901 156.426 156.683  1.00  0.00     0.059 C 
BRANCH   5   6
ATOM      6  C   UNL     1     144.610 157.163 156.496  1.00  0.00     0.042 C 
ATOM      7  O   UNL     1     143.517 156.607 156.776  1.00  0.00    -0.550 OA
ATOM      8  O   UNL     1     144.619 158.478 156.049  1.00  0.00    -0.550 OA
ENDBRANCH   5   6
ENDBRANCH   1   5
TORSDOF 3
ENDMDL
MODEL 3
REMARK VINA RESULT:    -2.849      6.199      8.073
REMARK INTER + INTRA:          -3.379
REMARK INTER:                  -3.270
REMARK INTRA:                  -0.109
REMARK UNBOUND:                -0.030
REMARK SMILES O=C([O-])CCC(=O)[O-]
REMARK SMILES IDX 4 1 2 2 1 3 3 4 5 5 6 6 7 7 8 8
REMARK H PARENT
REMARK Flexibility Score: inf
ROOT
ATOM      1  C   UNL     1     148.900 142.365 142.262  1.00  0.00     0.059 C 
ENDROOT
BRANCH   1   2
ATOM      2  C   UNL     1     147.735 142.754 141.405  1.00  0.00     0.042 C 
ATOM      3  O   UNL     1     147.901 142.994 140.180  1.00  0.00    -0.550 OA
ATOM      4  O   UNL     1     146.458 142.811 141.949  1.00  0.00    -0.550 OA
ENDBRANCH   1   2
BRANCH   1   5
ATOM      5  C   UNL     1     148.959 140.850 142.481  1.00  0.00     0.059 C 
BRANCH   5   6
ATOM      6  C   UNL     1     150.079 140.222 141.707  1.00  0.00     0.042 C 
ATOM      7  O   UNL     1     149.942 139.980 140.479  1.00  0.00    -0.550 OA
ATOM      8  O   UNL     1     151.286 139.943 142.333  1.00  0.00    -0.550 OA
ENDBRANCH   5   6
ENDBRANCH   1   5
TORSDOF 3
ENDMDL
MODEL 4
REMARK VINA RESULT:    -2.836     18.754     19.863
REMARK INTER + INTRA:          -3.363
REMARK INTER:                  -3.286
REMARK INTRA:                  -0.077
REMARK UNBOUND:                -0.030
REMARK SMILES O=C([O-])CCC(=O)[O-]
REMARK SMILES IDX 4 1 2 2 1 3 3 4 5 5 6 6 7 7 8 8
REMARK H PARENT
REMARK Flexibility Score: inf
ROOT
ATOM      1  C   UNL     1     142.081 159.940 153.371  1.00  0.00     0.059 C 
ENDROOT
BRANCH   1   2
ATOM      2  C   UNL     1     140.844 159.095 153.353  1.00  0.00     0.042 C 
ATOM      3  O   UNL     1     139.875 159.373 154.107  1.00  0.00    -0.550 OA
ATOM      4  O   UNL     1     140.744 158.024 152.472  1.00  0.00    -0.550 OA
ENDBRANCH   1   2
BRANCH   1   5
ATOM      5  C   UNL     1     143.349 159.084 153.450  1.00  0.00     0.059 C 
BRANCH   5   6
ATOM      6  C   UNL     1     143.895 159.034 154.845  1.00  0.00     0.042 C 
ATOM      7  O   UNL     1     144.470 160.040 155.336  1.00  0.00    -0.550 OA
ATOM      8  O   UNL     1     143.734 157.889 155.614  1.00  0.00    -0.550 OA
ENDBRANCH   5   6
ENDBRANCH   1   5
TORSDOF 3
ENDMDL
MODEL 5
REMARK VINA RESULT:    -2.811     19.434     20.545
REMARK INTER + INTRA:          -3.333
REMARK INTER:                  -3.145
REMARK INTRA:                  -0.188
REMARK UNBOUND:                -0.030
REMARK SMILES O=C([O-])CCC(=O)[O-]
REMARK SMILES IDX 4 1 2 2 1 3 3 4 5 5 6 6 7 7 8 8
REMARK H PARENT
REMARK Flexibility Score: inf
ROOT
ATOM      1  C   UNL     1     146.119 156.599 156.529  1.00  0.00     0.059 C 
ENDROOT
BRANCH   1   2
ATOM      2  C   UNL     1     144.809 157.324 156.495  1.00  0.00     0.042 C 
ATOM      3  O   UNL     1     143.759 156.755 156.894  1.00  0.00    -0.550 OA
ATOM      4  O   UNL     1     144.753 158.644 156.061  1.00  0.00    -0.550 OA
ENDBRANCH   1   2
BRANCH   1   5
ATOM      5  C   UNL     1     146.535 156.251 157.962  1.00  0.00     0.059 C 
BRANCH   5   6
ATOM      6  C   UNL     1     146.772 157.482 158.783  1.00  0.00     0.042 C 
ATOM      7  O   UNL     1     147.718 158.261 158.497  1.00  0.00    -0.550 OA
ATOM      8  O   UNL     1     145.924 157.787 159.839  1.00  0.00    -0.550 OA
ENDBRANCH   5   6
ENDBRANCH   1   5
TORSDOF 3
ENDMDL
MODEL 6
REMARK VINA RESULT:    -2.802     23.346     24.080
REMARK INTER + INTRA:          -3.323
REMARK INTER:                  -3.192
REMARK INTRA:                  -0.131
REMARK UNBOUND:                -0.030
REMARK SMILES O=C([O-])CCC(=O)[O-]
REMARK SMILES IDX 4 1 2 2 1 3 3 4 5 5 6 6 7 7 8 8
REMARK H PARENT
REMARK Flexibility Score: inf
ROOT
ATOM      1  C   UNL     1     156.493 155.480 158.102  1.00  0.00     0.059 C 
ENDROOT
BRANCH   1   2
ATOM      2  C   UNL     1     157.550 154.780 158.901  1.00  0.00     0.042 C 
ATOM      3  O   UNL     1     157.774 155.122 160.092  1.00  0.00    -0.550 OA
ATOM      4  O   UNL     1     158.258 153.723 158.344  1.00  0.00    -0.550 OA
ENDBRANCH   1   2
BRANCH   1   5
ATOM      5  C   UNL     1     156.703 155.288 156.597  1.00  0.00     0.059 C 
BRANCH   5   6
ATOM      6  C   UNL     1     157.580 156.358 156.020  1.00  0.00     0.042 C 
ATOM      7  O   UNL     1     157.086 157.465 155.680  1.00  0.00    -0.550 OA
ATOM      8  O   UNL     1     158.946 156.146 155.897  1.00  0.00    -0.550 OA
ENDBRANCH   5   6
ENDBRANCH   1   5
TORSDOF 3
ENDMDL
MODEL 7
REMARK VINA RESULT:    -2.758      0.881      3.956
REMARK INTER + INTRA:          -3.272
REMARK INTER:                  -3.198
REMARK INTRA:                  -0.074
REMARK UNBOUND:                -0.030
REMARK SMILES O=C([O-])CCC(=O)[O-]
REMARK SMILES IDX 4 1 2 2 1 3 3 4 5 5 6 6 7 7 8 8
REMARK H PARENT
REMARK Flexibility Score: inf
ROOT
ATOM      1  C   UNL     1     142.428 140.884 146.054  1.00  0.00     0.059 C 
ENDROOT
BRANCH   1   2
ATOM      2  C   UNL     1     141.278 141.819 145.834  1.00  0.00     0.042 C 
ATOM      3  O   UNL     1     140.158 141.373 145.473  1.00  0.00    -0.550 OA
ATOM      4  O   UNL     1     141.433 143.181 146.068  1.00  0.00    -0.550 OA
ENDBRANCH   1   2
BRANCH   1   5
ATOM      5  C   UNL     1     143.766 141.540 145.700  1.00  0.00     0.059 C 
BRANCH   5   6
ATOM      6  C   UNL     1     144.308 141.025 144.402  1.00  0.00     0.042 C 
ATOM      7  O   UNL     1     143.995 139.875 143.997  1.00  0.00    -0.550 OA
ATOM      8  O   UNL     1     145.125 141.831 143.621  1.00  0.00    -0.550 OA
ENDBRANCH   5   6
ENDBRANCH   1   5
TORSDOF 3
ENDMDL
MODEL 8
REMARK VINA RESULT:    -2.747     23.254     23.844
REMARK INTER + INTRA:          -3.259
REMARK INTER:                  -3.114
REMARK INTRA:                  -0.145
REMARK UNBOUND:                -0.030
REMARK SMILES O=C([O-])CCC(=O)[O-]
REMARK SMILES IDX 4 1 2 2 1 3 3 4 5 5 6 6 7 7 8 8
REMARK H PARENT
REMARK Flexibility Score: inf
ROOT
ATOM      1  C   UNL     1     156.839 154.744 156.673  1.00  0.00     0.059 C 
ENDROOT
BRANCH   1   2
ATOM      2  C   UNL     1     157.467 156.092 156.501  1.00  0.00     0.042 C 
ATOM      3  O   UNL     1     158.627 156.195 156.023  1.00  0.00    -0.550 OA
ATOM      4  O   UNL     1     156.756 157.240 156.832  1.00  0.00    -0.550 OA
ENDBRANCH   1   2
BRANCH   1   5
ATOM      5  C   UNL     1     156.386 154.511 158.117  1.00  0.00     0.059 C 
BRANCH   5   6
ATOM      6  C   UNL     1     157.546 154.218 159.020  1.00  0.00     0.042 C 
ATOM      7  O   UNL     1     157.851 155.021 159.940  1.00  0.00    -0.550 OA
ATOM      8  O   UNL     1     158.264 153.039 158.869  1.00  0.00    -0.550 OA
ENDBRANCH   5   6
ENDBRANCH   1   5
TORSDOF 3
ENDMDL
MODEL 9
REMARK VINA RESULT:    -2.686     18.547     19.518
REMARK INTER + INTRA:          -3.187
REMARK INTER:                  -3.067
REMARK INTRA:                  -0.120
REMARK UNBOUND:                -0.030
REMARK SMILES O=C([O-])CCC(=O)[O-]
REMARK SMILES IDX 4 1 2 2 1 3 3 4 5 5 6 6 7 7 8 8
REMARK H PARENT
REMARK Flexibility Score: inf
ROOT
ATOM      1  C   UNL     1     143.565 158.819 153.414  1.00  0.00     0.059 C 
ENDROOT
BRANCH   1   2
ATOM      2  C   UNL     1     144.004 158.943 154.841  1.00  0.00     0.042 C 
ATOM      3  O   UNL     1     143.884 157.968 155.628  1.00  0.00    -0.550 OA
ATOM      4  O   UNL     1     144.584 160.123 155.292  1.00  0.00    -0.550 OA
ENDBRANCH   1   2
BRANCH   1   5
ATOM      5  C   UNL     1     142.282 159.613 153.147  1.00  0.00     0.059 C 
BRANCH   5   6
ATOM      6  C   UNL     1     141.058 158.778 153.372  1.00  0.00     0.042 C 
ATOM      7  O   UNL     1     141.108 157.529 153.224  1.00  0.00    -0.550 OA
ATOM      8  O   UNL     1     139.875 159.376 153.783  1.00  0.00    -0.550 OA
ENDBRANCH   5   6
ENDBRANCH   1   5
TORSDOF 3
ENDMDL
