MODEL 1
REMARK VINA RESULT:    -4.134      0.000      0.000
REMARK INTER + INTRA:         -15.530
REMARK INTER:                 -10.779
REMARK INTRA:                  -4.751
REMARK UNBOUND:                -4.751
REMARK SMILES CCCCCCCCCCCCCCCCCCCCCCCCCCCCCO
REMARK SMILES IDX 16 1 15 2 14 3 13 4 12 5 11 6 10 7 9 8 8 9 7 10 6 11 5 12
REMARK SMILES IDX 4 13 3 14 2 15 1 16 17 17 18 18 19 19 20 20 21 21 22 22
REMARK SMILES IDX 23 23 24 24 25 25 26 26 27 27 28 28 29 29 30 30
REMARK H PARENT 30 31
REMARK Flexibility Score: inf
ROOT
ATOM      1  C   UNL     1     174.711 167.808 149.289  1.00  0.00     0.000 C 
ENDROOT
BRANCH   1   2
ATOM      2  C   UNL     1     174.871 169.258 149.775  1.00  0.00     0.000 C 
BRANCH   2   3
ATOM      3  C   UNL     1     175.360 169.350 151.230  1.00  0.00     0.000 C 
BRANCH   3   4
ATOM      4  C   UNL     1     174.220 169.363 152.269  1.00  0.00     0.000 C 
BRANCH   4   5
ATOM      5  C   UNL     1     174.740 169.200 153.708  1.00  0.00     0.000 C 
BRANCH   5   6
ATOM      6  C   UNL     1     174.703 170.516 154.502  1.00  0.00     0.000 C 
BRANCH   6   7
ATOM      7  C   UNL     1     173.448 171.351 154.203  1.00  0.00     0.000 C 
BRANCH   7   8
ATOM      8  C   UNL     1     173.822 172.796 153.837  1.00  0.00    -0.000 C 
BRANCH   8   9
ATOM      9  C   UNL     1     175.109 172.877 153.000  1.00  0.00    -0.000 C 
BRANCH   9  10
ATOM     10  C   UNL     1     175.319 174.265 152.367  1.00  0.00    -0.000 C 
BRANCH  10  11
ATOM     11  C   UNL     1     175.013 174.282 150.861  1.00  0.00    -0.000 C 
BRANCH  11  12
ATOM     12  C   UNL     1     174.638 172.892 150.317  1.00  0.00    -0.000 C 
BRANCH  12  13
ATOM     13  C   UNL     1     173.214 172.845 149.736  1.00  0.00    -0.000 C 
BRANCH  13  14
ATOM     14  C   UNL     1     172.237 171.905 150.471  1.00  0.00    -0.000 C 
BRANCH  14  15
ATOM     15  C   UNL     1     171.063 172.610 151.174  1.00  0.00    -0.003 C 
ATOM     16  C   UNL     1     171.290 174.109 151.352  1.00  0.00     0.004 C 
ENDBRANCH  14  15
ENDBRANCH  13  14
ENDBRANCH  12  13
ENDBRANCH  11  12
ENDBRANCH  10  11
ENDBRANCH   9  10
ENDBRANCH   8   9
ENDBRANCH   7   8
ENDBRANCH   6   7
ENDBRANCH   5   6
ENDBRANCH   4   5
ENDBRANCH   3   4
ENDBRANCH   2   3
ENDBRANCH   1   2
BRANCH   1  17
ATOM     17  C   UNL     1     173.291 167.509 148.784  1.00  0.00     0.000 C 
BRANCH  17  18
ATOM     18  C   UNL     1     172.229 167.669 149.880  1.00  0.00     0.000 C 
BRANCH  18  19
ATOM     19  C   UNL     1     171.476 166.348 150.108  1.00  0.00     0.000 C 
BRANCH  19  20
ATOM     20  C   UNL     1     172.316 165.300 150.863  1.00  0.00     0.000 C 
BRANCH  20  21
ATOM     21  C   UNL     1     173.069 165.832 152.099  1.00  0.00     0.000 C 
BRANCH  21  22
ATOM     22  C   UNL     1     174.577 165.519 152.131  1.00  0.00     0.000 C 
BRANCH  22  23
ATOM     23  C   UNL     1     175.046 164.722 150.902  1.00  0.00     0.000 C 
BRANCH  23  24
ATOM     24  C   UNL     1     176.032 163.600 151.271  1.00  0.00     0.000 C 
BRANCH  24  25
ATOM     25  C   UNL     1     175.345 162.427 151.991  1.00  0.00     0.000 C 
BRANCH  25  26
ATOM     26  C   UNL     1     174.106 161.907 151.238  1.00  0.00     0.000 C 
BRANCH  26  27
ATOM     27  C   UNL     1     174.362 160.698 150.320  1.00  0.00     0.002 C 
BRANCH  27  28
ATOM     28  C   UNL     1     174.050 159.356 150.999  1.00  0.00     0.028 C 
BRANCH  28  29
ATOM     29  C   UNL     1     173.000 158.569 150.212  1.00  0.00     0.156 C 
BRANCH  29  30
ATOM     30  O   UNL     1     172.833 157.293 150.766  1.00  0.00    -0.396 OA
ATOM     31  H   UNL     1     172.738 157.419 151.747  1.00  0.00     0.210 HD
ENDBRANCH  29  30
ENDBRANCH  28  29
ENDBRANCH  27  28
ENDBRANCH  26  27
ENDBRANCH  25  26
ENDBRANCH  24  25
ENDBRANCH  23  24
ENDBRANCH  22  23
ENDBRANCH  21  22
ENDBRANCH  20  21
ENDBRANCH  19  20
ENDBRANCH  18  19
ENDBRANCH  17  18
ENDBRANCH   1  17
TORSDOF 28
ENDMDL
MODEL 2
REMARK VINA RESULT:    -4.108      4.208      7.446
REMARK INTER + INTRA:         -15.463
REMARK INTER:                  -9.858
REMARK INTRA:                  -5.605
REMARK UNBOUND:                -4.751
REMARK SMILES CCCCCCCCCCCCCCCCCCCCCCCCCCCCCO
REMARK SMILES IDX 16 1 15 2 14 3 13 4 12 5 11 6 10 7 9 8 8 9 7 10 6 11 5 12
REMARK SMILES IDX 4 13 3 14 2 15 1 16 17 17 18 18 19 19 20 20 21 21 22 22
REMARK SMILES IDX 23 23 24 24 25 25 26 26 27 27 28 28 29 29 30 30
REMARK H PARENT 30 31
REMARK Flexibility Score: inf
ROOT
ATOM      1  C   UNL     1     173.197 165.698 152.254  1.00  0.00     0.000 C 
ENDROOT
BRANCH   1   2
ATOM      2  C   UNL     1     174.450 166.376 152.832  1.00  0.00     0.000 C 
BRANCH   2   3
ATOM      3  C   UNL     1     174.164 167.776 153.400  1.00  0.00     0.000 C 
BRANCH   3   4
ATOM      4  C   UNL     1     175.319 168.778 153.194  1.00  0.00     0.000 C 
BRANCH   4   5
ATOM      5  C   UNL     1     175.418 169.263 151.736  1.00  0.00     0.000 C 
BRANCH   5   6
ATOM      6  C   UNL     1     174.877 170.690 151.551  1.00  0.00     0.000 C 
BRANCH   6   7
ATOM      7  C   UNL     1     175.006 171.187 150.103  1.00  0.00     0.000 C 
BRANCH   7   8
ATOM      8  C   UNL     1     174.130 172.427 149.867  1.00  0.00    -0.000 C 
BRANCH   8   9
ATOM      9  C   UNL     1     174.917 173.740 150.009  1.00  0.00    -0.000 C 
BRANCH   9  10
ATOM     10  C   UNL     1     174.971 174.247 151.461  1.00  0.00    -0.000 C 
BRANCH  10  11
ATOM     11  C   UNL     1     173.609 174.167 152.169  1.00  0.00    -0.000 C 
BRANCH  11  12
ATOM     12  C   UNL     1     173.739 173.857 153.670  1.00  0.00    -0.000 C 
BRANCH  12  13
ATOM     13  C   UNL     1     175.105 173.246 154.035  1.00  0.00    -0.000 C 
BRANCH  13  14
ATOM     14  C   UNL     1     175.047 172.026 154.977  1.00  0.00    -0.000 C 
BRANCH  14  15
ATOM     15  C   UNL     1     173.744 171.893 155.787  1.00  0.00    -0.003 C 
ATOM     16  C   UNL     1     173.213 170.462 155.827  1.00  0.00     0.004 C 
ENDBRANCH  14  15
ENDBRANCH  13  14
ENDBRANCH  12  13
ENDBRANCH  11  12
ENDBRANCH  10  11
ENDBRANCH   9  10
ENDBRANCH   8   9
ENDBRANCH   7   8
ENDBRANCH   6   7
ENDBRANCH   5   6
ENDBRANCH   4   5
ENDBRANCH   3   4
ENDBRANCH   2   3
ENDBRANCH   1   2
BRANCH   1  17
ATOM     17  C   UNL     1     173.211 165.645 150.718  1.00  0.00     0.000 C 
BRANCH  17  18
ATOM     18  C   UNL     1     174.531 166.154 150.122  1.00  0.00     0.000 C 
BRANCH  18  19
ATOM     19  C   UNL     1     174.272 167.250 149.076  1.00  0.00     0.000 C 
BRANCH  19  20
ATOM     20  C   UNL     1     172.774 167.537 148.865  1.00  0.00     0.000 C 
BRANCH  20  21
ATOM     21  C   UNL     1     172.309 168.943 149.298  1.00  0.00     0.000 C 
BRANCH  21  22
ATOM     22  C   UNL     1     171.723 169.029 150.719  1.00  0.00     0.000 C 
BRANCH  22  23
ATOM     23  C   UNL     1     171.218 170.439 151.070  1.00  0.00     0.000 C 
BRANCH  23  24
ATOM     24  C   UNL     1     171.611 170.865 152.496  1.00  0.00     0.000 C 
BRANCH  24  25
ATOM     25  C   UNL     1     170.639 171.900 153.089  1.00  0.00     0.000 C 
BRANCH  25  26
ATOM     26  C   UNL     1     169.547 171.261 153.965  1.00  0.00     0.000 C 
BRANCH  26  27
ATOM     27  C   UNL     1     168.132 171.830 153.760  1.00  0.00     0.002 C 
BRANCH  27  28
ATOM     28  C   UNL     1     168.026 172.741 152.529  1.00  0.00     0.028 C 
BRANCH  28  29
ATOM     29  C   UNL     1     167.788 174.197 152.937  1.00  0.00     0.156 C 
BRANCH  29  30
ATOM     30  O   UNL     1     168.930 174.967 152.678  1.00  0.00    -0.396 OA
ATOM     31  H   UNL     1     169.666 174.329 152.487  1.00  0.00     0.210 HD
ENDBRANCH  29  30
ENDBRANCH  28  29
ENDBRANCH  27  28
ENDBRANCH  26  27
ENDBRANCH  25  26
ENDBRANCH  24  25
ENDBRANCH  23  24
ENDBRANCH  22  23
ENDBRANCH  21  22
ENDBRANCH  20  21
ENDBRANCH  19  20
ENDBRANCH  18  19
ENDBRANCH  17  18
ENDBRANCH   1  17
TORSDOF 28
ENDMDL
MODEL 3
REMARK VINA RESULT:    -4.034      1.277      2.245
REMARK INTER + INTRA:         -15.271
REMARK INTER:                 -11.590
REMARK INTRA:                  -3.681
REMARK UNBOUND:                -4.751
REMARK SMILES CCCCCCCCCCCCCCCCCCCCCCCCCCCCCO
REMARK SMILES IDX 16 1 15 2 14 3 13 4 12 5 11 6 10 7 9 8 8 9 7 10 6 11 5 12
REMARK SMILES IDX 4 13 3 14 2 15 1 16 17 17 18 18 19 19 20 20 21 21 22 22
REMARK SMILES IDX 23 23 24 24 25 25 26 26 27 27 28 28 29 29 30 30
REMARK H PARENT 30 31
REMARK Flexibility Score: inf
ROOT
ATOM      1  C   UNL     1     174.635 167.533 148.907  1.00  0.00     0.000 C 
ENDROOT
BRANCH   1   2
ATOM      2  C   UNL     1     175.373 168.781 149.420  1.00  0.00     0.000 C 
BRANCH   2   3
ATOM      3  C   UNL     1     174.519 169.627 150.380  1.00  0.00     0.000 C 
BRANCH   3   4
ATOM      4  C   UNL     1     174.612 169.177 151.853  1.00  0.00     0.000 C 
BRANCH   4   5
ATOM      5  C   UNL     1     174.965 170.341 152.796  1.00  0.00     0.000 C 
BRANCH   5   6
ATOM      6  C   UNL     1     173.746 170.859 153.577  1.00  0.00     0.000 C 
BRANCH   6   7
ATOM      7  C   UNL     1     173.800 172.376 153.817  1.00  0.00     0.000 C 
BRANCH   7   8
ATOM      8  C   UNL     1     175.244 172.895 153.737  1.00  0.00    -0.000 C 
BRANCH   8   9
ATOM      9  C   UNL     1     175.393 174.073 152.760  1.00  0.00    -0.000 C 
BRANCH   9  10
ATOM     10  C   UNL     1     174.200 174.202 151.797  1.00  0.00    -0.000 C 
BRANCH  10  11
ATOM     11  C   UNL     1     174.397 173.404 150.498  1.00  0.00    -0.000 C 
BRANCH  11  12
ATOM     12  C   UNL     1     173.087 172.786 149.978  1.00  0.00    -0.000 C 
BRANCH  12  13
ATOM     13  C   UNL     1     171.849 173.288 150.742  1.00  0.00    -0.000 C 
BRANCH  13  14
ATOM     14  C   UNL     1     170.941 172.181 151.318  1.00  0.00    -0.000 C 
BRANCH  14  15
ATOM     15  C   UNL     1     171.026 170.828 150.589  1.00  0.00    -0.003 C 
ATOM     16  C   UNL     1     170.956 169.635 151.540  1.00  0.00     0.004 C 
ENDBRANCH  14  15
ENDBRANCH  13  14
ENDBRANCH  12  13
ENDBRANCH  11  12
ENDBRANCH  10  11
ENDBRANCH   9  10
ENDBRANCH   8   9
ENDBRANCH   7   8
ENDBRANCH   6   7
ENDBRANCH   5   6
ENDBRANCH   4   5
ENDBRANCH   3   4
ENDBRANCH   2   3
ENDBRANCH   1   2
BRANCH   1  17
ATOM     17  C   UNL     1     173.151 167.522 149.301  1.00  0.00     0.000 C 
BRANCH  17  18
ATOM     18  C   UNL     1     172.790 166.341 150.214  1.00  0.00     0.000 C 
BRANCH  18  19
ATOM     19  C   UNL     1     174.056 165.610 150.688  1.00  0.00     0.000 C 
BRANCH  19  20
ATOM     20  C   UNL     1     173.751 164.421 151.617  1.00  0.00     0.000 C 
BRANCH  20  21
ATOM     21  C   UNL     1     174.039 163.029 151.017  1.00  0.00     0.000 C 
BRANCH  21  22
ATOM     22  C   UNL     1     175.528 162.644 150.942  1.00  0.00     0.000 C 
BRANCH  22  23
ATOM     23  C   UNL     1     175.760 161.293 150.245  1.00  0.00     0.000 C 
BRANCH  23  24
ATOM     24  C   UNL     1     175.999 160.149 151.246  1.00  0.00     0.000 C 
BRANCH  24  25
ATOM     25  C   UNL     1     174.731 159.315 151.501  1.00  0.00     0.000 C 
BRANCH  25  26
ATOM     26  C   UNL     1     173.772 159.305 150.296  1.00  0.00     0.000 C 
BRANCH  26  27
ATOM     27  C   UNL     1     172.885 158.052 150.181  1.00  0.00     0.002 C 
BRANCH  27  28
ATOM     28  C   UNL     1     171.408 158.335 150.493  1.00  0.00     0.028 C 
BRANCH  28  29
ATOM     29  C   UNL     1     171.098 158.091 151.972  1.00  0.00     0.156 C 
BRANCH  29  30
ATOM     30  O   UNL     1     171.892 157.048 152.468  1.00  0.00    -0.396 OA
ATOM     31  H   UNL     1     171.333 156.551 153.122  1.00  0.00     0.210 HD
ENDBRANCH  29  30
ENDBRANCH  28  29
ENDBRANCH  27  28
ENDBRANCH  26  27
ENDBRANCH  25  26
ENDBRANCH  24  25
ENDBRANCH  23  24
ENDBRANCH  22  23
ENDBRANCH  21  22
ENDBRANCH  20  21
ENDBRANCH  19  20
ENDBRANCH  18  19
ENDBRANCH  17  18
ENDBRANCH   1  17
TORSDOF 28
ENDMDL
MODEL 4
REMARK VINA RESULT:    -4.017      1.922      4.708
REMARK INTER + INTRA:         -15.227
REMARK INTER:                 -11.889
REMARK INTRA:                  -3.338
REMARK UNBOUND:                -4.751
REMARK SMILES CCCCCCCCCCCCCCCCCCCCCCCCCCCCCO
REMARK SMILES IDX 16 1 15 2 14 3 13 4 12 5 11 6 10 7 9 8 8 9 7 10 6 11 5 12
REMARK SMILES IDX 4 13 3 14 2 15 1 16 17 17 18 18 19 19 20 20 21 21 22 22
REMARK SMILES IDX 23 23 24 24 25 25 26 26 27 27 28 28 29 29 30 30
REMARK H PARENT 30 31
REMARK Flexibility Score: inf
ROOT
ATOM      1  C   UNL     1     173.086 164.311 152.084  1.00  0.00     0.000 C 
ENDROOT
BRANCH   1   2
ATOM      2  C   UNL     1     172.392 164.927 150.857  1.00  0.00     0.000 C 
BRANCH   2   3
ATOM      3  C   UNL     1     172.339 166.463 150.909  1.00  0.00     0.000 C 
BRANCH   3   4
ATOM      4  C   UNL     1     172.250 167.129 149.521  1.00  0.00     0.000 C 
BRANCH   4   5
ATOM      5  C   UNL     1     173.633 167.298 148.866  1.00  0.00     0.000 C 
BRANCH   5   6
ATOM      6  C   UNL     1     174.732 167.636 149.886  1.00  0.00     0.000 C 
BRANCH   6   7
ATOM      7  C   UNL     1     175.039 169.140 149.946  1.00  0.00     0.000 C 
BRANCH   7   8
ATOM      8  C   UNL     1     174.665 169.724 151.318  1.00  0.00    -0.000 C 
BRANCH   8   9
ATOM      9  C   UNL     1     173.218 170.239 151.365  1.00  0.00    -0.000 C 
BRANCH   9  10
ATOM     10  C   UNL     1     172.819 171.008 150.092  1.00  0.00    -0.000 C 
BRANCH  10  11
ATOM     11  C   UNL     1     172.431 172.467 150.377  1.00  0.00    -0.000 C 
BRANCH  11  12
ATOM     12  C   UNL     1     173.314 173.474 149.620  1.00  0.00    -0.000 C 
BRANCH  12  13
ATOM     13  C   UNL     1     174.768 173.488 150.127  1.00  0.00    -0.000 C 
BRANCH  13  14
ATOM     14  C   UNL     1     174.976 174.161 151.499  1.00  0.00    -0.000 C 
BRANCH  14  15
ATOM     15  C   UNL     1     174.988 173.198 152.699  1.00  0.00    -0.003 C 
ATOM     16  C   UNL     1     174.988 173.922 154.044  1.00  0.00     0.004 C 
ENDBRANCH  14  15
ENDBRANCH  13  14
ENDBRANCH  12  13
ENDBRANCH  11  12
ENDBRANCH  10  11
ENDBRANCH   9  10
ENDBRANCH   8   9
ENDBRANCH   7   8
ENDBRANCH   6   7
ENDBRANCH   5   6
ENDBRANCH   4   5
ENDBRANCH   3   4
ENDBRANCH   2   3
ENDBRANCH   1   2
BRANCH   1  17
ATOM     17  C   UNL     1     174.597 164.586 152.105  1.00  0.00     0.000 C 
BRANCH  17  18
ATOM     18  C   UNL     1     175.330 163.953 150.914  1.00  0.00     0.000 C 
BRANCH  18  19
ATOM     19  C   UNL     1     175.901 162.576 151.292  1.00  0.00     0.000 C 
BRANCH  19  20
ATOM     20  C   UNL     1     175.795 161.548 150.150  1.00  0.00     0.000 C 
BRANCH  20  21
ATOM     21  C   UNL     1     175.539 160.095 150.600  1.00  0.00     0.000 C 
BRANCH  21  22
ATOM     22  C   UNL     1     174.184 159.505 150.169  1.00  0.00     0.000 C 
BRANCH  22  23
ATOM     23  C   UNL     1     172.987 160.277 150.750  1.00  0.00     0.000 C 
BRANCH  23  24
ATOM     24  C   UNL     1     172.321 161.196 149.712  1.00  0.00     0.000 C 
BRANCH  24  25
ATOM     25  C   UNL     1     170.902 160.733 149.340  1.00  0.00     0.000 C 
BRANCH  25  26
ATOM     26  C   UNL     1     170.379 159.614 150.260  1.00  0.00     0.000 C 
BRANCH  26  27
ATOM     27  C   UNL     1     169.715 158.430 149.534  1.00  0.00     0.002 C 
BRANCH  27  28
ATOM     28  C   UNL     1     168.703 157.681 150.412  1.00  0.00     0.028 C 
BRANCH  28  29
ATOM     29  C   UNL     1     168.815 158.112 151.876  1.00  0.00     0.156 C 
BRANCH  29  30
ATOM     30  O   UNL     1     169.567 157.178 152.601  1.00  0.00    -0.396 OA
ATOM     31  H   UNL     1     170.424 157.063 152.113  1.00  0.00     0.210 HD
ENDBRANCH  29  30
ENDBRANCH  28  29
ENDBRANCH  27  28
ENDBRANCH  26  27
ENDBRANCH  25  26
ENDBRANCH  24  25
ENDBRANCH  23  24
ENDBRANCH  22  23
ENDBRANCH  21  22
ENDBRANCH  20  21
ENDBRANCH  19  20
ENDBRANCH  18  19
ENDBRANCH  17  18
ENDBRANCH   1  17
TORSDOF 28
ENDMDL
MODEL 5
REMARK VINA RESULT:    -4.015      3.636      7.501
REMARK INTER + INTRA:         -15.221
REMARK INTER:                  -9.542
REMARK INTRA:                  -5.679
REMARK UNBOUND:                -4.751
REMARK SMILES CCCCCCCCCCCCCCCCCCCCCCCCCCCCCO
REMARK SMILES IDX 16 1 15 2 14 3 13 4 12 5 11 6 10 7 9 8 8 9 7 10 6 11 5 12
REMARK SMILES IDX 4 13 3 14 2 15 1 16 17 17 18 18 19 19 20 20 21 21 22 22
REMARK SMILES IDX 23 23 24 24 25 25 26 26 27 27 28 28 29 29 30 30
REMARK H PARENT 30 31
REMARK Flexibility Score: inf
ROOT
ATOM      1  C   UNL     1     174.373 169.333 152.287  1.00  0.00     0.000 C 
ENDROOT
BRANCH   1   2
ATOM      2  C   UNL     1     174.786 167.852 152.283  1.00  0.00     0.000 C 
BRANCH   2   3
ATOM      3  C   UNL     1     173.591 166.900 152.103  1.00  0.00     0.000 C 
BRANCH   3   4
ATOM      4  C   UNL     1     173.623 166.109 150.779  1.00  0.00     0.000 C 
BRANCH   4   5
ATOM      5  C   UNL     1     174.750 166.582 149.844  1.00  0.00     0.000 C 
BRANCH   5   6
ATOM      6  C   UNL     1     174.228 167.422 148.667  1.00  0.00     0.000 C 
BRANCH   6   7
ATOM      7  C   UNL     1     172.694 167.415 148.571  1.00  0.00     0.000 C 
BRANCH   7   8
ATOM      8  C   UNL     1     172.119 168.812 148.849  1.00  0.00    -0.000 C 
BRANCH   8   9
ATOM      9  C   UNL     1     171.257 168.853 150.121  1.00  0.00    -0.000 C 
BRANCH   9  10
ATOM     10  C   UNL     1     171.037 170.284 150.645  1.00  0.00    -0.000 C 
BRANCH  10  11
ATOM     11  C   UNL     1     170.999 170.355 152.180  1.00  0.00    -0.000 C 
BRANCH  11  12
ATOM     12  C   UNL     1     170.112 171.501 152.697  1.00  0.00    -0.000 C 
BRANCH  12  13
ATOM     13  C   UNL     1     168.861 171.724 151.829  1.00  0.00    -0.000 C 
BRANCH  13  14
ATOM     14  C   UNL     1     168.698 173.151 151.268  1.00  0.00    -0.000 C 
BRANCH  14  15
ATOM     15  C   UNL     1     168.872 174.278 152.301  1.00  0.00    -0.003 C 
ATOM     16  C   UNL     1     167.552 174.711 152.936  1.00  0.00     0.004 C 
ENDBRANCH  14  15
ENDBRANCH  13  14
ENDBRANCH  12  13
ENDBRANCH  11  12
ENDBRANCH  10  11
ENDBRANCH   9  10
ENDBRANCH   8   9
ENDBRANCH   7   8
ENDBRANCH   6   7
ENDBRANCH   5   6
ENDBRANCH   4   5
ENDBRANCH   3   4
ENDBRANCH   2   3
ENDBRANCH   1   2
BRANCH   1  17
ATOM     17  C   UNL     1     175.296 170.204 151.421  1.00  0.00     0.000 C 
BRANCH  17  18
ATOM     18  C   UNL     1     174.581 170.782 150.191  1.00  0.00     0.000 C 
BRANCH  18  19
ATOM     19  C   UNL     1     174.600 172.319 150.220  1.00  0.00     0.000 C 
BRANCH  19  20
ATOM     20  C   UNL     1     173.274 172.945 149.752  1.00  0.00     0.000 C 
BRANCH  20  21
ATOM     21  C   UNL     1     172.517 173.754 150.825  1.00  0.00     0.000 C 
BRANCH  21  22
ATOM     22  C   UNL     1     173.383 174.266 151.990  1.00  0.00     0.000 C 
BRANCH  22  23
ATOM     23  C   UNL     1     172.870 173.800 153.363  1.00  0.00     0.000 C 
BRANCH  23  24
ATOM     24  C   UNL     1     173.560 172.511 153.842  1.00  0.00     0.000 C 
BRANCH  24  25
ATOM     25  C   UNL     1     175.081 172.685 154.005  1.00  0.00     0.000 C 
BRANCH  25  26
ATOM     26  C   UNL     1     175.676 171.752 155.076  1.00  0.00     0.000 C 
BRANCH  26  27
ATOM     27  C   UNL     1     174.650 170.889 155.832  1.00  0.00     0.002 C 
BRANCH  27  28
ATOM     28  C   UNL     1     175.189 169.496 156.190  1.00  0.00     0.028 C 
BRANCH  28  29
ATOM     29  C   UNL     1     174.400 168.879 157.346  1.00  0.00     0.156 C 
BRANCH  29  30
ATOM     30  O   UNL     1     175.160 167.883 157.975  1.00  0.00    -0.396 OA
ATOM     31  H   UNL     1     175.885 168.348 158.469  1.00  0.00     0.210 HD
ENDBRANCH  29  30
ENDBRANCH  28  29
ENDBRANCH  27  28
ENDBRANCH  26  27
ENDBRANCH  25  26
ENDBRANCH  24  25
ENDBRANCH  23  24
ENDBRANCH  22  23
ENDBRANCH  21  22
ENDBRANCH  20  21
ENDBRANCH  19  20
ENDBRANCH  18  19
ENDBRANCH  17  18
ENDBRANCH   1  17
TORSDOF 28
ENDMDL
MODEL 6
REMARK VINA RESULT:    -4.007      1.646      4.189
REMARK INTER + INTRA:         -15.200
REMARK INTER:                 -12.329
REMARK INTRA:                  -2.871
REMARK UNBOUND:                -4.751
REMARK SMILES CCCCCCCCCCCCCCCCCCCCCCCCCCCCCO
REMARK SMILES IDX 16 1 15 2 14 3 13 4 12 5 11 6 10 7 9 8 8 9 7 10 6 11 5 12
REMARK SMILES IDX 4 13 3 14 2 15 1 16 17 17 18 18 19 19 20 20 21 21 22 22
REMARK SMILES IDX 23 23 24 24 25 25 26 26 27 27 28 28 29 29 30 30
REMARK H PARENT 30 31
REMARK Flexibility Score: inf
ROOT
ATOM      1  C   UNL     1     172.296 165.584 150.786  1.00  0.00     0.000 C 
ENDROOT
BRANCH   1   2
ATOM      2  C   UNL     1     172.336 167.063 150.367  1.00  0.00     0.000 C 
BRANCH   2   3
ATOM      3  C   UNL     1     172.890 167.267 148.946  1.00  0.00     0.000 C 
BRANCH   3   4
ATOM      4  C   UNL     1     174.410 167.522 148.904  1.00  0.00     0.000 C 
BRANCH   4   5
ATOM      5  C   UNL     1     174.907 168.289 150.143  1.00  0.00     0.000 C 
BRANCH   5   6
ATOM      6  C   UNL     1     175.570 169.628 149.782  1.00  0.00     0.000 C 
BRANCH   6   7
ATOM      7  C   UNL     1     175.045 170.795 150.633  1.00  0.00     0.000 C 
BRANCH   7   8
ATOM      8  C   UNL     1     173.550 171.035 150.375  1.00  0.00    -0.000 C 
BRANCH   8   9
ATOM      9  C   UNL     1     173.213 172.526 150.205  1.00  0.00    -0.000 C 
BRANCH   9  10
ATOM     10  C   UNL     1     174.393 173.341 149.645  1.00  0.00    -0.000 C 
BRANCH  10  11
ATOM     11  C   UNL     1     175.005 174.291 150.687  1.00  0.00    -0.000 C 
BRANCH  11  12
ATOM     12  C   UNL     1     174.261 174.251 152.033  1.00  0.00    -0.000 C 
BRANCH  12  13
ATOM     13  C   UNL     1     175.150 173.761 153.190  1.00  0.00    -0.000 C 
BRANCH  13  14
ATOM     14  C   UNL     1     174.447 172.847 154.215  1.00  0.00    -0.000 C 
BRANCH  14  15
ATOM     15  C   UNL     1     174.989 171.408 154.280  1.00  0.00    -0.003 C 
ATOM     16  C   UNL     1     173.895 170.353 154.136  1.00  0.00     0.004 C 
ENDBRANCH  14  15
ENDBRANCH  13  14
ENDBRANCH  12  13
ENDBRANCH  11  12
ENDBRANCH  10  11
ENDBRANCH   9  10
ENDBRANCH   8   9
ENDBRANCH   7   8
ENDBRANCH   6   7
ENDBRANCH   5   6
ENDBRANCH   4   5
ENDBRANCH   3   4
ENDBRANCH   2   3
ENDBRANCH   1   2
BRANCH   1  17
ATOM     17  C   UNL     1     172.817 165.363 152.215  1.00  0.00     0.000 C 
BRANCH  17  18
ATOM     18  C   UNL     1     174.338 165.544 152.323  1.00  0.00     0.000 C 
BRANCH  18  19
ATOM     19  C   UNL     1     175.073 164.579 151.380  1.00  0.00     0.000 C 
BRANCH  19  20
ATOM     20  C   UNL     1     175.083 163.127 151.894  1.00  0.00     0.000 C 
BRANCH  20  21
ATOM     21  C   UNL     1     175.760 162.106 150.957  1.00  0.00     0.000 C 
BRANCH  21  22
ATOM     22  C   UNL     1     174.813 161.388 149.978  1.00  0.00     0.000 C 
BRANCH  22  23
ATOM     23  C   UNL     1     174.924 159.856 150.057  1.00  0.00     0.000 C 
BRANCH  23  24
ATOM     24  C   UNL     1     173.812 159.230 150.917  1.00  0.00     0.000 C 
BRANCH  24  25
ATOM     25  C   UNL     1     172.805 158.422 150.080  1.00  0.00     0.000 C 
BRANCH  25  26
ATOM     26  C   UNL     1     171.384 159.014 150.119  1.00  0.00     0.000 C 
BRANCH  26  27
ATOM     27  C   UNL     1     170.282 158.100 149.554  1.00  0.00     0.002 C 
BRANCH  27  28
ATOM     28  C   UNL     1     169.027 158.060 150.438  1.00  0.00     0.028 C 
BRANCH  28  29
ATOM     29  C   UNL     1     169.397 158.011 151.922  1.00  0.00     0.156 C 
BRANCH  29  30
ATOM     30  O   UNL     1     168.718 156.962 152.557  1.00  0.00    -0.396 OA
ATOM     31  H   UNL     1     169.283 156.681 153.324  1.00  0.00     0.210 HD
ENDBRANCH  29  30
ENDBRANCH  28  29
ENDBRANCH  27  28
ENDBRANCH  26  27
ENDBRANCH  25  26
ENDBRANCH  24  25
ENDBRANCH  23  24
ENDBRANCH  22  23
ENDBRANCH  21  22
ENDBRANCH  20  21
ENDBRANCH  19  20
ENDBRANCH  18  19
ENDBRANCH  17  18
ENDBRANCH   1  17
TORSDOF 28
ENDMDL
MODEL 7
REMARK VINA RESULT:    -3.989      1.654      3.316
REMARK INTER + INTRA:         -15.152
REMARK INTER:                 -11.564
REMARK INTRA:                  -3.588
REMARK UNBOUND:                -4.751
REMARK SMILES CCCCCCCCCCCCCCCCCCCCCCCCCCCCCO
REMARK SMILES IDX 16 1 15 2 14 3 13 4 12 5 11 6 10 7 9 8 8 9 7 10 6 11 5 12
REMARK SMILES IDX 4 13 3 14 2 15 1 16 17 17 18 18 19 19 20 20 21 21 22 22
REMARK SMILES IDX 23 23 24 24 25 25 26 26 27 27 28 28 29 29 30 30
REMARK H PARENT 30 31
REMARK Flexibility Score: inf
ROOT
ATOM      1  C   UNL     1     173.182 168.838 149.770  1.00  0.00     0.000 C 
ENDROOT
BRANCH   1   2
ATOM      2  C   UNL     1     174.451 169.428 150.407  1.00  0.00     0.000 C 
BRANCH   2   3
ATOM      3  C   UNL     1     174.551 170.954 150.237  1.00  0.00     0.000 C 
BRANCH   3   4
ATOM      4  C   UNL     1     173.188 171.646 150.035  1.00  0.00     0.000 C 
BRANCH   4   5
ATOM      5  C   UNL     1     173.313 173.180 149.996  1.00  0.00     0.000 C 
BRANCH   5   6
ATOM      6  C   UNL     1     174.735 173.648 149.647  1.00  0.00     0.000 C 
BRANCH   6   7
ATOM      7  C   UNL     1     175.420 174.375 150.814  1.00  0.00     0.000 C 
BRANCH   7   8
ATOM      8  C   UNL     1     174.596 174.244 152.105  1.00  0.00    -0.000 C 
BRANCH   8   9
ATOM      9  C   UNL     1     175.468 173.934 153.332  1.00  0.00    -0.000 C 
BRANCH   9  10
ATOM     10  C   UNL     1     174.793 172.954 154.309  1.00  0.00    -0.000 C 
BRANCH  10  11
ATOM     11  C   UNL     1     174.621 171.547 153.713  1.00  0.00    -0.000 C 
BRANCH  11  12
ATOM     12  C   UNL     1     173.165 171.053 153.772  1.00  0.00    -0.000 C 
BRANCH  12  13
ATOM     13  C   UNL     1     172.150 172.206 153.884  1.00  0.00    -0.000 C 
BRANCH  13  14
ATOM     14  C   UNL     1     171.031 172.199 152.822  1.00  0.00    -0.000 C 
BRANCH  14  15
ATOM     15  C   UNL     1     170.168 173.472 152.782  1.00  0.00    -0.003 C 
ATOM     16  C   UNL     1     169.931 173.985 151.363  1.00  0.00     0.004 C 
ENDBRANCH  14  15
ENDBRANCH  13  14
ENDBRANCH  12  13
ENDBRANCH  11  12
ENDBRANCH  10  11
ENDBRANCH   9  10
ENDBRANCH   8   9
ENDBRANCH   7   8
ENDBRANCH   6   7
ENDBRANCH   5   6
ENDBRANCH   4   5
ENDBRANCH   3   4
ENDBRANCH   2   3
ENDBRANCH   1   2
BRANCH   1  17
ATOM     17  C   UNL     1     173.434 167.476 149.106  1.00  0.00     0.000 C 
BRANCH  17  18
ATOM     18  C   UNL     1     174.578 166.698 149.772  1.00  0.00     0.000 C 
BRANCH  18  19
ATOM     19  C   UNL     1     174.034 165.501 150.569  1.00  0.00     0.000 C 
BRANCH  19  20
ATOM     20  C   UNL     1     175.147 164.649 151.207  1.00  0.00     0.000 C 
BRANCH  20  21
ATOM     21  C   UNL     1     174.722 163.227 151.630  1.00  0.00     0.000 C 
BRANCH  21  22
ATOM     22  C   UNL     1     173.322 162.795 151.157  1.00  0.00     0.000 C 
BRANCH  22  23
ATOM     23  C   UNL     1     173.365 161.635 150.149  1.00  0.00     0.000 C 
BRANCH  23  24
ATOM     24  C   UNL     1     174.803 161.227 149.785  1.00  0.00     0.000 C 
BRANCH  24  25
ATOM     25  C   UNL     1     175.081 159.739 150.065  1.00  0.00     0.000 C 
BRANCH  25  26
ATOM     26  C   UNL     1     174.354 159.222 151.320  1.00  0.00     0.000 C 
BRANCH  26  27
ATOM     27  C   UNL     1     175.097 159.460 152.647  1.00  0.00     0.002 C 
BRANCH  27  28
ATOM     28  C   UNL     1     174.154 159.825 153.803  1.00  0.00     0.028 C 
BRANCH  28  29
ATOM     29  C   UNL     1     174.455 158.987 155.048  1.00  0.00     0.156 C 
BRANCH  29  30
ATOM     30  O   UNL     1     173.853 157.725 154.941  1.00  0.00    -0.396 OA
ATOM     31  H   UNL     1     174.555 157.102 154.617  1.00  0.00     0.210 HD
ENDBRANCH  29  30
ENDBRANCH  28  29
ENDBRANCH  27  28
ENDBRANCH  26  27
ENDBRANCH  25  26
ENDBRANCH  24  25
ENDBRANCH  23  24
ENDBRANCH  22  23
ENDBRANCH  21  22
ENDBRANCH  20  21
ENDBRANCH  19  20
ENDBRANCH  18  19
ENDBRANCH  17  18
ENDBRANCH   1  17
TORSDOF 28
ENDMDL
MODEL 8
REMARK VINA RESULT:    -3.959      3.446      9.691
REMARK INTER + INTRA:         -15.075
REMARK INTER:                 -11.106
REMARK INTRA:                  -3.969
REMARK UNBOUND:                -4.751
REMARK SMILES CCCCCCCCCCCCCCCCCCCCCCCCCCCCCO
REMARK SMILES IDX 16 1 15 2 14 3 13 4 12 5 11 6 10 7 9 8 8 9 7 10 6 11 5 12
REMARK SMILES IDX 4 13 3 14 2 15 1 16 17 17 18 18 19 19 20 20 21 21 22 22
REMARK SMILES IDX 23 23 24 24 25 25 26 26 27 27 28 28 29 29 30 30
REMARK H PARENT 30 31
REMARK Flexibility Score: inf
ROOT
ATOM      1  C   UNL     1     174.039 171.516 150.161  1.00  0.00     0.000 C 
ENDROOT
BRANCH   1   2
ATOM      2  C   UNL     1     175.344 170.712 150.287  1.00  0.00     0.000 C 
BRANCH   2   3
ATOM      3  C   UNL     1     175.151 169.213 150.002  1.00  0.00     0.000 C 
BRANCH   3   4
ATOM      4  C   UNL     1     173.689 168.821 149.703  1.00  0.00     0.000 C 
BRANCH   4   5
ATOM      5  C   UNL     1     173.559 167.357 149.244  1.00  0.00     0.000 C 
BRANCH   5   6
ATOM      6  C   UNL     1     172.967 166.448 150.332  1.00  0.00     0.000 C 
BRANCH   6   7
ATOM      7  C   UNL     1     173.989 166.091 151.424  1.00  0.00     0.000 C 
BRANCH   7   8
ATOM      8  C   UNL     1     174.871 164.911 150.986  1.00  0.00    -0.000 C 
BRANCH   8   9
ATOM      9  C   UNL     1     174.193 163.551 151.214  1.00  0.00    -0.000 C 
BRANCH   9  10
ATOM     10  C   UNL     1     175.204 162.400 151.366  1.00  0.00    -0.000 C 
BRANCH  10  11
ATOM     11  C   UNL     1     175.618 161.791 150.017  1.00  0.00    -0.000 C 
BRANCH  11  12
ATOM     12  C   UNL     1     175.645 160.253 150.045  1.00  0.00    -0.000 C 
BRANCH  12  13
ATOM     13  C   UNL     1     174.574 159.656 150.976  1.00  0.00    -0.000 C 
BRANCH  13  14
ATOM     14  C   UNL     1     173.333 159.081 150.264  1.00  0.00    -0.000 C 
BRANCH  14  15
ATOM     15  C   UNL     1     172.034 159.878 150.479  1.00  0.00    -0.003 C 
ATOM     16  C   UNL     1     171.937 161.110 149.582  1.00  0.00     0.004 C 
ENDBRANCH  14  15
ENDBRANCH  13  14
ENDBRANCH  12  13
ENDBRANCH  11  12
ENDBRANCH  10  11
ENDBRANCH   9  10
ENDBRANCH   8   9
ENDBRANCH   7   8
ENDBRANCH   6   7
ENDBRANCH   5   6
ENDBRANCH   4   5
ENDBRANCH   3   4
ENDBRANCH   2   3
ENDBRANCH   1   2
BRANCH   1  17
ATOM     17  C   UNL     1     174.286 173.031 150.085  1.00  0.00     0.000 C 
BRANCH  17  18
ATOM     18  C   UNL     1     173.084 173.851 150.574  1.00  0.00     0.000 C 
BRANCH  18  19
ATOM     19  C   UNL     1     173.231 174.203 152.063  1.00  0.00     0.000 C 
BRANCH  19  20
ATOM     20  C   UNL     1     174.695 174.193 152.541  1.00  0.00     0.000 C 
BRANCH  20  21
ATOM     21  C   UNL     1     174.951 173.424 153.853  1.00  0.00     0.000 C 
BRANCH  21  22
ATOM     22  C   UNL     1     174.909 171.889 153.731  1.00  0.00     0.000 C 
BRANCH  22  23
ATOM     23  C   UNL     1     173.495 171.315 153.922  1.00  0.00     0.000 C 
BRANCH  23  24
ATOM     24  C   UNL     1     173.363 169.884 153.372  1.00  0.00     0.000 C 
BRANCH  24  25
ATOM     25  C   UNL     1     171.897 169.435 153.245  1.00  0.00     0.000 C 
BRANCH  25  26
ATOM     26  C   UNL     1     171.283 169.780 151.876  1.00  0.00     0.000 C 
BRANCH  26  27
ATOM     27  C   UNL     1     170.639 171.174 151.783  1.00  0.00     0.002 C 
BRANCH  27  28
ATOM     28  C   UNL     1     169.998 171.626 153.104  1.00  0.00     0.028 C 
BRANCH  28  29
ATOM     29  C   UNL     1     169.871 173.149 153.165  1.00  0.00     0.156 C 
BRANCH  29  30
ATOM     30  O   UNL     1     169.494 173.554 154.453  1.00  0.00    -0.396 OA
ATOM     31  H   UNL     1     168.528 173.783 154.407  1.00  0.00     0.210 HD
ENDBRANCH  29  30
ENDBRANCH  28  29
ENDBRANCH  27  28
ENDBRANCH  26  27
ENDBRANCH  25  26
ENDBRANCH  24  25
ENDBRANCH  23  24
ENDBRANCH  22  23
ENDBRANCH  21  22
ENDBRANCH  20  21
ENDBRANCH  19  20
ENDBRANCH  18  19
ENDBRANCH  17  18
ENDBRANCH   1  17
TORSDOF 28
ENDMDL
MODEL 9
REMARK VINA RESULT:    -3.951      1.824      3.794
REMARK INTER + INTRA:         -15.053
REMARK INTER:                 -11.537
REMARK INTRA:                  -3.516
REMARK UNBOUND:                -4.751
REMARK SMILES CCCCCCCCCCCCCCCCCCCCCCCCCCCCCO
REMARK SMILES IDX 16 1 15 2 14 3 13 4 12 5 11 6 10 7 9 8 8 9 7 10 6 11 5 12
REMARK SMILES IDX 4 13 3 14 2 15 1 16 17 17 18 18 19 19 20 20 21 21 22 22
REMARK SMILES IDX 23 23 24 24 25 25 26 26 27 27 28 28 29 29 30 30
REMARK H PARENT 30 31
REMARK Flexibility Score: inf
ROOT
ATOM      1  C   UNL     1     174.233 167.222 149.373  1.00  0.00     0.000 C 
ENDROOT
BRANCH   1   2
ATOM      2  C   UNL     1     174.246 168.533 150.177  1.00  0.00     0.000 C 
BRANCH   2   3
ATOM      3  C   UNL     1     172.914 169.298 150.095  1.00  0.00     0.000 C 
BRANCH   3   4
ATOM      4  C   UNL     1     173.080 170.831 150.056  1.00  0.00     0.000 C 
BRANCH   4   5
ATOM      5  C   UNL     1     174.557 171.259 150.119  1.00  0.00     0.000 C 
BRANCH   5   6
ATOM      6  C   UNL     1     174.728 172.786 150.170  1.00  0.00     0.000 C 
BRANCH   6   7
ATOM      7  C   UNL     1     173.393 173.523 150.360  1.00  0.00     0.000 C 
BRANCH   7   8
ATOM      8  C   UNL     1     173.348 174.240 151.718  1.00  0.00    -0.000 C 
BRANCH   8   9
ATOM      9  C   UNL     1     174.702 174.209 152.446  1.00  0.00    -0.000 C 
BRANCH   9  10
ATOM     10  C   UNL     1     174.578 173.762 153.914  1.00  0.00    -0.000 C 
BRANCH  10  11
ATOM     11  C   UNL     1     175.388 172.492 154.217  1.00  0.00    -0.000 C 
BRANCH  11  12
ATOM     12  C   UNL     1     174.631 171.205 153.844  1.00  0.00    -0.000 C 
BRANCH  12  13
ATOM     13  C   UNL     1     173.202 171.168 154.416  1.00  0.00    -0.000 C 
BRANCH  13  14
ATOM     14  C   UNL     1     172.084 170.965 153.373  1.00  0.00    -0.000 C 
BRANCH  14  15
ATOM     15  C   UNL     1     170.940 171.993 153.442  1.00  0.00    -0.003 C 
ATOM     16  C   UNL     1     170.229 172.181 152.103  1.00  0.00     0.004 C 
ENDBRANCH  14  15
ENDBRANCH  13  14
ENDBRANCH  12  13
ENDBRANCH  11  12
ENDBRANCH  10  11
ENDBRANCH   9  10
ENDBRANCH   8   9
ENDBRANCH   7   8
ENDBRANCH   6   7
ENDBRANCH   5   6
ENDBRANCH   4   5
ENDBRANCH   3   4
ENDBRANCH   2   3
ENDBRANCH   1   2
BRANCH   1  17
ATOM     17  C   UNL     1     174.674 166.013 150.212  1.00  0.00     0.000 C 
BRANCH  17  18
ATOM     18  C   UNL     1     173.493 165.294 150.879  1.00  0.00     0.000 C 
BRANCH  18  19
ATOM     19  C   UNL     1     173.967 164.034 151.620  1.00  0.00     0.000 C 
BRANCH  19  20
ATOM     20  C   UNL     1     175.390 163.602 151.221  1.00  0.00     0.000 C 
BRANCH  20  21
ATOM     21  C   UNL     1     175.511 162.163 150.680  1.00  0.00     0.000 C 
BRANCH  21  22
ATOM     22  C   UNL     1     174.180 161.502 150.276  1.00  0.00     0.000 C 
BRANCH  22  23
ATOM     23  C   UNL     1     174.338 160.014 149.919  1.00  0.00     0.000 C 
BRANCH  23  24
ATOM     24  C   UNL     1     173.637 159.090 150.929  1.00  0.00     0.000 C 
BRANCH  24  25
ATOM     25  C   UNL     1     172.780 158.011 150.243  1.00  0.00     0.000 C 
BRANCH  25  26
ATOM     26  C   UNL     1     171.269 158.273 150.381  1.00  0.00     0.000 C 
BRANCH  26  27
ATOM     27  C   UNL     1     170.456 158.090 149.086  1.00  0.00     0.002 C 
BRANCH  27  28
ATOM     28  C   UNL     1     169.730 159.371 148.650  1.00  0.00     0.028 C 
BRANCH  28  29
ATOM     29  C   UNL     1     170.180 160.573 149.485  1.00  0.00     0.156 C 
BRANCH  29  30
ATOM     30  O   UNL     1     171.063 161.372 148.747  1.00  0.00    -0.396 OA
ATOM     31  H   UNL     1     170.964 161.104 147.796  1.00  0.00     0.210 HD
ENDBRANCH  29  30
ENDBRANCH  28  29
ENDBRANCH  27  28
ENDBRANCH  26  27
ENDBRANCH  25  26
ENDBRANCH  24  25
ENDBRANCH  23  24
ENDBRANCH  22  23
ENDBRANCH  21  22
ENDBRANCH  20  21
ENDBRANCH  19  20
ENDBRANCH  18  19
ENDBRANCH  17  18
ENDBRANCH   1  17
TORSDOF 28
ENDMDL
