MODEL 1
REMARK VINA RESULT:    -5.485      0.000      0.000
REMARK INTER + INTRA:          -9.533
REMARK INTER:                  -7.890
REMARK INTRA:                  -1.643
REMARK UNBOUND:                -1.643
REMARK SMILES CC(C)=CCCC(C)=CCCC(C)=CCO
REMARK SMILES IDX 10 1 9 2 7 3 8 4 6 5 5 6 4 7 1 8 2 9 3 10 11 11 12 12 14 13
REMARK SMILES IDX 13 14 15 15 16 16
REMARK H PARENT 16 17
REMARK Flexibility Score: inf
ROOT
ATOM      1  C   UNL     1     -62.519  18.211  21.117  1.00  0.00     0.032 C 
ENDROOT
BRANCH   1   2
ATOM      2  C   UNL     1     -61.501  17.611  22.055  1.00  0.00    -0.028 C 
ATOM      3  C   UNL     1     -61.735  16.545  22.857  1.00  0.00    -0.077 C 
ATOM      4  C   UNL     1     -63.088  15.877  22.920  1.00  0.00     0.039 C 
BRANCH   3   5
ATOM      5  C   UNL     1     -60.611  16.018  23.722  1.00  0.00     0.034 C 
BRANCH   5   6
ATOM      6  C   UNL     1     -59.593  15.239  22.883  1.00  0.00     0.032 C 
BRANCH   6   7
ATOM      7  C   UNL     1     -60.157  13.914  22.430  1.00  0.00    -0.028 C 
ATOM      8  C   UNL     1     -60.166  14.632  20.038  1.00  0.00     0.039 C 
ATOM      9  C   UNL     1     -60.422  13.627  21.137  1.00  0.00    -0.080 C 
ATOM     10  C   UNL     1     -60.985  12.272  20.796  1.00  0.00     0.039 C 
ENDBRANCH   6   7
ENDBRANCH   5   6
ENDBRANCH   3   5
ENDBRANCH   1   2
BRANCH   1  11
ATOM     11  C   UNL     1     -62.443  17.548  19.738  1.00  0.00     0.034 C 
BRANCH  11  12
ATOM     12  C   UNL     1     -63.761  16.893  19.382  1.00  0.00    -0.075 C 
ATOM     13  C   UNL     1     -64.865  17.663  19.259  1.00  0.00    -0.000 C 
ATOM     14  C   UNL     1     -63.817  15.396  19.196  1.00  0.00     0.039 C 
BRANCH  13  15
ATOM     15  C   UNL     1     -66.228  17.127  18.919  1.00  0.00     0.183 C 
BRANCH  15  16
ATOM     16  O   UNL     1     -67.155  17.540  19.884  1.00  0.00    -0.392 OA
ATOM     17  H   UNL     1     -67.232  18.524  19.788  1.00  0.00     0.210 HD
ENDBRANCH  15  16
ENDBRANCH  13  15
ENDBRANCH  11  12
ENDBRANCH   1  11
TORSDOF 8
ENDMDL
MODEL 2
REMARK VINA RESULT:    -5.335      1.921      5.110
REMARK INTER + INTRA:          -9.318
REMARK INTER:                  -8.111
REMARK INTRA:                  -1.207
REMARK UNBOUND:                -1.643
REMARK SMILES CC(C)=CCCC(C)=CCCC(C)=CCO
REMARK SMILES IDX 10 1 9 2 7 3 8 4 6 5 5 6 4 7 1 8 2 9 3 10 11 11 12 12 14 13
REMARK SMILES IDX 13 14 15 15 16 16
REMARK H PARENT 16 17
REMARK Flexibility Score: inf
ROOT
ATOM      1  C   UNL     1     -61.892  16.062  23.365  1.00  0.00     0.032 C 
ENDROOT
BRANCH   1   2
ATOM      2  C   UNL     1     -62.254  16.981  22.225  1.00  0.00    -0.028 C 
ATOM      3  C   UNL     1     -61.897  18.285  22.151  1.00  0.00    -0.077 C 
ATOM      4  C   UNL     1     -61.126  18.964  23.259  1.00  0.00     0.039 C 
BRANCH   3   5
ATOM      5  C   UNL     1     -62.293  19.086  20.930  1.00  0.00     0.034 C 
BRANCH   5   6
ATOM      6  C   UNL     1     -62.454  18.175  19.708  1.00  0.00     0.032 C 
BRANCH   6   7
ATOM      7  C   UNL     1     -63.888  18.139  19.238  1.00  0.00    -0.028 C 
ATOM      8  C   UNL     1     -63.918  15.641  19.238  1.00  0.00     0.039 C 
ATOM      9  C   UNL     1     -64.564  16.990  19.020  1.00  0.00    -0.080 C 
ATOM     10  C   UNL     1     -65.993  17.068  18.550  1.00  0.00     0.039 C 
ENDBRANCH   6   7
ENDBRANCH   5   6
ENDBRANCH   3   5
ENDBRANCH   1   2
BRANCH   1  11
ATOM     11  C   UNL     1     -60.506  15.445  23.146  1.00  0.00     0.034 C 
BRANCH  11  12
ATOM     12  C   UNL     1     -60.517  14.508  21.958  1.00  0.00    -0.075 C 
ATOM     13  C   UNL     1     -61.236  13.365  22.028  1.00  0.00    -0.000 C 
ATOM     14  C   UNL     1     -59.708  14.858  20.731  1.00  0.00     0.039 C 
BRANCH  13  15
ATOM     15  C   UNL     1     -61.316  12.354  20.918  1.00  0.00     0.183 C 
BRANCH  15  16
ATOM     16  O   UNL     1     -62.415  12.635  20.097  1.00  0.00    -0.392 OA
ATOM     17  H   UNL     1     -62.633  11.787  19.630  1.00  0.00     0.210 HD
ENDBRANCH  15  16
ENDBRANCH  13  15
ENDBRANCH  11  12
ENDBRANCH   1  11
TORSDOF 8
ENDMDL
MODEL 3
REMARK VINA RESULT:    -5.299      2.863      5.472
REMARK INTER + INTRA:          -9.266
REMARK INTER:                  -7.504
REMARK INTRA:                  -1.762
REMARK UNBOUND:                -1.643
REMARK SMILES CC(C)=CCCC(C)=CCCC(C)=CCO
REMARK SMILES IDX 10 1 9 2 7 3 8 4 6 5 5 6 4 7 1 8 2 9 3 10 11 11 12 12 14 13
REMARK SMILES IDX 13 14 15 15 16 16
REMARK H PARENT 16 17
REMARK Flexibility Score: inf
ROOT
ATOM      1  C   UNL     1     -61.945  14.739  22.273  1.00  0.00     0.032 C 
ENDROOT
BRANCH   1   2
ATOM      2  C   UNL     1     -62.635  15.995  21.801  1.00  0.00    -0.028 C 
ATOM      3  C   UNL     1     -63.285  16.113  20.620  1.00  0.00    -0.077 C 
ATOM      4  C   UNL     1     -63.334  14.980  19.621  1.00  0.00     0.039 C 
BRANCH   3   5
ATOM      5  C   UNL     1     -63.969  17.421  20.286  1.00  0.00     0.034 C 
BRANCH   5   6
ATOM      6  C   UNL     1     -62.941  18.534  20.056  1.00  0.00     0.032 C 
BRANCH   6   7
ATOM      7  C   UNL     1     -61.956  18.155  18.977  1.00  0.00    -0.028 C 
ATOM      8  C   UNL     1     -60.033  18.271  20.566  1.00  0.00     0.039 C 
ATOM      9  C   UNL     1     -60.630  18.033  19.199  1.00  0.00    -0.080 C 
ATOM     10  C   UNL     1     -59.735  17.652  18.048  1.00  0.00     0.039 C 
ENDBRANCH   6   7
ENDBRANCH   5   6
ENDBRANCH   3   5
ENDBRANCH   1   2
BRANCH   1  11
ATOM     11  C   UNL     1     -60.425  14.873  22.143  1.00  0.00     0.034 C 
BRANCH  11  12
ATOM     12  C   UNL     1     -59.903  14.004  21.019  1.00  0.00    -0.075 C 
ATOM     13  C   UNL     1     -58.829  14.420  20.311  1.00  0.00    -0.000 C 
ATOM     14  C   UNL     1     -60.606  12.706  20.699  1.00  0.00     0.039 C 
BRANCH  13  15
ATOM     15  C   UNL     1     -58.227  13.649  19.168  1.00  0.00     0.183 C 
BRANCH  15  16
ATOM     16  O   UNL     1     -58.286  14.412  17.996  1.00  0.00    -0.392 OA
ATOM     17  H   UNL     1     -58.901  13.931  17.385  1.00  0.00     0.210 HD
ENDBRANCH  15  16
ENDBRANCH  13  15
ENDBRANCH  11  12
ENDBRANCH   1  11
TORSDOF 8
ENDMDL
MODEL 4
REMARK VINA RESULT:    -5.212      1.796      2.130
REMARK INTER + INTRA:          -9.141
REMARK INTER:                  -7.272
REMARK INTRA:                  -1.869
REMARK UNBOUND:                -1.643
REMARK SMILES CC(C)=CCCC(C)=CCCC(C)=CCO
REMARK SMILES IDX 10 1 9 2 7 3 8 4 6 5 5 6 4 7 1 8 2 9 3 10 11 11 12 12 14 13
REMARK SMILES IDX 13 14 15 15 16 16
REMARK H PARENT 16 17
REMARK Flexibility Score: inf
ROOT
ATOM      1  C   UNL     1     -60.518  18.414  21.123  1.00  0.00     0.032 C 
ENDROOT
BRANCH   1   2
ATOM      2  C   UNL     1     -59.848  17.429  22.049  1.00  0.00    -0.028 C 
ATOM      3  C   UNL     1     -60.501  16.670  22.959  1.00  0.00    -0.077 C 
ATOM      4  C   UNL     1     -61.994  16.781  23.166  1.00  0.00     0.039 C 
BRANCH   3   5
ATOM      5  C   UNL     1     -59.711  15.690  23.799  1.00  0.00     0.034 C 
BRANCH   5   6
ATOM      6  C   UNL     1     -59.088  14.597  22.925  1.00  0.00     0.032 C 
BRANCH   6   7
ATOM      7  C   UNL     1     -60.147  13.690  22.345  1.00  0.00    -0.028 C 
ATOM      8  C   UNL     1     -59.276  14.007  20.026  1.00  0.00     0.039 C 
ATOM      9  C   UNL     1     -60.241  13.415  21.026  1.00  0.00    -0.080 C 
ATOM     10  C   UNL     1     -61.338  12.497  20.554  1.00  0.00     0.039 C 
ENDBRANCH   6   7
ENDBRANCH   5   6
ENDBRANCH   3   5
ENDBRANCH   1   2
BRANCH   1  11
ATOM     11  C   UNL     1     -60.695  17.811  19.725  1.00  0.00     0.034 C 
BRANCH  11  12
ATOM     12  C   UNL     1     -62.112  17.318  19.528  1.00  0.00    -0.075 C 
ATOM     13  C   UNL     1     -62.347  15.987  19.504  1.00  0.00    -0.000 C 
ATOM     14  C   UNL     1     -63.225  18.321  19.339  1.00  0.00     0.039 C 
BRANCH  13  15
ATOM     15  C   UNL     1     -63.709  15.379  19.307  1.00  0.00     0.183 C 
BRANCH  15  16
ATOM     16  O   UNL     1     -63.614  14.268  18.460  1.00  0.00    -0.392 OA
ATOM     17  H   UNL     1     -64.513  13.848  18.456  1.00  0.00     0.210 HD
ENDBRANCH  15  16
ENDBRANCH  13  15
ENDBRANCH  11  12
ENDBRANCH   1  11
TORSDOF 8
ENDMDL
MODEL 5
REMARK VINA RESULT:    -5.194      3.047      5.686
REMARK INTER + INTRA:          -9.114
REMARK INTER:                  -7.638
REMARK INTRA:                  -1.476
REMARK UNBOUND:                -1.643
REMARK SMILES CC(C)=CCCC(C)=CCCC(C)=CCO
REMARK SMILES IDX 10 1 9 2 7 3 8 4 6 5 5 6 4 7 1 8 2 9 3 10 11 11 12 12 14 13
REMARK SMILES IDX 13 14 15 15 16 16
REMARK H PARENT 16 17
REMARK Flexibility Score: inf
ROOT
ATOM      1  C   UNL     1     -62.358  13.979  20.093  1.00  0.00     0.032 C 
ENDROOT
BRANCH   1   2
ATOM      2  C   UNL     1     -63.048  15.231  19.611  1.00  0.00    -0.028 C 
ATOM      3  C   UNL     1     -63.485  16.223  20.422  1.00  0.00    -0.077 C 
ATOM      4  C   UNL     1     -63.362  16.136  21.925  1.00  0.00     0.039 C 
BRANCH   3   5
ATOM      5  C   UNL     1     -64.125  17.447  19.804  1.00  0.00     0.034 C 
BRANCH   5   6
ATOM      6  C   UNL     1     -63.068  18.355  19.167  1.00  0.00     0.032 C 
BRANCH   6   7
ATOM      7  C   UNL     1     -61.871  18.521  20.071  1.00  0.00    -0.028 C 
ATOM      8  C   UNL     1     -60.339  17.508  18.380  1.00  0.00     0.039 C 
ATOM      9  C   UNL     1     -60.624  18.138  19.723  1.00  0.00    -0.080 C 
ATOM     10  C   UNL     1     -59.500  18.349  20.704  1.00  0.00     0.039 C 
ENDBRANCH   6   7
ENDBRANCH   5   6
ENDBRANCH   3   5
ENDBRANCH   1   2
BRANCH   1  11
ATOM     11  C   UNL     1     -60.869  14.239  20.341  1.00  0.00     0.034 C 
BRANCH  11  12
ATOM     12  C   UNL     1     -60.500  13.928  21.775  1.00  0.00    -0.075 C 
ATOM     13  C   UNL     1     -59.583  14.699  22.400  1.00  0.00    -0.000 C 
ATOM     14  C   UNL     1     -61.146  12.750  22.466  1.00  0.00     0.039 C 
BRANCH  13  15
ATOM     15  C   UNL     1     -59.130  14.483  23.818  1.00  0.00     0.183 C 
BRANCH  15  16
ATOM     16  O   UNL     1     -57.978  13.687  23.833  1.00  0.00    -0.392 OA
ATOM     17  H   UNL     1     -57.382  14.053  23.129  1.00  0.00     0.210 HD
ENDBRANCH  15  16
ENDBRANCH  13  15
ENDBRANCH  11  12
ENDBRANCH   1  11
TORSDOF 8
ENDMDL
MODEL 6
REMARK VINA RESULT:    -5.187      1.362      2.265
REMARK INTER + INTRA:          -9.104
REMARK INTER:                  -7.393
REMARK INTRA:                  -1.711
REMARK UNBOUND:                -1.643
REMARK SMILES CC(C)=CCCC(C)=CCCC(C)=CCO
REMARK SMILES IDX 10 1 9 2 7 3 8 4 6 5 5 6 4 7 1 8 2 9 3 10 11 11 12 12 14 13
REMARK SMILES IDX 13 14 15 15 16 16
REMARK H PARENT 16 17
REMARK Flexibility Score: inf
ROOT
ATOM      1  C   UNL     1     -61.892  18.140  20.915  1.00  0.00     0.032 C 
ENDROOT
BRANCH   1   2
ATOM      2  C   UNL     1     -60.593  17.375  20.973  1.00  0.00    -0.028 C 
ATOM      3  C   UNL     1     -59.889  16.980  19.886  1.00  0.00    -0.077 C 
ATOM      4  C   UNL     1     -60.382  17.234  18.481  1.00  0.00     0.039 C 
BRANCH   3   5
ATOM      5  C   UNL     1     -58.577  16.252  20.087  1.00  0.00     0.034 C 
BRANCH   5   6
ATOM      6  C   UNL     1     -58.723  15.140  21.131  1.00  0.00     0.032 C 
BRANCH   6   7
ATOM      7  C   UNL     1     -59.473  13.957  20.570  1.00  0.00    -0.028 C 
ATOM      8  C   UNL     1     -61.213  14.099  22.356  1.00  0.00     0.039 C 
ATOM      9  C   UNL     1     -60.608  13.475  21.121  1.00  0.00    -0.080 C 
ATOM     10  C   UNL     1     -61.276  12.286  20.480  1.00  0.00     0.039 C 
ENDBRANCH   6   7
ENDBRANCH   5   6
ENDBRANCH   3   5
ENDBRANCH   1   2
BRANCH   1  11
ATOM     11  C   UNL     1     -63.065  17.251  21.339  1.00  0.00     0.034 C 
BRANCH  11  12
ATOM     12  C   UNL     1     -63.868  16.809  20.135  1.00  0.00    -0.075 C 
ATOM     13  C   UNL     1     -64.886  17.587  19.702  1.00  0.00    -0.000 C 
ATOM     14  C   UNL     1     -63.530  15.501  19.459  1.00  0.00     0.039 C 
BRANCH  13  15
ATOM     15  C   UNL     1     -65.758  17.249  18.524  1.00  0.00     0.183 C 
BRANCH  15  16
ATOM     16  O   UNL     1     -66.983  17.918  18.632  1.00  0.00    -0.392 OA
ATOM     17  H   UNL     1     -66.768  18.837  18.939  1.00  0.00     0.210 HD
ENDBRANCH  15  16
ENDBRANCH  13  15
ENDBRANCH  11  12
ENDBRANCH   1  11
TORSDOF 8
ENDMDL
MODEL 7
REMARK VINA RESULT:    -4.971      2.517      5.340
REMARK INTER + INTRA:          -8.794
REMARK INTER:                  -7.561
REMARK INTRA:                  -1.233
REMARK UNBOUND:                -1.643
REMARK SMILES CC(C)=CCCC(C)=CCCC(C)=CCO
REMARK SMILES IDX 10 1 9 2 7 3 8 4 6 5 5 6 4 7 1 8 2 9 3 10 11 11 12 12 14 13
REMARK SMILES IDX 13 14 15 15 16 16
REMARK H PARENT 16 17
REMARK Flexibility Score: inf
ROOT
ATOM      1  C   UNL     1     -59.258  16.243  22.418  1.00  0.00     0.032 C 
ENDROOT
BRANCH   1   2
ATOM      2  C   UNL     1     -60.060  17.302  21.702  1.00  0.00    -0.028 C 
ATOM      3  C   UNL     1     -61.363  17.571  21.948  1.00  0.00    -0.077 C 
ATOM      4  C   UNL     1     -62.164  16.779  22.955  1.00  0.00     0.039 C 
BRANCH   3   5
ATOM      5  C   UNL     1     -62.039  18.689  21.184  1.00  0.00     0.034 C 
BRANCH   5   6
ATOM      6  C   UNL     1     -62.161  18.339  19.697  1.00  0.00     0.032 C 
BRANCH   6   7
ATOM      7  C   UNL     1     -63.606  18.200  19.284  1.00  0.00    -0.028 C 
ATOM      8  C   UNL     1     -63.504  15.710  19.439  1.00  0.00     0.039 C 
ATOM      9  C   UNL     1     -64.227  17.007  19.163  1.00  0.00    -0.080 C 
ATOM     10  C   UNL     1     -65.674  16.983  18.743  1.00  0.00     0.039 C 
ENDBRANCH   6   7
ENDBRANCH   5   6
ENDBRANCH   3   5
ENDBRANCH   1   2
BRANCH   1  11
ATOM     11  C   UNL     1     -58.682  15.231  21.421  1.00  0.00     0.034 C 
BRANCH  11  12
ATOM     12  C   UNL     1     -59.584  14.022  21.301  1.00  0.00    -0.075 C 
ATOM     13  C   UNL     1     -60.448  13.744  22.303  1.00  0.00    -0.000 C 
ATOM     14  C   UNL     1     -59.482  13.142  20.078  1.00  0.00     0.039 C 
BRANCH  13  15
ATOM     15  C   UNL     1     -61.386  12.568  22.300  1.00  0.00     0.183 C 
BRANCH  15  16
ATOM     16  O   UNL     1     -60.944  11.606  23.216  1.00  0.00    -0.392 OA
ATOM     17  H   UNL     1     -60.067  11.928  23.552  1.00  0.00     0.210 HD
ENDBRANCH  15  16
ENDBRANCH  13  15
ENDBRANCH  11  12
ENDBRANCH   1  11
TORSDOF 8
ENDMDL
MODEL 8
REMARK VINA RESULT:    -4.951      2.500      4.117
REMARK INTER + INTRA:          -8.766
REMARK INTER:                  -7.259
REMARK INTRA:                  -1.506
REMARK UNBOUND:                -1.643
REMARK SMILES CC(C)=CCCC(C)=CCCC(C)=CCO
REMARK SMILES IDX 10 1 9 2 7 3 8 4 6 5 5 6 4 7 1 8 2 9 3 10 11 11 12 12 14 13
REMARK SMILES IDX 13 14 15 15 16 16
REMARK H PARENT 16 17
REMARK Flexibility Score: inf
ROOT
ATOM      1  C   UNL     1     -64.066  17.235  20.412  1.00  0.00     0.032 C 
ENDROOT
BRANCH   1   2
ATOM      2  C   UNL     1     -63.152  16.120  20.856  1.00  0.00    -0.028 C 
ATOM      3  C   UNL     1     -62.919  14.993  20.143  1.00  0.00    -0.077 C 
ATOM      4  C   UNL     1     -63.612  14.724  18.828  1.00  0.00     0.039 C 
BRANCH   3   5
ATOM      5  C   UNL     1     -61.946  13.969  20.687  1.00  0.00     0.034 C 
BRANCH   5   6
ATOM      6  C   UNL     1     -61.542  14.308  22.126  1.00  0.00     0.032 C 
BRANCH   6   7
ATOM      7  C   UNL     1     -60.234  15.059  22.165  1.00  0.00    -0.028 C 
ATOM      8  C   UNL     1     -61.135  16.724  23.793  1.00  0.00     0.039 C 
ATOM      9  C   UNL     1     -60.038  16.161  22.921  1.00  0.00    -0.080 C 
ATOM     10  C   UNL     1     -58.691  16.835  22.885  1.00  0.00     0.039 C 
ENDBRANCH   6   7
ENDBRANCH   5   6
ENDBRANCH   3   5
ENDBRANCH   1   2
BRANCH   1  11
ATOM     11  C   UNL     1     -63.316  18.229  19.520  1.00  0.00     0.034 C 
BRANCH  11  12
ATOM     12  C   UNL     1     -61.964  18.566  20.109  1.00  0.00    -0.075 C 
ATOM     13  C   UNL     1     -61.896  19.426  21.150  1.00  0.00    -0.000 C 
ATOM     14  C   UNL     1     -60.721  17.954  19.507  1.00  0.00     0.039 C 
BRANCH  13  15
ATOM     15  C   UNL     1     -60.610  19.843  21.811  1.00  0.00     0.183 C 
BRANCH  15  16
ATOM     16  O   UNL     1     -60.141  21.028  21.233  1.00  0.00    -0.392 OA
ATOM     17  H   UNL     1     -60.895  21.672  21.272  1.00  0.00     0.210 HD
ENDBRANCH  15  16
ENDBRANCH  13  15
ENDBRANCH  11  12
ENDBRANCH   1  11
TORSDOF 8
ENDMDL
MODEL 9
REMARK VINA RESULT:    -4.858      1.638      2.985
REMARK INTER + INTRA:          -8.632
REMARK INTER:                  -6.792
REMARK INTRA:                  -1.840
REMARK UNBOUND:                -1.643
REMARK SMILES CC(C)=CCCC(C)=CCCC(C)=CCO
REMARK SMILES IDX 10 1 9 2 7 3 8 4 6 5 5 6 4 7 1 8 2 9 3 10 11 11 12 12 14 13
REMARK SMILES IDX 13 14 15 15 16 16
REMARK H PARENT 16 17
REMARK Flexibility Score: inf
ROOT
ATOM      1  C   UNL     1     -62.673  16.011  22.310  1.00  0.00     0.032 C 
ENDROOT
BRANCH   1   2
ATOM      2  C   UNL     1     -61.504  15.084  22.090  1.00  0.00    -0.028 C 
ATOM      3  C   UNL     1     -61.388  14.235  21.043  1.00  0.00    -0.077 C 
ATOM      4  C   UNL     1     -62.473  14.103  20.000  1.00  0.00     0.039 C 
BRANCH   3   5
ATOM      5  C   UNL     1     -60.141  13.386  20.921  1.00  0.00     0.034 C 
BRANCH   5   6
ATOM      6  C   UNL     1     -58.904  14.261  20.696  1.00  0.00     0.032 C 
BRANCH   6   7
ATOM      7  C   UNL     1     -58.958  14.953  19.355  1.00  0.00    -0.028 C 
ATOM      8  C   UNL     1     -58.854  17.211  20.416  1.00  0.00     0.039 C 
ATOM      9  C   UNL     1     -58.937  16.296  19.217  1.00  0.00    -0.080 C 
ATOM     10  C   UNL     1     -58.998  16.883  17.831  1.00  0.00     0.039 C 
ENDBRANCH   6   7
ENDBRANCH   5   6
ENDBRANCH   3   5
ENDBRANCH   1   2
BRANCH   1  11
ATOM     11  C   UNL     1     -62.374  17.404  21.747  1.00  0.00     0.034 C 
BRANCH  11  12
ATOM     12  C   UNL     1     -63.027  17.589  20.395  1.00  0.00    -0.075 C 
ATOM     13  C   UNL     1     -64.322  17.237  20.236  1.00  0.00    -0.000 C 
ATOM     14  C   UNL     1     -62.212  18.141  19.249  1.00  0.00     0.039 C 
BRANCH  13  15
ATOM     15  C   UNL     1     -65.074  17.366  18.940  1.00  0.00     0.183 C 
BRANCH  15  16
ATOM     16  O   UNL     1     -66.427  17.067  19.143  1.00  0.00    -0.392 OA
ATOM     17  H   UNL     1     -66.478  16.082  19.252  1.00  0.00     0.210 HD
ENDBRANCH  15  16
ENDBRANCH  13  15
ENDBRANCH  11  12
ENDBRANCH   1  11
TORSDOF 8
ENDMDL
