MODEL 1
REMARK VINA RESULT:    -6.063      0.000      0.000
REMARK INTER + INTRA:          -6.594
REMARK INTER:                  -6.594
REMARK INTRA:                   0.000
REMARK UNBOUND:                 0.000
REMARK SMILES Cc1cc(O)c2c(c1)C(=O)c1cc(O)cc(O)c1C2=O
REMARK SMILES IDX 1 1 2 2 8 3 7 4 6 5 4 6 3 7 19 8 20 9 18 10 11 11 9 12 10 13
REMARK SMILES IDX 12 14 13 15 15 16 16 17 5 18 17 20 14 22
REMARK H PARENT 5 19 17 21 14 23
REMARK Flexibility Score: inf
ROOT
ATOM      1  C   UNL     1      19.296  32.539  28.868  1.00  0.00     0.044 C 
ATOM      2  C   UNL     1      19.993  31.232  28.625  1.00  0.00    -0.047 A 
ATOM      3  C   UNL     1      20.137  30.742  27.323  1.00  0.00     0.016 A 
ATOM      4  C   UNL     1      20.810  29.531  27.083  1.00  0.00     0.038 A 
ATOM      5  C   UNL     1      21.347  28.796  28.165  1.00  0.00     0.076 A 
ATOM      6  C   UNL     1      21.282  29.351  29.472  1.00  0.00     0.127 A 
ATOM      7  C   UNL     1      20.585  30.544  29.688  1.00  0.00     0.050 A 
ATOM      8  C   UNL     1      21.911  27.445  27.893  1.00  0.00     0.201 C 
ATOM      9  O   UNL     1      22.014  26.602  28.824  1.00  0.00    -0.288 OA
ATOM     10  C   UNL     1      22.249  27.042  26.503  1.00  0.00     0.076 A 
ATOM     11  C   UNL     1      21.766  27.818  25.426  1.00  0.00     0.041 A 
ATOM     12  C   UNL     1      20.965  29.034  25.695  1.00  0.00     0.194 C 
ATOM     13  O   UNL     1      20.428  29.658  24.738  1.00  0.00    -0.289 OA
ATOM     14  C   UNL     1      22.045  27.429  24.105  1.00  0.00     0.059 A 
ATOM     15  C   UNL     1      22.805  26.284  23.846  1.00  0.00     0.120 A 
ATOM     16  C   UNL     1      23.290  25.521  24.907  1.00  0.00     0.093 A 
ATOM     17  C   UNL     1      23.021  25.889  26.232  1.00  0.00     0.131 A 
ENDROOT
BRANCH   6  18
ATOM     18  O   UNL     1      21.923  28.779  30.574  1.00  0.00    -0.507 OA
ATOM     19  H   UNL     1      21.542  28.785  31.510  1.00  0.00     0.293 HD
ENDBRANCH   6  18
BRANCH  17  20
ATOM     20  O   UNL     1      23.531  25.113  27.274  1.00  0.00    -0.507 OA
ATOM     21  H   UNL     1      23.065  24.269  27.587  1.00  0.00     0.293 HD
ENDBRANCH  17  20
BRANCH  15  22
ATOM     22  O   UNL     1      23.084  25.897  22.538  1.00  0.00    -0.508 OA
ATOM     23  H   UNL     1      22.434  25.336  22.000  1.00  0.00     0.293 HD
ENDBRANCH  15  22
TORSDOF 3
ENDMDL
MODEL 2
REMARK VINA RESULT:    -5.684      1.942      6.048
REMARK INTER + INTRA:          -6.182
REMARK INTER:                  -6.182
REMARK INTRA:                   0.000
REMARK UNBOUND:                 0.000
REMARK SMILES Cc1cc(O)c2c(c1)C(=O)c1cc(O)cc(O)c1C2=O
REMARK SMILES IDX 1 1 2 2 8 3 7 4 6 5 4 6 3 7 19 8 20 9 18 10 11 11 9 12 10 13
REMARK SMILES IDX 12 14 13 15 15 16 16 17 5 18 17 20 14 22
REMARK H PARENT 5 19 17 21 14 23
REMARK Flexibility Score: inf
ROOT
ATOM      1  C   UNL     1      24.125  26.276  19.849  1.00  0.00     0.044 C 
ATOM      2  C   UNL     1      23.713  26.335  21.290  1.00  0.00    -0.047 A 
ATOM      3  C   UNL     1      23.367  27.557  21.874  1.00  0.00     0.016 A 
ATOM      4  C   UNL     1      22.955  27.620  23.217  1.00  0.00     0.038 A 
ATOM      5  C   UNL     1      22.889  26.438  23.990  1.00  0.00     0.076 A 
ATOM      6  C   UNL     1      23.146  25.190  23.360  1.00  0.00     0.127 A 
ATOM      7  C   UNL     1      23.579  25.157  22.031  1.00  0.00     0.050 A 
ATOM      8  C   UNL     1      22.604  26.559  25.447  1.00  0.00     0.201 C 
ATOM      9  O   UNL     1      22.934  25.634  26.236  1.00  0.00    -0.288 OA
ATOM     10  C   UNL     1      22.034  27.817  25.994  1.00  0.00     0.076 A 
ATOM     11  C   UNL     1      22.041  28.980  25.194  1.00  0.00     0.041 A 
ATOM     12  C   UNL     1      22.579  28.923  23.816  1.00  0.00     0.194 C 
ATOM     13  O   UNL     1      22.702  29.985  23.144  1.00  0.00    -0.289 OA
ATOM     14  C   UNL     1      21.540  30.187  25.711  1.00  0.00     0.059 A 
ATOM     15  C   UNL     1      21.026  30.245  27.011  1.00  0.00     0.120 A 
ATOM     16  C   UNL     1      21.011  29.097  27.801  1.00  0.00     0.093 A 
ATOM     17  C   UNL     1      21.508  27.883  27.306  1.00  0.00     0.131 A 
ENDROOT
BRANCH   6  18
ATOM     18  O   UNL     1      22.950  23.962  23.997  1.00  0.00    -0.507 OA
ATOM     19  H   UNL     1      22.610  23.134  23.526  1.00  0.00     0.293 HD
ENDBRANCH   6  18
BRANCH  17  20
ATOM     20  O   UNL     1      21.467  26.747  28.114  1.00  0.00    -0.507 OA
ATOM     21  H   UNL     1      20.593  26.290  28.347  1.00  0.00     0.293 HD
ENDBRANCH  17  20
BRANCH  15  22
ATOM     22  O   UNL     1      20.528  31.440  27.525  1.00  0.00    -0.508 OA
ATOM     23  H   UNL     1      20.730  31.734  28.473  1.00  0.00     0.293 HD
ENDBRANCH  15  22
TORSDOF 3
ENDMDL
MODEL 3
REMARK VINA RESULT:    -5.605      1.287      5.515
REMARK INTER + INTRA:          -6.096
REMARK INTER:                  -6.096
REMARK INTRA:                   0.000
REMARK UNBOUND:                 0.000
REMARK SMILES Cc1cc(O)c2c(c1)C(=O)c1cc(O)cc(O)c1C2=O
REMARK SMILES IDX 1 1 2 2 8 3 7 4 6 5 4 6 3 7 19 8 20 9 18 10 11 11 9 12 10 13
REMARK SMILES IDX 12 14 13 15 15 16 16 17 5 18 17 20 14 22
REMARK H PARENT 5 19 17 21 14 23
REMARK Flexibility Score: inf
ROOT
ATOM      1  C   UNL     1      23.197  25.550  22.084  1.00  0.00     0.044 C 
ATOM      2  C   UNL     1      22.962  26.007  23.494  1.00  0.00    -0.047 A 
ATOM      3  C   UNL     1      22.454  27.285  23.745  1.00  0.00     0.016 A 
ATOM      4  C   UNL     1      22.207  27.713  25.061  1.00  0.00     0.038 A 
ATOM      5  C   UNL     1      22.474  26.847  26.147  1.00  0.00     0.076 A 
ATOM      6  C   UNL     1      22.895  25.516  25.876  1.00  0.00     0.127 A 
ATOM      7  C   UNL     1      23.158  25.124  24.560  1.00  0.00     0.050 A 
ATOM      8  C   UNL     1      22.352  27.385  27.530  1.00  0.00     0.201 C 
ATOM      9  O   UNL     1      22.956  26.824  28.483  1.00  0.00    -0.288 OA
ATOM     10  C   UNL     1      21.615  28.651  27.776  1.00  0.00     0.076 A 
ATOM     11  C   UNL     1      21.291  29.482  26.682  1.00  0.00     0.041 A 
ATOM     12  C   UNL     1      21.655  29.067  25.308  1.00  0.00     0.194 C 
ATOM     13  O   UNL     1      21.480  29.862  24.343  1.00  0.00    -0.289 OA
ATOM     14  C   UNL     1      20.627  30.701  26.903  1.00  0.00     0.059 A 
ATOM     15  C   UNL     1      20.276  31.095  28.198  1.00  0.00     0.120 A 
ATOM     16  C   UNL     1      20.588  30.274  29.280  1.00  0.00     0.093 A 
ATOM     17  C   UNL     1      21.252  29.055  29.083  1.00  0.00     0.131 A 
ENDROOT
BRANCH   6  18
ATOM     18  O   UNL     1      23.028  24.544  26.870  1.00  0.00    -0.507 OA
ATOM     19  H   UNL     1      23.696  23.786  26.827  1.00  0.00     0.293 HD
ENDBRANCH   6  18
BRANCH  17  20
ATOM     20  O   UNL     1      21.539  28.247  30.183  1.00  0.00    -0.507 OA
ATOM     21  H   UNL     1      20.955  27.457  30.431  1.00  0.00     0.293 HD
ENDBRANCH  17  20
BRANCH  15  22
ATOM     22  O   UNL     1      19.617  32.302  28.419  1.00  0.00    -0.508 OA
ATOM     23  H   UNL     1      18.654  32.440  28.138  1.00  0.00     0.293 HD
ENDBRANCH  15  22
TORSDOF 3
ENDMDL
MODEL 4
REMARK VINA RESULT:    -5.381      2.920      6.072
REMARK INTER + INTRA:          -5.853
REMARK INTER:                  -5.853
REMARK INTRA:                   0.000
REMARK UNBOUND:                 0.000
REMARK SMILES Cc1cc(O)c2c(c1)C(=O)c1cc(O)cc(O)c1C2=O
REMARK SMILES IDX 1 1 2 2 8 3 7 4 6 5 4 6 3 7 19 8 20 9 18 10 11 11 9 12 10 13
REMARK SMILES IDX 12 14 13 15 15 16 16 17 5 18 17 20 14 22
REMARK H PARENT 5 19 17 21 14 23
REMARK Flexibility Score: inf
ROOT
ATOM      1  C   UNL     1      24.125  29.658  18.604  1.00  0.00     0.044 C 
ATOM      2  C   UNL     1      23.740  29.585  20.052  1.00  0.00    -0.047 A 
ATOM      3  C   UNL     1      23.629  28.345  20.690  1.00  0.00     0.016 A 
ATOM      4  C   UNL     1      23.294  28.266  22.052  1.00  0.00     0.038 A 
ATOM      5  C   UNL     1      23.064  29.449  22.792  1.00  0.00     0.076 A 
ATOM      6  C   UNL     1      23.277  30.706  22.162  1.00  0.00     0.127 A 
ATOM      7  C   UNL     1      23.585  30.757  20.798  1.00  0.00     0.050 A 
ATOM      8  C   UNL     1      22.557  29.326  24.187  1.00  0.00     0.201 C 
ATOM      9  O   UNL     1      21.956  30.292  24.730  1.00  0.00    -0.288 OA
ATOM     10  C   UNL     1      22.653  28.029  24.905  1.00  0.00     0.076 A 
ATOM     11  C   UNL     1      22.948  26.858  24.173  1.00  0.00     0.041 A 
ATOM     12  C   UNL     1      23.193  26.944  22.715  1.00  0.00     0.194 C 
ATOM     13  O   UNL     1      23.334  25.887  22.038  1.00  0.00    -0.289 OA
ATOM     14  C   UNL     1      23.005  25.618  24.831  1.00  0.00     0.059 A 
ATOM     15  C   UNL     1      22.779  25.534  26.209  1.00  0.00     0.120 A 
ATOM     16  C   UNL     1      22.495  26.689  26.936  1.00  0.00     0.093 A 
ATOM     17  C   UNL     1      22.431  27.935  26.299  1.00  0.00     0.131 A 
ENDROOT
BRANCH   6  18
ATOM     18  O   UNL     1      23.232  31.920  22.851  1.00  0.00    -0.507 OA
ATOM     19  H   UNL     1      22.879  32.779  22.452  1.00  0.00     0.293 HD
ENDBRANCH   6  18
BRANCH  17  20
ATOM     20  O   UNL     1      22.158  29.076  27.054  1.00  0.00    -0.507 OA
ATOM     21  H   UNL     1      21.208  29.357  27.271  1.00  0.00     0.293 HD
ENDBRANCH  17  20
BRANCH  15  22
ATOM     22  O   UNL     1      22.836  24.306  26.864  1.00  0.00    -0.508 OA
ATOM     23  H   UNL     1      22.139  24.037  27.548  1.00  0.00     0.293 HD
ENDBRANCH  15  22
TORSDOF 3
ENDMDL
MODEL 5
REMARK VINA RESULT:    -5.227      1.481      2.084
REMARK INTER + INTRA:          -5.686
REMARK INTER:                  -5.686
REMARK INTRA:                   0.000
REMARK UNBOUND:                 0.000
REMARK SMILES Cc1cc(O)c2c(c1)C(=O)c1cc(O)cc(O)c1C2=O
REMARK SMILES IDX 1 1 2 2 8 3 7 4 6 5 4 6 3 7 19 8 20 9 18 10 11 11 9 12 10 13
REMARK SMILES IDX 12 14 13 15 15 16 16 17 5 18 17 20 14 22
REMARK H PARENT 5 19 17 21 14 23
REMARK Flexibility Score: inf
ROOT
ATOM      1  C   UNL     1      20.631  30.404  30.815  1.00  0.00     0.044 C 
ATOM      2  C   UNL     1      21.130  29.460  29.761  1.00  0.00    -0.047 A 
ATOM      3  C   UNL     1      21.090  29.826  28.412  1.00  0.00     0.016 A 
ATOM      4  C   UNL     1      21.578  28.959  27.419  1.00  0.00     0.038 A 
ATOM      5  C   UNL     1      22.114  27.701  27.781  1.00  0.00     0.076 A 
ATOM      6  C   UNL     1      22.241  27.381  29.160  1.00  0.00     0.127 A 
ATOM      7  C   UNL     1      21.725  28.249  30.127  1.00  0.00     0.050 A 
ATOM      8  C   UNL     1      22.474  26.746  26.698  1.00  0.00     0.201 C 
ATOM      9  O   UNL     1      22.553  25.512  26.942  1.00  0.00    -0.288 OA
ATOM     10  C   UNL     1      22.628  27.225  25.300  1.00  0.00     0.076 A 
ATOM     11  C   UNL     1      22.151  28.508  24.956  1.00  0.00     0.041 A 
ATOM     12  C   UNL     1      21.540  29.369  25.995  1.00  0.00     0.194 C 
ATOM     13  O   UNL     1      21.001  30.463  25.668  1.00  0.00    -0.289 OA
ATOM     14  C   UNL     1      22.256  28.961  23.630  1.00  0.00     0.059 A 
ATOM     15  C   UNL     1      22.836  28.153  22.647  1.00  0.00     0.120 A 
ATOM     16  C   UNL     1      23.315  26.888  22.984  1.00  0.00     0.093 A 
ATOM     17  C   UNL     1      23.219  26.416  24.300  1.00  0.00     0.131 A 
ENDROOT
BRANCH   6  18
ATOM     18  O   UNL     1      22.903  26.239  29.618  1.00  0.00    -0.507 OA
ATOM     19  H   UNL     1      23.825  26.252  30.031  1.00  0.00     0.293 HD
ENDBRANCH   6  18
BRANCH  17  20
ATOM     20  O   UNL     1      23.719  25.152  24.612  1.00  0.00    -0.507 OA
ATOM     21  H   UNL     1      24.167  24.960  25.501  1.00  0.00     0.293 HD
ENDBRANCH  17  20
BRANCH  15  22
ATOM     22  O   UNL     1      22.942  28.600  21.332  1.00  0.00    -0.508 OA
ATOM     23  H   UNL     1      22.286  29.268  20.945  1.00  0.00     0.293 HD
ENDBRANCH  15  22
TORSDOF 3
ENDMDL
MODEL 6
REMARK VINA RESULT:    -5.067      3.057      7.076
REMARK INTER + INTRA:          -5.511
REMARK INTER:                  -5.511
REMARK INTRA:                   0.000
REMARK UNBOUND:                 0.000
REMARK SMILES Cc1cc(O)c2c(c1)C(=O)c1cc(O)cc(O)c1C2=O
REMARK SMILES IDX 1 1 2 2 8 3 7 4 6 5 4 6 3 7 19 8 20 9 18 10 11 11 9 12 10 13
REMARK SMILES IDX 12 14 13 15 15 16 16 17 5 18 17 20 14 22
REMARK H PARENT 5 19 17 21 14 23
REMARK Flexibility Score: inf
ROOT
ATOM      1  C   UNL     1      24.006  27.980  17.533  1.00  0.00     0.044 C 
ATOM      2  C   UNL     1      23.871  27.422  18.919  1.00  0.00    -0.047 A 
ATOM      3  C   UNL     1      23.523  28.258  19.984  1.00  0.00     0.016 A 
ATOM      4  C   UNL     1      23.369  27.741  21.282  1.00  0.00     0.038 A 
ATOM      5  C   UNL     1      23.568  26.361  21.520  1.00  0.00     0.076 A 
ATOM      6  C   UNL     1      23.822  25.504  20.415  1.00  0.00     0.127 A 
ATOM      7  C   UNL     1      23.996  26.047  19.138  1.00  0.00     0.050 A 
ATOM      8  C   UNL     1      23.553  25.875  22.927  1.00  0.00     0.201 C 
ATOM      9  O   UNL     1      24.117  24.789  23.228  1.00  0.00    -0.288 OA
ATOM     10  C   UNL     1      22.977  26.721  24.004  1.00  0.00     0.076 A 
ATOM     11  C   UNL     1      22.717  28.084  23.743  1.00  0.00     0.041 A 
ATOM     12  C   UNL     1      22.988  28.640  22.397  1.00  0.00     0.194 C 
ATOM     13  O   UNL     1      22.876  29.882  22.196  1.00  0.00    -0.289 OA
ATOM     14  C   UNL     1      22.207  28.906  24.762  1.00  0.00     0.059 A 
ATOM     15  C   UNL     1      21.946  28.384  26.032  1.00  0.00     0.120 A 
ATOM     16  C   UNL     1      22.194  27.037  26.292  1.00  0.00     0.093 A 
ATOM     17  C   UNL     1      22.705  26.200  25.291  1.00  0.00     0.131 A 
ENDROOT
BRANCH   6  18
ATOM     18  O   UNL     1      23.872  24.112  20.527  1.00  0.00    -0.507 OA
ATOM     19  H   UNL     1      24.460  23.524  19.954  1.00  0.00     0.293 HD
ENDBRANCH   6  18
BRANCH  17  20
ATOM     20  O   UNL     1      22.930  24.853  25.575  1.00  0.00    -0.507 OA
ATOM     21  H   UNL     1      23.749  24.365  25.230  1.00  0.00     0.293 HD
ENDBRANCH  17  20
BRANCH  15  22
ATOM     22  O   UNL     1      21.440  29.197  27.044  1.00  0.00    -0.508 OA
ATOM     23  H   UNL     1      21.728  29.085  28.009  1.00  0.00     0.293 HD
ENDBRANCH  15  22
TORSDOF 3
ENDMDL
MODEL 7
REMARK VINA RESULT:    -4.982      2.353      6.151
REMARK INTER + INTRA:          -5.419
REMARK INTER:                  -5.419
REMARK INTRA:                   0.000
REMARK UNBOUND:                 0.000
REMARK SMILES Cc1cc(O)c2c(c1)C(=O)c1cc(O)cc(O)c1C2=O
REMARK SMILES IDX 1 1 2 2 8 3 7 4 6 5 4 6 3 7 19 8 20 9 18 10 11 11 9 12 10 13
REMARK SMILES IDX 12 14 13 15 15 16 16 17 5 18 17 20 14 22
REMARK H PARENT 5 19 17 21 14 23
REMARK Flexibility Score: inf
ROOT
ATOM      1  C   UNL     1      23.860  29.144  19.131  1.00  0.00     0.044 C 
ATOM      2  C   UNL     1      23.737  28.397  20.427  1.00  0.00    -0.047 A 
ATOM      3  C   UNL     1      23.335  29.064  21.588  1.00  0.00     0.016 A 
ATOM      4  C   UNL     1      23.193  28.369  22.802  1.00  0.00     0.038 A 
ATOM      5  C   UNL     1      23.457  26.980  22.855  1.00  0.00     0.076 A 
ATOM      6  C   UNL     1      23.767  26.294  21.649  1.00  0.00     0.127 A 
ATOM      7  C   UNL     1      23.929  27.013  20.461  1.00  0.00     0.050 A 
ATOM      8  C   UNL     1      23.451  26.308  24.183  1.00  0.00     0.201 C 
ATOM      9  O   UNL     1      24.065  25.219  24.345  1.00  0.00    -0.288 OA
ATOM     10  C   UNL     1      22.820  26.971  25.354  1.00  0.00     0.076 A 
ATOM     11  C   UNL     1      22.496  28.343  25.274  1.00  0.00     0.041 A 
ATOM     12  C   UNL     1      22.754  29.089  24.021  1.00  0.00     0.194 C 
ATOM     13  O   UNL     1      22.582  30.339  23.987  1.00  0.00    -0.289 OA
ATOM     14  C   UNL     1      21.933  28.994  26.385  1.00  0.00     0.059 A 
ATOM     15  C   UNL     1      21.684  28.292  27.569  1.00  0.00     0.120 A 
ATOM     16  C   UNL     1      21.996  26.936  27.648  1.00  0.00     0.093 A 
ATOM     17  C   UNL     1      22.560  26.268  26.553  1.00  0.00     0.131 A 
ENDROOT
BRANCH   6  18
ATOM     18  O   UNL     1      23.885  24.904  21.574  1.00  0.00    -0.507 OA
ATOM     19  H   UNL     1      24.139  24.320  22.358  1.00  0.00     0.293 HD
ENDBRANCH   6  18
BRANCH  17  20
ATOM     20  O   UNL     1      22.849  24.907  26.657  1.00  0.00    -0.507 OA
ATOM     21  H   UNL     1      23.489  24.448  26.019  1.00  0.00     0.293 HD
ENDBRANCH  17  20
BRANCH  15  22
ATOM     22  O   UNL     1      21.126  28.935  28.671  1.00  0.00    -0.508 OA
ATOM     23  H   UNL     1      21.351  29.897  28.894  1.00  0.00     0.293 HD
ENDBRANCH  15  22
TORSDOF 3
ENDMDL
MODEL 8
REMARK VINA RESULT:    -4.932      1.702      6.194
REMARK INTER + INTRA:          -5.365
REMARK INTER:                  -5.365
REMARK INTRA:                   0.000
REMARK UNBOUND:                 0.000
REMARK SMILES Cc1cc(O)c2c(c1)C(=O)c1cc(O)cc(O)c1C2=O
REMARK SMILES IDX 1 1 2 2 8 3 7 4 6 5 4 6 3 7 19 8 20 9 18 10 11 11 9 12 10 13
REMARK SMILES IDX 12 14 13 15 15 16 16 17 5 18 17 20 14 22
REMARK H PARENT 5 19 17 21 14 23
REMARK Flexibility Score: inf
ROOT
ATOM      1  C   UNL     1      23.892  25.141  21.592  1.00  0.00     0.044 C 
ATOM      2  C   UNL     1      23.372  26.136  22.587  1.00  0.00    -0.047 A 
ATOM      3  C   UNL     1      23.195  25.768  23.924  1.00  0.00     0.016 A 
ATOM      4  C   UNL     1      22.732  26.699  24.870  1.00  0.00     0.038 A 
ATOM      5  C   UNL     1      22.439  28.024  24.471  1.00  0.00     0.076 A 
ATOM      6  C   UNL     1      22.716  28.415  23.132  1.00  0.00     0.127 A 
ATOM      7  C   UNL     1      23.152  27.463  22.205  1.00  0.00     0.050 A 
ATOM      8  C   UNL     1      21.802  28.938  25.459  1.00  0.00     0.201 C 
ATOM      9  O   UNL     1      21.157  29.947  25.065  1.00  0.00    -0.288 OA
ATOM     10  C   UNL     1      21.823  28.604  26.907  1.00  0.00     0.076 A 
ATOM     11  C   UNL     1      22.181  27.298  27.306  1.00  0.00     0.041 A 
ATOM     12  C   UNL     1      22.562  26.295  26.286  1.00  0.00     0.194 C 
ATOM     13  O   UNL     1      22.761  25.096  26.627  1.00  0.00    -0.289 OA
ATOM     14  C   UNL     1      22.170  26.957  28.669  1.00  0.00     0.059 A 
ATOM     15  C   UNL     1      21.814  27.903  29.636  1.00  0.00     0.120 A 
ATOM     16  C   UNL     1      21.468  29.195  29.245  1.00  0.00     0.093 A 
ATOM     17  C   UNL     1      21.470  29.556  27.891  1.00  0.00     0.131 A 
ENDROOT
BRANCH   6  18
ATOM     18  O   UNL     1      22.613  29.735  22.689  1.00  0.00    -0.507 OA
ATOM     19  H   UNL     1      22.886  30.536  23.242  1.00  0.00     0.293 HD
ENDBRANCH   6  18
BRANCH  17  20
ATOM     20  O   UNL     1      21.132  30.861  27.531  1.00  0.00    -0.507 OA
ATOM     21  H   UNL     1      21.650  31.370  26.824  1.00  0.00     0.293 HD
ENDBRANCH  17  20
BRANCH  15  22
ATOM     22  O   UNL     1      21.803  27.567  30.987  1.00  0.00    -0.508 OA
ATOM     23  H   UNL     1      20.975  27.693  31.558  1.00  0.00     0.293 HD
ENDBRANCH  15  22
TORSDOF 3
ENDMDL
MODEL 9
REMARK VINA RESULT:    -4.840      2.121      5.439
REMARK INTER + INTRA:          -5.264
REMARK INTER:                  -5.264
REMARK INTRA:                   0.000
REMARK UNBOUND:                 0.000
REMARK SMILES Cc1cc(O)c2c(c1)C(=O)c1cc(O)cc(O)c1C2=O
REMARK SMILES IDX 1 1 2 2 8 3 7 4 6 5 4 6 3 7 19 8 20 9 18 10 11 11 9 12 10 13
REMARK SMILES IDX 12 14 13 15 15 16 16 17 5 18 17 20 14 22
REMARK H PARENT 5 19 17 21 14 23
REMARK Flexibility Score: inf
ROOT
ATOM      1  C   UNL     1      23.246  30.749  21.131  1.00  0.00     0.044 C 
ATOM      2  C   UNL     1      23.051  29.939  22.378  1.00  0.00    -0.047 A 
ATOM      3  C   UNL     1      22.978  30.571  23.624  1.00  0.00     0.016 A 
ATOM      4  C   UNL     1      22.771  29.823  24.796  1.00  0.00     0.038 A 
ATOM      5  C   UNL     1      22.634  28.417  24.722  1.00  0.00     0.076 A 
ATOM      6  C   UNL     1      22.610  27.796  23.443  1.00  0.00     0.127 A 
ATOM      7  C   UNL     1      22.845  28.559  22.295  1.00  0.00     0.050 A 
ATOM      8  C   UNL     1      22.575  27.643  25.992  1.00  0.00     0.201 C 
ATOM      9  O   UNL     1      22.868  26.417  26.001  1.00  0.00    -0.288 OA
ATOM     10  C   UNL     1      22.283  28.333  27.275  1.00  0.00     0.076 A 
ATOM     11  C   UNL     1      22.355  29.742  27.329  1.00  0.00     0.041 A 
ATOM     12  C   UNL     1      22.683  30.510  26.107  1.00  0.00     0.194 C 
ATOM     13  O   UNL     1      22.870  31.757  26.179  1.00  0.00    -0.289 OA
ATOM     14  C   UNL     1      22.119  30.407  28.544  1.00  0.00     0.059 A 
ATOM     15  C   UNL     1      21.805  29.686  29.700  1.00  0.00     0.120 A 
ATOM     16  C   UNL     1      21.726  28.295  29.648  1.00  0.00     0.093 A 
ATOM     17  C   UNL     1      21.960  27.611  28.448  1.00  0.00     0.131 A 
ENDROOT
BRANCH   6  18
ATOM     18  O   UNL     1      22.320  26.442  23.260  1.00  0.00    -0.507 OA
ATOM     19  H   UNL     1      21.461  26.103  22.850  1.00  0.00     0.293 HD
ENDBRANCH   6  18
BRANCH  17  20
ATOM     20  O   UNL     1      21.860  26.220  28.422  1.00  0.00    -0.507 OA
ATOM     21  H   UNL     1      21.130  25.729  28.925  1.00  0.00     0.293 HD
ENDBRANCH  17  20
BRANCH  15  22
ATOM     22  O   UNL     1      21.570  30.343  30.906  1.00  0.00    -0.508 OA
ATOM     23  H   UNL     1      22.121  30.147  31.733  1.00  0.00     0.293 HD
ENDBRANCH  15  22
TORSDOF 3
ENDMDL
