MODEL 1
REMARK VINA RESULT:    -2.938      0.000      0.000
REMARK INTER + INTRA:          -3.700
REMARK INTER:                  -3.454
REMARK INTRA:                  -0.246
REMARK UNBOUND:                -0.246
REMARK SMILES [NH3+][C@@H](CO)C(=O)[O-]
REMARK SMILES IDX 3 1 2 2 1 3 5 7 6 8 7 9 4 10
REMARK H PARENT 1 4 1 5 1 6 4 11
REMARK Flexibility Score: inf
ROOT
ATOM      1  C   UNL     1     -11.487  11.006 -32.533  1.00  0.00     0.227 C 
ENDROOT
BRANCH   1   2
ATOM      2  C   UNL     1     -10.459  11.335 -33.631  1.00  0.00     0.253 C 
BRANCH   2   3
ATOM      3  N   UNL     1     -11.089  12.098 -34.714  1.00  0.00    -0.348 N 
ATOM      4  H   UNL     1     -11.802  11.505 -35.198  1.00  0.00     0.345 HD
ATOM      5  H   UNL     1     -11.573  12.938 -34.321  1.00  0.00     0.345 HD
ATOM      6  H   UNL     1     -10.374  12.410 -35.412  1.00  0.00     0.345 HD
ENDBRANCH   2   3
BRANCH   2   7
ATOM      7  C   UNL     1      -9.841  10.073 -34.171  1.00  0.00     0.102 C 
ATOM      8  O   UNL     1      -9.505   9.148 -33.388  1.00  0.00    -0.544 OA
ATOM      9  O   UNL     1      -9.647   9.917 -35.539  1.00  0.00    -0.544 OA
ENDBRANCH   2   7
ENDBRANCH   1   2
BRANCH   1  10
ATOM     10  O   UNL     1     -12.243   9.876 -32.880  1.00  0.00    -0.390 OA
ATOM     11  H   UNL     1     -11.893   9.559 -33.754  1.00  0.00     0.210 HD
ENDBRANCH   1  10
TORSDOF 4
ENDMDL
MODEL 2
REMARK VINA RESULT:    -2.859      2.041      2.765
REMARK INTER + INTRA:          -3.607
REMARK INTER:                  -3.388
REMARK INTRA:                  -0.219
REMARK UNBOUND:                -0.246
REMARK SMILES [NH3+][C@@H](CO)C(=O)[O-]
REMARK SMILES IDX 3 1 2 2 1 3 5 7 6 8 7 9 4 10
REMARK H PARENT 1 4 1 5 1 6 4 11
REMARK Flexibility Score: inf
ROOT
ATOM      1  C   UNL     1      -9.665  12.083 -35.458  1.00  0.00     0.227 C 
ENDROOT
BRANCH   1   2
ATOM      2  C   UNL     1      -8.939  10.776 -35.088  1.00  0.00     0.253 C 
BRANCH   2   3
ATOM      3  N   UNL     1      -8.876   9.876 -36.244  1.00  0.00    -0.348 N 
ATOM      4  H   UNL     1      -8.871  10.434 -37.129  1.00  0.00     0.345 HD
ATOM      5  H   UNL     1      -7.995   9.313 -36.207  1.00  0.00     0.345 HD
ATOM      6  H   UNL     1      -9.698   9.227 -36.255  1.00  0.00     0.345 HD
ENDBRANCH   2   3
BRANCH   2   7
ATOM      7  C   UNL     1      -9.629  10.097 -33.934  1.00  0.00     0.102 C 
ATOM      8  O   UNL     1      -9.076   9.133 -33.345  1.00  0.00    -0.544 OA
ATOM      9  O   UNL     1     -10.876  10.539 -33.505  1.00  0.00    -0.544 OA
ENDBRANCH   2   7
ENDBRANCH   1   2
BRANCH   1  10
ATOM     10  O   UNL     1     -10.791  11.819 -36.252  1.00  0.00    -0.390 OA
ATOM     11  H   UNL     1     -10.534  12.029 -37.188  1.00  0.00     0.210 HD
ENDBRANCH   1  10
TORSDOF 4
ENDMDL
MODEL 3
REMARK VINA RESULT:    -2.739      1.935      3.103
REMARK INTER + INTRA:          -3.465
REMARK INTER:                  -3.213
REMARK INTRA:                  -0.253
REMARK UNBOUND:                -0.246
REMARK SMILES [NH3+][C@@H](CO)C(=O)[O-]
REMARK SMILES IDX 3 1 2 2 1 3 5 7 6 8 7 9 4 10
REMARK H PARENT 1 4 1 5 1 6 4 11
REMARK Flexibility Score: inf
ROOT
ATOM      1  C   UNL     1      -9.721  10.503 -35.392  1.00  0.00     0.227 C 
ENDROOT
BRANCH   1   2
ATOM      2  C   UNL     1      -9.572  10.600 -33.863  1.00  0.00     0.253 C 
BRANCH   2   3
ATOM      3  N   UNL     1      -9.037   9.349 -33.317  1.00  0.00    -0.348 N 
ATOM      4  H   UNL     1      -9.788   8.839 -32.796  1.00  0.00     0.345 HD
ATOM      5  H   UNL     1      -8.704   8.735 -34.096  1.00  0.00     0.345 HD
ATOM      6  H   UNL     1      -8.239   9.539 -32.666  1.00  0.00     0.345 HD
ENDBRANCH   2   3
BRANCH   2   7
ATOM      7  C   UNL     1     -10.896  10.926 -33.223  1.00  0.00     0.102 C 
ATOM      8  O   UNL     1     -11.229  12.125 -33.036  1.00  0.00    -0.544 OA
ATOM      9  O   UNL     1     -11.762   9.907 -32.845  1.00  0.00    -0.544 OA
ENDBRANCH   2   7
ENDBRANCH   1   2
BRANCH   1  10
ATOM     10  O   UNL     1     -10.586  11.498 -35.873  1.00  0.00    -0.390 OA
ATOM     11  H   UNL     1     -10.012  12.238 -36.203  1.00  0.00     0.210 HD
ENDBRANCH   1  10
TORSDOF 4
ENDMDL
MODEL 4
REMARK VINA RESULT:    -2.446      1.988      2.065
REMARK INTER + INTRA:          -3.121
REMARK INTER:                  -3.116
REMARK INTRA:                  -0.005
REMARK UNBOUND:                -0.246
REMARK SMILES [NH3+][C@@H](CO)C(=O)[O-]
REMARK SMILES IDX 3 1 2 2 1 3 5 7 6 8 7 9 4 10
REMARK H PARENT 1 4 1 5 1 6 4 11
REMARK Flexibility Score: inf
ROOT
ATOM      1  C   UNL     1     -11.423  10.501 -32.828  1.00  0.00     0.227 C 
ENDROOT
BRANCH   1   2
ATOM      2  C   UNL     1     -10.427  10.132 -33.943  1.00  0.00     0.253 C 
BRANCH   2   3
ATOM      3  N   UNL     1      -9.295   9.379 -33.393  1.00  0.00    -0.348 N 
ATOM      4  H   UNL     1      -9.137   8.512 -33.958  1.00  0.00     0.345 HD
ATOM      5  H   UNL     1      -8.427   9.961 -33.439  1.00  0.00     0.345 HD
ATOM      6  H   UNL     1      -9.476   9.110 -32.398  1.00  0.00     0.345 HD
ENDBRANCH   2   3
BRANCH   2   7
ATOM      7  C   UNL     1      -9.939  11.370 -34.647  1.00  0.00     0.102 C 
ATOM      8  O   UNL     1      -9.034  12.076 -34.132  1.00  0.00    -0.544 OA
ATOM      9  O   UNL     1     -10.478  11.736 -35.876  1.00  0.00    -0.544 OA
ENDBRANCH   2   7
ENDBRANCH   1   2
BRANCH   1  10
ATOM     10  O   UNL     1     -12.381   9.489 -32.661  1.00  0.00    -0.390 OA
ATOM     11  H   UNL     1     -13.060   9.621 -33.374  1.00  0.00     0.210 HD
ENDBRANCH   1  10
TORSDOF 4
ENDMDL
MODEL 5
REMARK VINA RESULT:    -2.200      1.592      2.851
REMARK INTER + INTRA:          -2.832
REMARK INTER:                  -2.814
REMARK INTRA:                  -0.018
REMARK UNBOUND:                -0.246
REMARK SMILES [NH3+][C@@H](CO)C(=O)[O-]
REMARK SMILES IDX 3 1 2 2 1 3 5 7 6 8 7 9 4 10
REMARK H PARENT 1 4 1 5 1 6 4 11
REMARK Flexibility Score: inf
ROOT
ATOM      1  C   UNL     1     -10.373  11.721 -35.661  1.00  0.00     0.227 C 
ENDROOT
BRANCH   1   2
ATOM      2  C   UNL     1     -10.257  11.824 -34.129  1.00  0.00     0.253 C 
BRANCH   2   3
ATOM      3  N   UNL     1      -8.875  12.114 -33.734  1.00  0.00    -0.348 N 
ATOM      4  H   UNL     1      -8.231  11.400 -34.147  1.00  0.00     0.345 HD
ATOM      5  H   UNL     1      -8.594  13.055 -34.093  1.00  0.00     0.345 HD
ATOM      6  H   UNL     1      -8.776  12.100 -32.692  1.00  0.00     0.345 HD
ENDBRANCH   2   3
BRANCH   2   7
ATOM      7  C   UNL     1     -10.731  10.551 -33.477  1.00  0.00     0.102 C 
ATOM      8  O   UNL     1     -11.800  10.541 -32.813  1.00  0.00    -0.544 OA
ATOM      9  O   UNL     1      -9.998   9.378 -33.614  1.00  0.00    -0.544 OA
ENDBRANCH   2   7
ENDBRANCH   1   2
BRANCH   1  10
ATOM     10  O   UNL     1      -9.157  12.060 -36.275  1.00  0.00    -0.390 OA
ATOM     11  H   UNL     1      -8.487  12.150 -35.548  1.00  0.00     0.210 HD
ENDBRANCH   1  10
TORSDOF 4
ENDMDL
MODEL 6
REMARK VINA RESULT:    -1.903      1.487      1.570
REMARK INTER + INTRA:          -2.483
REMARK INTER:                  -2.477
REMARK INTRA:                  -0.007
REMARK UNBOUND:                -0.246
REMARK SMILES [NH3+][C@@H](CO)C(=O)[O-]
REMARK SMILES IDX 3 1 2 2 1 3 5 7 6 8 7 9 4 10
REMARK H PARENT 1 4 1 5 1 6 4 11
REMARK Flexibility Score: inf
ROOT
ATOM      1  C   UNL     1     -11.950   9.144 -32.769  1.00  0.00     0.227 C 
ENDROOT
BRANCH   1   2
ATOM      2  C   UNL     1     -11.290  10.536 -32.758  1.00  0.00     0.253 C 
BRANCH   2   3
ATOM      3  N   UNL     1     -12.273  11.575 -33.079  1.00  0.00    -0.348 N 
ATOM      4  H   UNL     1     -12.039  12.014 -33.999  1.00  0.00     0.345 HD
ATOM      5  H   UNL     1     -13.227  11.151 -33.152  1.00  0.00     0.345 HD
ATOM      6  H   UNL     1     -12.284  12.317 -32.340  1.00  0.00     0.345 HD
ENDBRANCH   2   3
BRANCH   2   7
ATOM      7  C   UNL     1     -10.142  10.584 -33.732  1.00  0.00     0.102 C 
ATOM      8  O   UNL     1      -9.357   9.605 -33.834  1.00  0.00    -0.544 OA
ATOM      9  O   UNL     1      -9.948  11.704 -34.533  1.00  0.00    -0.544 OA
ENDBRANCH   2   7
ENDBRANCH   1   2
BRANCH   1  10
ATOM     10  O   UNL     1     -13.276   9.219 -32.317  1.00  0.00    -0.390 OA
ATOM     11  H   UNL     1     -13.383   8.506 -31.633  1.00  0.00     0.210 HD
ENDBRANCH   1  10
TORSDOF 4
ENDMDL
MODEL 7
REMARK VINA RESULT:    -1.231      2.156      2.520
REMARK INTER + INTRA:          -1.693
REMARK INTER:                  -1.686
REMARK INTRA:                  -0.008
REMARK UNBOUND:                -0.246
REMARK SMILES [NH3+][C@@H](CO)C(=O)[O-]
REMARK SMILES IDX 3 1 2 2 1 3 5 7 6 8 7 9 4 10
REMARK H PARENT 1 4 1 5 1 6 4 11
REMARK Flexibility Score: inf
ROOT
ATOM      1  C   UNL     1     -12.239   9.839 -32.539  1.00  0.00     0.227 C 
ENDROOT
BRANCH   1   2
ATOM      2  C   UNL     1     -11.005  10.022 -33.441  1.00  0.00     0.253 C 
BRANCH   2   3
ATOM      3  N   UNL     1     -10.233   8.777 -33.517  1.00  0.00    -0.348 N 
ATOM      4  H   UNL     1     -10.595   8.092 -32.813  1.00  0.00     0.345 HD
ATOM      5  H   UNL     1     -10.336   8.354 -34.468  1.00  0.00     0.345 HD
ATOM      6  H   UNL     1      -9.219   8.957 -33.329  1.00  0.00     0.345 HD
ENDBRANCH   2   3
BRANCH   2   7
ATOM      7  C   UNL     1     -10.139  11.143 -32.931  1.00  0.00     0.102 C 
ATOM      8  O   UNL     1      -8.925  11.204 -33.258  1.00  0.00    -0.544 OA
ATOM      9  O   UNL     1     -10.676  12.124 -32.105  1.00  0.00    -0.544 OA
ENDBRANCH   2   7
ENDBRANCH   1   2
BRANCH   1  10
ATOM     10  O   UNL     1     -12.636   8.494 -32.504  1.00  0.00    -0.390 OA
ATOM     11  H   UNL     1     -11.983   7.991 -33.058  1.00  0.00     0.210 HD
ENDBRANCH   1  10
TORSDOF 4
ENDMDL
MODEL 8
REMARK VINA RESULT:    -0.142      2.022      2.951
REMARK INTER + INTRA:          -0.413
REMARK INTER:                  -0.408
REMARK INTRA:                  -0.006
REMARK UNBOUND:                -0.246
REMARK SMILES [NH3+][C@@H](CO)C(=O)[O-]
REMARK SMILES IDX 3 1 2 2 1 3 5 7 6 8 7 9 4 10
REMARK H PARENT 1 4 1 5 1 6 4 11
REMARK Flexibility Score: inf
ROOT
ATOM      1  C   UNL     1     -11.319  11.711 -33.535  1.00  0.00     0.227 C 
ENDROOT
BRANCH   1   2
ATOM      2  C   UNL     1     -10.937  10.494 -32.673  1.00  0.00     0.253 C 
BRANCH   2   3
ATOM      3  N   UNL     1      -9.678   9.907 -33.141  1.00  0.00    -0.348 N 
ATOM      4  H   UNL     1      -9.853   9.321 -33.990  1.00  0.00     0.345 HD
ATOM      5  H   UNL     1      -9.007  10.667 -33.400  1.00  0.00     0.345 HD
ATOM      6  H   UNL     1      -9.248   9.309 -32.397  1.00  0.00     0.345 HD
ENDBRANCH   2   3
BRANCH   2   7
ATOM      7  C   UNL     1     -12.035   9.464 -32.697  1.00  0.00     0.102 C 
ATOM      8  O   UNL     1     -11.777   8.271 -33.002  1.00  0.00    -0.544 OA
ATOM      9  O   UNL     1     -13.339   9.821 -32.372  1.00  0.00    -0.544 OA
ENDBRANCH   2   7
ENDBRANCH   1   2
BRANCH   1  10
ATOM     10  O   UNL     1     -10.234  12.125 -34.322  1.00  0.00    -0.390 OA
ATOM     11  H   UNL     1     -10.428  13.057 -34.606  1.00  0.00     0.210 HD
ENDBRANCH   1  10
TORSDOF 4
ENDMDL
