MODEL 1
REMARK VINA RESULT:    -3.998      0.000      0.000
REMARK INTER + INTRA:          -4.349
REMARK INTER:                  -4.349
REMARK INTRA:                   0.000
REMARK UNBOUND:                 0.000
REMARK SMILES Oc1cccc(O)c1O
REMARK SMILES IDX 4 1 5 2 6 3 8 4 2 5 3 6 7 7 1 9 9 11
REMARK H PARENT 7 8 1 10 9 12
REMARK Flexibility Score: inf
ROOT
ATOM      1  C   UNL     1     160.849 163.755 164.429  1.00  0.00     0.008 A 
ATOM      2  C   UNL     1     159.612 164.125 164.962  1.00  0.00     0.050 A 
ATOM      3  C   UNL     1     159.045 163.384 166.007  1.00  0.00     0.161 A 
ATOM      4  C   UNL     1     159.725 162.264 166.521  1.00  0.00     0.200 A 
ATOM      5  C   UNL     1     160.971 161.897 165.981  1.00  0.00     0.161 A 
ATOM      6  C   UNL     1     161.526 162.645 164.938  1.00  0.00     0.050 A 
ENDROOT
BRANCH   3   7
ATOM      7  O   UNL     1     157.809 163.755 166.537  1.00  0.00    -0.504 OA
ATOM      8  H   UNL     1     157.533 163.490 167.475  1.00  0.00     0.293 HD
ENDBRANCH   3   7
BRANCH   5   9
ATOM      9  O   UNL     1     161.670 160.792 166.468  1.00  0.00    -0.504 OA
ATOM     10  H   UNL     1     161.199 159.961 166.804  1.00  0.00     0.293 HD
ENDBRANCH   5   9
BRANCH   4  11
ATOM     11  O   UNL     1     159.176 161.514 167.562  1.00  0.00    -0.502 OA
ATOM     12  H   UNL     1     158.273 161.061 167.484  1.00  0.00     0.293 HD
ENDBRANCH   4  11
TORSDOF 3
ENDMDL
MODEL 2
REMARK VINA RESULT:    -3.982      1.591      2.634
REMARK INTER + INTRA:          -4.331
REMARK INTER:                  -4.331
REMARK INTRA:                   0.000
REMARK UNBOUND:                 0.000
REMARK SMILES Oc1cccc(O)c1O
REMARK SMILES IDX 4 1 5 2 6 3 8 4 2 5 3 6 7 7 1 9 9 11
REMARK H PARENT 7 8 1 10 9 12
REMARK Flexibility Score: inf
ROOT
ATOM      1  C   UNL     1     158.737 164.041 165.287  1.00  0.00     0.008 A 
ATOM      2  C   UNL     1     158.883 163.364 166.501  1.00  0.00     0.050 A 
ATOM      3  C   UNL     1     160.105 162.762 166.829  1.00  0.00     0.161 A 
ATOM      4  C   UNL     1     161.187 162.840 165.933  1.00  0.00     0.200 A 
ATOM      5  C   UNL     1     161.034 163.524 164.713  1.00  0.00     0.161 A 
ATOM      6  C   UNL     1     159.809 164.121 164.397  1.00  0.00     0.050 A 
ENDROOT
BRANCH   3   7
ATOM      7  O   UNL     1     160.248 162.086 168.041  1.00  0.00    -0.504 OA
ATOM      8  H   UNL     1     160.509 161.108 168.074  1.00  0.00     0.293 HD
ENDBRANCH   3   7
BRANCH   5   9
ATOM      9  O   UNL     1     162.087 163.619 163.803  1.00  0.00    -0.504 OA
ATOM     10  H   UNL     1     161.942 163.884 162.836  1.00  0.00     0.293 HD
ENDBRANCH   5   9
BRANCH   4  11
ATOM     11  O   UNL     1     162.412 162.247 166.242  1.00  0.00    -0.502 OA
ATOM     12  H   UNL     1     163.240 162.392 165.677  1.00  0.00     0.293 HD
ENDBRANCH   4  11
TORSDOF 3
ENDMDL
MODEL 3
REMARK VINA RESULT:    -3.968      0.035      2.808
REMARK INTER + INTRA:          -4.316
REMARK INTER:                  -4.316
REMARK INTRA:                   0.000
REMARK UNBOUND:                 0.000
REMARK SMILES Oc1cccc(O)c1O
REMARK SMILES IDX 4 1 5 2 6 3 8 4 2 5 3 6 7 7 1 9 9 11
REMARK H PARENT 7 8 1 10 9 12
REMARK Flexibility Score: inf
ROOT
ATOM      1  C   UNL     1     160.879 163.766 164.460  1.00  0.00     0.008 A 
ATOM      2  C   UNL     1     161.550 162.646 164.956  1.00  0.00     0.050 A 
ATOM      3  C   UNL     1     160.979 161.878 165.980  1.00  0.00     0.161 A 
ATOM      4  C   UNL     1     159.726 162.238 166.509  1.00  0.00     0.200 A 
ATOM      5  C   UNL     1     159.054 163.366 166.004  1.00  0.00     0.161 A 
ATOM      6  C   UNL     1     159.635 164.124 164.982  1.00  0.00     0.050 A 
ENDROOT
BRANCH   3   7
ATOM      7  O   UNL     1     161.652 160.761 166.475  1.00  0.00    -0.504 OA
ATOM      8  H   UNL     1     161.986 160.724 167.431  1.00  0.00     0.293 HD
ENDBRANCH   3   7
BRANCH   5   9
ATOM      9  O   UNL     1     157.810 163.749 166.506  1.00  0.00    -0.504 OA
ATOM     10  H   UNL     1     157.674 163.996 167.478  1.00  0.00     0.293 HD
ENDBRANCH   5   9
BRANCH   4  11
ATOM     11  O   UNL     1     159.140 161.486 167.528  1.00  0.00    -0.502 OA
ATOM     12  H   UNL     1     159.531 160.605 167.843  1.00  0.00     0.293 HD
ENDBRANCH   4  11
TORSDOF 3
ENDMDL
MODEL 4
REMARK VINA RESULT:    -3.961      1.593      2.816
REMARK INTER + INTRA:          -4.309
REMARK INTER:                  -4.309
REMARK INTRA:                   0.000
REMARK UNBOUND:                 0.000
REMARK SMILES Oc1cccc(O)c1O
REMARK SMILES IDX 4 1 5 2 6 3 8 4 2 5 3 6 7 7 1 9 9 11
REMARK H PARENT 7 8 1 10 9 12
REMARK Flexibility Score: inf
ROOT
ATOM      1  C   UNL     1     158.754 164.055 165.277  1.00  0.00     0.008 A 
ATOM      2  C   UNL     1     159.821 164.125 164.377  1.00  0.00     0.050 A 
ATOM      3  C   UNL     1     161.048 163.525 164.690  1.00  0.00     0.161 A 
ATOM      4  C   UNL     1     161.205 162.850 165.915  1.00  0.00     0.200 A 
ATOM      5  C   UNL     1     160.127 162.782 166.817  1.00  0.00     0.161 A 
ATOM      6  C   UNL     1     158.908 163.385 166.492  1.00  0.00     0.050 A 
ENDROOT
BRANCH   3   7
ATOM      7  O   UNL     1     162.111 163.598 163.790  1.00  0.00    -0.504 OA
ATOM      8  H   UNL     1     162.986 164.044 164.039  1.00  0.00     0.293 HD
ENDBRANCH   3   7
BRANCH   5   9
ATOM      9  O   UNL     1     160.251 162.121 168.038  1.00  0.00    -0.504 OA
ATOM     10  H   UNL     1     161.042 161.527 168.253  1.00  0.00     0.293 HD
ENDBRANCH   5   9
BRANCH   4  11
ATOM     11  O   UNL     1     162.419 162.247 166.244  1.00  0.00    -0.502 OA
ATOM     12  H   UNL     1     162.470 161.418 166.825  1.00  0.00     0.293 HD
ENDBRANCH   4  11
TORSDOF 3
ENDMDL
MODEL 5
REMARK VINA RESULT:    -3.920     16.625     17.698
REMARK INTER + INTRA:          -4.264
REMARK INTER:                  -4.264
REMARK INTRA:                   0.000
REMARK UNBOUND:                 0.000
REMARK SMILES Oc1cccc(O)c1O
REMARK SMILES IDX 4 1 5 2 6 3 8 4 2 5 3 6 7 7 1 9 9 11
REMARK H PARENT 7 8 1 10 9 12
REMARK Flexibility Score: inf
ROOT
ATOM      1  C   UNL     1     159.545 147.909 171.008  1.00  0.00     0.008 A 
ATOM      2  C   UNL     1     160.577 147.545 171.875  1.00  0.00     0.050 A 
ATOM      3  C   UNL     1     160.980 146.206 171.970  1.00  0.00     0.161 A 
ATOM      4  C   UNL     1     160.341 145.226 171.187  1.00  0.00     0.200 A 
ATOM      5  C   UNL     1     159.302 145.599 170.314  1.00  0.00     0.161 A 
ATOM      6  C   UNL     1     158.911 146.939 170.230  1.00  0.00     0.050 A 
ENDROOT
BRANCH   3   7
ATOM      7  O   UNL     1     162.010 145.845 172.838  1.00  0.00    -0.504 OA
ATOM      8  H   UNL     1     162.373 146.491 173.528  1.00  0.00     0.293 HD
ENDBRANCH   3   7
BRANCH   5   9
ATOM      9  O   UNL     1     158.649 144.653 169.525  1.00  0.00    -0.504 OA
ATOM     10  H   UNL     1     159.072 144.260 168.693  1.00  0.00     0.293 HD
ENDBRANCH   5   9
BRANCH   4  11
ATOM     11  O   UNL     1     160.727 143.888 171.267  1.00  0.00    -0.502 OA
ATOM     12  H   UNL     1     161.524 143.588 171.817  1.00  0.00     0.293 HD
ENDBRANCH   4  11
TORSDOF 3
ENDMDL
MODEL 6
REMARK VINA RESULT:    -3.820     16.635     17.613
REMARK INTER + INTRA:          -4.155
REMARK INTER:                  -4.155
REMARK INTRA:                   0.000
REMARK UNBOUND:                 0.000
REMARK SMILES Oc1cccc(O)c1O
REMARK SMILES IDX 4 1 5 2 6 3 8 4 2 5 3 6 7 7 1 9 9 11
REMARK H PARENT 7 8 1 10 9 12
REMARK Flexibility Score: inf
ROOT
ATOM      1  C   UNL     1     159.547 147.880 171.000  1.00  0.00     0.008 A 
ATOM      2  C   UNL     1     158.882 146.920 170.234  1.00  0.00     0.050 A 
ATOM      3  C   UNL     1     159.293 145.581 170.271  1.00  0.00     0.161 A 
ATOM      4  C   UNL     1     160.379 145.204 171.083  1.00  0.00     0.200 A 
ATOM      5  C   UNL     1     161.044 146.175 171.854  1.00  0.00     0.161 A 
ATOM      6  C   UNL     1     160.623 147.508 171.808  1.00  0.00     0.050 A 
ENDROOT
BRANCH   3   7
ATOM      7  O   UNL     1     158.629 144.624 169.503  1.00  0.00    -0.504 OA
ATOM      8  H   UNL     1     159.068 144.190 168.700  1.00  0.00     0.293 HD
ENDBRANCH   3   7
BRANCH   5   9
ATOM      9  O   UNL     1     162.123 145.834 172.669  1.00  0.00    -0.504 OA
ATOM     10  H   UNL     1     162.905 146.459 172.817  1.00  0.00     0.293 HD
ENDBRANCH   5   9
BRANCH   4  11
ATOM     11  O   UNL     1     160.803 143.875 171.133  1.00  0.00    -0.502 OA
ATOM     12  H   UNL     1     161.199 143.404 170.328  1.00  0.00     0.293 HD
ENDBRANCH   4  11
TORSDOF 3
ENDMDL
MODEL 7
REMARK VINA RESULT:    -3.481     23.008     23.835
REMARK INTER + INTRA:          -3.787
REMARK INTER:                  -3.787
REMARK INTRA:                   0.000
REMARK UNBOUND:                 0.000
REMARK SMILES Oc1cccc(O)c1O
REMARK SMILES IDX 4 1 5 2 6 3 8 4 2 5 3 6 7 7 1 9 9 11
REMARK H PARENT 7 8 1 10 9 12
REMARK Flexibility Score: inf
ROOT
ATOM      1  C   UNL     1     147.096 144.342 176.008  1.00  0.00     0.008 A 
ATOM      2  C   UNL     1     148.409 144.658 176.366  1.00  0.00     0.050 A 
ATOM      3  C   UNL     1     148.685 145.843 177.060  1.00  0.00     0.161 A 
ATOM      4  C   UNL     1     147.635 146.718 177.397  1.00  0.00     0.200 A 
ATOM      5  C   UNL     1     146.314 146.394 177.034  1.00  0.00     0.161 A 
ATOM      6  C   UNL     1     146.053 145.208 176.342  1.00  0.00     0.050 A 
ENDROOT
BRANCH   3   7
ATOM      7  O   UNL     1     149.997 146.157 177.415  1.00  0.00    -0.504 OA
ATOM      8  H   UNL     1     150.764 146.040 176.765  1.00  0.00     0.293 HD
ENDBRANCH   3   7
BRANCH   5   9
ATOM      9  O   UNL     1     145.252 147.239 177.353  1.00  0.00    -0.504 OA
ATOM     10  H   UNL     1     144.293 146.916 177.375  1.00  0.00     0.293 HD
ENDBRANCH   5   9
BRANCH   4  11
ATOM     11  O   UNL     1     147.890 147.903 178.088  1.00  0.00    -0.502 OA
ATOM     12  H   UNL     1     148.831 148.226 178.279  1.00  0.00     0.293 HD
ENDBRANCH   4  11
TORSDOF 3
ENDMDL
MODEL 8
REMARK VINA RESULT:    -3.063     12.989     13.743
REMARK INTER + INTRA:          -3.332
REMARK INTER:                  -3.332
REMARK INTRA:                   0.000
REMARK UNBOUND:                 0.000
REMARK SMILES Oc1cccc(O)c1O
REMARK SMILES IDX 4 1 5 2 6 3 8 4 2 5 3 6 7 7 1 9 9 11
REMARK H PARENT 7 8 1 10 9 12
REMARK Flexibility Score: inf
ROOT
ATOM      1  C   UNL     1     149.336 160.840 160.344  1.00  0.00     0.008 A 
ATOM      2  C   UNL     1     148.603 162.028 160.383  1.00  0.00     0.050 A 
ATOM      3  C   UNL     1     147.284 162.028 160.857  1.00  0.00     0.161 A 
ATOM      4  C   UNL     1     146.698 160.825 161.295  1.00  0.00     0.200 A 
ATOM      5  C   UNL     1     147.442 159.631 161.253  1.00  0.00     0.161 A 
ATOM      6  C   UNL     1     148.757 159.646 160.778  1.00  0.00     0.050 A 
ENDROOT
BRANCH   3   7
ATOM      7  O   UNL     1     146.553 163.215 160.895  1.00  0.00    -0.504 OA
ATOM      8  H   UNL     1     145.612 163.270 160.525  1.00  0.00     0.293 HD
ENDBRANCH   3   7
BRANCH   5   9
ATOM      9  O   UNL     1     146.890 158.423 161.680  1.00  0.00    -0.504 OA
ATOM     10  H   UNL     1     147.464 157.646 161.984  1.00  0.00     0.293 HD
ENDBRANCH   5   9
BRANCH   4  11
ATOM     11  O   UNL     1     145.386 160.804 161.770  1.00  0.00    -0.502 OA
ATOM     12  H   UNL     1     144.586 160.839 161.149  1.00  0.00     0.293 HD
ENDBRANCH   4  11
TORSDOF 3
ENDMDL
MODEL 9
REMARK VINA RESULT:    -3.045     12.995     13.937
REMARK INTER + INTRA:          -3.312
REMARK INTER:                  -3.312
REMARK INTRA:                   0.000
REMARK UNBOUND:                 0.000
REMARK SMILES Oc1cccc(O)c1O
REMARK SMILES IDX 4 1 5 2 6 3 8 4 2 5 3 6 7 7 1 9 9 11
REMARK H PARENT 7 8 1 10 9 12
REMARK Flexibility Score: inf
ROOT
ATOM      1  C   UNL     1     149.335 160.861 160.337  1.00  0.00     0.008 A 
ATOM      2  C   UNL     1     148.762 159.659 160.759  1.00  0.00     0.050 A 
ATOM      3  C   UNL     1     147.442 159.635 161.230  1.00  0.00     0.161 A 
ATOM      4  C   UNL     1     146.694 160.825 161.277  1.00  0.00     0.200 A 
ATOM      5  C   UNL     1     147.277 162.033 160.849  1.00  0.00     0.161 A 
ATOM      6  C   UNL     1     148.594 162.043 160.381  1.00  0.00     0.050 A 
ENDROOT
BRANCH   3   7
ATOM      7  O   UNL     1     146.873 158.434 161.652  1.00  0.00    -0.504 OA
ATOM      8  H   UNL     1     146.571 157.728 160.991  1.00  0.00     0.293 HD
ENDBRANCH   3   7
BRANCH   5   9
ATOM      9  O   UNL     1     146.561 163.230 160.883  1.00  0.00    -0.504 OA
ATOM     10  H   UNL     1     146.973 164.112 160.606  1.00  0.00     0.293 HD
ENDBRANCH   5   9
BRANCH   4  11
ATOM     11  O   UNL     1     145.378 160.821 161.742  1.00  0.00    -0.502 OA
ATOM     12  H   UNL     1     144.596 161.079 161.152  1.00  0.00     0.293 HD
ENDBRANCH   4  11
TORSDOF 3
ENDMDL
