MODEL 1
REMARK VINA RESULT:    -1.864      0.000      0.000
REMARK INTER + INTRA:          -1.864
REMARK INTER:                  -1.864
REMARK INTRA:                   0.000
REMARK UNBOUND:                 0.000
REMARK SMILES CC(=O)[O-]
REMARK SMILES IDX 1 1 2 2 3 3 4 4
REMARK H PARENT
REMARK Flexibility Score: inf
ROOT
ATOM      1  C   UNL     1      -2.030 -16.574  43.750  1.00  0.00     0.063 C 
ATOM      2  C   UNL     1      -2.546 -15.210  43.441  1.00  0.00     0.038 C 
ATOM      3  O   UNL     1      -1.761 -14.316  43.029  1.00  0.00    -0.550 OA
ATOM      4  O   UNL     1      -3.884 -14.905  43.657  1.00  0.00    -0.550 OA
ENDROOT
TORSDOF 0
ENDMDL
MODEL 2
REMARK VINA RESULT:    -1.847      4.264      4.594
REMARK INTER + INTRA:          -1.847
REMARK INTER:                  -1.847
REMARK INTRA:                   0.000
REMARK UNBOUND:                 0.000
REMARK SMILES CC(=O)[O-]
REMARK SMILES IDX 1 1 2 2 3 3 4 4
REMARK H PARENT
REMARK Flexibility Score: inf
ROOT
ATOM      1  C   UNL     1      -2.815 -11.219  42.245  1.00  0.00     0.063 C 
ATOM      2  C   UNL     1      -1.367 -11.447  41.973  1.00  0.00     0.038 C 
ATOM      3  O   UNL     1      -0.862 -11.071  40.882  1.00  0.00    -0.550 OA
ATOM      4  O   UNL     1      -0.582 -12.124  42.898  1.00  0.00    -0.550 OA
ENDROOT
TORSDOF 0
ENDMDL
MODEL 3
REMARK VINA RESULT:    -1.846      4.182      4.527
REMARK INTER + INTRA:          -1.846
REMARK INTER:                  -1.846
REMARK INTRA:                   0.000
REMARK UNBOUND:                 0.000
REMARK SMILES CC(=O)[O-]
REMARK SMILES IDX 1 1 2 2 3 3 4 4
REMARK H PARENT
REMARK Flexibility Score: inf
ROOT
ATOM      1  C   UNL     1      -1.078 -10.948  40.706  1.00  0.00     0.063 C 
ATOM      2  C   UNL     1      -1.470 -11.410  42.068  1.00  0.00     0.038 C 
ATOM      3  O   UNL     1      -0.634 -12.003  42.799  1.00  0.00    -0.550 OA
ATOM      4  O   UNL     1      -2.774 -11.237  42.514  1.00  0.00    -0.550 OA
ENDROOT
TORSDOF 0
ENDMDL
MODEL 4
REMARK VINA RESULT:    -1.841      4.284      4.700
REMARK INTER + INTRA:          -1.841
REMARK INTER:                  -1.841
REMARK INTRA:                   0.000
REMARK UNBOUND:                 0.000
REMARK SMILES CC(=O)[O-]
REMARK SMILES IDX 1 1 2 2 3 3 4 4
REMARK H PARENT
REMARK Flexibility Score: inf
ROOT
ATOM      1  C   UNL     1      -2.787 -11.242  42.263  1.00  0.00     0.063 C 
ATOM      2  C   UNL     1      -1.342 -11.468  41.973  1.00  0.00     0.038 C 
ATOM      3  O   UNL     1      -0.602 -12.010  42.837  1.00  0.00    -0.550 OA
ATOM      4  O   UNL     1      -0.795 -11.034  40.773  1.00  0.00    -0.550 OA
ENDROOT
TORSDOF 0
ENDMDL
MODEL 5
REMARK VINA RESULT:    -1.790      4.839      5.132
REMARK INTER + INTRA:          -1.790
REMARK INTER:                  -1.790
REMARK INTRA:                   0.000
REMARK UNBOUND:                 0.000
REMARK SMILES CC(=O)[O-]
REMARK SMILES IDX 1 1 2 2 3 3 4 4
REMARK H PARENT
REMARK Flexibility Score: inf
ROOT
ATOM      1  C   UNL     1      -1.337 -11.905  42.297  1.00  0.00     0.063 C 
ATOM      2  C   UNL     1      -1.375 -10.801  41.294  1.00  0.00     0.038 C 
ATOM      3  O   UNL     1      -0.641 -10.851  40.272  1.00  0.00    -0.550 OA
ATOM      4  O   UNL     1      -2.179  -9.690  41.512  1.00  0.00    -0.550 OA
ENDROOT
TORSDOF 0
ENDMDL
MODEL 6
REMARK VINA RESULT:    -1.695      6.210      6.828
REMARK INTER + INTRA:          -1.695
REMARK INTER:                  -1.695
REMARK INTRA:                   0.000
REMARK UNBOUND:                 0.000
REMARK SMILES CC(=O)[O-]
REMARK SMILES IDX 1 1 2 2 3 3 4 4
REMARK H PARENT
REMARK Flexibility Score: inf
ROOT
ATOM      1  C   UNL     1      -1.420  -8.208  40.089  1.00  0.00     0.063 C 
ATOM      2  C   UNL     1      -1.759  -9.515  40.724  1.00  0.00     0.038 C 
ATOM      3  O   UNL     1      -2.728  -9.595  41.524  1.00  0.00    -0.550 OA
ATOM      4  O   UNL     1      -0.974 -10.633  40.477  1.00  0.00    -0.550 OA
ENDROOT
TORSDOF 0
ENDMDL
MODEL 7
REMARK VINA RESULT:    -1.646     13.094     13.559
REMARK INTER + INTRA:          -1.646
REMARK INTER:                  -1.646
REMARK INTRA:                   0.000
REMARK UNBOUND:                 0.000
REMARK SMILES CC(=O)[O-]
REMARK SMILES IDX 1 1 2 2 3 3 4 4
REMARK H PARENT
REMARK Flexibility Score: inf
ROOT
ATOM      1  C   UNL     1      -4.052  -3.733  34.417  1.00  0.00     0.063 C 
ATOM      2  C   UNL     1      -4.489  -4.630  35.525  1.00  0.00     0.038 C 
ATOM      3  O   UNL     1      -3.796  -5.635  35.835  1.00  0.00    -0.550 OA
ATOM      4  O   UNL     1      -5.689  -4.393  36.182  1.00  0.00    -0.550 OA
ENDROOT
TORSDOF 0
ENDMDL
MODEL 8
REMARK VINA RESULT:    -1.640      6.491      6.967
REMARK INTER + INTRA:          -1.640
REMARK INTER:                  -1.640
REMARK INTRA:                   0.000
REMARK UNBOUND:                 0.000
REMARK SMILES CC(=O)[O-]
REMARK SMILES IDX 1 1 2 2 3 3 4 4
REMARK H PARENT
REMARK Flexibility Score: inf
ROOT
ATOM      1  C   UNL     1      -1.410  -8.145  39.621  1.00  0.00     0.063 C 
ATOM      2  C   UNL     1      -1.442  -9.407  40.414  1.00  0.00     0.038 C 
ATOM      3  O   UNL     1      -0.791 -10.413  40.028  1.00  0.00    -0.550 OA
ATOM      4  O   UNL     1      -2.233  -9.494  41.553  1.00  0.00    -0.550 OA
ENDROOT
TORSDOF 0
ENDMDL
MODEL 9
REMARK VINA RESULT:    -1.619      6.890      7.432
REMARK INTER + INTRA:          -1.619
REMARK INTER:                  -1.619
REMARK INTRA:                   0.000
REMARK UNBOUND:                 0.000
REMARK SMILES CC(=O)[O-]
REMARK SMILES IDX 1 1 2 2 3 3 4 4
REMARK H PARENT
REMARK Flexibility Score: inf
ROOT
ATOM      1  C   UNL     1      -3.221  -8.501  39.648  1.00  0.00     0.063 C 
ATOM      2  C   UNL     1      -1.941  -8.701  40.386  1.00  0.00     0.038 C 
ATOM      3  O   UNL     1      -0.860  -8.270  39.905  1.00  0.00    -0.550 OA
ATOM      4  O   UNL     1      -1.929  -9.411  41.580  1.00  0.00    -0.550 OA
ENDROOT
TORSDOF 0
ENDMDL
