MODEL 1
REMARK VINA RESULT:    -5.894      0.000      0.000
REMARK INTER + INTRA:         -13.099
REMARK INTER:                 -11.062
REMARK INTRA:                  -2.038
REMARK UNBOUND:                -2.038
REMARK SMILES O=C([O-])CCCCCCCCCCCCCCC(=O)[O-]
REMARK SMILES IDX 10 1 9 2 8 3 7 4 6 5 5 6 4 7 2 8 1 9 3 10 11 11 12 12 13 13
REMARK SMILES IDX 14 14 15 15 16 16 17 17 18 18 19 19 20 20
REMARK H PARENT
REMARK Flexibility Score: inf
ROOT
ATOM      1  C   UNL     1      10.545 -15.452  37.068  1.00  0.00     0.000 C 
ENDROOT
BRANCH   1   2
ATOM      2  C   UNL     1      11.604 -14.698  36.250  1.00  0.00     0.000 C 
BRANCH   2   3
ATOM      3  C   UNL     1      11.943 -13.320  36.842  1.00  0.00     0.000 C 
BRANCH   3   4
ATOM      4  C   UNL     1      11.608 -12.166  35.882  1.00  0.00     0.000 C 
BRANCH   4   5
ATOM      5  C   UNL     1      12.847 -11.345  35.493  1.00  0.00     0.000 C 
BRANCH   5   6
ATOM      6  C   UNL     1      13.493 -10.636  36.697  1.00  0.00     0.006 C 
BRANCH   6   7
ATOM      7  C   UNL     1      12.490  -9.758  37.457  1.00  0.00     0.053 C 
BRANCH   7   8
ATOM      8  C   UNL     1      12.329 -10.202  38.879  1.00  0.00     0.041 C 
ATOM      9  O   UNL     1      11.203 -10.575  39.302  1.00  0.00    -0.550 OA
ATOM     10  O   UNL     1      13.414 -10.170  39.746  1.00  0.00    -0.550 OA
ENDBRANCH   7   8
ENDBRANCH   6   7
ENDBRANCH   5   6
ENDBRANCH   4   5
ENDBRANCH   3   4
ENDBRANCH   2   3
ENDBRANCH   1   2
BRANCH   1  11
ATOM     11  C   UNL     1      10.201 -14.690  38.353  1.00  0.00     0.000 C 
BRANCH  11  12
ATOM     12  C   UNL     1       8.805 -15.074  38.864  1.00  0.00     0.000 C 
BRANCH  12  13
ATOM     13  C   UNL     1       7.817 -13.894  38.851  1.00  0.00     0.000 C 
BRANCH  13  14
ATOM     14  C   UNL     1       8.454 -12.514  38.591  1.00  0.00     0.000 C 
BRANCH  14  15
ATOM     15  C   UNL     1       8.123 -11.887  37.223  1.00  0.00     0.000 C 
BRANCH  15  16
ATOM     16  C   UNL     1       7.243 -12.757  36.302  1.00  0.00     0.006 C 
BRANCH  16  17
ATOM     17  C   UNL     1       8.031 -13.652  35.332  1.00  0.00     0.053 C 
BRANCH  17  18
ATOM     18  C   UNL     1       8.028 -13.105  33.938  1.00  0.00     0.041 C 
ATOM     19  O   UNL     1       8.554 -11.987  33.695  1.00  0.00    -0.550 OA
ATOM     20  O   UNL     1       7.475 -13.845  32.900  1.00  0.00    -0.550 OA
ENDBRANCH  17  18
ENDBRANCH  16  17
ENDBRANCH  15  16
ENDBRANCH  14  15
ENDBRANCH  13  14
ENDBRANCH  12  13
ENDBRANCH  11  12
ENDBRANCH   1  11
TORSDOF 15
ENDMDL
MODEL 2
REMARK VINA RESULT:    -5.875      0.992      1.846
REMARK INTER + INTRA:         -13.064
REMARK INTER:                 -11.209
REMARK INTRA:                  -1.855
REMARK UNBOUND:                -2.038
REMARK SMILES O=C([O-])CCCCCCCCCCCCCCC(=O)[O-]
REMARK SMILES IDX 10 1 9 2 8 3 7 4 6 5 5 6 4 7 2 8 1 9 3 10 11 11 12 12 13 13
REMARK SMILES IDX 14 14 15 15 16 16 17 17 18 18 19 19 20 20
REMARK H PARENT
REMARK Flexibility Score: inf
ROOT
ATOM      1  C   UNL     1      13.144 -13.761  36.856  1.00  0.00     0.000 C 
ENDROOT
BRANCH   1   2
ATOM      2  C   UNL     1      12.849 -13.214  35.451  1.00  0.00     0.000 C 
BRANCH   2   3
ATOM      3  C   UNL     1      13.991 -12.344  34.900  1.00  0.00     0.000 C 
BRANCH   3   4
ATOM      4  C   UNL     1      13.790 -10.849  35.198  1.00  0.00     0.000 C 
BRANCH   4   5
ATOM      5  C   UNL     1      12.306 -10.469  35.335  1.00  0.00     0.000 C 
BRANCH   5   6
ATOM      6  C   UNL     1      11.951  -9.957  36.742  1.00  0.00     0.006 C 
BRANCH   6   7
ATOM      7  C   UNL     1      13.113 -10.127  37.730  1.00  0.00     0.053 C 
BRANCH   7   8
ATOM      8  C   UNL     1      12.625 -10.335  39.131  1.00  0.00     0.041 C 
ATOM      9  O   UNL     1      13.439 -10.336  40.092  1.00  0.00    -0.550 OA
ATOM     10  O   UNL     1      11.276 -10.565  39.373  1.00  0.00    -0.550 OA
ENDBRANCH   7   8
ENDBRANCH   6   7
ENDBRANCH   5   6
ENDBRANCH   4   5
ENDBRANCH   3   4
ENDBRANCH   2   3
ENDBRANCH   1   2
BRANCH   1  11
ATOM     11  C   UNL     1      11.950 -14.556  37.396  1.00  0.00     0.000 C 
BRANCH  11  12
ATOM     12  C   UNL     1      10.721 -13.652  37.572  1.00  0.00     0.000 C 
BRANCH  12  13
ATOM     13  C   UNL     1       9.526 -14.384  38.210  1.00  0.00     0.000 C 
BRANCH  13  14
ATOM     14  C   UNL     1       8.237 -13.547  38.326  1.00  0.00     0.000 C 
BRANCH  14  15
ATOM     15  C   UNL     1       8.411 -12.037  38.072  1.00  0.00     0.000 C 
BRANCH  15  16
ATOM     16  C   UNL     1       7.863 -11.534  36.720  1.00  0.00     0.006 C 
BRANCH  16  17
ATOM     17  C   UNL     1       7.327 -12.643  35.802  1.00  0.00     0.053 C 
BRANCH  17  18
ATOM     18  C   UNL     1       8.156 -12.795  34.564  1.00  0.00     0.041 C 
ATOM     19  O   UNL     1       9.304 -12.282  34.503  1.00  0.00    -0.550 OA
ATOM     20  O   UNL     1       7.674 -13.533  33.489  1.00  0.00    -0.550 OA
ENDBRANCH  17  18
ENDBRANCH  16  17
ENDBRANCH  15  16
ENDBRANCH  14  15
ENDBRANCH  13  14
ENDBRANCH  12  13
ENDBRANCH  11  12
ENDBRANCH   1  11
TORSDOF 15
ENDMDL
MODEL 3
REMARK VINA RESULT:    -5.832      0.998      6.051
REMARK INTER + INTRA:         -12.983
REMARK INTER:                 -11.419
REMARK INTRA:                  -1.565
REMARK UNBOUND:                -2.038
REMARK SMILES O=C([O-])CCCCCCCCCCCCCCC(=O)[O-]
REMARK SMILES IDX 10 1 9 2 8 3 7 4 6 5 5 6 4 7 2 8 1 9 3 10 11 11 12 12 13 13
REMARK SMILES IDX 14 14 15 15 16 16 17 17 18 18 19 19 20 20
REMARK H PARENT
REMARK Flexibility Score: inf
ROOT
ATOM      1  C   UNL     1      11.436 -15.097  36.950  1.00  0.00     0.000 C 
ENDROOT
BRANCH   1   2
ATOM      2  C   UNL     1      10.275 -14.638  37.845  1.00  0.00     0.000 C 
BRANCH   2   3
ATOM      3  C   UNL     1      10.186 -13.108  37.965  1.00  0.00     0.000 C 
BRANCH   3   4
ATOM      4  C   UNL     1       8.735 -12.609  38.077  1.00  0.00     0.000 C 
BRANCH   4   5
ATOM      5  C   UNL     1       7.707 -13.727  37.841  1.00  0.00     0.000 C 
BRANCH   5   6
ATOM      6  C   UNL     1       6.888 -13.520  36.554  1.00  0.00     0.006 C 
BRANCH   6   7
ATOM      7  C   UNL     1       7.342 -12.280  35.773  1.00  0.00     0.053 C 
BRANCH   7   8
ATOM      8  C   UNL     1       8.120 -12.650  34.547  1.00  0.00     0.041 C 
ATOM      9  O   UNL     1       7.617 -13.420  33.686  1.00  0.00    -0.550 OA
ATOM     10  O   UNL     1       9.413 -12.174  34.372  1.00  0.00    -0.550 OA
ENDBRANCH   7   8
ENDBRANCH   6   7
ENDBRANCH   5   6
ENDBRANCH   4   5
ENDBRANCH   3   4
ENDBRANCH   2   3
ENDBRANCH   1   2
BRANCH   1  11
ATOM     11  C   UNL     1      12.518 -14.013  36.859  1.00  0.00     0.000 C 
BRANCH  11  12
ATOM     12  C   UNL     1      12.520 -13.354  35.471  1.00  0.00     0.000 C 
BRANCH  12  13
ATOM     13  C   UNL     1      13.890 -12.763  35.092  1.00  0.00     0.000 C 
BRANCH  13  14
ATOM     14  C   UNL     1      13.956 -11.223  35.091  1.00  0.00     0.000 C 
BRANCH  14  15
ATOM     15  C   UNL     1      12.605 -10.509  35.291  1.00  0.00     0.000 C 
BRANCH  15  16
ATOM     16  C   UNL     1      12.401  -9.873  36.681  1.00  0.00     0.006 C 
BRANCH  16  17
ATOM     17  C   UNL     1      13.260 -10.493  37.794  1.00  0.00     0.053 C 
BRANCH  17  18
ATOM     18  C   UNL     1      12.663 -10.275  39.150  1.00  0.00     0.041 C 
ATOM     19  O   UNL     1      11.414 -10.207  39.289  1.00  0.00    -0.550 OA
ATOM     20  O   UNL     1      13.485 -10.180  40.267  1.00  0.00    -0.550 OA
ENDBRANCH  17  18
ENDBRANCH  16  17
ENDBRANCH  15  16
ENDBRANCH  14  15
ENDBRANCH  13  14
ENDBRANCH  12  13
ENDBRANCH  11  12
ENDBRANCH   1  11
TORSDOF 15
ENDMDL
MODEL 4
REMARK VINA RESULT:    -5.625      1.513      5.426
REMARK INTER + INTRA:         -12.596
REMARK INTER:                 -10.456
REMARK INTRA:                  -2.140
REMARK UNBOUND:                -2.038
REMARK SMILES O=C([O-])CCCCCCCCCCCCCCC(=O)[O-]
REMARK SMILES IDX 10 1 9 2 8 3 7 4 6 5 5 6 4 7 2 8 1 9 3 10 11 11 12 12 13 13
REMARK SMILES IDX 14 14 15 15 16 16 17 17 18 18 19 19 20 20
REMARK H PARENT
REMARK Flexibility Score: inf
ROOT
ATOM      1  C   UNL     1       8.628 -14.666  38.483  1.00  0.00     0.000 C 
ENDROOT
BRANCH   1   2
ATOM      2  C   UNL     1       8.288 -13.226  38.897  1.00  0.00     0.000 C 
BRANCH   2   3
ATOM      3  C   UNL     1       9.353 -12.212  38.451  1.00  0.00     0.000 C 
BRANCH   3   4
ATOM      4  C   UNL     1       9.099 -11.675  37.032  1.00  0.00     0.000 C 
BRANCH   4   5
ATOM      5  C   UNL     1       7.644 -11.223  36.825  1.00  0.00     0.000 C 
BRANCH   5   6
ATOM      6  C   UNL     1       6.881 -12.116  35.830  1.00  0.00     0.006 C 
BRANCH   6   7
ATOM      7  C   UNL     1       7.756 -13.251  35.282  1.00  0.00     0.053 C 
BRANCH   7   8
ATOM      8  C   UNL     1       8.099 -13.041  33.839  1.00  0.00     0.041 C 
ATOM      9  O   UNL     1       7.622 -13.803  32.957  1.00  0.00    -0.550 OA
ATOM     10  O   UNL     1       8.973 -12.026  33.471  1.00  0.00    -0.550 OA
ENDBRANCH   7   8
ENDBRANCH   6   7
ENDBRANCH   5   6
ENDBRANCH   4   5
ENDBRANCH   3   4
ENDBRANCH   2   3
ENDBRANCH   1   2
BRANCH   1  11
ATOM     11  C   UNL     1      10.146 -14.879  38.441  1.00  0.00     0.000 C 
BRANCH  11  12
ATOM     12  C   UNL     1      10.593 -15.385  37.062  1.00  0.00     0.000 C 
BRANCH  12  13
ATOM     13  C   UNL     1      11.520 -14.396  36.332  1.00  0.00     0.000 C 
BRANCH  13  14
ATOM     14  C   UNL     1      12.842 -14.085  37.061  1.00  0.00     0.000 C 
BRANCH  14  15
ATOM     15  C   UNL     1      12.955 -12.657  37.631  1.00  0.00     0.000 C 
BRANCH  15  16
ATOM     16  C   UNL     1      12.962 -11.532  36.576  1.00  0.00     0.006 C 
BRANCH  16  17
ATOM     17  C   UNL     1      12.741 -10.123  37.150  1.00  0.00     0.053 C 
BRANCH  17  18
ATOM     18  C   UNL     1      11.901  -9.276  36.246  1.00  0.00     0.041 C 
ATOM     19  O   UNL     1      11.693  -8.066  36.525  1.00  0.00    -0.550 OA
ATOM     20  O   UNL     1      11.376  -9.813  35.076  1.00  0.00    -0.550 OA
ENDBRANCH  17  18
ENDBRANCH  16  17
ENDBRANCH  15  16
ENDBRANCH  14  15
ENDBRANCH  13  14
ENDBRANCH  12  13
ENDBRANCH  11  12
ENDBRANCH   1  11
TORSDOF 15
ENDMDL
MODEL 5
REMARK VINA RESULT:    -5.594      1.282      2.506
REMARK INTER + INTRA:         -12.537
REMARK INTER:                 -10.385
REMARK INTRA:                  -2.152
REMARK UNBOUND:                -2.038
REMARK SMILES O=C([O-])CCCCCCCCCCCCCCC(=O)[O-]
REMARK SMILES IDX 10 1 9 2 8 3 7 4 6 5 5 6 4 7 2 8 1 9 3 10 11 11 12 12 13 13
REMARK SMILES IDX 14 14 15 15 16 16 17 17 18 18 19 19 20 20
REMARK H PARENT
REMARK Flexibility Score: inf
ROOT
ATOM      1  C   UNL     1      13.586 -13.605  36.679  1.00  0.00     0.000 C 
ENDROOT
BRANCH   1   2
ATOM      2  C   UNL     1      13.280 -13.206  35.228  1.00  0.00     0.000 C 
BRANCH   2   3
ATOM      3  C   UNL     1      13.830 -11.816  34.866  1.00  0.00     0.000 C 
BRANCH   3   4
ATOM      4  C   UNL     1      12.722 -10.755  34.753  1.00  0.00     0.000 C 
BRANCH   4   5
ATOM      5  C   UNL     1      11.318 -11.343  34.972  1.00  0.00     0.000 C 
BRANCH   5   6
ATOM      6  C   UNL     1      10.672 -10.865  36.284  1.00  0.00     0.006 C 
BRANCH   6   7
ATOM      7  C   UNL     1      11.620  -9.985  37.109  1.00  0.00     0.053 C 
BRANCH   7   8
ATOM      8  C   UNL     1      11.898 -10.578  38.457  1.00  0.00     0.041 C 
ATOM      9  O   UNL     1      10.946 -10.896  39.217  1.00  0.00    -0.550 OA
ATOM     10  O   UNL     1      13.208 -10.747  38.887  1.00  0.00    -0.550 OA
ENDBRANCH   7   8
ENDBRANCH   6   7
ENDBRANCH   5   6
ENDBRANCH   4   5
ENDBRANCH   3   4
ENDBRANCH   2   3
ENDBRANCH   1   2
BRANCH   1  11
ATOM     11  C   UNL     1      12.330 -14.142  37.375  1.00  0.00     0.000 C 
BRANCH  11  12
ATOM     12  C   UNL     1      11.432 -14.897  36.384  1.00  0.00     0.000 C 
BRANCH  12  13
ATOM     13  C   UNL     1      10.115 -15.381  37.018  1.00  0.00     0.000 C 
BRANCH  13  14
ATOM     14  C   UNL     1       9.867 -14.890  38.458  1.00  0.00     0.000 C 
BRANCH  14  15
ATOM     15  C   UNL     1       8.445 -14.364  38.734  1.00  0.00     0.000 C 
BRANCH  15  16
ATOM     16  C   UNL     1       8.061 -13.085  37.961  1.00  0.00     0.006 C 
BRANCH  16  17
ATOM     17  C   UNL     1       7.218 -13.334  36.701  1.00  0.00     0.053 C 
BRANCH  17  18
ATOM     18  C   UNL     1       7.218 -12.151  35.783  1.00  0.00     0.041 C 
ATOM     19  O   UNL     1       7.609 -12.273  34.593  1.00  0.00    -0.550 OA
ATOM     20  O   UNL     1       6.754 -10.920  36.233  1.00  0.00    -0.550 OA
ENDBRANCH  17  18
ENDBRANCH  16  17
ENDBRANCH  15  16
ENDBRANCH  14  15
ENDBRANCH  13  14
ENDBRANCH  12  13
ENDBRANCH  11  12
ENDBRANCH   1  11
TORSDOF 15
ENDMDL
MODEL 6
REMARK VINA RESULT:    -5.516      1.905      2.791
REMARK INTER + INTRA:         -12.390
REMARK INTER:                 -10.527
REMARK INTRA:                  -1.864
REMARK UNBOUND:                -2.038
REMARK SMILES O=C([O-])CCCCCCCCCCCCCCC(=O)[O-]
REMARK SMILES IDX 10 1 9 2 8 3 7 4 6 5 5 6 4 7 2 8 1 9 3 10 11 11 12 12 13 13
REMARK SMILES IDX 14 14 15 15 16 16 17 17 18 18 19 19 20 20
REMARK H PARENT
REMARK Flexibility Score: inf
ROOT
ATOM      1  C   UNL     1      11.830 -13.532  37.363  1.00  0.00     0.000 C 
ENDROOT
BRANCH   1   2
ATOM      2  C   UNL     1      11.029 -12.599  36.442  1.00  0.00     0.000 C 
BRANCH   2   3
ATOM      3  C   UNL     1      10.614 -11.291  37.136  1.00  0.00     0.000 C 
BRANCH   3   4
ATOM      4  C   UNL     1      11.358 -11.066  38.464  1.00  0.00     0.000 C 
BRANCH   4   5
ATOM      5  C   UNL     1      12.572 -10.136  38.309  1.00  0.00     0.000 C 
BRANCH   5   6
ATOM      6  C   UNL     1      12.744  -9.618  36.870  1.00  0.00     0.006 C 
BRANCH   6   7
ATOM      7  C   UNL     1      13.997 -10.192  36.195  1.00  0.00     0.053 C 
BRANCH   7   8
ATOM      8  C   UNL     1      13.654 -10.981  34.968  1.00  0.00     0.041 C 
ATOM      9  O   UNL     1      14.371 -11.957  34.622  1.00  0.00    -0.550 OA
ATOM     10  O   UNL     1      12.565 -10.617  34.187  1.00  0.00    -0.550 OA
ENDBRANCH   7   8
ENDBRANCH   6   7
ENDBRANCH   5   6
ENDBRANCH   4   5
ENDBRANCH   3   4
ENDBRANCH   2   3
ENDBRANCH   1   2
BRANCH   1  11
ATOM     11  C   UNL     1      11.574 -15.002  37.010  1.00  0.00     0.000 C 
BRANCH  11  12
ATOM     12  C   UNL     1      10.099 -15.370  37.225  1.00  0.00     0.000 C 
BRANCH  12  13
ATOM     13  C   UNL     1       9.593 -15.018  38.636  1.00  0.00     0.000 C 
BRANCH  13  14
ATOM     14  C   UNL     1       8.118 -14.577  38.708  1.00  0.00     0.000 C 
BRANCH  14  15
ATOM     15  C   UNL     1       7.780 -13.293  37.925  1.00  0.00     0.000 C 
BRANCH  15  16
ATOM     16  C   UNL     1       7.230 -13.522  36.502  1.00  0.00     0.006 C 
BRANCH  16  17
ATOM     17  C   UNL     1       7.409 -12.327  35.553  1.00  0.00     0.053 C 
BRANCH  17  18
ATOM     18  C   UNL     1       7.988 -12.740  34.235  1.00  0.00     0.041 C 
ATOM     19  O   UNL     1       7.537 -13.749  33.633  1.00  0.00    -0.550 OA
ATOM     20  O   UNL     1       9.004 -11.990  33.655  1.00  0.00    -0.550 OA
ENDBRANCH  17  18
ENDBRANCH  16  17
ENDBRANCH  15  16
ENDBRANCH  14  15
ENDBRANCH  13  14
ENDBRANCH  12  13
ENDBRANCH  11  12
ENDBRANCH   1  11
TORSDOF 15
ENDMDL
MODEL 7
REMARK VINA RESULT:    -5.504      2.025      3.420
REMARK INTER + INTRA:         -12.368
REMARK INTER:                 -10.625
REMARK INTRA:                  -1.742
REMARK UNBOUND:                -2.038
REMARK SMILES O=C([O-])CCCCCCCCCCCCCCC(=O)[O-]
REMARK SMILES IDX 10 1 9 2 8 3 7 4 6 5 5 6 4 7 2 8 1 9 3 10 11 11 12 12 13 13
REMARK SMILES IDX 14 14 15 15 16 16 17 17 18 18 19 19 20 20
REMARK H PARENT
REMARK Flexibility Score: inf
ROOT
ATOM      1  C   UNL     1       8.596 -12.503  34.073  1.00  0.00     0.000 C 
ENDROOT
BRANCH   1   2
ATOM      2  C   UNL     1       9.403 -11.636  35.051  1.00  0.00     0.000 C 
BRANCH   2   3
ATOM      3  C   UNL     1      10.900 -11.584  34.703  1.00  0.00     0.000 C 
BRANCH   3   4
ATOM      4  C   UNL     1      11.583 -10.308  35.225  1.00  0.00     0.000 C 
BRANCH   4   5
ATOM      5  C   UNL     1      13.090 -10.502  35.460  1.00  0.00     0.000 C 
BRANCH   5   6
ATOM      6  C   UNL     1      13.479 -10.387  36.945  1.00  0.00     0.006 C 
BRANCH   6   7
ATOM      7  C   UNL     1      12.428  -9.623  37.761  1.00  0.00     0.053 C 
BRANCH   7   8
ATOM      8  C   UNL     1      12.245 -10.216  39.125  1.00  0.00     0.041 C 
ATOM      9  O   UNL     1      11.097 -10.544  39.524  1.00  0.00    -0.550 OA
ATOM     10  O   UNL     1      13.337 -10.372  39.969  1.00  0.00    -0.550 OA
ENDBRANCH   7   8
ENDBRANCH   6   7
ENDBRANCH   5   6
ENDBRANCH   4   5
ENDBRANCH   3   4
ENDBRANCH   2   3
ENDBRANCH   1   2
BRANCH   1  11
ATOM     11  C   UNL     1       7.632 -13.426  34.827  1.00  0.00     0.000 C 
BRANCH  11  12
ATOM     12  C   UNL     1       7.225 -12.813  36.176  1.00  0.00     0.000 C 
BRANCH  12  13
ATOM     13  C   UNL     1       7.346 -13.807  37.345  1.00  0.00     0.000 C 
BRANCH  13  14
ATOM     14  C   UNL     1       8.281 -13.360  38.486  1.00  0.00     0.000 C 
BRANCH  14  15
ATOM     15  C   UNL     1       9.773 -13.267  38.110  1.00  0.00     0.000 C 
BRANCH  15  16
ATOM     16  C   UNL     1      10.475 -14.621  37.883  1.00  0.00     0.006 C 
BRANCH  16  17
ATOM     17  C   UNL     1      11.200 -14.742  36.533  1.00  0.00     0.053 C 
BRANCH  17  18
ATOM     18  C   UNL     1      12.580 -14.165  36.585  1.00  0.00     0.041 C 
ATOM     19  O   UNL     1      13.192 -14.083  37.682  1.00  0.00    -0.550 OA
ATOM     20  O   UNL     1      13.206 -13.748  35.415  1.00  0.00    -0.550 OA
ENDBRANCH  17  18
ENDBRANCH  16  17
ENDBRANCH  15  16
ENDBRANCH  14  15
ENDBRANCH  13  14
ENDBRANCH  12  13
ENDBRANCH  11  12
ENDBRANCH   1  11
TORSDOF 15
ENDMDL
MODEL 8
REMARK VINA RESULT:    -5.413      2.065      5.809
REMARK INTER + INTRA:         -12.197
REMARK INTER:                 -10.222
REMARK INTRA:                  -1.975
REMARK UNBOUND:                -2.038
REMARK SMILES O=C([O-])CCCCCCCCCCCCCCC(=O)[O-]
REMARK SMILES IDX 10 1 9 2 8 3 7 4 6 5 5 6 4 7 2 8 1 9 3 10 11 11 12 12 13 13
REMARK SMILES IDX 14 14 15 15 16 16 17 17 18 18 19 19 20 20
REMARK H PARENT
REMARK Flexibility Score: inf
ROOT
ATOM      1  C   UNL     1      12.828 -10.417  38.498  1.00  0.00     0.000 C 
ENDROOT
BRANCH   1   2
ATOM      2  C   UNL     1      11.421 -10.756  39.012  1.00  0.00     0.000 C 
BRANCH   2   3
ATOM      3  C   UNL     1      10.500 -11.301  37.907  1.00  0.00     0.000 C 
BRANCH   3   4
ATOM      4  C   UNL     1       9.243 -11.984  38.471  1.00  0.00     0.000 C 
BRANCH   4   5
ATOM      5  C   UNL     1       7.988 -11.692  37.632  1.00  0.00     0.000 C 
BRANCH   5   6
ATOM      6  C   UNL     1       8.289 -11.593  36.126  1.00  0.00     0.006 C 
BRANCH   6   7
ATOM      7  C   UNL     1       7.524 -12.646  35.313  1.00  0.00     0.053 C 
BRANCH   7   8
ATOM      8  C   UNL     1       8.073 -12.783  33.926  1.00  0.00     0.041 C 
ATOM      9  O   UNL     1       8.988 -12.015  33.528  1.00  0.00    -0.550 OA
ATOM     10  O   UNL     1       7.548 -13.734  33.060  1.00  0.00    -0.550 OA
ENDBRANCH   7   8
ENDBRANCH   6   7
ENDBRANCH   5   6
ENDBRANCH   4   5
ENDBRANCH   3   4
ENDBRANCH   2   3
ENDBRANCH   1   2
BRANCH   1  11
ATOM     11  C   UNL     1      12.758  -9.666  37.163  1.00  0.00     0.000 C 
BRANCH  11  12
ATOM     12  C   UNL     1      13.606 -10.368  36.092  1.00  0.00     0.000 C 
BRANCH  12  13
ATOM     13  C   UNL     1      12.762 -10.929  34.934  1.00  0.00     0.000 C 
BRANCH  13  14
ATOM     14  C   UNL     1      12.299 -12.389  35.112  1.00  0.00     0.000 C 
BRANCH  14  15
ATOM     15  C   UNL     1      13.308 -13.313  35.822  1.00  0.00     0.000 C 
BRANCH  15  16
ATOM     16  C   UNL     1      12.866 -13.816  37.212  1.00  0.00     0.006 C 
BRANCH  16  17
ATOM     17  C   UNL     1      12.204 -15.203  37.203  1.00  0.00     0.053 C 
BRANCH  17  18
ATOM     18  C   UNL     1      10.711 -15.112  37.255  1.00  0.00     0.041 C 
ATOM     19  O   UNL     1      10.107 -15.223  38.354  1.00  0.00    -0.550 OA
ATOM     20  O   UNL     1       9.987 -14.869  36.093  1.00  0.00    -0.550 OA
ENDBRANCH  17  18
ENDBRANCH  16  17
ENDBRANCH  15  16
ENDBRANCH  14  15
ENDBRANCH  13  14
ENDBRANCH  12  13
ENDBRANCH  11  12
ENDBRANCH   1  11
TORSDOF 15
ENDMDL
MODEL 9
REMARK VINA RESULT:    -5.287      2.060      3.794
REMARK INTER + INTRA:         -11.960
REMARK INTER:                 -10.290
REMARK INTRA:                  -1.670
REMARK UNBOUND:                -2.038
REMARK SMILES O=C([O-])CCCCCCCCCCCCCCC(=O)[O-]
REMARK SMILES IDX 10 1 9 2 8 3 7 4 6 5 5 6 4 7 2 8 1 9 3 10 11 11 12 12 13 13
REMARK SMILES IDX 14 14 15 15 16 16 17 17 18 18 19 19 20 20
REMARK H PARENT
REMARK Flexibility Score: inf
ROOT
ATOM      1  C   UNL     1      12.485  -9.560  37.314  1.00  0.00     0.000 C 
ENDROOT
BRANCH   1   2
ATOM      2  C   UNL     1      13.637 -10.063  36.431  1.00  0.00     0.000 C 
BRANCH   2   3
ATOM      3  C   UNL     1      13.145 -10.716  35.128  1.00  0.00     0.000 C 
BRANCH   3   4
ATOM      4  C   UNL     1      14.100 -11.809  34.618  1.00  0.00     0.000 C 
BRANCH   4   5
ATOM      5  C   UNL     1      13.765 -13.197  35.189  1.00  0.00     0.000 C 
BRANCH   5   6
ATOM      6  C   UNL     1      12.368 -13.254  35.831  1.00  0.00     0.006 C 
BRANCH   6   7
ATOM      7  C   UNL     1      12.310 -14.244  37.002  1.00  0.00     0.053 C 
BRANCH   7   8
ATOM      8  C   UNL     1      10.951 -14.859  37.143  1.00  0.00     0.041 C 
ATOM      9  O   UNL     1      10.518 -15.185  38.279  1.00  0.00    -0.550 OA
ATOM     10  O   UNL     1      10.177 -15.105  36.016  1.00  0.00    -0.550 OA
ENDBRANCH   7   8
ENDBRANCH   6   7
ENDBRANCH   5   6
ENDBRANCH   4   5
ENDBRANCH   3   4
ENDBRANCH   2   3
ENDBRANCH   1   2
BRANCH   1  11
ATOM     11  C   UNL     1      12.648 -10.050  38.758  1.00  0.00     0.000 C 
BRANCH  11  12
ATOM     12  C   UNL     1      11.432 -10.880  39.197  1.00  0.00     0.000 C 
BRANCH  12  13
ATOM     13  C   UNL     1      10.498 -11.238  38.027  1.00  0.00     0.000 C 
BRANCH  13  14
ATOM     14  C   UNL     1       9.244 -12.045  38.418  1.00  0.00     0.000 C 
BRANCH  14  15
ATOM     15  C   UNL     1       7.971 -11.704  37.620  1.00  0.00     0.000 C 
BRANCH  15  16
ATOM     16  C   UNL     1       7.550 -12.762  36.579  1.00  0.00     0.006 C 
BRANCH  16  17
ATOM     17  C   UNL     1       7.229 -12.191  35.189  1.00  0.00     0.053 C 
BRANCH  17  18
ATOM     18  C   UNL     1       8.223 -12.631  34.160  1.00  0.00     0.041 C 
ATOM     19  O   UNL     1       9.394 -12.169  34.171  1.00  0.00    -0.550 OA
ATOM     20  O   UNL     1       7.867 -13.579  33.207  1.00  0.00    -0.550 OA
ENDBRANCH  17  18
ENDBRANCH  16  17
ENDBRANCH  15  16
ENDBRANCH  14  15
ENDBRANCH  13  14
ENDBRANCH  12  13
ENDBRANCH  11  12
ENDBRANCH   1  11
TORSDOF 15
ENDMDL
