MODEL 1
REMARK VINA RESULT:    -4.118      0.000      0.000
REMARK INTER + INTRA:          -9.236
REMARK INTER:                  -7.488
REMARK INTRA:                  -1.747
REMARK UNBOUND:                -1.747
REMARK SMILES CCCCCCCCCCCCCCCC(=O)[O-]
REMARK SMILES IDX 9 1 10 2 11 3 12 4 13 5 14 6 15 7 16 8 17 9 18 10 8 11 7 12
REMARK SMILES IDX 6 13 5 14 4 15 3 16 2 17 1 18
REMARK H PARENT
REMARK Flexibility Score: inf
ROOT
ATOM      1  C   UNL     1      24.960   0.418  -1.616  1.00  0.00     0.000 C 
ENDROOT
BRANCH   1   2
ATOM      2  C   UNL     1      25.247  -0.939  -0.955  1.00  0.00     0.000 C 
BRANCH   2   3
ATOM      3  C   UNL     1      25.055  -2.120  -1.920  1.00  0.00     0.000 C 
BRANCH   3   4
ATOM      4  C   UNL     1      23.577  -2.496  -2.115  1.00  0.00     0.000 C 
BRANCH   4   5
ATOM      5  C   UNL     1      22.909  -2.939  -0.794  1.00  0.00     0.000 C 
BRANCH   5   6
ATOM      6  C   UNL     1      21.495  -3.520  -0.986  1.00  0.00     0.006 C 
BRANCH   6   7
ATOM      7  C   UNL     1      20.894  -3.251  -2.373  1.00  0.00     0.053 C 
BRANCH   7   8
ATOM      8  C   UNL     1      19.829  -4.247  -2.721  1.00  0.00     0.041 C 
ATOM      9  O   UNL     1      20.059  -5.156  -3.561  1.00  0.00    -0.550 OA
ATOM     10  O   UNL     1      18.588  -4.181  -2.101  1.00  0.00    -0.550 OA
ENDBRANCH   7   8
ENDBRANCH   6   7
ENDBRANCH   5   6
ENDBRANCH   4   5
ENDBRANCH   3   4
ENDBRANCH   2   3
ENDBRANCH   1   2
BRANCH   1  11
ATOM     11  C   UNL     1      23.594   0.964  -1.175  1.00  0.00     0.000 C 
BRANCH  11  12
ATOM     12  C   UNL     1      23.262   0.631   0.290  1.00  0.00    -0.000 C 
BRANCH  12  13
ATOM     13  C   UNL     1      21.764   0.427   0.593  1.00  0.00    -0.000 C 
BRANCH  13  14
ATOM     14  C   UNL     1      20.826   0.528  -0.623  1.00  0.00    -0.000 C 
BRANCH  14  15
ATOM     15  C   UNL     1      19.375   0.141  -0.294  1.00  0.00    -0.000 C 
BRANCH  15  16
ATOM     16  C   UNL     1      18.738  -0.750  -1.374  1.00  0.00    -0.000 C 
BRANCH  16  17
ATOM     17  C   UNL     1      17.552  -0.086  -2.106  1.00  0.00    -0.003 C 
ATOM     18  C   UNL     1      17.621   1.440  -2.059  1.00  0.00     0.004 C 
ENDBRANCH  16  17
ENDBRANCH  15  16
ENDBRANCH  14  15
ENDBRANCH  13  14
ENDBRANCH  12  13
ENDBRANCH  11  12
ENDBRANCH   1  11
TORSDOF 14
ENDMDL
MODEL 2
REMARK VINA RESULT:    -4.115      3.528      6.110
REMARK INTER + INTRA:          -9.230
REMARK INTER:                  -7.094
REMARK INTRA:                  -2.136
REMARK UNBOUND:                -1.747
REMARK SMILES CCCCCCCCCCCCCCCC(=O)[O-]
REMARK SMILES IDX 9 1 10 2 11 3 12 4 13 5 14 6 15 7 16 8 17 9 18 10 8 11 7 12
REMARK SMILES IDX 6 13 5 14 4 15 3 16 2 17 1 18
REMARK H PARENT
REMARK Flexibility Score: inf
ROOT
ATOM      1  C   UNL     1      17.841   1.064  -2.027  1.00  0.00     0.000 C 
ENDROOT
BRANCH   1   2
ATOM      2  C   UNL     1      18.617   1.456  -0.760  1.00  0.00     0.000 C 
BRANCH   2   3
ATOM      3  C   UNL     1      19.702   0.433  -0.389  1.00  0.00     0.000 C 
BRANCH   3   4
ATOM      4  C   UNL     1      19.495  -0.173   1.009  1.00  0.00     0.000 C 
BRANCH   4   5
ATOM      5  C   UNL     1      20.619  -1.163   1.388  1.00  0.00     0.000 C 
BRANCH   5   6
ATOM      6  C   UNL     1      20.129  -2.356   2.229  1.00  0.00     0.006 C 
BRANCH   6   7
ATOM      7  C   UNL     1      18.839  -2.077   3.014  1.00  0.00     0.053 C 
BRANCH   7   8
ATOM      8  C   UNL     1      19.125  -1.590   4.402  1.00  0.00     0.041 C 
ATOM      9  O   UNL     1      20.286  -1.679   4.881  1.00  0.00    -0.550 OA
ATOM     10  O   UNL     1      18.111  -1.019   5.161  1.00  0.00    -0.550 OA
ENDBRANCH   7   8
ENDBRANCH   6   7
ENDBRANCH   5   6
ENDBRANCH   4   5
ENDBRANCH   3   4
ENDBRANCH   2   3
ENDBRANCH   1   2
BRANCH   1  11
ATOM     11  C   UNL     1      17.834  -0.460  -2.216  1.00  0.00     0.000 C 
BRANCH  11  12
ATOM     12  C   UNL     1      16.572  -1.127  -1.640  1.00  0.00    -0.000 C 
BRANCH  12  13
ATOM     13  C   UNL     1      16.781  -2.549  -1.080  1.00  0.00    -0.000 C 
BRANCH  13  14
ATOM     14  C   UNL     1      18.245  -3.011  -0.983  1.00  0.00    -0.000 C 
BRANCH  14  15
ATOM     15  C   UNL     1      18.591  -4.122  -1.988  1.00  0.00    -0.000 C 
BRANCH  15  16
ATOM     16  C   UNL     1      20.009  -3.980  -2.567  1.00  0.00    -0.000 C 
BRANCH  16  17
ATOM     17  C   UNL     1      20.729  -2.684  -2.134  1.00  0.00    -0.003 C 
ATOM     18  C   UNL     1      22.198  -2.924  -1.789  1.00  0.00     0.004 C 
ENDBRANCH  16  17
ENDBRANCH  15  16
ENDBRANCH  14  15
ENDBRANCH  13  14
ENDBRANCH  12  13
ENDBRANCH  11  12
ENDBRANCH   1  11
TORSDOF 14
ENDMDL
MODEL 3
REMARK VINA RESULT:    -4.090      3.255      5.551
REMARK INTER + INTRA:          -9.185
REMARK INTER:                  -6.929
REMARK INTRA:                  -2.256
REMARK UNBOUND:                -1.747
REMARK SMILES CCCCCCCCCCCCCCCC(=O)[O-]
REMARK SMILES IDX 9 1 10 2 11 3 12 4 13 5 14 6 15 7 16 8 17 9 18 10 8 11 7 12
REMARK SMILES IDX 6 13 5 14 4 15 3 16 2 17 1 18
REMARK H PARENT
REMARK Flexibility Score: inf
ROOT
ATOM      1  C   UNL     1      20.116  -4.546  -0.265  1.00  0.00     0.000 C 
ENDROOT
BRANCH   1   2
ATOM      2  C   UNL     1      20.135  -4.591  -1.800  1.00  0.00     0.000 C 
BRANCH   2   3
ATOM      3  C   UNL     1      21.072  -3.539  -2.414  1.00  0.00     0.000 C 
BRANCH   3   4
ATOM      4  C   UNL     1      22.176  -3.087  -1.443  1.00  0.00     0.000 C 
BRANCH   4   5
ATOM      5  C   UNL     1      22.972  -1.880  -1.987  1.00  0.00     0.000 C 
BRANCH   5   6
ATOM      6  C   UNL     1      24.099  -1.414  -1.046  1.00  0.00     0.006 C 
BRANCH   6   7
ATOM      7  C   UNL     1      25.166  -0.549  -1.733  1.00  0.00     0.053 C 
BRANCH   7   8
ATOM      8  C   UNL     1      25.114   0.874  -1.268  1.00  0.00     0.041 C 
ATOM      9  O   UNL     1      25.713   1.776  -1.910  1.00  0.00    -0.550 OA
ATOM     10  O   UNL     1      24.385   1.207  -0.132  1.00  0.00    -0.550 OA
ENDBRANCH   7   8
ENDBRANCH   6   7
ENDBRANCH   5   6
ENDBRANCH   4   5
ENDBRANCH   3   4
ENDBRANCH   2   3
ENDBRANCH   1   2
BRANCH   1  11
ATOM     11  C   UNL     1      18.726  -4.151   0.255  1.00  0.00     0.000 C 
BRANCH  11  12
ATOM     12  C   UNL     1      17.747  -3.788  -0.876  1.00  0.00    -0.000 C 
BRANCH  12  13
ATOM     13  C   UNL     1      17.308  -2.310  -0.913  1.00  0.00    -0.000 C 
BRANCH  13  14
ATOM     14  C   UNL     1      18.157  -1.392  -1.811  1.00  0.00    -0.000 C 
BRANCH  14  15
ATOM     15  C   UNL     1      18.617  -0.112  -1.095  1.00  0.00    -0.000 C 
BRANCH  15  16
ATOM     16  C   UNL     1      19.944  -0.299  -0.339  1.00  0.00    -0.000 C 
BRANCH  16  17
ATOM     17  C   UNL     1      19.764  -0.633   1.157  1.00  0.00    -0.003 C 
ATOM     18  C   UNL     1      20.936  -1.437   1.718  1.00  0.00     0.004 C 
ENDBRANCH  16  17
ENDBRANCH  15  16
ENDBRANCH  14  15
ENDBRANCH  13  14
ENDBRANCH  12  13
ENDBRANCH  11  12
ENDBRANCH   1  11
TORSDOF 14
ENDMDL
MODEL 4
REMARK VINA RESULT:    -4.039      3.105      5.271
REMARK INTER + INTRA:          -9.092
REMARK INTER:                  -6.983
REMARK INTRA:                  -2.108
REMARK UNBOUND:                -1.747
REMARK SMILES CCCCCCCCCCCCCCCC(=O)[O-]
REMARK SMILES IDX 9 1 10 2 11 3 12 4 13 5 14 6 15 7 16 8 17 9 18 10 8 11 7 12
REMARK SMILES IDX 6 13 5 14 4 15 3 16 2 17 1 18
REMARK H PARENT
REMARK Flexibility Score: inf
ROOT
ATOM      1  C   UNL     1      24.630   0.744   0.069  1.00  0.00     0.000 C 
ENDROOT
BRANCH   1   2
ATOM      2  C   UNL     1      24.549   0.210  -1.369  1.00  0.00     0.000 C 
BRANCH   2   3
ATOM      3  C   UNL     1      25.398  -1.054  -1.581  1.00  0.00     0.000 C 
BRANCH   3   4
ATOM      4  C   UNL     1      24.545  -2.304  -1.856  1.00  0.00     0.000 C 
BRANCH   4   5
ATOM      5  C   UNL     1      23.041  -1.970  -1.972  1.00  0.00     0.000 C 
BRANCH   5   6
ATOM      6  C   UNL     1      22.127  -3.023  -1.317  1.00  0.00     0.006 C 
BRANCH   6   7
ATOM      7  C   UNL     1      21.018  -2.426  -0.439  1.00  0.00     0.053 C 
BRANCH   7   8
ATOM      8  C   UNL     1      20.083  -1.564  -1.232  1.00  0.00     0.041 C 
ATOM      9  O   UNL     1      20.071  -0.317  -1.066  1.00  0.00    -0.550 OA
ATOM     10  O   UNL     1      19.237  -2.140  -2.172  1.00  0.00    -0.550 OA
ENDBRANCH   7   8
ENDBRANCH   6   7
ENDBRANCH   5   6
ENDBRANCH   4   5
ENDBRANCH   3   4
ENDBRANCH   2   3
ENDBRANCH   1   2
BRANCH   1  11
ATOM     11  C   UNL     1      23.300   0.533   0.807  1.00  0.00     0.000 C 
BRANCH  11  12
ATOM     12  C   UNL     1      23.479  -0.138   2.180  1.00  0.00    -0.000 C 
BRANCH  12  13
ATOM     13  C   UNL     1      23.488  -1.680   2.159  1.00  0.00    -0.000 C 
BRANCH  13  14
ATOM     14  C   UNL     1      24.882  -2.331   2.119  1.00  0.00    -0.000 C 
BRANCH  14  15
ATOM     15  C   UNL     1      25.186  -3.174   3.368  1.00  0.00    -0.000 C 
BRANCH  15  16
ATOM     16  C   UNL     1      25.282  -2.327   4.648  1.00  0.00    -0.000 C 
BRANCH  16  17
ATOM     17  C   UNL     1      26.544  -1.440   4.712  1.00  0.00    -0.003 C 
ATOM     18  C   UNL     1      26.206   0.050   4.755  1.00  0.00     0.004 C 
ENDBRANCH  16  17
ENDBRANCH  15  16
ENDBRANCH  14  15
ENDBRANCH  13  14
ENDBRANCH  12  13
ENDBRANCH  11  12
ENDBRANCH   1  11
TORSDOF 14
ENDMDL
MODEL 5
REMARK VINA RESULT:    -4.035      2.834      5.329
REMARK INTER + INTRA:          -9.085
REMARK INTER:                  -7.302
REMARK INTRA:                  -1.783
REMARK UNBOUND:                -1.747
REMARK SMILES CCCCCCCCCCCCCCCC(=O)[O-]
REMARK SMILES IDX 9 1 10 2 11 3 12 4 13 5 14 6 15 7 16 8 17 9 18 10 8 11 7 12
REMARK SMILES IDX 6 13 5 14 4 15 3 16 2 17 1 18
REMARK H PARENT
REMARK Flexibility Score: inf
ROOT
ATOM      1  C   UNL     1      18.585  -2.621  -0.971  1.00  0.00     0.000 C 
ENDROOT
BRANCH   1   2
ATOM      2  C   UNL     1      18.707  -3.969  -1.696  1.00  0.00     0.000 C 
BRANCH   2   3
ATOM      3  C   UNL     1      20.158  -4.470  -1.777  1.00  0.00     0.000 C 
BRANCH   3   4
ATOM      4  C   UNL     1      21.116  -3.425  -2.371  1.00  0.00     0.000 C 
BRANCH   4   5
ATOM      5  C   UNL     1      22.236  -3.032  -1.383  1.00  0.00     0.000 C 
BRANCH   5   6
ATOM      6  C   UNL     1      23.324  -2.139  -2.010  1.00  0.00     0.006 C 
BRANCH   6   7
ATOM      7  C   UNL     1      23.201  -0.654  -1.639  1.00  0.00     0.053 C 
BRANCH   7   8
ATOM      8  C   UNL     1      24.272  -0.229  -0.680  1.00  0.00     0.041 C 
ATOM      9  O   UNL     1      24.172  -0.500   0.545  1.00  0.00    -0.550 OA
ATOM     10  O   UNL     1      25.391   0.450  -1.145  1.00  0.00    -0.550 OA
ENDBRANCH   7   8
ENDBRANCH   6   7
ENDBRANCH   5   6
ENDBRANCH   4   5
ENDBRANCH   3   4
ENDBRANCH   2   3
ENDBRANCH   1   2
BRANCH   1  11
ATOM     11  C   UNL     1      17.113  -2.270  -0.711  1.00  0.00     0.000 C 
BRANCH  11  12
ATOM     12  C   UNL     1      16.593  -1.154  -1.634  1.00  0.00    -0.000 C 
BRANCH  12  13
ATOM     13  C   UNL     1      17.685  -0.313  -2.326  1.00  0.00    -0.000 C 
BRANCH  13  14
ATOM     14  C   UNL     1      17.519   1.212  -2.204  1.00  0.00    -0.000 C 
BRANCH  14  15
ATOM     15  C   UNL     1      18.516   1.846  -1.221  1.00  0.00    -0.000 C 
BRANCH  15  16
ATOM     16  C   UNL     1      19.658   0.891  -0.834  1.00  0.00    -0.000 C 
BRANCH  16  17
ATOM     17  C   UNL     1      19.801   0.680   0.689  1.00  0.00    -0.003 C 
ATOM     18  C   UNL     1      20.625  -0.561   1.028  1.00  0.00     0.004 C 
ENDBRANCH  16  17
ENDBRANCH  15  16
ENDBRANCH  14  15
ENDBRANCH  13  14
ENDBRANCH  12  13
ENDBRANCH  11  12
ENDBRANCH   1  11
TORSDOF 14
ENDMDL
MODEL 6
REMARK VINA RESULT:    -3.998      3.717      5.154
REMARK INTER + INTRA:          -9.017
REMARK INTER:                  -6.382
REMARK INTRA:                  -2.635
REMARK UNBOUND:                -1.747
REMARK SMILES CCCCCCCCCCCCCCCC(=O)[O-]
REMARK SMILES IDX 9 1 10 2 11 3 12 4 13 5 14 6 15 7 16 8 17 9 18 10 8 11 7 12
REMARK SMILES IDX 6 13 5 14 4 15 3 16 2 17 1 18
REMARK H PARENT
REMARK Flexibility Score: inf
ROOT
ATOM      1  C   UNL     1      21.402  -3.295  -2.134  1.00  0.00     0.000 C 
ENDROOT
BRANCH   1   2
ATOM      2  C   UNL     1      22.741  -2.654  -1.741  1.00  0.00     0.000 C 
BRANCH   2   3
ATOM      3  C   UNL     1      22.794  -1.150  -2.055  1.00  0.00     0.000 C 
BRANCH   3   4
ATOM      4  C   UNL     1      23.528  -0.341  -0.973  1.00  0.00     0.000 C 
BRANCH   4   5
ATOM      5  C   UNL     1      24.224  -1.251   0.064  1.00  0.00     0.000 C 
BRANCH   5   6
ATOM      6  C   UNL     1      23.852  -0.917   1.521  1.00  0.00     0.006 C 
BRANCH   6   7
ATOM      7  C   UNL     1      24.463  -1.875   2.555  1.00  0.00     0.053 C 
BRANCH   7   8
ATOM      8  C   UNL     1      24.691  -1.199   3.873  1.00  0.00     0.041 C 
ATOM      9  O   UNL     1      24.293  -1.735   4.940  1.00  0.00    -0.550 OA
ATOM     10  O   UNL     1      25.362   0.017   3.923  1.00  0.00    -0.550 OA
ENDBRANCH   7   8
ENDBRANCH   6   7
ENDBRANCH   5   6
ENDBRANCH   4   5
ENDBRANCH   3   4
ENDBRANCH   2   3
ENDBRANCH   1   2
BRANCH   1  11
ATOM     11  C   UNL     1      20.777  -4.032  -0.940  1.00  0.00     0.000 C 
BRANCH  11  12
ATOM     12  C   UNL     1      21.512  -3.756   0.383  1.00  0.00    -0.000 C 
BRANCH  12  13
ATOM     13  C   UNL     1      20.693  -2.987   1.440  1.00  0.00    -0.000 C 
BRANCH  13  14
ATOM     14  C   UNL     1      19.647  -2.007   0.878  1.00  0.00    -0.000 C 
BRANCH  14  15
ATOM     15  C   UNL     1      20.209  -0.593   0.660  1.00  0.00    -0.000 C 
BRANCH  15  16
ATOM     16  C   UNL     1      19.575   0.119  -0.547  1.00  0.00    -0.000 C 
BRANCH  16  17
ATOM     17  C   UNL     1      18.867  -0.839  -1.530  1.00  0.00    -0.003 C 
ATOM     18  C   UNL     1      17.561  -0.256  -2.069  1.00  0.00     0.004 C 
ENDBRANCH  16  17
ENDBRANCH  15  16
ENDBRANCH  14  15
ENDBRANCH  13  14
ENDBRANCH  12  13
ENDBRANCH  11  12
ENDBRANCH   1  11
TORSDOF 14
ENDMDL
MODEL 7
REMARK VINA RESULT:    -3.971      2.214      4.583
REMARK INTER + INTRA:          -8.968
REMARK INTER:                  -7.183
REMARK INTRA:                  -1.784
REMARK UNBOUND:                -1.747
REMARK SMILES CCCCCCCCCCCCCCCC(=O)[O-]
REMARK SMILES IDX 9 1 10 2 11 3 12 4 13 5 14 6 15 7 16 8 17 9 18 10 8 11 7 12
REMARK SMILES IDX 6 13 5 14 4 15 3 16 2 17 1 18
REMARK H PARENT
REMARK Flexibility Score: inf
ROOT
ATOM      1  C   UNL     1      24.373  -2.283  -1.977  1.00  0.00     0.000 C 
ENDROOT
BRANCH   1   2
ATOM      2  C   UNL     1      22.947  -1.710  -2.006  1.00  0.00     0.000 C 
BRANCH   2   3
ATOM      3  C   UNL     1      21.914  -2.658  -1.378  1.00  0.00     0.000 C 
BRANCH   3   4
ATOM      4  C   UNL     1      21.178  -3.513  -2.424  1.00  0.00     0.000 C 
BRANCH   4   5
ATOM      5  C   UNL     1      20.276  -4.583  -1.771  1.00  0.00     0.000 C 
BRANCH   5   6
ATOM      6  C   UNL     1      18.791  -4.457  -2.162  1.00  0.00     0.006 C 
BRANCH   6   7
ATOM      7  C   UNL     1      17.879  -4.009  -1.011  1.00  0.00     0.053 C 
BRANCH   7   8
ATOM      8  C   UNL     1      18.056  -2.555  -0.694  1.00  0.00     0.041 C 
ATOM      9  O   UNL     1      18.160  -2.172   0.500  1.00  0.00    -0.550 OA
ATOM     10  O   UNL     1      18.124  -1.624  -1.724  1.00  0.00    -0.550 OA
ENDBRANCH   7   8
ENDBRANCH   6   7
ENDBRANCH   5   6
ENDBRANCH   4   5
ENDBRANCH   3   4
ENDBRANCH   2   3
ENDBRANCH   1   2
BRANCH   1  11
ATOM     11  C   UNL     1      25.377  -1.229  -1.491  1.00  0.00     0.000 C 
BRANCH  11  12
ATOM     12  C   UNL     1      24.842   0.209  -1.616  1.00  0.00    -0.000 C 
BRANCH  12  13
ATOM     13  C   UNL     1      24.900   1.045  -0.321  1.00  0.00    -0.000 C 
BRANCH  13  14
ATOM     14  C   UNL     1      23.697   0.880   0.625  1.00  0.00    -0.000 C 
BRANCH  14  15
ATOM     15  C   UNL     1      24.023   0.032   1.865  1.00  0.00    -0.000 C 
BRANCH  15  16
ATOM     16  C   UNL     1      23.512  -1.414   1.747  1.00  0.00    -0.000 C 
BRANCH  16  17
ATOM     17  C   UNL     1      24.632  -2.475   1.822  1.00  0.00    -0.003 C 
ATOM     18  C   UNL     1      25.408  -2.408   3.137  1.00  0.00     0.004 C 
ENDBRANCH  16  17
ENDBRANCH  15  16
ENDBRANCH  14  15
ENDBRANCH  13  14
ENDBRANCH  12  13
ENDBRANCH  11  12
ENDBRANCH   1  11
TORSDOF 14
ENDMDL
MODEL 8
REMARK VINA RESULT:    -3.961      4.298      6.566
REMARK INTER + INTRA:          -8.951
REMARK INTER:                  -6.539
REMARK INTRA:                  -2.412
REMARK UNBOUND:                -1.747
REMARK SMILES CCCCCCCCCCCCCCCC(=O)[O-]
REMARK SMILES IDX 9 1 10 2 11 3 12 4 13 5 14 6 15 7 16 8 17 9 18 10 8 11 7 12
REMARK SMILES IDX 6 13 5 14 4 15 3 16 2 17 1 18
REMARK H PARENT
REMARK Flexibility Score: inf
ROOT
ATOM      1  C   UNL     1      20.300  -0.846  -0.215  1.00  0.00     0.000 C 
ENDROOT
BRANCH   1   2
ATOM      2  C   UNL     1      20.855  -1.167   1.182  1.00  0.00     0.000 C 
BRANCH   2   3
ATOM      3  C   UNL     1      21.900  -0.145   1.655  1.00  0.00     0.000 C 
BRANCH   3   4
ATOM      4  C   UNL     1      22.890  -0.734   2.673  1.00  0.00     0.000 C 
BRANCH   4   5
ATOM      5  C   UNL     1      22.671  -2.247   2.892  1.00  0.00     0.000 C 
BRANCH   5   6
ATOM      6  C   UNL     1      23.911  -2.973   3.445  1.00  0.00     0.006 C 
BRANCH   6   7
ATOM      7  C   UNL     1      25.245  -2.347   3.013  1.00  0.00     0.053 C 
BRANCH   7   8
ATOM      8  C   UNL     1      26.058  -1.901   4.190  1.00  0.00     0.041 C 
ATOM      9  O   UNL     1      25.538  -1.193   5.091  1.00  0.00    -0.550 OA
ATOM     10  O   UNL     1      27.389  -2.285   4.300  1.00  0.00    -0.550 OA
ENDBRANCH   7   8
ENDBRANCH   6   7
ENDBRANCH   5   6
ENDBRANCH   4   5
ENDBRANCH   3   4
ENDBRANCH   2   3
ENDBRANCH   1   2
BRANCH   1  11
ATOM     11  C   UNL     1      21.435  -0.750  -1.245  1.00  0.00     0.000 C 
BRANCH  11  12
ATOM     12  C   UNL     1      21.672  -2.072  -1.997  1.00  0.00    -0.000 C 
BRANCH  12  13
ATOM     13  C   UNL     1      23.131  -2.570  -2.003  1.00  0.00    -0.000 C 
BRANCH  13  14
ATOM     14  C   UNL     1      23.796  -2.678  -0.618  1.00  0.00    -0.000 C 
BRANCH  14  15
ATOM     15  C   UNL     1      24.997  -1.733  -0.455  1.00  0.00    -0.000 C 
BRANCH  15  16
ATOM     16  C   UNL     1      25.326  -0.962  -1.745  1.00  0.00    -0.000 C 
BRANCH  16  17
ATOM     17  C   UNL     1      25.090   0.559  -1.636  1.00  0.00    -0.003 C 
ATOM     18  C   UNL     1      24.779   0.998  -0.206  1.00  0.00     0.004 C 
ENDBRANCH  16  17
ENDBRANCH  15  16
ENDBRANCH  14  15
ENDBRANCH  13  14
ENDBRANCH  12  13
ENDBRANCH  11  12
ENDBRANCH   1  11
TORSDOF 14
ENDMDL
MODEL 9
REMARK VINA RESULT:    -3.949      4.127      6.407
REMARK INTER + INTRA:          -8.929
REMARK INTER:                  -6.703
REMARK INTRA:                  -2.226
REMARK UNBOUND:                -1.747
REMARK SMILES CCCCCCCCCCCCCCCC(=O)[O-]
REMARK SMILES IDX 9 1 10 2 11 3 12 4 13 5 14 6 15 7 16 8 17 9 18 10 8 11 7 12
REMARK SMILES IDX 6 13 5 14 4 15 3 16 2 17 1 18
REMARK H PARENT
REMARK Flexibility Score: inf
ROOT
ATOM      1  C   UNL     1      21.288  -2.064   0.278  1.00  0.00     0.000 C 
ENDROOT
BRANCH   1   2
ATOM      2  C   UNL     1      22.126  -2.287   1.546  1.00  0.00     0.000 C 
BRANCH   2   3
ATOM      3  C   UNL     1      22.664  -3.722   1.657  1.00  0.00     0.000 C 
BRANCH   3   4
ATOM      4  C   UNL     1      24.199  -3.779   1.725  1.00  0.00     0.000 C 
BRANCH   4   5
ATOM      5  C   UNL     1      24.819  -2.407   2.072  1.00  0.00     0.000 C 
BRANCH   5   6
ATOM      6  C   UNL     1      25.510  -2.377   3.449  1.00  0.00     0.006 C 
BRANCH   6   7
ATOM      7  C   UNL     1      24.629  -1.821   4.576  1.00  0.00     0.053 C 
BRANCH   7   8
ATOM      8  C   UNL     1      23.896  -2.910   5.300  1.00  0.00     0.041 C 
ATOM      9  O   UNL     1      22.666  -2.798   5.541  1.00  0.00    -0.550 OA
ATOM     10  O   UNL     1      24.572  -4.059   5.691  1.00  0.00    -0.550 OA
ENDBRANCH   7   8
ENDBRANCH   6   7
ENDBRANCH   5   6
ENDBRANCH   4   5
ENDBRANCH   3   4
ENDBRANCH   2   3
ENDBRANCH   1   2
BRANCH   1  11
ATOM     11  C   UNL     1      21.306  -3.312  -0.617  1.00  0.00     0.000 C 
BRANCH  11  12
ATOM     12  C   UNL     1      21.951  -3.053  -1.990  1.00  0.00    -0.000 C 
BRANCH  12  13
ATOM     13  C   UNL     1      22.994  -1.917  -2.021  1.00  0.00    -0.000 C 
BRANCH  13  14
ATOM     14  C   UNL     1      24.459  -2.364  -1.870  1.00  0.00    -0.000 C 
BRANCH  14  15
ATOM     15  C   UNL     1      25.378  -1.242  -1.361  1.00  0.00    -0.000 C 
BRANCH  15  16
ATOM     16  C   UNL     1      24.670   0.122  -1.293  1.00  0.00    -0.000 C 
BRANCH  16  17
ATOM     17  C   UNL     1      24.562   0.694   0.136  1.00  0.00    -0.003 C 
ATOM     18  C   UNL     1      25.055   2.138   0.223  1.00  0.00     0.004 C 
ENDBRANCH  16  17
ENDBRANCH  15  16
ENDBRANCH  14  15
ENDBRANCH  13  14
ENDBRANCH  12  13
ENDBRANCH  11  12
ENDBRANCH   1  11
TORSDOF 14
ENDMDL
