MODEL 1
REMARK VINA RESULT:    -6.004      0.000      0.000
REMARK INTER + INTRA:          -7.595
REMARK INTER:                  -7.233
REMARK INTRA:                  -0.362
REMARK UNBOUND:                -0.362
REMARK SMILES Oc1cc(O)c2c(c1)O[C@@H](c1ccc(O)c(O)c1)[C@H](O)C2
REMARK SMILES IDX 21 1 19 2 10 3 9 4 7 5 8 6 2 7 3 8 4 9 6 10 20 11 11 13
REMARK SMILES IDX 18 14 12 15 16 16 13 17 14 18 17 19 15 21 5 23 1 25
REMARK H PARENT 20 12 17 20 15 22 5 24 1 26
REMARK Flexibility Score: inf
ROOT
ATOM      1  C   UNL     1      34.438  63.584  46.103  1.00  0.00     0.079 C 
ATOM      2  C   UNL     1      33.545  63.503  44.850  1.00  0.00     0.164 C 
ATOM      3  C   UNL     1      34.317  62.830  43.702  1.00  0.00     0.232 C 
ATOM      4  O   UNL     1      34.771  61.540  44.114  1.00  0.00    -0.482 OA
ATOM      5  C   UNL     1      35.252  61.296  45.405  1.00  0.00     0.131 A 
ATOM      6  C   UNL     1      35.855  60.066  45.682  1.00  0.00     0.093 A 
ATOM      7  C   UNL     1      36.358  59.798  46.955  1.00  0.00     0.122 A 
ATOM      8  C   UNL     1      36.269  60.772  47.957  1.00  0.00     0.092 A 
ATOM      9  C   UNL     1      35.669  62.010  47.697  1.00  0.00     0.126 A 
ATOM     10  C   UNL     1      35.118  62.268  46.420  1.00  0.00     0.039 A 
ENDROOT
BRANCH   2  11
ATOM     11  O   UNL     1      33.151  64.793  44.464  1.00  0.00    -0.389 OA
ATOM     12  H   UNL     1      32.468  65.091  45.120  1.00  0.00     0.211 HD
ENDBRANCH   2  11
BRANCH   3  13
ATOM     13  C   UNL     1      33.452  62.693  42.471  1.00  0.00    -0.001 A 
ATOM     14  C   UNL     1      32.221  62.020  42.543  1.00  0.00     0.057 A 
ATOM     15  C   UNL     1      33.888  63.192  41.231  1.00  0.00     0.012 A 
ATOM     16  C   UNL     1      31.427  61.865  41.396  1.00  0.00     0.157 A 
ATOM     17  C   UNL     1      33.098  63.039  40.090  1.00  0.00     0.050 A 
ATOM     18  C   UNL     1      31.865  62.377  40.169  1.00  0.00     0.157 A 
BRANCH  16  19
ATOM     19  O   UNL     1      30.203  61.202  41.471  1.00  0.00    -0.504 OA
ATOM     20  H   UNL     1      29.390  61.634  41.892  1.00  0.00     0.293 HD
ENDBRANCH  16  19
BRANCH  18  21
ATOM     21  O   UNL     1      31.073  62.223  39.033  1.00  0.00    -0.504 OA
ATOM     22  H   UNL     1      31.225  62.782  38.201  1.00  0.00     0.293 HD
ENDBRANCH  18  21
ENDBRANCH   3  13
BRANCH   9  23
ATOM     23  O   UNL     1      35.649  62.958  48.723  1.00  0.00    -0.507 OA
ATOM     24  H   UNL     1      36.484  63.304  49.176  1.00  0.00     0.293 HD
ENDBRANCH   9  23
BRANCH   7  25
ATOM     25  O   UNL     1      36.954  58.566  47.215  1.00  0.00    -0.508 OA
ATOM     26  H   UNL     1      36.460  57.831  47.707  1.00  0.00     0.293 HD
ENDBRANCH   7  25
TORSDOF 6
ENDMDL
MODEL 2
REMARK VINA RESULT:    -5.931     14.897     16.209
REMARK INTER + INTRA:          -7.507
REMARK INTER:                  -7.131
REMARK INTRA:                  -0.376
REMARK UNBOUND:                -0.362
REMARK SMILES Oc1cc(O)c2c(c1)O[C@@H](c1ccc(O)c(O)c1)[C@H](O)C2
REMARK SMILES IDX 21 1 19 2 10 3 9 4 7 5 8 6 2 7 3 8 4 9 6 10 20 11 11 13
REMARK SMILES IDX 18 14 12 15 16 16 13 17 14 18 17 19 15 21 5 23 1 25
REMARK H PARENT 20 12 17 20 15 22 5 24 1 26
REMARK Flexibility Score: inf
ROOT
ATOM      1  C   UNL     1      46.632  59.253  33.758  1.00  0.00     0.079 C 
ATOM      2  C   UNL     1      46.498  60.536  32.917  1.00  0.00     0.164 C 
ATOM      3  C   UNL     1      45.455  61.470  33.554  1.00  0.00     0.232 C 
ATOM      4  O   UNL     1      45.822  61.757  34.903  1.00  0.00    -0.482 OA
ATOM      5  C   UNL     1      46.377  60.790  35.747  1.00  0.00     0.131 A 
ATOM      6  C   UNL     1      46.535  61.084  37.104  1.00  0.00     0.093 A 
ATOM      7  C   UNL     1      47.072  60.134  37.974  1.00  0.00     0.122 A 
ATOM      8  C   UNL     1      47.444  58.876  37.486  1.00  0.00     0.092 A 
ATOM      9  C   UNL     1      47.292  58.563  36.130  1.00  0.00     0.126 A 
ATOM     10  C   UNL     1      46.789  59.540  35.237  1.00  0.00     0.039 A 
ENDROOT
BRANCH   2  11
ATOM     11  O   UNL     1      46.105  60.208  31.610  1.00  0.00    -0.389 OA
ATOM     12  H   UNL     1      46.873  60.423  31.019  1.00  0.00     0.211 HD
ENDBRANCH   2  11
BRANCH   3  13
ATOM     13  C   UNL     1      45.333  62.760  32.777  1.00  0.00    -0.001 A 
ATOM     14  C   UNL     1      46.417  63.653  32.712  1.00  0.00     0.057 A 
ATOM     15  C   UNL     1      44.122  63.107  32.152  1.00  0.00     0.012 A 
ATOM     16  C   UNL     1      46.299  64.865  32.016  1.00  0.00     0.157 A 
ATOM     17  C   UNL     1      44.005  64.314  31.458  1.00  0.00     0.050 A 
ATOM     18  C   UNL     1      45.093  65.195  31.386  1.00  0.00     0.157 A 
BRANCH  16  19
ATOM     19  O   UNL     1      47.377  65.746  31.949  1.00  0.00    -0.504 OA
ATOM     20  H   UNL     1      47.642  66.321  32.739  1.00  0.00     0.293 HD
ENDBRANCH  16  19
BRANCH  18  21
ATOM     21  O   UNL     1      44.980  66.399  30.694  1.00  0.00    -0.504 OA
ATOM     22  H   UNL     1      45.798  66.923  30.406  1.00  0.00     0.293 HD
ENDBRANCH  18  21
ENDBRANCH   3  13
BRANCH   9  23
ATOM     23  O   UNL     1      47.638  57.277  35.710  1.00  0.00    -0.507 OA
ATOM     24  H   UNL     1      47.031  56.693  35.151  1.00  0.00     0.293 HD
ENDBRANCH   9  23
BRANCH   7  25
ATOM     25  O   UNL     1      47.223  60.445  39.323  1.00  0.00    -0.508 OA
ATOM     26  H   UNL     1      47.498  61.372  39.627  1.00  0.00     0.293 HD
ENDBRANCH   7  25
TORSDOF 6
ENDMDL
MODEL 3
REMARK VINA RESULT:    -5.688      1.840      7.264
REMARK INTER + INTRA:          -7.214
REMARK INTER:                  -6.951
REMARK INTRA:                  -0.262
REMARK UNBOUND:                -0.362
REMARK SMILES Oc1cc(O)c2c(c1)O[C@@H](c1ccc(O)c(O)c1)[C@H](O)C2
REMARK SMILES IDX 21 1 19 2 10 3 9 4 7 5 8 6 2 7 3 8 4 9 6 10 20 11 11 13
REMARK SMILES IDX 18 14 12 15 16 16 13 17 14 18 17 19 15 21 5 23 1 25
REMARK H PARENT 20 12 17 20 15 22 5 24 1 26
REMARK Flexibility Score: inf
ROOT
ATOM      1  C   UNL     1      32.199  61.995  41.654  1.00  0.00     0.079 C 
ATOM      2  C   UNL     1      32.624  62.076  43.132  1.00  0.00     0.164 C 
ATOM      3  C   UNL     1      34.146  62.283  43.226  1.00  0.00     0.232 C 
ATOM      4  O   UNL     1      34.521  63.454  42.501  1.00  0.00    -0.482 OA
ATOM      5  C   UNL     1      33.928  63.800  41.282  1.00  0.00     0.131 A 
ATOM      6  C   UNL     1      34.472  64.848  40.536  1.00  0.00     0.093 A 
ATOM      7  C   UNL     1      33.913  65.206  39.309  1.00  0.00     0.122 A 
ATOM      8  C   UNL     1      32.806  64.503  38.818  1.00  0.00     0.092 A 
ATOM      9  C   UNL     1      32.249  63.448  39.551  1.00  0.00     0.126 A 
ATOM     10  C   UNL     1      32.787  63.112  40.816  1.00  0.00     0.039 A 
ENDROOT
BRANCH   2  11
ATOM     11  O   UNL     1      32.265  60.893  43.795  1.00  0.00    -0.389 OA
ATOM     12  H   UNL     1      31.960  61.156  44.703  1.00  0.00     0.211 HD
ENDBRANCH   2  11
BRANCH   3  13
ATOM     13  C   UNL     1      34.590  62.414  44.664  1.00  0.00    -0.001 A 
ATOM     14  C   UNL     1      35.752  61.760  45.108  1.00  0.00     0.057 A 
ATOM     15  C   UNL     1      33.824  63.149  45.585  1.00  0.00     0.012 A 
ATOM     16  C   UNL     1      36.153  61.855  46.449  1.00  0.00     0.157 A 
ATOM     17  C   UNL     1      34.224  63.245  46.921  1.00  0.00     0.050 A 
ATOM     18  C   UNL     1      35.390  62.600  47.356  1.00  0.00     0.157 A 
BRANCH  16  19
ATOM     19  O   UNL     1      37.309  61.210  46.886  1.00  0.00    -0.504 OA
ATOM     20  H   UNL     1      38.183  61.289  46.382  1.00  0.00     0.293 HD
ENDBRANCH  16  19
BRANCH  18  21
ATOM     21  O   UNL     1      35.792  62.694  48.686  1.00  0.00    -0.504 OA
ATOM     22  H   UNL     1      36.772  62.685  48.946  1.00  0.00     0.293 HD
ENDBRANCH  18  21
ENDBRANCH   3  13
BRANCH   9  23
ATOM     23  O   UNL     1      31.175  62.754  38.990  1.00  0.00    -0.507 OA
ATOM     24  H   UNL     1      31.287  61.974  38.358  1.00  0.00     0.293 HD
ENDBRANCH   9  23
BRANCH   7  25
ATOM     25  O   UNL     1      34.467  66.255  38.580  1.00  0.00    -0.508 OA
ATOM     26  H   UNL     1      35.336  66.147  38.071  1.00  0.00     0.293 HD
ENDBRANCH   7  25
TORSDOF 6
ENDMDL
MODEL 4
REMARK VINA RESULT:    -5.570      2.118      6.528
REMARK INTER + INTRA:          -7.072
REMARK INTER:                  -6.711
REMARK INTRA:                  -0.361
REMARK UNBOUND:                -0.362
REMARK SMILES Oc1cc(O)c2c(c1)O[C@@H](c1ccc(O)c(O)c1)[C@H](O)C2
REMARK SMILES IDX 21 1 19 2 10 3 9 4 7 5 8 6 2 7 3 8 4 9 6 10 20 11 11 13
REMARK SMILES IDX 18 14 12 15 16 16 13 17 14 18 17 19 15 21 5 23 1 25
REMARK H PARENT 20 12 17 20 15 22 5 24 1 26
REMARK Flexibility Score: inf
ROOT
ATOM      1  C   UNL     1      33.342  64.409  45.403  1.00  0.00     0.079 C 
ATOM      2  C   UNL     1      34.198  63.391  46.179  1.00  0.00     0.164 C 
ATOM      3  C   UNL     1      34.088  62.006  45.519  1.00  0.00     0.232 C 
ATOM      4  O   UNL     1      34.477  62.090  44.148  1.00  0.00    -0.482 OA
ATOM      5  C   UNL     1      34.141  63.183  43.343  1.00  0.00     0.131 A 
ATOM      6  C   UNL     1      34.386  63.115  41.969  1.00  0.00     0.093 A 
ATOM      7  C   UNL     1      34.047  64.183  41.138  1.00  0.00     0.122 A 
ATOM      8  C   UNL     1      33.447  65.325  41.682  1.00  0.00     0.092 A 
ATOM      9  C   UNL     1      33.192  65.410  43.056  1.00  0.00     0.126 A 
ATOM     10  C   UNL     1      33.575  64.347  43.908  1.00  0.00     0.039 A 
ENDROOT
BRANCH   2  11
ATOM     11  O   UNL     1      33.760  63.318  47.510  1.00  0.00    -0.389 OA
ATOM     12  H   UNL     1      32.788  63.521  47.503  1.00  0.00     0.211 HD
ENDBRANCH   2  11
BRANCH   3  13
ATOM     13  C   UNL     1      34.955  60.993  46.230  1.00  0.00    -0.001 A 
ATOM     14  C   UNL     1      34.381  59.838  46.788  1.00  0.00     0.057 A 
ATOM     15  C   UNL     1      36.335  61.215  46.383  1.00  0.00     0.012 A 
ATOM     16  C   UNL     1      35.178  58.909  47.474  1.00  0.00     0.157 A 
ATOM     17  C   UNL     1      37.128  60.289  47.065  1.00  0.00     0.050 A 
ATOM     18  C   UNL     1      36.553  59.133  47.610  1.00  0.00     0.157 A 
BRANCH  16  19
ATOM     19  O   UNL     1      34.607  57.761  48.023  1.00  0.00    -0.504 OA
ATOM     20  H   UNL     1      33.845  57.814  48.688  1.00  0.00     0.293 HD
ENDBRANCH  16  19
BRANCH  18  21
ATOM     21  O   UNL     1      37.341  58.207  48.290  1.00  0.00    -0.504 OA
ATOM     22  H   UNL     1      38.020  57.631  47.806  1.00  0.00     0.293 HD
ENDBRANCH  18  21
ENDBRANCH   3  13
BRANCH   9  23
ATOM     23  O   UNL     1      32.551  66.555  43.535  1.00  0.00    -0.507 OA
ATOM     24  H   UNL     1      32.579  66.843  44.503  1.00  0.00     0.293 HD
ENDBRANCH   9  23
BRANCH   7  25
ATOM     25  O   UNL     1      34.301  64.098  39.771  1.00  0.00    -0.508 OA
ATOM     26  H   UNL     1      33.612  63.732  39.125  1.00  0.00     0.293 HD
ENDBRANCH   7  25
TORSDOF 6
ENDMDL
MODEL 5
REMARK VINA RESULT:    -5.555     14.459     17.047
REMARK INTER + INTRA:          -7.054
REMARK INTER:                  -6.685
REMARK INTRA:                  -0.369
REMARK UNBOUND:                -0.362
REMARK SMILES Oc1cc(O)c2c(c1)O[C@@H](c1ccc(O)c(O)c1)[C@H](O)C2
REMARK SMILES IDX 21 1 19 2 10 3 9 4 7 5 8 6 2 7 3 8 4 9 6 10 20 11 11 13
REMARK SMILES IDX 18 14 12 15 16 16 13 17 14 18 17 19 15 21 5 23 1 25
REMARK H PARENT 20 12 17 20 15 22 5 24 1 26
REMARK Flexibility Score: inf
ROOT
ATOM      1  C   UNL     1      44.202  61.096  31.853  1.00  0.00     0.079 C 
ATOM      2  C   UNL     1      44.620  60.744  33.293  1.00  0.00     0.164 C 
ATOM      3  C   UNL     1      46.026  61.298  33.579  1.00  0.00     0.232 C 
ATOM      4  O   UNL     1      46.047  62.707  33.351  1.00  0.00    -0.482 OA
ATOM      5  C   UNL     1      45.356  63.302  32.290  1.00  0.00     0.131 A 
ATOM      6  C   UNL     1      45.572  64.654  32.013  1.00  0.00     0.093 A 
ATOM      7  C   UNL     1      44.909  65.272  30.952  1.00  0.00     0.122 A 
ATOM      8  C   UNL     1      44.031  64.529  30.154  1.00  0.00     0.092 A 
ATOM      9  C   UNL     1      43.803  63.173  30.416  1.00  0.00     0.126 A 
ATOM     10  C   UNL     1      44.440  62.554  31.518  1.00  0.00     0.039 A 
ENDROOT
BRANCH   2  11
ATOM     11  O   UNL     1      44.616  59.351  33.461  1.00  0.00    -0.389 OA
ATOM     12  H   UNL     1      44.422  58.956  32.571  1.00  0.00     0.211 HD
ENDBRANCH   2  11
BRANCH   3  13
ATOM     13  C   UNL     1      46.447  61.009  35.001  1.00  0.00    -0.001 A 
ATOM     14  C   UNL     1      45.812  61.658  36.073  1.00  0.00     0.057 A 
ATOM     15  C   UNL     1      47.509  60.127  35.267  1.00  0.00     0.012 A 
ATOM     16  C   UNL     1      46.218  61.415  37.394  1.00  0.00     0.157 A 
ATOM     17  C   UNL     1      47.914  59.884  36.582  1.00  0.00     0.050 A 
ATOM     18  C   UNL     1      47.269  60.525  37.648  1.00  0.00     0.157 A 
BRANCH  16  19
ATOM     19  O   UNL     1      45.583  62.056  38.456  1.00  0.00    -0.504 OA
ATOM     20  H   UNL     1      45.200  61.537  39.236  1.00  0.00     0.293 HD
ENDBRANCH  16  19
BRANCH  18  21
ATOM     21  O   UNL     1      47.668  60.284  38.961  1.00  0.00    -0.504 OA
ATOM     22  H   UNL     1      48.315  59.538  39.190  1.00  0.00     0.293 HD
ENDBRANCH  18  21
ENDBRANCH   3  13
BRANCH   9  23
ATOM     23  O   UNL     1      42.952  62.472  29.559  1.00  0.00    -0.507 OA
ATOM     24  H   UNL     1      43.232  62.141  28.646  1.00  0.00     0.293 HD
ENDBRANCH   9  23
BRANCH   7  25
ATOM     25  O   UNL     1      45.135  66.621  30.691  1.00  0.00    -0.508 OA
ATOM     26  H   UNL     1      44.641  67.109  29.953  1.00  0.00     0.293 HD
ENDBRANCH   7  25
TORSDOF 6
ENDMDL
MODEL 6
REMARK VINA RESULT:    -5.513      4.891      6.683
REMARK INTER + INTRA:          -7.004
REMARK INTER:                  -6.649
REMARK INTRA:                  -0.355
REMARK UNBOUND:                -0.362
REMARK SMILES Oc1cc(O)c2c(c1)O[C@@H](c1ccc(O)c(O)c1)[C@H](O)C2
REMARK SMILES IDX 21 1 19 2 10 3 9 4 7 5 8 6 2 7 3 8 4 9 6 10 20 11 11 13
REMARK SMILES IDX 18 14 12 15 16 16 13 17 14 18 17 19 15 21 5 23 1 25
REMARK H PARENT 20 12 17 20 15 22 5 24 1 26
REMARK Flexibility Score: inf
ROOT
ATOM      1  C   UNL     1      33.798  67.021  39.419  1.00  0.00     0.079 C 
ATOM      2  C   UNL     1      32.809  65.955  39.929  1.00  0.00     0.164 C 
ATOM      3  C   UNL     1      33.080  64.614  39.227  1.00  0.00     0.232 C 
ATOM      4  O   UNL     1      34.437  64.222  39.438  1.00  0.00    -0.482 OA
ATOM      5  C   UNL     1      35.489  65.143  39.430  1.00  0.00     0.131 A 
ATOM      6  C   UNL     1      36.804  64.672  39.452  1.00  0.00     0.093 A 
ATOM      7  C   UNL     1      37.875  65.565  39.429  1.00  0.00     0.122 A 
ATOM      8  C   UNL     1      37.630  66.942  39.373  1.00  0.00     0.092 A 
ATOM      9  C   UNL     1      36.320  67.433  39.349  1.00  0.00     0.126 A 
ATOM     10  C   UNL     1      35.231  66.532  39.417  1.00  0.00     0.039 A 
ENDROOT
BRANCH   2  11
ATOM     11  O   UNL     1      31.492  66.367  39.672  1.00  0.00    -0.389 OA
ATOM     12  H   UNL     1      31.550  67.271  39.266  1.00  0.00     0.211 HD
ENDBRANCH   2  11
BRANCH   3  13
ATOM     13  C   UNL     1      32.156  63.534  39.740  1.00  0.00    -0.001 A 
ATOM     14  C   UNL     1      32.347  62.989  41.021  1.00  0.00     0.057 A 
ATOM     15  C   UNL     1      31.127  63.028  38.927  1.00  0.00     0.012 A 
ATOM     16  C   UNL     1      31.509  61.966  41.491  1.00  0.00     0.157 A 
ATOM     17  C   UNL     1      30.292  62.010  39.395  1.00  0.00     0.050 A 
ATOM     18  C   UNL     1      30.479  61.478  40.678  1.00  0.00     0.157 A 
BRANCH  16  19
ATOM     19  O   UNL     1      31.698  61.430  42.764  1.00  0.00    -0.504 OA
ATOM     20  H   UNL     1      31.553  61.984  43.599  1.00  0.00     0.293 HD
ENDBRANCH  16  19
BRANCH  18  21
ATOM     21  O   UNL     1      29.648  60.464  41.149  1.00  0.00    -0.504 OA
ATOM     22  H   UNL     1      28.818  60.668  41.693  1.00  0.00     0.293 HD
ENDBRANCH  18  21
ENDBRANCH   3  13
BRANCH   9  23
ATOM     23  O   UNL     1      36.137  68.815  39.247  1.00  0.00    -0.507 OA
ATOM     24  H   UNL     1      36.331  69.340  38.406  1.00  0.00     0.293 HD
ENDBRANCH   9  23
BRANCH   7  25
ATOM     25  O   UNL     1      39.179  65.077  39.453  1.00  0.00    -0.508 OA
ATOM     26  H   UNL     1      39.912  65.546  39.974  1.00  0.00     0.293 HD
ENDBRANCH   7  25
TORSDOF 6
ENDMDL
MODEL 7
REMARK VINA RESULT:    -5.507      2.579      3.805
REMARK INTER + INTRA:          -6.996
REMARK INTER:                  -6.626
REMARK INTRA:                  -0.370
REMARK UNBOUND:                -0.362
REMARK SMILES Oc1cc(O)c2c(c1)O[C@@H](c1ccc(O)c(O)c1)[C@H](O)C2
REMARK SMILES IDX 21 1 19 2 10 3 9 4 7 5 8 6 2 7 3 8 4 9 6 10 20 11 11 13
REMARK SMILES IDX 18 14 12 15 16 16 13 17 14 18 17 19 15 21 5 23 1 25
REMARK H PARENT 20 12 17 20 15 22 5 24 1 26
REMARK Flexibility Score: inf
ROOT
ATOM      1  C   UNL     1      33.039  61.072  43.989  1.00  0.00     0.079 C 
ATOM      2  C   UNL     1      33.462  61.893  42.757  1.00  0.00     0.164 C 
ATOM      3  C   UNL     1      33.414  63.395  43.089  1.00  0.00     0.232 C 
ATOM      4  O   UNL     1      34.244  63.668  44.218  1.00  0.00    -0.482 OA
ATOM      5  C   UNL     1      34.326  62.799  45.311  1.00  0.00     0.131 A 
ATOM      6  C   UNL     1      35.005  63.215  46.459  1.00  0.00     0.093 A 
ATOM      7  C   UNL     1      35.090  62.377  47.571  1.00  0.00     0.122 A 
ATOM      8  C   UNL     1      34.483  61.116  47.540  1.00  0.00     0.092 A 
ATOM      9  C   UNL     1      33.798  60.682  46.399  1.00  0.00     0.126 A 
ATOM     10  C   UNL     1      33.747  61.512  45.254  1.00  0.00     0.039 A 
ENDROOT
BRANCH   2  11
ATOM     11  O   UNL     1      32.601  61.617  41.684  1.00  0.00    -0.389 OA
ATOM     12  H   UNL     1      32.523  62.455  41.157  1.00  0.00     0.211 HD
ENDBRANCH   2  11
BRANCH   3  13
ATOM     13  C   UNL     1      33.869  64.227  41.913  1.00  0.00    -0.001 A 
ATOM     14  C   UNL     1      35.215  64.204  41.508  1.00  0.00     0.057 A 
ATOM     15  C   UNL     1      32.967  65.071  41.242  1.00  0.00     0.012 A 
ATOM     16  C   UNL     1      35.648  64.997  40.434  1.00  0.00     0.157 A 
ATOM     17  C   UNL     1      33.398  65.860  40.173  1.00  0.00     0.050 A 
ATOM     18  C   UNL     1      34.738  65.824  39.765  1.00  0.00     0.157 A 
BRANCH  16  19
ATOM     19  O   UNL     1      36.982  64.968  40.031  1.00  0.00    -0.504 OA
ATOM     20  H   UNL     1      37.422  64.113  39.714  1.00  0.00     0.293 HD
ENDBRANCH  16  19
BRANCH  18  21
ATOM     21  O   UNL     1      35.172  66.609  38.699  1.00  0.00    -0.504 OA
ATOM     22  H   UNL     1      36.036  66.408  38.209  1.00  0.00     0.293 HD
ENDBRANCH  18  21
ENDBRANCH   3  13
BRANCH   9  23
ATOM     23  O   UNL     1      33.175  59.433  46.442  1.00  0.00    -0.507 OA
ATOM     24  H   UNL     1      32.500  59.125  45.756  1.00  0.00     0.293 HD
ENDBRANCH   9  23
BRANCH   7  25
ATOM     25  O   UNL     1      35.772  62.808  48.707  1.00  0.00    -0.508 OA
ATOM     26  H   UNL     1      36.067  63.772  48.815  1.00  0.00     0.293 HD
ENDBRANCH   7  25
TORSDOF 6
ENDMDL
MODEL 8
REMARK VINA RESULT:    -5.505      2.155      3.182
REMARK INTER + INTRA:          -6.994
REMARK INTER:                  -6.631
REMARK INTRA:                  -0.362
REMARK UNBOUND:                -0.362
REMARK SMILES Oc1cc(O)c2c(c1)O[C@@H](c1ccc(O)c(O)c1)[C@H](O)C2
REMARK SMILES IDX 21 1 19 2 10 3 9 4 7 5 8 6 2 7 3 8 4 9 6 10 20 11 11 13
REMARK SMILES IDX 18 14 12 15 16 16 13 17 14 18 17 19 15 21 5 23 1 25
REMARK H PARENT 20 12 17 20 15 22 5 24 1 26
REMARK Flexibility Score: inf
ROOT
ATOM      1  C   UNL     1      32.635  60.945  44.485  1.00  0.00     0.079 C 
ATOM      2  C   UNL     1      32.853  61.642  43.129  1.00  0.00     0.164 C 
ATOM      3  C   UNL     1      32.915  63.166  43.329  1.00  0.00     0.232 C 
ATOM      4  O   UNL     1      33.945  63.490  44.264  1.00  0.00    -0.482 OA
ATOM      5  C   UNL     1      34.196  62.711  45.398  1.00  0.00     0.131 A 
ATOM      6  C   UNL     1      35.084  63.187  46.365  1.00  0.00     0.093 A 
ATOM      7  C   UNL     1      35.343  62.439  47.514  1.00  0.00     0.122 A 
ATOM      8  C   UNL     1      34.700  61.211  47.704  1.00  0.00     0.092 A 
ATOM      9  C   UNL     1      33.806  60.718  46.747  1.00  0.00     0.126 A 
ATOM     10  C   UNL     1      33.575  61.453  45.559  1.00  0.00     0.039 A 
ENDROOT
BRANCH   2  11
ATOM     11  O   UNL     1      31.803  61.320  42.255  1.00  0.00    -0.389 OA
ATOM     12  H   UNL     1      32.219  60.963  41.428  1.00  0.00     0.211 HD
ENDBRANCH   2  11
BRANCH   3  13
ATOM     13  C   UNL     1      33.176  63.877  42.022  1.00  0.00    -0.001 A 
ATOM     14  C   UNL     1      32.191  64.704  41.458  1.00  0.00     0.057 A 
ATOM     15  C   UNL     1      34.385  63.682  41.331  1.00  0.00     0.012 A 
ATOM     16  C   UNL     1      32.417  65.345  40.230  1.00  0.00     0.157 A 
ATOM     17  C   UNL     1      34.611  64.320  40.109  1.00  0.00     0.050 A 
ATOM     18  C   UNL     1      33.630  65.154  39.556  1.00  0.00     0.157 A 
BRANCH  16  19
ATOM     19  O   UNL     1      31.440  66.169  39.675  1.00  0.00    -0.504 OA
ATOM     20  H   UNL     1      31.323  66.253  38.672  1.00  0.00     0.293 HD
ENDBRANCH  16  19
BRANCH  18  21
ATOM     21  O   UNL     1      33.852  65.793  38.338  1.00  0.00    -0.504 OA
ATOM     22  H   UNL     1      34.087  66.778  38.291  1.00  0.00     0.293 HD
ENDBRANCH  18  21
ENDBRANCH   3  13
BRANCH   9  23
ATOM     23  O   UNL     1      33.160  59.508  47.011  1.00  0.00    -0.507 OA
ATOM     24  H   UNL     1      33.627  58.706  47.411  1.00  0.00     0.293 HD
ENDBRANCH   9  23
BRANCH   7  25
ATOM     25  O   UNL     1      36.234  62.929  48.467  1.00  0.00    -0.508 OA
ATOM     26  H   UNL     1      36.126  62.716  49.452  1.00  0.00     0.293 HD
ENDBRANCH   7  25
TORSDOF 6
ENDMDL
MODEL 9
REMARK VINA RESULT:    -5.379      2.239      3.053
REMARK INTER + INTRA:          -6.842
REMARK INTER:                  -6.501
REMARK INTRA:                  -0.341
REMARK UNBOUND:                -0.362
REMARK SMILES Oc1cc(O)c2c(c1)O[C@@H](c1ccc(O)c(O)c1)[C@H](O)C2
REMARK SMILES IDX 21 1 19 2 10 3 9 4 7 5 8 6 2 7 3 8 4 9 6 10 20 11 11 13
REMARK SMILES IDX 18 14 12 15 16 16 13 17 14 18 17 19 15 21 5 23 1 25
REMARK H PARENT 20 12 17 20 15 22 5 24 1 26
REMARK Flexibility Score: inf
ROOT
ATOM      1  C   UNL     1      33.311  60.322  46.829  1.00  0.00     0.079 C 
ATOM      2  C   UNL     1      33.197  61.156  45.539  1.00  0.00     0.164 C 
ATOM      3  C   UNL     1      34.217  62.307  45.571  1.00  0.00     0.232 C 
ATOM      4  O   UNL     1      35.534  61.783  45.749  1.00  0.00    -0.482 OA
ATOM      5  C   UNL     1      35.799  60.703  46.597  1.00  0.00     0.131 A 
ATOM      6  C   UNL     1      37.126  60.365  46.871  1.00  0.00     0.093 A 
ATOM      7  C   UNL     1      37.423  59.303  47.725  1.00  0.00     0.122 A 
ATOM      8  C   UNL     1      36.383  58.579  48.321  1.00  0.00     0.092 A 
ATOM      9  C   UNL     1      35.047  58.905  48.060  1.00  0.00     0.126 A 
ATOM     10  C   UNL     1      34.743  59.953  47.159  1.00  0.00     0.039 A 
ENDROOT
BRANCH   2  11
ATOM     11  O   UNL     1      31.899  61.677  45.423  1.00  0.00    -0.389 OA
ATOM     12  H   UNL     1      31.950  62.633  45.686  1.00  0.00     0.211 HD
ENDBRANCH   2  11
BRANCH   3  13
ATOM     13  C   UNL     1      34.163  63.119  44.298  1.00  0.00    -0.001 A 
ATOM     14  C   UNL     1      34.246  62.481  43.048  1.00  0.00     0.057 A 
ATOM     15  C   UNL     1      34.079  64.521  44.347  1.00  0.00     0.012 A 
ATOM     16  C   UNL     1      34.224  63.233  41.864  1.00  0.00     0.157 A 
ATOM     17  C   UNL     1      34.057  65.270  43.167  1.00  0.00     0.050 A 
ATOM     18  C   UNL     1      34.128  64.629  41.923  1.00  0.00     0.157 A 
BRANCH  16  19
ATOM     19  O   UNL     1      34.301  62.598  40.625  1.00  0.00    -0.504 OA
ATOM     20  H   UNL     1      34.775  61.710  40.513  1.00  0.00     0.293 HD
ENDBRANCH  16  19
BRANCH  18  21
ATOM     21  O   UNL     1      34.105  65.371  40.745  1.00  0.00    -0.504 OA
ATOM     22  H   UNL     1      34.513  65.018  39.887  1.00  0.00     0.293 HD
ENDBRANCH  18  21
ENDBRANCH   3  13
BRANCH   9  23
ATOM     23  O   UNL     1      34.053  58.177  48.718  1.00  0.00    -0.507 OA
ATOM     24  H   UNL     1      34.249  57.400  49.335  1.00  0.00     0.293 HD
ENDBRANCH   9  23
BRANCH   7  25
ATOM     25  O   UNL     1      38.752  58.979  47.985  1.00  0.00    -0.508 OA
ATOM     26  H   UNL     1      39.230  59.321  48.810  1.00  0.00     0.293 HD
ENDBRANCH   7  25
TORSDOF 6
ENDMDL
