MODEL 1
REMARK VINA RESULT:    -3.314      0.000      0.000
REMARK INTER + INTRA:          -9.059
REMARK INTER:                  -7.575
REMARK INTRA:                  -1.483
REMARK UNBOUND:                -1.483
REMARK SMILES CCCCCCCCCCCCCCCCCCCCCCCC(=O)[O-]
REMARK SMILES IDX 13 1 14 2 15 3 16 4 17 5 18 6 19 7 20 8 21 9 22 10 23 11
REMARK SMILES IDX 24 12 25 13 26 14 12 15 11 16 10 17 9 18 8 19 7 20 6 21 5 22
REMARK SMILES IDX 4 23 3 24 2 25 1 26
REMARK H PARENT
REMARK Flexibility Score: inf
ROOT
ATOM      1  C   UNL     1      -1.486  27.556  24.284  1.00  0.00     0.000 C 
ENDROOT
BRANCH   1   2
ATOM      2  C   UNL     1      -2.099  27.460  25.694  1.00  0.00     0.000 C 
BRANCH   2   3
ATOM      3  C   UNL     1      -3.382  26.611  25.791  1.00  0.00     0.000 C 
BRANCH   3   4
ATOM      4  C   UNL     1      -3.194  25.106  25.524  1.00  0.00     0.000 C 
BRANCH   4   5
ATOM      5  C   UNL     1      -4.055  24.223  26.444  1.00  0.00     0.000 C 
BRANCH   5   6
ATOM      6  C   UNL     1      -5.181  23.495  25.688  1.00  0.00     0.000 C 
BRANCH   6   7
ATOM      7  C   UNL     1      -6.294  22.896  26.574  1.00  0.00     0.000 C 
BRANCH   7   8
ATOM      8  C   UNL     1      -7.728  23.320  26.210  1.00  0.00     0.000 C 
BRANCH   8   9
ATOM      9  C   UNL     1      -8.790  22.326  26.709  1.00  0.00     0.000 C 
BRANCH   9  10
ATOM     10  C   UNL     1     -10.115  22.420  25.930  1.00  0.00     0.006 C 
BRANCH  10  11
ATOM     11  C   UNL     1      -9.961  22.245  24.408  1.00  0.00     0.053 C 
BRANCH  11  12
ATOM     12  C   UNL     1     -10.427  23.442  23.636  1.00  0.00     0.041 C 
ATOM     13  O   UNL     1     -11.465  23.376  22.925  1.00  0.00    -0.550 OA
ATOM     14  O   UNL     1      -9.694  24.621  23.672  1.00  0.00    -0.550 OA
ENDBRANCH  11  12
ENDBRANCH  10  11
ENDBRANCH   9  10
ENDBRANCH   8   9
ENDBRANCH   7   8
ENDBRANCH   6   7
ENDBRANCH   5   6
ENDBRANCH   4   5
ENDBRANCH   3   4
ENDBRANCH   2   3
ENDBRANCH   1   2
BRANCH   1  15
ATOM     15  C   UNL     1       0.027  27.272  24.208  1.00  0.00     0.000 C 
BRANCH  15  16
ATOM     16  C   UNL     1       0.450  26.243  23.143  1.00  0.00     0.000 C 
BRANCH  16  17
ATOM     17  C   UNL     1       1.684  26.687  22.337  1.00  0.00     0.000 C 
BRANCH  17  18
ATOM     18  C   UNL     1       1.368  26.952  20.854  1.00  0.00    -0.000 C 
BRANCH  18  19
ATOM     19  C   UNL     1      -0.086  27.362  20.553  1.00  0.00    -0.000 C 
BRANCH  19  20
ATOM     20  C   UNL     1      -0.295  27.802  19.094  1.00  0.00    -0.000 C 
BRANCH  20  21
ATOM     21  C   UNL     1      -0.789  26.656  18.195  1.00  0.00    -0.000 C 
BRANCH  21  22
ATOM     22  C   UNL     1       0.325  26.084  17.300  1.00  0.00    -0.000 C 
BRANCH  22  23
ATOM     23  C   UNL     1       0.452  24.555  17.412  1.00  0.00    -0.000 C 
BRANCH  23  24
ATOM     24  C   UNL     1       0.690  24.022  18.838  1.00  0.00    -0.000 C 
BRANCH  24  25
ATOM     25  C   UNL     1      -0.042  22.698  19.139  1.00  0.00    -0.003 C 
ATOM     26  C   UNL     1       0.210  22.202  20.562  1.00  0.00     0.004 C 
ENDBRANCH  24  25
ENDBRANCH  23  24
ENDBRANCH  22  23
ENDBRANCH  21  22
ENDBRANCH  20  21
ENDBRANCH  19  20
ENDBRANCH  18  19
ENDBRANCH  17  18
ENDBRANCH  16  17
ENDBRANCH  15  16
ENDBRANCH   1  15
TORSDOF 22
ENDMDL
MODEL 2
REMARK VINA RESULT:    -3.297      3.883      9.633
REMARK INTER + INTRA:          -9.021
REMARK INTER:                  -7.914
REMARK INTRA:                  -1.107
REMARK UNBOUND:                -1.483
REMARK SMILES CCCCCCCCCCCCCCCCCCCCCCCC(=O)[O-]
REMARK SMILES IDX 13 1 14 2 15 3 16 4 17 5 18 6 19 7 20 8 21 9 22 10 23 11
REMARK SMILES IDX 24 12 25 13 26 14 12 15 11 16 10 17 9 18 8 19 7 20 6 21 5 22
REMARK SMILES IDX 4 23 3 24 2 25 1 26
REMARK H PARENT
REMARK Flexibility Score: inf
ROOT
ATOM      1  C   UNL     1      -2.911  27.370  25.286  1.00  0.00     0.000 C 
ENDROOT
BRANCH   1   2
ATOM      2  C   UNL     1      -1.535  27.840  25.795  1.00  0.00     0.000 C 
BRANCH   2   3
ATOM      3  C   UNL     1      -0.494  28.125  24.693  1.00  0.00     0.000 C 
BRANCH   3   4
ATOM      4  C   UNL     1       0.964  27.808  25.071  1.00  0.00     0.000 C 
BRANCH   4   5
ATOM      5  C   UNL     1       1.536  26.610  24.294  1.00  0.00     0.000 C 
BRANCH   5   6
ATOM      6  C   UNL     1       0.523  25.998  23.310  1.00  0.00     0.000 C 
BRANCH   6   7
ATOM      7  C   UNL     1       0.898  24.609  22.751  1.00  0.00     0.000 C 
BRANCH   7   8
ATOM      8  C   UNL     1       0.057  23.434  23.279  1.00  0.00     0.000 C 
BRANCH   8   9
ATOM      9  C   UNL     1      -0.149  22.327  22.232  1.00  0.00     0.000 C 
BRANCH   9  10
ATOM     10  C   UNL     1       0.506  22.653  20.877  1.00  0.00     0.006 C 
BRANCH  10  11
ATOM     11  C   UNL     1       0.398  21.520  19.840  1.00  0.00     0.053 C 
BRANCH  11  12
ATOM     12  C   UNL     1       0.086  22.021  18.462  1.00  0.00     0.041 C 
ATOM     13  O   UNL     1      -0.462  21.263  17.618  1.00  0.00    -0.550 OA
ATOM     14  O   UNL     1       0.434  23.316  18.098  1.00  0.00    -0.550 OA
ENDBRANCH  11  12
ENDBRANCH  10  11
ENDBRANCH   9  10
ENDBRANCH   8   9
ENDBRANCH   7   8
ENDBRANCH   6   7
ENDBRANCH   5   6
ENDBRANCH   4   5
ENDBRANCH   3   4
ENDBRANCH   2   3
ENDBRANCH   1   2
BRANCH   1  15
ATOM     15  C   UNL     1      -3.646  26.380  26.212  1.00  0.00     0.000 C 
BRANCH  15  16
ATOM     16  C   UNL     1      -3.464  24.892  25.861  1.00  0.00     0.000 C 
BRANCH  16  17
ATOM     17  C   UNL     1      -4.791  24.186  25.531  1.00  0.00     0.000 C 
BRANCH  17  18
ATOM     18  C   UNL     1      -5.266  23.247  26.655  1.00  0.00    -0.000 C 
BRANCH  18  19
ATOM     19  C   UNL     1      -6.572  22.482  26.366  1.00  0.00    -0.000 C 
BRANCH  19  20
ATOM     20  C   UNL     1      -7.828  23.267  26.779  1.00  0.00    -0.000 C 
BRANCH  20  21
ATOM     21  C   UNL     1      -8.835  23.423  25.627  1.00  0.00    -0.000 C 
BRANCH  21  22
ATOM     22  C   UNL     1      -9.611  22.124  25.340  1.00  0.00    -0.000 C 
BRANCH  22  23
ATOM     23  C   UNL     1     -10.765  22.328  24.344  1.00  0.00    -0.000 C 
BRANCH  23  24
ATOM     24  C   UNL     1     -10.547  23.455  23.315  1.00  0.00    -0.000 C 
BRANCH  24  25
ATOM     25  C   UNL     1     -11.804  23.795  22.488  1.00  0.00    -0.003 C 
ATOM     26  C   UNL     1     -11.704  23.305  21.044  1.00  0.00     0.004 C 
ENDBRANCH  24  25
ENDBRANCH  23  24
ENDBRANCH  22  23
ENDBRANCH  21  22
ENDBRANCH  20  21
ENDBRANCH  19  20
ENDBRANCH  18  19
ENDBRANCH  17  18
ENDBRANCH  16  17
ENDBRANCH  15  16
ENDBRANCH   1  15
TORSDOF 22
ENDMDL
MODEL 3
REMARK VINA RESULT:    -3.153      1.097      1.854
REMARK INTER + INTRA:          -8.691
REMARK INTER:                  -7.084
REMARK INTRA:                  -1.607
REMARK UNBOUND:                -1.483
REMARK SMILES CCCCCCCCCCCCCCCCCCCCCCCC(=O)[O-]
REMARK SMILES IDX 13 1 14 2 15 3 16 4 17 5 18 6 19 7 20 8 21 9 22 10 23 11
REMARK SMILES IDX 24 12 25 13 26 14 12 15 11 16 10 17 9 18 8 19 7 20 6 21 5 22
REMARK SMILES IDX 4 23 3 24 2 25 1 26
REMARK H PARENT
REMARK Flexibility Score: inf
ROOT
ATOM      1  C   UNL     1      -1.264  26.871  23.767  1.00  0.00     0.000 C 
ENDROOT
BRANCH   1   2
ATOM      2  C   UNL     1      -1.966  27.594  24.933  1.00  0.00     0.000 C 
BRANCH   2   3
ATOM      3  C   UNL     1      -3.054  26.770  25.650  1.00  0.00     0.000 C 
BRANCH   3   4
ATOM      4  C   UNL     1      -2.933  25.244  25.489  1.00  0.00     0.000 C 
BRANCH   4   5
ATOM      5  C   UNL     1      -3.891  24.467  26.409  1.00  0.00     0.000 C 
BRANCH   5   6
ATOM      6  C   UNL     1      -4.976  23.702  25.629  1.00  0.00     0.000 C 
BRANCH   6   7
ATOM      7  C   UNL     1      -5.974  22.904  26.494  1.00  0.00     0.000 C 
BRANCH   7   8
ATOM      8  C   UNL     1      -7.443  23.355  26.395  1.00  0.00     0.000 C 
BRANCH   8   9
ATOM      9  C   UNL     1      -8.437  22.193  26.561  1.00  0.00     0.000 C 
BRANCH   9  10
ATOM     10  C   UNL     1      -9.841  22.521  26.019  1.00  0.00     0.006 C 
BRANCH  10  11
ATOM     11  C   UNL     1     -10.025  22.204  24.524  1.00  0.00     0.053 C 
BRANCH  11  12
ATOM     12  C   UNL     1     -10.485  23.390  23.731  1.00  0.00     0.041 C 
ATOM     13  O   UNL     1      -9.758  24.414  23.639  1.00  0.00    -0.550 OA
ATOM     14  O   UNL     1     -11.734  23.378  23.124  1.00  0.00    -0.550 OA
ENDBRANCH  11  12
ENDBRANCH  10  11
ENDBRANCH   9  10
ENDBRANCH   8   9
ENDBRANCH   7   8
ENDBRANCH   6   7
ENDBRANCH   5   6
ENDBRANCH   4   5
ENDBRANCH   3   4
ENDBRANCH   2   3
ENDBRANCH   1   2
BRANCH   1  15
ATOM     15  C   UNL     1      -0.484  27.789  22.805  1.00  0.00     0.000 C 
BRANCH  15  16
ATOM     16  C   UNL     1       1.049  27.654  22.865  1.00  0.00     0.000 C 
BRANCH  16  17
ATOM     17  C   UNL     1       1.732  27.959  21.520  1.00  0.00     0.000 C 
BRANCH  17  18
ATOM     18  C   UNL     1       2.118  26.689  20.741  1.00  0.00    -0.000 C 
BRANCH  18  19
ATOM     19  C   UNL     1       1.604  26.624  19.290  1.00  0.00    -0.000 C 
BRANCH  19  20
ATOM     20  C   UNL     1       0.813  25.339  18.992  1.00  0.00    -0.000 C 
BRANCH  20  21
ATOM     21  C   UNL     1       1.639  24.302  18.213  1.00  0.00    -0.000 C 
BRANCH  21  22
ATOM     22  C   UNL     1       1.347  22.858  18.661  1.00  0.00    -0.000 C 
BRANCH  22  23
ATOM     23  C   UNL     1       0.127  22.758  19.592  1.00  0.00    -0.000 C 
BRANCH  23  24
ATOM     24  C   UNL     1       0.251  21.717  20.722  1.00  0.00    -0.000 C 
BRANCH  24  25
ATOM     25  C   UNL     1       0.035  22.301  22.133  1.00  0.00    -0.003 C 
ATOM     26  C   UNL     1       0.630  23.701  22.283  1.00  0.00     0.004 C 
ENDBRANCH  24  25
ENDBRANCH  23  24
ENDBRANCH  22  23
ENDBRANCH  21  22
ENDBRANCH  20  21
ENDBRANCH  19  20
ENDBRANCH  18  19
ENDBRANCH  17  18
ENDBRANCH  16  17
ENDBRANCH  15  16
ENDBRANCH   1  15
TORSDOF 22
ENDMDL
MODEL 4
REMARK VINA RESULT:    -2.923      4.375      7.929
REMARK INTER + INTRA:          -8.166
REMARK INTER:                  -6.436
REMARK INTRA:                  -1.730
REMARK UNBOUND:                -1.483
REMARK SMILES CCCCCCCCCCCCCCCCCCCCCCCC(=O)[O-]
REMARK SMILES IDX 13 1 14 2 15 3 16 4 17 5 18 6 19 7 20 8 21 9 22 10 23 11
REMARK SMILES IDX 24 12 25 13 26 14 12 15 11 16 10 17 9 18 8 19 7 20 6 21 5 22
REMARK SMILES IDX 4 23 3 24 2 25 1 26
REMARK H PARENT
REMARK Flexibility Score: inf
ROOT
ATOM      1  C   UNL     1       0.229  22.589  22.049  1.00  0.00     0.000 C 
ENDROOT
BRANCH   1   2
ATOM      2  C   UNL     1       0.412  23.843  22.926  1.00  0.00     0.000 C 
BRANCH   2   3
ATOM      3  C   UNL     1       1.603  24.742  22.537  1.00  0.00     0.000 C 
BRANCH   3   4
ATOM      4  C   UNL     1       1.252  25.941  21.639  1.00  0.00     0.000 C 
BRANCH   4   5
ATOM      5  C   UNL     1       1.232  27.276  22.404  1.00  0.00     0.000 C 
BRANCH   5   6
ATOM      6  C   UNL     1       1.785  27.152  23.835  1.00  0.00     0.000 C 
BRANCH   6   7
ATOM      7  C   UNL     1       1.058  27.997  24.902  1.00  0.00     0.000 C 
BRANCH   7   8
ATOM      8  C   UNL     1      -0.474  28.055  24.769  1.00  0.00     0.000 C 
BRANCH   8   9
ATOM      9  C   UNL     1      -1.155  26.721  25.120  1.00  0.00     0.000 C 
BRANCH   9  10
ATOM     10  C   UNL     1      -2.676  26.741  24.881  1.00  0.00     0.006 C 
BRANCH  10  11
ATOM     11  C   UNL     1      -3.487  25.974  25.941  1.00  0.00     0.053 C 
BRANCH  11  12
ATOM     12  C   UNL     1      -3.511  24.495  25.696  1.00  0.00     0.041 C 
ATOM     13  O   UNL     1      -2.522  23.922  25.166  1.00  0.00    -0.550 OA
ATOM     14  O   UNL     1      -4.641  23.755  26.019  1.00  0.00    -0.550 OA
ENDBRANCH  11  12
ENDBRANCH  10  11
ENDBRANCH   9  10
ENDBRANCH   8   9
ENDBRANCH   7   8
ENDBRANCH   6   7
ENDBRANCH   5   6
ENDBRANCH   4   5
ENDBRANCH   3   4
ENDBRANCH   2   3
ENDBRANCH   1   2
BRANCH   1  15
ATOM     15  C   UNL     1       0.831  22.688  20.633  1.00  0.00     0.000 C 
BRANCH  15  16
ATOM     16  C   UNL     1      -0.060  22.145  19.501  1.00  0.00     0.000 C 
BRANCH  16  17
ATOM     17  C   UNL     1       0.685  21.178  18.563  1.00  0.00     0.000 C 
BRANCH  17  18
ATOM     18  C   UNL     1       1.997  20.648  19.167  1.00  0.00    -0.000 C 
BRANCH  18  19
ATOM     19  C   UNL     1       2.085  19.116  19.310  1.00  0.00    -0.000 C 
BRANCH  19  20
ATOM     20  C   UNL     1       0.795  18.492  19.869  1.00  0.00    -0.000 C 
BRANCH  20  21
ATOM     21  C   UNL     1       0.239  17.375  18.971  1.00  0.00    -0.000 C 
BRANCH  21  22
ATOM     22  C   UNL     1       1.197  17.007  17.824  1.00  0.00    -0.000 C 
BRANCH  22  23
ATOM     23  C   UNL     1       1.770  15.586  17.958  1.00  0.00    -0.000 C 
BRANCH  23  24
ATOM     24  C   UNL     1       1.372  14.841  19.247  1.00  0.00    -0.000 C 
BRANCH  24  25
ATOM     25  C   UNL     1       0.982  13.366  19.020  1.00  0.00    -0.003 C 
ATOM     26  C   UNL     1       1.015  12.974  17.543  1.00  0.00     0.004 C 
ENDBRANCH  24  25
ENDBRANCH  23  24
ENDBRANCH  22  23
ENDBRANCH  21  22
ENDBRANCH  20  21
ENDBRANCH  19  20
ENDBRANCH  18  19
ENDBRANCH  17  18
ENDBRANCH  16  17
ENDBRANCH  15  16
ENDBRANCH   1  15
TORSDOF 22
ENDMDL
MODEL 5
REMARK VINA RESULT:    -2.896      2.008      3.210
REMARK INTER + INTRA:          -8.103
REMARK INTER:                  -7.186
REMARK INTRA:                  -0.917
REMARK UNBOUND:                -1.483
REMARK SMILES CCCCCCCCCCCCCCCCCCCCCCCC(=O)[O-]
REMARK SMILES IDX 13 1 14 2 15 3 16 4 17 5 18 6 19 7 20 8 21 9 22 10 23 11
REMARK SMILES IDX 24 12 25 13 26 14 12 15 11 16 10 17 9 18 8 19 7 20 6 21 5 22
REMARK SMILES IDX 4 23 3 24 2 25 1 26
REMARK H PARENT
REMARK Flexibility Score: inf
ROOT
ATOM      1  C   UNL     1      -0.871  27.864  23.102  1.00  0.00     0.000 C 
ENDROOT
BRANCH   1   2
ATOM      2  C   UNL     1      -1.422  26.921  24.188  1.00  0.00     0.000 C 
BRANCH   2   3
ATOM      3  C   UNL     1      -2.282  27.604  25.271  1.00  0.00     0.000 C 
BRANCH   3   4
ATOM      4  C   UNL     1      -3.120  26.649  26.140  1.00  0.00     0.000 C 
BRANCH   4   5
ATOM      5  C   UNL     1      -3.884  25.601  25.312  1.00  0.00     0.000 C 
BRANCH   5   6
ATOM      6  C   UNL     1      -3.615  24.160  25.781  1.00  0.00     0.000 C 
BRANCH   6   7
ATOM      7  C   UNL     1      -4.568  23.630  26.873  1.00  0.00     0.000 C 
BRANCH   7   8
ATOM      8  C   UNL     1      -5.802  22.866  26.361  1.00  0.00     0.000 C 
BRANCH   8   9
ATOM      9  C   UNL     1      -7.125  23.576  26.692  1.00  0.00     0.000 C 
BRANCH   9  10
ATOM     10  C   UNL     1      -8.360  22.819  26.170  1.00  0.00     0.006 C 
BRANCH  10  11
ATOM     11  C   UNL     1      -9.193  23.611  25.145  1.00  0.00     0.053 C 
BRANCH  11  12
ATOM     12  C   UNL     1     -10.163  22.748  24.395  1.00  0.00     0.041 C 
ATOM     13  O   UNL     1     -10.496  21.622  24.850  1.00  0.00    -0.550 OA
ATOM     14  O   UNL     1     -10.671  23.173  23.174  1.00  0.00    -0.550 OA
ENDBRANCH  11  12
ENDBRANCH  10  11
ENDBRANCH   9  10
ENDBRANCH   8   9
ENDBRANCH   7   8
ENDBRANCH   6   7
ENDBRANCH   5   6
ENDBRANCH   4   5
ENDBRANCH   3   4
ENDBRANCH   2   3
ENDBRANCH   1   2
BRANCH   1  15
ATOM     15  C   UNL     1       0.485  27.446  22.500  1.00  0.00     0.000 C 
BRANCH  15  16
ATOM     16  C   UNL     1       0.597  27.587  20.970  1.00  0.00     0.000 C 
BRANCH  16  17
ATOM     17  C   UNL     1       1.281  26.380  20.305  1.00  0.00     0.000 C 
BRANCH  17  18
ATOM     18  C   UNL     1       0.575  25.925  19.015  1.00  0.00    -0.000 C 
BRANCH  18  19
ATOM     19  C   UNL     1       0.496  24.400  18.810  1.00  0.00    -0.000 C 
BRANCH  19  20
ATOM     20  C   UNL     1       0.914  23.606  20.060  1.00  0.00    -0.000 C 
BRANCH  20  21
ATOM     21  C   UNL     1       0.222  22.236  20.150  1.00  0.00    -0.000 C 
BRANCH  21  22
ATOM     22  C   UNL     1       1.104  21.092  19.617  1.00  0.00    -0.000 C 
BRANCH  22  23
ATOM     23  C   UNL     1       0.625  19.706  20.081  1.00  0.00    -0.000 C 
BRANCH  23  24
ATOM     24  C   UNL     1       1.062  18.531  19.184  1.00  0.00    -0.000 C 
BRANCH  24  25
ATOM     25  C   UNL     1       0.267  18.423  17.867  1.00  0.00    -0.003 C 
ATOM     26  C   UNL     1      -0.588  17.158  17.803  1.00  0.00     0.004 C 
ENDBRANCH  24  25
ENDBRANCH  23  24
ENDBRANCH  22  23
ENDBRANCH  21  22
ENDBRANCH  20  21
ENDBRANCH  19  20
ENDBRANCH  18  19
ENDBRANCH  17  18
ENDBRANCH  16  17
ENDBRANCH  15  16
ENDBRANCH   1  15
TORSDOF 22
ENDMDL
MODEL 6
REMARK VINA RESULT:    -2.893      3.590     10.001
REMARK INTER + INTRA:          -8.098
REMARK INTER:                  -6.768
REMARK INTRA:                  -1.330
REMARK UNBOUND:                -1.483
REMARK SMILES CCCCCCCCCCCCCCCCCCCCCCCC(=O)[O-]
REMARK SMILES IDX 13 1 14 2 15 3 16 4 17 5 18 6 19 7 20 8 21 9 22 10 23 11
REMARK SMILES IDX 24 12 25 13 26 14 12 15 11 16 10 17 9 18 8 19 7 20 6 21 5 22
REMARK SMILES IDX 4 23 3 24 2 25 1 26
REMARK H PARENT
REMARK Flexibility Score: inf
ROOT
ATOM      1  C   UNL     1      -3.414  25.493  25.149  1.00  0.00     0.000 C 
ENDROOT
BRANCH   1   2
ATOM      2  C   UNL     1      -3.303  26.799  25.959  1.00  0.00     0.000 C 
BRANCH   2   3
ATOM      3  C   UNL     1      -2.373  27.867  25.350  1.00  0.00     0.000 C 
BRANCH   3   4
ATOM      4  C   UNL     1      -0.990  27.988  26.015  1.00  0.00     0.000 C 
BRANCH   4   5
ATOM      5  C   UNL     1       0.111  27.238  25.245  1.00  0.00     0.000 C 
BRANCH   5   6
ATOM      6  C   UNL     1       0.443  27.892  23.891  1.00  0.00     0.000 C 
BRANCH   6   7
ATOM      7  C   UNL     1       1.746  27.405  23.222  1.00  0.00     0.000 C 
BRANCH   7   8
ATOM      8  C   UNL     1       1.653  27.142  21.708  1.00  0.00     0.000 C 
BRANCH   8   9
ATOM      9  C   UNL     1       2.071  25.713  21.324  1.00  0.00     0.000 C 
BRANCH   9  10
ATOM     10  C   UNL     1       1.436  24.638  22.225  1.00  0.00     0.006 C 
BRANCH  10  11
ATOM     11  C   UNL     1       1.791  23.194  21.824  1.00  0.00     0.053 C 
BRANCH  11  12
ATOM     12  C   UNL     1       0.937  22.676  20.706  1.00  0.00     0.041 C 
ATOM     13  O   UNL     1      -0.082  21.979  20.955  1.00  0.00    -0.550 OA
ATOM     14  O   UNL     1       1.289  22.932  19.387  1.00  0.00    -0.550 OA
ENDBRANCH  11  12
ENDBRANCH  10  11
ENDBRANCH   9  10
ENDBRANCH   8   9
ENDBRANCH   7   8
ENDBRANCH   6   7
ENDBRANCH   5   6
ENDBRANCH   4   5
ENDBRANCH   3   4
ENDBRANCH   2   3
ENDBRANCH   1   2
BRANCH   1  15
ATOM     15  C   UNL     1      -3.112  24.205  25.941  1.00  0.00     0.000 C 
BRANCH  15  16
ATOM     16  C   UNL     1      -4.307  23.609  26.708  1.00  0.00     0.000 C 
BRANCH  16  17
ATOM     17  C   UNL     1      -5.598  23.574  25.871  1.00  0.00     0.000 C 
BRANCH  17  18
ATOM     18  C   UNL     1      -6.747  22.824  26.571  1.00  0.00    -0.000 C 
BRANCH  18  19
ATOM     19  C   UNL     1      -8.165  23.237  26.135  1.00  0.00    -0.000 C 
BRANCH  19  20
ATOM     20  C   UNL     1      -8.164  24.331  25.054  1.00  0.00    -0.000 C 
BRANCH  20  21
ATOM     21  C   UNL     1      -9.507  24.431  24.310  1.00  0.00    -0.000 C 
BRANCH  21  22
ATOM     22  C   UNL     1     -10.237  23.078  24.226  1.00  0.00    -0.000 C 
BRANCH  22  23
ATOM     23  C   UNL     1     -11.383  23.083  23.199  1.00  0.00    -0.000 C 
BRANCH  23  24
ATOM     24  C   UNL     1     -11.003  23.607  21.800  1.00  0.00    -0.000 C 
BRANCH  24  25
ATOM     25  C   UNL     1     -12.217  23.945  20.911  1.00  0.00    -0.003 C 
ATOM     26  C   UNL     1     -12.440  22.909  19.810  1.00  0.00     0.004 C 
ENDBRANCH  24  25
ENDBRANCH  23  24
ENDBRANCH  22  23
ENDBRANCH  21  22
ENDBRANCH  20  21
ENDBRANCH  19  20
ENDBRANCH  18  19
ENDBRANCH  17  18
ENDBRANCH  16  17
ENDBRANCH  15  16
ENDBRANCH   1  15
TORSDOF 22
ENDMDL
MODEL 7
REMARK VINA RESULT:    -2.807      1.206      2.127
REMARK INTER + INTRA:          -7.901
REMARK INTER:                  -6.004
REMARK INTRA:                  -1.897
REMARK UNBOUND:                -1.483
REMARK SMILES CCCCCCCCCCCCCCCCCCCCCCCC(=O)[O-]
REMARK SMILES IDX 13 1 14 2 15 3 16 4 17 5 18 6 19 7 20 8 21 9 22 10 23 11
REMARK SMILES IDX 24 12 25 13 26 14 12 15 11 16 10 17 9 18 8 19 7 20 6 21 5 22
REMARK SMILES IDX 4 23 3 24 2 25 1 26
REMARK H PARENT
REMARK Flexibility Score: inf
ROOT
ATOM      1  C   UNL     1      -0.355  24.604  24.009  1.00  0.00     0.000 C 
ENDROOT
BRANCH   1   2
ATOM      2  C   UNL     1      -0.377  26.097  24.385  1.00  0.00     0.000 C 
BRANCH   2   3
ATOM      3  C   UNL     1      -1.708  26.822  24.098  1.00  0.00     0.000 C 
BRANCH   3   4
ATOM      4  C   UNL     1      -2.371  27.482  25.321  1.00  0.00     0.000 C 
BRANCH   4   5
ATOM      5  C   UNL     1      -3.114  26.474  26.215  1.00  0.00     0.000 C 
BRANCH   5   6
ATOM      6  C   UNL     1      -4.002  25.507  25.413  1.00  0.00     0.000 C 
BRANCH   6   7
ATOM      7  C   UNL     1      -3.789  24.007  25.712  1.00  0.00     0.000 C 
BRANCH   7   8
ATOM      8  C   UNL     1      -4.833  23.364  26.642  1.00  0.00     0.000 C 
BRANCH   8   9
ATOM      9  C   UNL     1      -6.277  23.730  26.263  1.00  0.00     0.000 C 
BRANCH   9  10
ATOM     10  C   UNL     1      -7.245  22.536  26.355  1.00  0.00     0.006 C 
BRANCH  10  11
ATOM     11  C   UNL     1      -8.724  22.938  26.502  1.00  0.00     0.053 C 
BRANCH  11  12
ATOM     12  C   UNL     1      -9.478  22.861  25.209  1.00  0.00     0.041 C 
ATOM     13  O   UNL     1     -10.099  21.811  24.896  1.00  0.00    -0.550 OA
ATOM     14  O   UNL     1      -9.463  23.937  24.330  1.00  0.00    -0.550 OA
ENDBRANCH  11  12
ENDBRANCH  10  11
ENDBRANCH   9  10
ENDBRANCH   8   9
ENDBRANCH   7   8
ENDBRANCH   6   7
ENDBRANCH   5   6
ENDBRANCH   4   5
ENDBRANCH   3   4
ENDBRANCH   2   3
ENDBRANCH   1   2
BRANCH   1  15
ATOM     15  C   UNL     1       0.782  24.187  23.054  1.00  0.00     0.000 C 
BRANCH  15  16
ATOM     16  C   UNL     1       1.805  25.292  22.730  1.00  0.00     0.000 C 
BRANCH  16  17
ATOM     17  C   UNL     1       1.905  25.593  21.224  1.00  0.00     0.000 C 
BRANCH  17  18
ATOM     18  C   UNL     1       2.076  27.093  20.922  1.00  0.00    -0.000 C 
BRANCH  18  19
ATOM     19  C   UNL     1       1.013  27.702  19.987  1.00  0.00    -0.000 C 
BRANCH  19  20
ATOM     20  C   UNL     1      -0.043  26.679  19.535  1.00  0.00    -0.000 C 
BRANCH  20  21
ATOM     21  C   UNL     1      -0.106  26.529  18.006  1.00  0.00    -0.000 C 
BRANCH  21  22
ATOM     22  C   UNL     1       0.926  25.521  17.469  1.00  0.00    -0.000 C 
BRANCH  22  23
ATOM     23  C   UNL     1       0.410  24.072  17.490  1.00  0.00    -0.000 C 
BRANCH  23  24
ATOM     24  C   UNL     1       0.193  23.477  18.895  1.00  0.00    -0.000 C 
BRANCH  24  25
ATOM     25  C   UNL     1       0.006  21.945  18.901  1.00  0.00    -0.003 C 
ATOM     26  C   UNL     1       0.687  21.279  20.096  1.00  0.00     0.004 C 
ENDBRANCH  24  25
ENDBRANCH  23  24
ENDBRANCH  22  23
ENDBRANCH  21  22
ENDBRANCH  20  21
ENDBRANCH  19  20
ENDBRANCH  18  19
ENDBRANCH  17  18
ENDBRANCH  16  17
ENDBRANCH  15  16
ENDBRANCH   1  15
TORSDOF 22
ENDMDL
MODEL 8
REMARK VINA RESULT:    -2.767      6.180      8.896
REMARK INTER + INTRA:          -7.809
REMARK INTER:                  -4.897
REMARK INTRA:                  -2.912
REMARK UNBOUND:                -1.483
REMARK SMILES CCCCCCCCCCCCCCCCCCCCCCCC(=O)[O-]
REMARK SMILES IDX 13 1 14 2 15 3 16 4 17 5 18 6 19 7 20 8 21 9 22 10 23 11
REMARK SMILES IDX 24 12 25 13 26 14 12 15 11 16 10 17 9 18 8 19 7 20 6 21 5 22
REMARK SMILES IDX 4 23 3 24 2 25 1 26
REMARK H PARENT
REMARK Flexibility Score: inf
ROOT
ATOM      1  C   UNL     1      -0.109  22.692  22.911  1.00  0.00     0.000 C 
ENDROOT
BRANCH   1   2
ATOM      2  C   UNL     1       0.773  23.552  21.986  1.00  0.00     0.000 C 
BRANCH   2   3
ATOM      3  C   UNL     1       1.740  22.758  21.084  1.00  0.00     0.000 C 
BRANCH   3   4
ATOM      4  C   UNL     1       1.490  22.900  19.571  1.00  0.00     0.000 C 
BRANCH   4   5
ATOM      5  C   UNL     1       0.025  22.640  19.180  1.00  0.00     0.000 C 
BRANCH   5   6
ATOM      6  C   UNL     1      -0.110  21.703  17.966  1.00  0.00     0.000 C 
BRANCH   6   7
ATOM      7  C   UNL     1       1.175  20.948  17.565  1.00  0.00     0.000 C 
BRANCH   7   8
ATOM      8  C   UNL     1       1.172  19.437  17.857  1.00  0.00     0.000 C 
BRANCH   8   9
ATOM      9  C   UNL     1       0.754  19.108  19.300  1.00  0.00     0.000 C 
BRANCH   9  10
ATOM     10  C   UNL     1       0.268  17.657  19.470  1.00  0.00     0.006 C 
BRANCH  10  11
ATOM     11  C   UNL     1       1.364  16.679  19.931  1.00  0.00     0.053 C 
BRANCH  11  12
ATOM     12  C   UNL     1       1.386  15.412  19.132  1.00  0.00     0.041 C 
ATOM     13  O   UNL     1       1.341  15.452  17.874  1.00  0.00    -0.550 OA
ATOM     14  O   UNL     1       1.417  14.183  19.779  1.00  0.00    -0.550 OA
ENDBRANCH  11  12
ENDBRANCH  10  11
ENDBRANCH   9  10
ENDBRANCH   8   9
ENDBRANCH   7   8
ENDBRANCH   6   7
ENDBRANCH   5   6
ENDBRANCH   4   5
ENDBRANCH   3   4
ENDBRANCH   2   3
ENDBRANCH   1   2
BRANCH   1  15
ATOM     15  C   UNL     1      -0.779  23.457  24.070  1.00  0.00     0.000 C 
BRANCH  15  16
ATOM     16  C   UNL     1      -0.183  24.844  24.374  1.00  0.00     0.000 C 
BRANCH  16  17
ATOM     17  C   UNL     1      -1.244  25.959  24.399  1.00  0.00     0.000 C 
BRANCH  17  18
ATOM     18  C   UNL     1      -0.640  27.356  24.635  1.00  0.00    -0.000 C 
BRANCH  18  19
ATOM     19  C   UNL     1      -0.188  28.102  23.366  1.00  0.00    -0.000 C 
BRANCH  19  20
ATOM     20  C   UNL     1       1.305  27.903  23.055  1.00  0.00    -0.000 C 
BRANCH  20  21
ATOM     21  C   UNL     1       1.541  27.145  21.738  1.00  0.00    -0.000 C 
BRANCH  21  22
ATOM     22  C   UNL     1       0.265  27.035  20.883  1.00  0.00    -0.000 C 
BRANCH  22  23
ATOM     23  C   UNL     1       0.548  27.146  19.375  1.00  0.00    -0.000 C 
BRANCH  23  24
ATOM     24  C   UNL     1       1.947  26.673  18.936  1.00  0.00    -0.000 C 
BRANCH  24  25
ATOM     25  C   UNL     1       1.960  25.936  17.581  1.00  0.00    -0.003 C 
ATOM     26  C   UNL     1       0.552  25.673  17.047  1.00  0.00     0.004 C 
ENDBRANCH  24  25
ENDBRANCH  23  24
ENDBRANCH  22  23
ENDBRANCH  21  22
ENDBRANCH  20  21
ENDBRANCH  19  20
ENDBRANCH  18  19
ENDBRANCH  17  18
ENDBRANCH  16  17
ENDBRANCH  15  16
ENDBRANCH   1  15
TORSDOF 22
ENDMDL
