MODEL 1
REMARK VINA RESULT:    -6.567      0.000      0.000
REMARK INTER + INTRA:          -8.460
REMARK INTER:                  -8.103
REMARK INTRA:                  -0.357
REMARK UNBOUND:                -0.357
REMARK SMILES COc1cc(-c2oc3cc(O)cc(O)c3c(=O)c2O)ccc1O
REMARK SMILES IDX 6 1 18 2 16 3 17 4 15 5 13 6 12 7 10 8 9 9 8 10 7 11 5 12
REMARK SMILES IDX 3 13 22 14 4 15 21 16 20 17 2 18 1 19 23 20 19 22 14 24
REMARK SMILES IDX 11 26
REMARK H PARENT 23 21 19 23 14 25 11 27
REMARK Flexibility Score: inf
ROOT
ATOM      1  C   UNL     1     479.643  37.693 459.520  1.00  0.00     0.180 A 
ATOM      2  C   UNL     1     478.898  38.794 459.976  1.00  0.00     0.208 A 
ATOM      3  C   UNL     1     477.851  38.578 460.885  1.00  0.00     0.238 A 
ATOM      4  O   UNL     1     477.223  39.574 461.332  1.00  0.00    -0.285 OA
ATOM      5  C   UNL     1     477.551  37.263 461.316  1.00  0.00     0.111 A 
ATOM      6  C   UNL     1     476.487  36.924 462.204  1.00  0.00     0.134 A 
ATOM      7  C   UNL     1     476.364  35.607 462.663  1.00  0.00     0.093 A 
ATOM      8  C   UNL     1     477.225  34.605 462.217  1.00  0.00     0.123 A 
ATOM      9  C   UNL     1     478.233  34.914 461.303  1.00  0.00     0.094 A 
ATOM     10  C   UNL     1     478.403  36.226 460.853  1.00  0.00     0.146 A 
ATOM     11  O   UNL     1     479.380  36.480 459.991  1.00  0.00    -0.452 OA
ENDROOT
BRANCH   1  12
ATOM     12  C   UNL     1     480.745  37.839 458.542  1.00  0.00     0.025 A 
ATOM     13  C   UNL     1     483.049  38.443 457.986  1.00  0.00     0.161 A 
ATOM     14  C   UNL     1     482.792  38.154 456.639  1.00  0.00     0.157 A 
ATOM     15  C   UNL     1     482.018  38.291 458.934  1.00  0.00     0.062 A 
ATOM     16  C   UNL     1     481.520  37.725 456.242  1.00  0.00     0.051 A 
ATOM     17  C   UNL     1     480.501  37.576 457.185  1.00  0.00     0.016 A 
BRANCH  13  18
ATOM     18  O   UNL     1     484.334  38.881 458.343  1.00  0.00    -0.493 OA
ATOM     19  C   UNL     1     485.040  38.452 459.502  1.00  0.00     0.278 C 
ENDBRANCH  13  18
BRANCH  14  20
ATOM     20  O   UNL     1     483.810  38.299 455.697  1.00  0.00    -0.504 OA
ATOM     21  H   UNL     1     483.865  39.115 455.098  1.00  0.00     0.293 HD
ENDBRANCH  14  20
ENDBRANCH   1  12
BRANCH   2  22
ATOM     22  O   UNL     1     479.225  40.086 459.556  1.00  0.00    -0.502 OA
ATOM     23  H   UNL     1     478.547  40.710 459.135  1.00  0.00     0.293 HD
ENDBRANCH   2  22
BRANCH   6  24
ATOM     24  O   UNL     1     475.515  37.830 462.639  1.00  0.00    -0.507 OA
ATOM     25  H   UNL     1     474.941  38.393 462.031  1.00  0.00     0.293 HD
ENDBRANCH   6  24
BRANCH   8  26
ATOM     26  O   UNL     1     477.064  33.302 462.683  1.00  0.00    -0.508 OA
ATOM     27  H   UNL     1     477.495  32.514 462.214  1.00  0.00     0.293 HD
ENDBRANCH   8  26
TORSDOF 6
ENDMDL
MODEL 2
REMARK VINA RESULT:    -6.208      0.755      2.065
REMARK INTER + INTRA:          -8.017
REMARK INTER:                  -7.643
REMARK INTRA:                  -0.374
REMARK UNBOUND:                -0.357
REMARK SMILES COc1cc(-c2oc3cc(O)cc(O)c3c(=O)c2O)ccc1O
REMARK SMILES IDX 6 1 18 2 16 3 17 4 15 5 13 6 12 7 10 8 9 9 8 10 7 11 5 12
REMARK SMILES IDX 3 13 22 14 4 15 21 16 20 17 2 18 1 19 23 20 19 22 14 24
REMARK SMILES IDX 11 26
REMARK H PARENT 23 21 19 23 14 25 11 27
REMARK Flexibility Score: inf
ROOT
ATOM      1  C   UNL     1     479.591  37.790 459.533  1.00  0.00     0.180 A 
ATOM      2  C   UNL     1     478.829  38.881 459.986  1.00  0.00     0.208 A 
ATOM      3  C   UNL     1     477.783  38.651 460.892  1.00  0.00     0.238 A 
ATOM      4  O   UNL     1     477.139  39.638 461.336  1.00  0.00    -0.285 OA
ATOM      5  C   UNL     1     477.499  37.332 461.322  1.00  0.00     0.111 A 
ATOM      6  C   UNL     1     476.437  36.979 462.207  1.00  0.00     0.134 A 
ATOM      7  C   UNL     1     476.331  35.661 462.667  1.00  0.00     0.093 A 
ATOM      8  C   UNL     1     477.207  34.670 462.225  1.00  0.00     0.123 A 
ATOM      9  C   UNL     1     478.213  34.993 461.313  1.00  0.00     0.094 A 
ATOM     10  C   UNL     1     478.367  36.307 460.863  1.00  0.00     0.146 A 
ATOM     11  O   UNL     1     479.343  36.574 460.004  1.00  0.00    -0.452 OA
ENDROOT
BRANCH   1  12
ATOM     12  C   UNL     1     480.693  37.950 458.558  1.00  0.00     0.025 A 
ATOM     13  C   UNL     1     481.567  37.838 456.275  1.00  0.00     0.161 A 
ATOM     14  C   UNL     1     482.831  38.215 456.749  1.00  0.00     0.157 A 
ATOM     15  C   UNL     1     480.501  37.700 457.187  1.00  0.00     0.062 A 
ATOM     16  C   UNL     1     483.031  38.442 458.115  1.00  0.00     0.051 A 
ATOM     17  C   UNL     1     481.972  38.304 459.015  1.00  0.00     0.016 A 
BRANCH  13  18
ATOM     18  O   UNL     1     481.409  37.607 454.899  1.00  0.00    -0.493 OA
ATOM     19  C   UNL     1     480.177  37.733 454.197  1.00  0.00     0.278 C 
ENDBRANCH  13  18
BRANCH  14  20
ATOM     20  O   UNL     1     483.888  38.356 455.851  1.00  0.00    -0.504 OA
ATOM     21  H   UNL     1     483.728  38.554 454.870  1.00  0.00     0.293 HD
ENDBRANCH  14  20
ENDBRANCH   1  12
BRANCH   2  22
ATOM     22  O   UNL     1     479.139  40.177 459.565  1.00  0.00    -0.502 OA
ATOM     23  H   UNL     1     478.889  40.999 460.103  1.00  0.00     0.293 HD
ENDBRANCH   2  22
BRANCH   6  24
ATOM     24  O   UNL     1     475.451  37.872 462.639  1.00  0.00    -0.507 OA
ATOM     25  H   UNL     1     474.931  38.489 462.035  1.00  0.00     0.293 HD
ENDBRANCH   6  24
BRANCH   8  26
ATOM     26  O   UNL     1     477.063  33.366 462.691  1.00  0.00    -0.508 OA
ATOM     27  H   UNL     1     477.216  32.567 462.087  1.00  0.00     0.293 HD
ENDBRANCH   8  26
TORSDOF 6
ENDMDL
MODEL 3
REMARK VINA RESULT:    -5.938      1.530      7.225
REMARK INTER + INTRA:          -7.683
REMARK INTER:                  -7.296
REMARK INTRA:                  -0.388
REMARK UNBOUND:                -0.357
REMARK SMILES COc1cc(-c2oc3cc(O)cc(O)c3c(=O)c2O)ccc1O
REMARK SMILES IDX 6 1 18 2 16 3 17 4 15 5 13 6 12 7 10 8 9 9 8 10 7 11 5 12
REMARK SMILES IDX 3 13 22 14 4 15 21 16 20 17 2 18 1 19 23 20 19 22 14 24
REMARK SMILES IDX 11 26
REMARK H PARENT 23 21 19 23 14 25 11 27
REMARK Flexibility Score: inf
ROOT
ATOM      1  C   UNL     1     480.415  38.325 459.629  1.00  0.00     0.180 A 
ATOM      2  C   UNL     1     480.523  38.034 458.258  1.00  0.00     0.208 A 
ATOM      3  C   UNL     1     481.781  38.116 457.641  1.00  0.00     0.238 A 
ATOM      4  O   UNL     1     481.881  37.802 456.426  1.00  0.00    -0.285 OA
ATOM      5  C   UNL     1     482.914  38.503 458.399  1.00  0.00     0.111 A 
ATOM      6  C   UNL     1     484.229  38.657 457.868  1.00  0.00     0.134 A 
ATOM      7  C   UNL     1     485.297  38.917 458.735  1.00  0.00     0.093 A 
ATOM      8  C   UNL     1     485.090  39.093 460.103  1.00  0.00     0.123 A 
ATOM      9  C   UNL     1     483.798  39.003 460.624  1.00  0.00     0.094 A 
ATOM     10  C   UNL     1     482.717  38.709 459.789  1.00  0.00     0.146 A 
ATOM     11  O   UNL     1     481.506  38.622 460.326  1.00  0.00    -0.452 OA
ENDROOT
BRANCH   1  12
ATOM     12  C   UNL     1     479.119  38.285 460.342  1.00  0.00     0.025 A 
ATOM     13  C   UNL     1     477.417  37.085 461.626  1.00  0.00     0.161 A 
ATOM     14  C   UNL     1     476.623  38.241 461.639  1.00  0.00     0.157 A 
ATOM     15  C   UNL     1     478.663  37.111 460.968  1.00  0.00     0.062 A 
ATOM     16  C   UNL     1     477.064  39.404 460.998  1.00  0.00     0.051 A 
ATOM     17  C   UNL     1     478.300  39.425 460.348  1.00  0.00     0.016 A 
BRANCH  13  18
ATOM     18  O   UNL     1     476.935  35.935 462.270  1.00  0.00    -0.493 OA
ATOM     19  C   UNL     1     477.361  34.609 461.978  1.00  0.00     0.278 C 
ENDBRANCH  13  18
BRANCH  14  20
ATOM     20  O   UNL     1     475.391  38.222 462.291  1.00  0.00    -0.504 OA
ATOM     21  H   UNL     1     475.325  38.258 463.302  1.00  0.00     0.293 HD
ENDBRANCH  14  20
ENDBRANCH   1  12
BRANCH   2  22
ATOM     22  O   UNL     1     479.397  37.633 457.534  1.00  0.00    -0.502 OA
ATOM     23  H   UNL     1     479.453  37.302 456.579  1.00  0.00     0.293 HD
ENDBRANCH   2  22
BRANCH   6  24
ATOM     24  O   UNL     1     484.533  38.593 456.505  1.00  0.00    -0.507 OA
ATOM     25  H   UNL     1     485.183  39.202 456.032  1.00  0.00     0.293 HD
ENDBRANCH   6  24
BRANCH   8  26
ATOM     26  O   UNL     1     486.173  39.366 460.934  1.00  0.00    -0.508 OA
ATOM     27  H   UNL     1     487.005  38.787 460.928  1.00  0.00     0.293 HD
ENDBRANCH   8  26
TORSDOF 6
ENDMDL
MODEL 4
REMARK VINA RESULT:    -5.854      1.727      7.152
REMARK INTER + INTRA:          -7.579
REMARK INTER:                  -7.209
REMARK INTRA:                  -0.370
REMARK UNBOUND:                -0.357
REMARK SMILES COc1cc(-c2oc3cc(O)cc(O)c3c(=O)c2O)ccc1O
REMARK SMILES IDX 6 1 18 2 16 3 17 4 15 5 13 6 12 7 10 8 9 9 8 10 7 11 5 12
REMARK SMILES IDX 3 13 22 14 4 15 21 16 20 17 2 18 1 19 23 20 19 22 14 24
REMARK SMILES IDX 11 26
REMARK H PARENT 23 21 19 23 14 25 11 27
REMARK Flexibility Score: inf
ROOT
ATOM      1  C   UNL     1     480.294  37.938 459.286  1.00  0.00     0.180 A 
ATOM      2  C   UNL     1     479.999  38.526 458.044  1.00  0.00     0.208 A 
ATOM      3  C   UNL     1     481.019  39.192 457.347  1.00  0.00     0.238 A 
ATOM      4  O   UNL     1     480.763  39.669 456.210  1.00  0.00    -0.285 OA
ATOM      5  C   UNL     1     482.317  39.276 457.907  1.00  0.00     0.111 A 
ATOM      6  C   UNL     1     483.416  39.961 457.307  1.00  0.00     0.134 A 
ATOM      7  C   UNL     1     484.687  39.868 457.886  1.00  0.00     0.093 A 
ATOM      8  C   UNL     1     484.887  39.172 459.078  1.00  0.00     0.123 A 
ATOM      9  C   UNL     1     483.807  38.549 459.705  1.00  0.00     0.094 A 
ATOM     10  C   UNL     1     482.534  38.593 459.132  1.00  0.00     0.146 A 
ATOM     11  O   UNL     1     481.535  37.978 459.755  1.00  0.00    -0.452 OA
ENDROOT
BRANCH   1  12
ATOM     12  C   UNL     1     479.265  37.242 460.091  1.00  0.00     0.025 A 
ATOM     13  C   UNL     1     477.370  37.277 461.638  1.00  0.00     0.161 A 
ATOM     14  C   UNL     1     477.362  35.875 461.649  1.00  0.00     0.157 A 
ATOM     15  C   UNL     1     478.330  37.957 460.862  1.00  0.00     0.062 A 
ATOM     16  C   UNL     1     478.306  35.162 460.901  1.00  0.00     0.051 A 
ATOM     17  C   UNL     1     479.255  35.839 460.133  1.00  0.00     0.016 A 
BRANCH  13  18
ATOM     18  O   UNL     1     476.415  37.958 462.410  1.00  0.00    -0.493 OA
ATOM     19  C   UNL     1     475.584  39.007 461.925  1.00  0.00     0.278 C 
ENDBRANCH  13  18
BRANCH  14  20
ATOM     20  O   UNL     1     476.413  35.198 462.412  1.00  0.00    -0.504 OA
ATOM     21  H   UNL     1     476.149  35.519 463.336  1.00  0.00     0.293 HD
ENDBRANCH  14  20
ENDBRANCH   1  12
BRANCH   2  22
ATOM     22  O   UNL     1     478.717  38.412 457.499  1.00  0.00    -0.502 OA
ATOM     23  H   UNL     1     477.877  38.507 458.057  1.00  0.00     0.293 HD
ENDBRANCH   2  22
BRANCH   6  24
ATOM     24  O   UNL     1     483.307  40.762 456.165  1.00  0.00    -0.507 OA
ATOM     25  H   UNL     1     483.994  41.437 455.870  1.00  0.00     0.293 HD
ENDBRANCH   6  24
BRANCH   8  26
ATOM     26  O   UNL     1     486.162  39.114 459.635  1.00  0.00    -0.508 OA
ATOM     27  H   UNL     1     486.626  38.230 459.806  1.00  0.00     0.293 HD
ENDBRANCH   8  26
TORSDOF 6
ENDMDL
MODEL 5
REMARK VINA RESULT:    -5.756      1.164      2.898
REMARK INTER + INTRA:          -7.459
REMARK INTER:                  -7.105
REMARK INTRA:                  -0.354
REMARK UNBOUND:                -0.357
REMARK SMILES COc1cc(-c2oc3cc(O)cc(O)c3c(=O)c2O)ccc1O
REMARK SMILES IDX 6 1 18 2 16 3 17 4 15 5 13 6 12 7 10 8 9 9 8 10 7 11 5 12
REMARK SMILES IDX 3 13 22 14 4 15 21 16 20 17 2 18 1 19 23 20 19 22 14 24
REMARK SMILES IDX 11 26
REMARK H PARENT 23 21 19 23 14 25 11 27
REMARK Flexibility Score: inf
ROOT
ATOM      1  C   UNL     1     479.621  37.486 459.455  1.00  0.00     0.180 A 
ATOM      2  C   UNL     1     479.272  36.215 459.945  1.00  0.00     0.208 A 
ATOM      3  C   UNL     1     478.191  36.101 460.832  1.00  0.00     0.238 A 
ATOM      4  O   UNL     1     477.849  34.954 461.225  1.00  0.00    -0.285 OA
ATOM      5  C   UNL     1     477.481  37.259 461.231  1.00  0.00     0.111 A 
ATOM      6  C   UNL     1     476.394  37.265 462.156  1.00  0.00     0.134 A 
ATOM      7  C   UNL     1     475.682  38.450 462.378  1.00  0.00     0.093 A 
ATOM      8  C   UNL     1     476.057  39.643 461.760  1.00  0.00     0.123 A 
ATOM      9  C   UNL     1     477.155  39.660 460.898  1.00  0.00     0.094 A 
ATOM     10  C   UNL     1     477.863  38.487 460.629  1.00  0.00     0.146 A 
ATOM     11  O   UNL     1     478.895  38.544 459.797  1.00  0.00    -0.452 OA
ENDROOT
BRANCH   1  12
ATOM     12  C   UNL     1     480.764  37.689 458.537  1.00  0.00     0.025 A 
ATOM     13  C   UNL     1     483.073  38.376 458.111  1.00  0.00     0.161 A 
ATOM     14  C   UNL     1     482.892  38.112 456.747  1.00  0.00     0.157 A 
ATOM     15  C   UNL     1     482.001  38.169 459.003  1.00  0.00     0.062 A 
ATOM     16  C   UNL     1     481.655  37.655 456.277  1.00  0.00     0.051 A 
ATOM     17  C   UNL     1     480.596  37.452 457.164  1.00  0.00     0.016 A 
BRANCH  13  18
ATOM     18  O   UNL     1     484.324  38.844 458.542  1.00  0.00    -0.493 OA
ATOM     19  C   UNL     1     484.991  38.399 459.719  1.00  0.00     0.278 C 
ENDBRANCH  13  18
BRANCH  14  20
ATOM     20  O   UNL     1     483.950  38.311 455.861  1.00  0.00    -0.504 OA
ATOM     21  H   UNL     1     484.914  38.191 456.151  1.00  0.00     0.293 HD
ENDBRANCH  14  20
ENDBRANCH   1  12
BRANCH   2  22
ATOM     22  O   UNL     1     479.972  35.082 459.521  1.00  0.00    -0.502 OA
ATOM     23  H   UNL     1     480.788  34.732 460.008  1.00  0.00     0.293 HD
ENDBRANCH   2  22
BRANCH   6  24
ATOM     24  O   UNL     1     475.995  36.149 462.899  1.00  0.00    -0.507 OA
ATOM     25  H   UNL     1     475.231  36.140 463.556  1.00  0.00     0.293 HD
ENDBRANCH   6  24
BRANCH   8  26
ATOM     26  O   UNL     1     475.336  40.806 462.015  1.00  0.00    -0.508 OA
ATOM     27  H   UNL     1     474.396  40.776 462.393  1.00  0.00     0.293 HD
ENDBRANCH   8  26
TORSDOF 6
ENDMDL
MODEL 6
REMARK VINA RESULT:    -5.471      2.114      7.235
REMARK INTER + INTRA:          -7.107
REMARK INTER:                  -6.760
REMARK INTRA:                  -0.348
REMARK UNBOUND:                -0.357
REMARK SMILES COc1cc(-c2oc3cc(O)cc(O)c3c(=O)c2O)ccc1O
REMARK SMILES IDX 6 1 18 2 16 3 17 4 15 5 13 6 12 7 10 8 9 9 8 10 7 11 5 12
REMARK SMILES IDX 3 13 22 14 4 15 21 16 20 17 2 18 1 19 23 20 19 22 14 24
REMARK SMILES IDX 11 26
REMARK H PARENT 23 21 19 23 14 25 11 27
REMARK Flexibility Score: inf
ROOT
ATOM      1  C   UNL     1     480.683  38.922 461.081  1.00  0.00     0.180 A 
ATOM      2  C   UNL     1     481.562  39.473 462.030  1.00  0.00     0.208 A 
ATOM      3  C   UNL     1     482.924  39.590 461.708  1.00  0.00     0.238 A 
ATOM      4  O   UNL     1     483.697  40.133 462.540  1.00  0.00    -0.285 OA
ATOM      5  C   UNL     1     483.392  39.140 460.449  1.00  0.00     0.111 A 
ATOM      6  C   UNL     1     484.757  39.174 460.033  1.00  0.00     0.134 A 
ATOM      7  C   UNL     1     485.086  38.824 458.718  1.00  0.00     0.093 A 
ATOM      8  C   UNL     1     484.113  38.381 457.825  1.00  0.00     0.123 A 
ATOM      9  C   UNL     1     482.783  38.288 458.239  1.00  0.00     0.094 A 
ATOM     10  C   UNL     1     482.417  38.664 459.534  1.00  0.00     0.146 A 
ATOM     11  O   UNL     1     481.141  38.570 459.886  1.00  0.00    -0.452 OA
ENDROOT
BRANCH   1  12
ATOM     12  C   UNL     1     479.239  38.743 461.357  1.00  0.00     0.025 A 
ATOM     13  C   UNL     1     477.329  37.329 461.935  1.00  0.00     0.161 A 
ATOM     14  C   UNL     1     476.481  38.439 461.820  1.00  0.00     0.157 A 
ATOM     15  C   UNL     1     478.709  37.485 461.696  1.00  0.00     0.062 A 
ATOM     16  C   UNL     1     477.003  39.688 461.461  1.00  0.00     0.051 A 
ATOM     17  C   UNL     1     478.372  39.838 461.225  1.00  0.00     0.016 A 
BRANCH  13  18
ATOM     18  O   UNL     1     476.766  36.091 462.285  1.00  0.00    -0.493 OA
ATOM     19  C   UNL     1     477.344  34.827 461.977  1.00  0.00     0.278 C 
ENDBRANCH  13  18
BRANCH  14  20
ATOM     20  O   UNL     1     475.116  38.291 462.059  1.00  0.00    -0.504 OA
ATOM     21  H   UNL     1     474.770  37.695 462.802  1.00  0.00     0.293 HD
ENDBRANCH  14  20
ENDBRANCH   1  12
BRANCH   2  22
ATOM     22  O   UNL     1     481.076  39.930 463.257  1.00  0.00    -0.502 OA
ATOM     23  H   UNL     1     480.349  39.445 463.770  1.00  0.00     0.293 HD
ENDBRANCH   2  22
BRANCH   6  24
ATOM     24  O   UNL     1     485.821  39.513 460.875  1.00  0.00    -0.507 OA
ATOM     25  H   UNL     1     485.746  40.111 461.683  1.00  0.00     0.293 HD
ENDBRANCH   6  24
BRANCH   8  26
ATOM     26  O   UNL     1     484.479  38.026 456.528  1.00  0.00    -0.508 OA
ATOM     27  H   UNL     1     484.752  38.723 455.845  1.00  0.00     0.293 HD
ENDBRANCH   8  26
TORSDOF 6
ENDMDL
MODEL 7
REMARK VINA RESULT:    -5.364      3.355      6.699
REMARK INTER + INTRA:          -6.975
REMARK INTER:                  -6.820
REMARK INTRA:                  -0.155
REMARK UNBOUND:                -0.357
REMARK SMILES COc1cc(-c2oc3cc(O)cc(O)c3c(=O)c2O)ccc1O
REMARK SMILES IDX 6 1 18 2 16 3 17 4 15 5 13 6 12 7 10 8 9 9 8 10 7 11 5 12
REMARK SMILES IDX 3 13 22 14 4 15 21 16 20 17 2 18 1 19 23 20 19 22 14 24
REMARK SMILES IDX 11 26
REMARK H PARENT 23 21 19 23 14 25 11 27
REMARK Flexibility Score: inf
ROOT
ATOM      1  C   UNL     1     484.166  39.840 459.854  1.00  0.00     0.180 A 
ATOM      2  C   UNL     1     484.686  39.245 458.691  1.00  0.00     0.208 A 
ATOM      3  C   UNL     1     483.828  38.505 457.863  1.00  0.00     0.238 A 
ATOM      4  O   UNL     1     484.287  38.020 456.796  1.00  0.00    -0.285 OA
ATOM      5  C   UNL     1     482.465  38.354 458.215  1.00  0.00     0.111 A 
ATOM      6  C   UNL     1     481.515  37.593 457.470  1.00  0.00     0.134 A 
ATOM      7  C   UNL     1     480.165  37.621 457.840  1.00  0.00     0.093 A 
ATOM      8  C   UNL     1     479.740  38.328 458.964  1.00  0.00     0.123 A 
ATOM      9  C   UNL     1     480.670  39.028 459.734  1.00  0.00     0.094 A 
ATOM     10  C   UNL     1     482.019  39.049 459.370  1.00  0.00     0.146 A 
ATOM     11  O   UNL     1     482.870  39.735 460.123  1.00  0.00    -0.452 OA
ENDROOT
BRANCH   1  12
ATOM     12  C   UNL     1     485.013  40.614 460.789  1.00  0.00     0.025 A 
ATOM     13  C   UNL     1     485.919  41.015 463.026  1.00  0.00     0.161 A 
ATOM     14  C   UNL     1     486.592  42.145 462.542  1.00  0.00     0.157 A 
ATOM     15  C   UNL     1     485.124  40.255 462.145  1.00  0.00     0.062 A 
ATOM     16  C   UNL     1     486.466  42.517 461.198  1.00  0.00     0.051 A 
ATOM     17  C   UNL     1     485.677  41.761 460.329  1.00  0.00     0.016 A 
BRANCH  13  18
ATOM     18  O   UNL     1     486.061  40.681 464.382  1.00  0.00    -0.493 OA
ATOM     19  C   UNL     1     484.976  40.476 465.280  1.00  0.00     0.278 C 
ENDBRANCH  13  18
BRANCH  14  20
ATOM     20  O   UNL     1     487.383  42.899 463.408  1.00  0.00    -0.504 OA
ATOM     21  H   UNL     1     488.381  42.740 463.487  1.00  0.00     0.293 HD
ENDBRANCH  14  20
ENDBRANCH   1  12
BRANCH   2  22
ATOM     22  O   UNL     1     486.030  39.424 458.351  1.00  0.00    -0.502 OA
ATOM     23  H   UNL     1     486.689  39.889 458.963  1.00  0.00     0.293 HD
ENDBRANCH   2  22
BRANCH   6  24
ATOM     24  O   UNL     1     481.848  36.776 456.385  1.00  0.00    -0.507 OA
ATOM     25  H   UNL     1     482.053  35.791 456.449  1.00  0.00     0.293 HD
ENDBRANCH   6  24
BRANCH   8  26
ATOM     26  O   UNL     1     478.392  38.321 459.313  1.00  0.00    -0.508 OA
ATOM     27  H   UNL     1     477.783  37.551 459.061  1.00  0.00     0.293 HD
ENDBRANCH   8  26
TORSDOF 6
ENDMDL
MODEL 8
REMARK VINA RESULT:    -5.218      1.583      7.132
REMARK INTER + INTRA:          -6.795
REMARK INTER:                  -6.488
REMARK INTRA:                  -0.307
REMARK UNBOUND:                -0.357
REMARK SMILES COc1cc(-c2oc3cc(O)cc(O)c3c(=O)c2O)ccc1O
REMARK SMILES IDX 6 1 18 2 16 3 17 4 15 5 13 6 12 7 10 8 9 9 8 10 7 11 5 12
REMARK SMILES IDX 3 13 22 14 4 15 21 16 20 17 2 18 1 19 23 20 19 22 14 24
REMARK SMILES IDX 11 26
REMARK H PARENT 23 21 19 23 14 25 11 27
REMARK Flexibility Score: inf
ROOT
ATOM      1  C   UNL     1     479.698  37.872 459.824  1.00  0.00     0.180 A 
ATOM      2  C   UNL     1     480.742  38.651 460.353  1.00  0.00     0.208 A 
ATOM      3  C   UNL     1     481.745  39.120 459.490  1.00  0.00     0.238 A 
ATOM      4  O   UNL     1     482.648  39.862 459.959  1.00  0.00    -0.285 OA
ATOM      5  C   UNL     1     481.700  38.793 458.113  1.00  0.00     0.111 A 
ATOM      6  C   UNL     1     482.684  39.182 457.155  1.00  0.00     0.134 A 
ATOM      7  C   UNL     1     482.470  38.914 455.798  1.00  0.00     0.093 A 
ATOM      8  C   UNL     1     481.343  38.214 455.370  1.00  0.00     0.123 A 
ATOM      9  C   UNL     1     480.403  37.777 456.305  1.00  0.00     0.094 A 
ATOM     10  C   UNL     1     480.570  38.061 457.663  1.00  0.00     0.146 A 
ATOM     11  O   UNL     1     479.648  37.637 458.518  1.00  0.00    -0.452 OA
ENDROOT
BRANCH   1  12
ATOM     12  C   UNL     1     478.620  37.320 460.675  1.00  0.00     0.025 A 
ATOM     13  C   UNL     1     476.615  37.608 462.047  1.00  0.00     0.161 A 
ATOM     14  C   UNL     1     476.622  36.236 462.332  1.00  0.00     0.157 A 
ATOM     15  C   UNL     1     477.622  38.147 461.222  1.00  0.00     0.062 A 
ATOM     16  C   UNL     1     477.626  35.414 461.808  1.00  0.00     0.051 A 
ATOM     17  C   UNL     1     478.622  35.953 460.991  1.00  0.00     0.016 A 
BRANCH  13  18
ATOM     18  O   UNL     1     475.598  38.402 462.601  1.00  0.00    -0.493 OA
ATOM     19  C   UNL     1     475.822  39.550 463.412  1.00  0.00     0.278 C 
ENDBRANCH  13  18
BRANCH  14  20
ATOM     20  O   UNL     1     475.626  35.696 463.145  1.00  0.00    -0.504 OA
ATOM     21  H   UNL     1     474.977  36.288 463.651  1.00  0.00     0.293 HD
ENDBRANCH  14  20
ENDBRANCH   1  12
BRANCH   2  22
ATOM     22  O   UNL     1     480.756  38.980 461.710  1.00  0.00    -0.502 OA
ATOM     23  H   UNL     1     479.923  38.950 462.286  1.00  0.00     0.293 HD
ENDBRANCH   2  22
BRANCH   6  24
ATOM     24  O   UNL     1     483.892  39.804 457.486  1.00  0.00    -0.507 OA
ATOM     25  H   UNL     1     484.758  39.320 457.661  1.00  0.00     0.293 HD
ENDBRANCH   6  24
BRANCH   8  26
ATOM     26  O   UNL     1     481.170  37.951 454.013  1.00  0.00    -0.508 OA
ATOM     27  H   UNL     1     480.502  37.262 453.688  1.00  0.00     0.293 HD
ENDBRANCH   8  26
TORSDOF 6
ENDMDL
