MODEL 1
REMARK VINA RESULT:    -3.964      0.000      0.000
REMARK INTER + INTRA:          -5.545
REMARK INTER:                  -5.122
REMARK INTRA:                  -0.423
REMARK UNBOUND:                -0.423
REMARK SMILES CO[C@]1(CO)O[C@H](CO)[C@@H](O)[C@H]1O
REMARK SMILES IDX 3 1 12 2 10 3 7 4 6 5 2 6 1 7 4 8 5 9 13 11 11 13 8 15 9 16
REMARK H PARENT 5 10 13 12 11 14 9 17
REMARK Flexibility Score: inf
ROOT
ATOM      1  C   UNL     1       5.616   3.485   2.787  1.00  0.00     0.221 C 
ATOM      2  C   UNL     1       5.892   4.140   1.402  1.00  0.00     0.207 C 
ATOM      3  C   UNL     1       7.407   4.129   1.308  1.00  0.00     0.180 C 
ATOM      4  C   UNL     1       7.796   3.037   2.293  1.00  0.00     0.179 C 
ATOM      5  O   UNL     1       6.841   3.017   3.328  1.00  0.00    -0.337 OA
ENDROOT
BRANCH   1   6
ATOM      6  O   UNL     1       4.990   4.422   3.663  1.00  0.00    -0.349 OA
ATOM      7  C   UNL     1       5.877   5.422   4.125  1.00  0.00     0.198 C 
ENDBRANCH   1   6
BRANCH   1   8
ATOM      8  C   UNL     1       4.669   2.270   2.696  1.00  0.00     0.224 C 
BRANCH   8   9
ATOM      9  O   UNL     1       3.419   2.659   2.192  1.00  0.00    -0.391 OA
ATOM     10  H   UNL     1       3.023   1.846   1.783  1.00  0.00     0.210 HD
ENDBRANCH   8   9
ENDBRANCH   1   8
BRANCH   2  11
ATOM     11  O   UNL     1       5.323   3.404   0.343  1.00  0.00    -0.385 OA
ATOM     12  H   UNL     1       4.340   3.397   0.492  1.00  0.00     0.211 HD
ENDBRANCH   2  11
BRANCH   3  13
ATOM     13  O   UNL     1       7.870   3.821   0.018  1.00  0.00    -0.387 OA
ATOM     14  H   UNL     1       7.421   2.975  -0.246  1.00  0.00     0.211 HD
ENDBRANCH   3  13
BRANCH   4  15
ATOM     15  C   UNL     1       9.200   3.239   2.873  1.00  0.00     0.191 C 
BRANCH  15  16
ATOM     16  O   UNL     1       9.809   4.365   2.302  1.00  0.00    -0.394 OA
ATOM     17  H   UNL     1      10.737   4.094   2.082  1.00  0.00     0.210 HD
ENDBRANCH  15  16
ENDBRANCH   4  15
TORSDOF 7
ENDMDL
MODEL 2
REMARK VINA RESULT:    -3.587      1.593      4.240
REMARK INTER + INTRA:          -5.059
REMARK INTER:                  -4.686
REMARK INTRA:                  -0.373
REMARK UNBOUND:                -0.423
REMARK SMILES CO[C@]1(CO)O[C@H](CO)[C@@H](O)[C@H]1O
REMARK SMILES IDX 3 1 12 2 10 3 7 4 6 5 2 6 1 7 4 8 5 9 13 11 11 13 8 15 9 16
REMARK H PARENT 5 10 13 12 11 14 9 17
REMARK Flexibility Score: inf
ROOT
ATOM      1  C   UNL     1       9.062   4.434   2.712  1.00  0.00     0.221 C 
ATOM      2  C   UNL     1       8.406   3.583   1.586  1.00  0.00     0.207 C 
ATOM      3  C   UNL     1       6.920   3.747   1.844  1.00  0.00     0.180 C 
ATOM      4  C   UNL     1       6.861   5.032   2.657  1.00  0.00     0.179 C 
ATOM      5  O   UNL     1       8.043   5.124   3.418  1.00  0.00    -0.337 OA
ENDROOT
BRANCH   1   6
ATOM      6  O   UNL     1       9.821   3.601   3.586  1.00  0.00    -0.349 OA
ATOM      7  C   UNL     1      11.179   3.986   3.674  1.00  0.00     0.198 C 
ENDBRANCH   1   6
BRANCH   1   8
ATOM      8  C   UNL     1      10.035   5.500   2.166  1.00  0.00     0.224 C 
BRANCH   8   9
ATOM      9  O   UNL     1       9.336   6.476   1.442  1.00  0.00    -0.391 OA
ATOM     10  H   UNL     1       9.177   7.226   2.073  1.00  0.00     0.210 HD
ENDBRANCH   8   9
ENDBRANCH   1   8
BRANCH   2  11
ATOM     11  O   UNL     1       8.742   4.052   0.300  1.00  0.00    -0.385 OA
ATOM     12  H   UNL     1       7.927   3.968  -0.262  1.00  0.00     0.211 HD
ENDBRANCH   2  11
BRANCH   3  13
ATOM     13  O   UNL     1       6.172   3.874   0.662  1.00  0.00    -0.387 OA
ATOM     14  H   UNL     1       5.971   2.950   0.357  1.00  0.00     0.211 HD
ENDBRANCH   3  13
BRANCH   4  15
ATOM     15  C   UNL     1       5.636   5.093   3.575  1.00  0.00     0.191 C 
BRANCH  15  16
ATOM     16  O   UNL     1       4.756   4.039   3.290  1.00  0.00    -0.394 OA
ATOM     17  H   UNL     1       4.746   3.464   4.098  1.00  0.00     0.210 HD
ENDBRANCH  15  16
ENDBRANCH   4  15
TORSDOF 7
ENDMDL
MODEL 3
REMARK VINA RESULT:    -3.538     11.453     13.195
REMARK INTER + INTRA:          -4.996
REMARK INTER:                  -4.597
REMARK INTRA:                  -0.399
REMARK UNBOUND:                -0.423
REMARK SMILES CO[C@]1(CO)O[C@H](CO)[C@@H](O)[C@H]1O
REMARK SMILES IDX 3 1 12 2 10 3 7 4 6 5 2 6 1 7 4 8 5 9 13 11 11 13 8 15 9 16
REMARK H PARENT 5 10 13 12 11 14 9 17
REMARK Flexibility Score: inf
ROOT
ATOM      1  C   UNL     1      17.863   7.901   1.581  1.00  0.00     0.221 C 
ATOM      2  C   UNL     1      19.127   8.613   2.144  1.00  0.00     0.207 C 
ATOM      3  C   UNL     1      20.250   7.651   1.804  1.00  0.00     0.180 C 
ATOM      4  C   UNL     1      19.658   6.835   0.664  1.00  0.00     0.179 C 
ATOM      5  O   UNL     1      18.267   6.745   0.864  1.00  0.00    -0.337 OA
ENDROOT
BRANCH   1   6
ATOM      6  O   UNL     1      16.969   7.564   2.640  1.00  0.00    -0.349 OA
ATOM      7  C   UNL     1      16.706   8.651   3.507  1.00  0.00     0.198 C 
ENDBRANCH   1   6
BRANCH   1   8
ATOM      8  C   UNL     1      17.066   8.786   0.600  1.00  0.00     0.224 C 
BRANCH   8   9
ATOM      9  O   UNL     1      16.554   8.013  -0.452  1.00  0.00    -0.391 OA
ATOM     10  H   UNL     1      16.759   8.511  -1.286  1.00  0.00     0.210 HD
ENDBRANCH   8   9
ENDBRANCH   1   8
BRANCH   2  11
ATOM     11  O   UNL     1      19.346   9.867   1.539  1.00  0.00    -0.385 OA
ATOM     12  H   UNL     1      18.512  10.104   1.055  1.00  0.00     0.211 HD
ENDBRANCH   2  11
BRANCH   3  13
ATOM     13  O   UNL     1      21.421   8.305   1.389  1.00  0.00    -0.387 OA
ATOM     14  H   UNL     1      21.276   9.273   1.558  1.00  0.00     0.211 HD
ENDBRANCH   3  13
BRANCH   4  15
ATOM     15  C   UNL     1      20.269   5.433   0.563  1.00  0.00     0.191 C 
BRANCH  15  16
ATOM     16  O   UNL     1      21.587   5.437   1.039  1.00  0.00    -0.394 OA
ATOM     17  H   UNL     1      22.139   5.836   0.318  1.00  0.00     0.210 HD
ENDBRANCH  15  16
ENDBRANCH   4  15
TORSDOF 7
ENDMDL
MODEL 4
REMARK VINA RESULT:    -3.518      1.488      4.004
REMARK INTER + INTRA:          -4.969
REMARK INTER:                  -4.605
REMARK INTRA:                  -0.364
REMARK UNBOUND:                -0.423
REMARK SMILES CO[C@]1(CO)O[C@H](CO)[C@@H](O)[C@H]1O
REMARK SMILES IDX 3 1 12 2 10 3 7 4 6 5 2 6 1 7 4 8 5 9 13 11 11 13 8 15 9 16
REMARK H PARENT 5 10 13 12 11 14 9 17
REMARK Flexibility Score: inf
ROOT
ATOM      1  C   UNL     1       6.988   3.927   2.406  1.00  0.00     0.221 C 
ATOM      2  C   UNL     1       7.470   2.665   3.178  1.00  0.00     0.207 C 
ATOM      3  C   UNL     1       6.175   1.968   3.551  1.00  0.00     0.180 C 
ATOM      4  C   UNL     1       5.187   2.534   2.542  1.00  0.00     0.179 C 
ATOM      5  O   UNL     1       5.581   3.850   2.232  1.00  0.00    -0.337 OA
ENDROOT
BRANCH   1   6
ATOM      6  O   UNL     1       7.355   5.112   3.110  1.00  0.00    -0.349 OA
ATOM      7  C   UNL     1       6.242   5.894   3.494  1.00  0.00     0.198 C 
ENDBRANCH   1   6
BRANCH   1   8
ATOM      8  C   UNL     1       7.611   4.042   0.999  1.00  0.00     0.224 C 
BRANCH   8   9
ATOM      9  O   UNL     1       8.940   4.481   1.086  1.00  0.00    -0.391 OA
ATOM     10  H   UNL     1       9.408   4.099   0.298  1.00  0.00     0.210 HD
ENDBRANCH   8   9
ENDBRANCH   1   8
BRANCH   2  11
ATOM     11  O   UNL     1       8.274   1.828   2.378  1.00  0.00    -0.385 OA
ATOM     12  H   UNL     1       7.967   0.896   2.536  1.00  0.00     0.211 HD
ENDBRANCH   2  11
BRANCH   3  13
ATOM     13  O   UNL     1       6.256   0.571   3.435  1.00  0.00    -0.387 OA
ATOM     14  H   UNL     1       5.324   0.245   3.323  1.00  0.00     0.211 HD
ENDBRANCH   3  13
BRANCH   4  15
ATOM     15  C   UNL     1       3.745   2.523   3.059  1.00  0.00     0.191 C 
BRANCH  15  16
ATOM     16  O   UNL     1       2.894   3.174   2.156  1.00  0.00    -0.394 OA
ATOM     17  H   UNL     1       2.041   3.325   2.640  1.00  0.00     0.210 HD
ENDBRANCH  15  16
ENDBRANCH   4  15
TORSDOF 7
ENDMDL
MODEL 5
REMARK VINA RESULT:    -3.506      1.845      4.290
REMARK INTER + INTRA:          -4.954
REMARK INTER:                  -4.566
REMARK INTRA:                  -0.387
REMARK UNBOUND:                -0.423
REMARK SMILES CO[C@]1(CO)O[C@H](CO)[C@@H](O)[C@H]1O
REMARK SMILES IDX 3 1 12 2 10 3 7 4 6 5 2 6 1 7 4 8 5 9 13 11 11 13 8 15 9 16
REMARK H PARENT 5 10 13 12 11 14 9 17
REMARK Flexibility Score: inf
ROOT
ATOM      1  C   UNL     1       8.592   5.266   2.895  1.00  0.00     0.221 C 
ATOM      2  C   UNL     1       9.313   4.595   1.690  1.00  0.00     0.207 C 
ATOM      3  C   UNL     1       8.220   3.760   1.050  1.00  0.00     0.180 C 
ATOM      4  C   UNL     1       6.949   4.431   1.551  1.00  0.00     0.179 C 
ATOM      5  O   UNL     1       7.207   4.961   2.830  1.00  0.00    -0.337 OA
ENDROOT
BRANCH   1   6
ATOM      6  O   UNL     1       9.161   4.822   4.125  1.00  0.00    -0.349 OA
ATOM      7  C   UNL     1      10.251   3.939   3.942  1.00  0.00     0.198 C 
ENDBRANCH   1   6
BRANCH   1   8
ATOM      8  C   UNL     1       8.715   6.804   2.884  1.00  0.00     0.224 C 
BRANCH   8   9
ATOM      9  O   UNL     1      10.061   7.188   2.979  1.00  0.00    -0.391 OA
ATOM     10  H   UNL     1      10.289   7.157   3.945  1.00  0.00     0.210 HD
ENDBRANCH   8   9
ENDBRANCH   1   8
BRANCH   2  11
ATOM     11  O   UNL     1       9.816   5.543   0.776  1.00  0.00    -0.385 OA
ATOM     12  H   UNL     1      10.699   5.208   0.468  1.00  0.00     0.211 HD
ENDBRANCH   2  11
BRANCH   3  13
ATOM     13  O   UNL     1       8.270   3.781  -0.354  1.00  0.00    -0.387 OA
ATOM     14  H   UNL     1       7.656   4.507  -0.645  1.00  0.00     0.211 HD
ENDBRANCH   3  13
BRANCH   4  15
ATOM     15  C   UNL     1       5.758   3.469   1.608  1.00  0.00     0.191 C 
BRANCH  15  16
ATOM     16  O   UNL     1       5.073   3.462   0.386  1.00  0.00    -0.394 OA
ATOM     17  H   UNL     1       5.768   3.394  -0.319  1.00  0.00     0.210 HD
ENDBRANCH  15  16
ENDBRANCH   4  15
TORSDOF 7
ENDMDL
MODEL 6
REMARK VINA RESULT:    -3.488      1.816      4.047
REMARK INTER + INTRA:          -4.931
REMARK INTER:                  -4.782
REMARK INTRA:                  -0.149
REMARK UNBOUND:                -0.423
REMARK SMILES CO[C@]1(CO)O[C@H](CO)[C@@H](O)[C@H]1O
REMARK SMILES IDX 3 1 12 2 10 3 7 4 6 5 2 6 1 7 4 8 5 9 13 11 11 13 8 15 9 16
REMARK H PARENT 5 10 13 12 11 14 9 17
REMARK Flexibility Score: inf
ROOT
ATOM      1  C   UNL     1       8.243   5.304   2.974  1.00  0.00     0.221 C 
ATOM      2  C   UNL     1       8.676   3.913   3.523  1.00  0.00     0.207 C 
ATOM      3  C   UNL     1       7.544   3.000   3.093  1.00  0.00     0.180 C 
ATOM      4  C   UNL     1       6.917   3.766   1.936  1.00  0.00     0.179 C 
ATOM      5  O   UNL     1       7.075   5.144   2.185  1.00  0.00    -0.337 OA
ENDROOT
BRANCH   1   6
ATOM      6  O   UNL     1       8.019   6.214   4.049  1.00  0.00    -0.349 OA
ATOM      7  C   UNL     1       6.952   7.110   3.800  1.00  0.00     0.198 C 
ENDBRANCH   1   6
BRANCH   1   8
ATOM      8  C   UNL     1       9.314   5.949   2.069  1.00  0.00     0.224 C 
BRANCH   8   9
ATOM      9  O   UNL     1       9.507   5.180   0.913  1.00  0.00    -0.391 OA
ATOM     10  H   UNL     1       9.834   5.807   0.216  1.00  0.00     0.210 HD
ENDBRANCH   8   9
ENDBRANCH   1   8
BRANCH   2  11
ATOM     11  O   UNL     1       9.900   3.482   2.972  1.00  0.00    -0.385 OA
ATOM     12  H   UNL     1       9.877   2.489   2.958  1.00  0.00     0.211 HD
ENDBRANCH   2  11
BRANCH   3  13
ATOM     13  O   UNL     1       7.993   1.740   2.665  1.00  0.00    -0.387 OA
ATOM     14  H   UNL     1       8.255   1.244   3.485  1.00  0.00     0.211 HD
ENDBRANCH   3  13
BRANCH   4  15
ATOM     15  C   UNL     1       5.434   3.431   1.743  1.00  0.00     0.191 C 
BRANCH  15  16
ATOM     16  O   UNL     1       5.087   3.503   0.387  1.00  0.00    -0.394 OA
ATOM     17  H   UNL     1       5.774   4.077  -0.043  1.00  0.00     0.210 HD
ENDBRANCH  15  16
ENDBRANCH   4  15
TORSDOF 7
ENDMDL
MODEL 7
REMARK VINA RESULT:    -3.361      1.436      2.732
REMARK INTER + INTRA:          -4.766
REMARK INTER:                  -4.617
REMARK INTRA:                  -0.150
REMARK UNBOUND:                -0.423
REMARK SMILES CO[C@]1(CO)O[C@H](CO)[C@@H](O)[C@H]1O
REMARK SMILES IDX 3 1 12 2 10 3 7 4 6 5 2 6 1 7 4 8 5 9 13 11 11 13 8 15 9 16
REMARK H PARENT 5 10 13 12 11 14 9 17
REMARK Flexibility Score: inf
ROOT
ATOM      1  C   UNL     1       6.005   2.694   3.257  1.00  0.00     0.221 C 
ATOM      2  C   UNL     1       5.852   4.026   4.047  1.00  0.00     0.207 C 
ATOM      3  C   UNL     1       6.896   4.929   3.417  1.00  0.00     0.180 C 
ATOM      4  C   UNL     1       7.121   4.281   2.058  1.00  0.00     0.179 C 
ATOM      5  O   UNL     1       6.925   2.893   2.195  1.00  0.00    -0.337 OA
ENDROOT
BRANCH   1   6
ATOM      6  O   UNL     1       6.438   1.648   4.125  1.00  0.00    -0.349 OA
ATOM      7  C   UNL     1       6.609   0.413   3.458  1.00  0.00     0.198 C 
ENDBRANCH   1   6
BRANCH   1   8
ATOM      8  C   UNL     1       4.681   2.219   2.623  1.00  0.00     0.224 C 
BRANCH   8   9
ATOM      9  O   UNL     1       4.367   2.998   1.500  1.00  0.00    -0.391 OA
ATOM     10  H   UNL     1       4.590   2.441   0.709  1.00  0.00     0.210 HD
ENDBRANCH   8   9
ENDBRANCH   1   8
BRANCH   2  11
ATOM     11  O   UNL     1       4.564   4.582   3.908  1.00  0.00    -0.385 OA
ATOM     12  H   UNL     1       4.647   5.555   4.089  1.00  0.00     0.211 HD
ENDBRANCH   2  11
BRANCH   3  13
ATOM     13  O   UNL     1       6.452   6.253   3.266  1.00  0.00    -0.387 OA
ATOM     14  H   UNL     1       5.892   6.452   4.062  1.00  0.00     0.211 HD
ENDBRANCH   3  13
BRANCH   4  15
ATOM     15  C   UNL     1       8.518   4.564   1.495  1.00  0.00     0.191 C 
BRANCH  15  16
ATOM     16  O   UNL     1       8.711   3.875   0.290  1.00  0.00    -0.394 OA
ATOM     17  H   UNL     1       7.947   4.120  -0.293  1.00  0.00     0.210 HD
ENDBRANCH  15  16
ENDBRANCH   4  15
TORSDOF 7
ENDMDL
MODEL 8
REMARK VINA RESULT:    -3.273      1.819      2.816
REMARK INTER + INTRA:          -4.653
REMARK INTER:                  -4.106
REMARK INTRA:                  -0.547
REMARK UNBOUND:                -0.423
REMARK SMILES CO[C@]1(CO)O[C@H](CO)[C@@H](O)[C@H]1O
REMARK SMILES IDX 3 1 12 2 10 3 7 4 6 5 2 6 1 7 4 8 5 9 13 11 11 13 8 15 9 16
REMARK H PARENT 5 10 13 12 11 14 9 17
REMARK Flexibility Score: inf
ROOT
ATOM      1  C   UNL     1       6.369   3.346   2.563  1.00  0.00     0.221 C 
ATOM      2  C   UNL     1       7.609   3.345   1.623  1.00  0.00     0.207 C 
ATOM      3  C   UNL     1       7.981   4.813   1.533  1.00  0.00     0.180 C 
ATOM      4  C   UNL     1       7.341   5.398   2.784  1.00  0.00     0.179 C 
ATOM      5  O   UNL     1       6.176   4.658   3.068  1.00  0.00    -0.337 OA
ENDROOT
BRANCH   1   6
ATOM      6  O   UNL     1       5.214   2.888   1.863  1.00  0.00    -0.349 OA
ATOM      7  C   UNL     1       4.008   3.162   2.549  1.00  0.00     0.198 C 
ENDBRANCH   1   6
BRANCH   1   8
ATOM      8  C   UNL     1       6.541   2.415   3.781  1.00  0.00     0.224 C 
BRANCH   8   9
ATOM      9  O   UNL     1       6.679   1.083   3.364  1.00  0.00    -0.391 OA
ATOM     10  H   UNL     1       6.908   0.562   4.178  1.00  0.00     0.210 HD
ENDBRANCH   8   9
ENDBRANCH   1   8
BRANCH   2  11
ATOM     11  O   UNL     1       8.677   2.592   2.152  1.00  0.00    -0.385 OA
ATOM     12  H   UNL     1       9.473   3.187   2.161  1.00  0.00     0.211 HD
ENDBRANCH   2  11
BRANCH   3  13
ATOM     13  O   UNL     1       9.369   5.025   1.543  1.00  0.00    -0.387 OA
ATOM     14  H   UNL     1       9.572   5.587   0.749  1.00  0.00     0.211 HD
ENDBRANCH   3  13
BRANCH   4  15
ATOM     15  C   UNL     1       7.000   6.884   2.632  1.00  0.00     0.191 C 
BRANCH  15  16
ATOM     16  O   UNL     1       8.028   7.557   1.959  1.00  0.00    -0.394 OA
ATOM     17  H   UNL     1       8.856   7.040   2.133  1.00  0.00     0.210 HD
ENDBRANCH  15  16
ENDBRANCH   4  15
TORSDOF 7
ENDMDL
MODEL 9
REMARK VINA RESULT:    -3.191      2.372      3.422
REMARK INTER + INTRA:          -4.546
REMARK INTER:                  -4.038
REMARK INTRA:                  -0.508
REMARK UNBOUND:                -0.423
REMARK SMILES CO[C@]1(CO)O[C@H](CO)[C@@H](O)[C@H]1O
REMARK SMILES IDX 3 1 12 2 10 3 7 4 6 5 2 6 1 7 4 8 5 9 13 11 11 13 8 15 9 16
REMARK H PARENT 5 10 13 12 11 14 9 17
REMARK Flexibility Score: inf
ROOT
ATOM      1  C   UNL     1       8.666   4.442   3.172  1.00  0.00     0.221 C 
ATOM      2  C   UNL     1       8.726   5.209   1.818  1.00  0.00     0.207 C 
ATOM      3  C   UNL     1      10.010   6.010   1.928  1.00  0.00     0.180 C 
ATOM      4  C   UNL     1      10.792   5.245   2.987  1.00  0.00     0.179 C 
ATOM      5  O   UNL     1       9.871   4.672   3.885  1.00  0.00    -0.337 OA
ENDROOT
BRANCH   1   6
ATOM      6  O   UNL     1       7.531   4.860   3.929  1.00  0.00    -0.349 OA
ATOM      7  C   UNL     1       6.818   5.917   3.317  1.00  0.00     0.198 C 
ENDBRANCH   1   6
BRANCH   1   8
ATOM      8  C   UNL     1       8.533   2.916   2.989  1.00  0.00     0.224 C 
BRANCH   8   9
ATOM      9  O   UNL     1       7.229   2.581   2.596  1.00  0.00    -0.391 OA
ATOM     10  H   UNL     1       6.642   2.821   3.360  1.00  0.00     0.210 HD
ENDBRANCH   8   9
ENDBRANCH   1   8
BRANCH   2  11
ATOM     11  O   UNL     1       8.777   4.335   0.714  1.00  0.00    -0.385 OA
ATOM     12  H   UNL     1       8.242   3.533   0.954  1.00  0.00     0.211 HD
ENDBRANCH   2  11
BRANCH   3  13
ATOM     13  O   UNL     1      10.727   6.057   0.721  1.00  0.00    -0.387 OA
ATOM     14  H   UNL     1      10.381   5.313   0.161  1.00  0.00     0.211 HD
ENDBRANCH   3  13
BRANCH   4  15
ATOM     15  C   UNL     1      11.783   6.135   3.744  1.00  0.00     0.191 C 
BRANCH  15  16
ATOM     16  O   UNL     1      12.663   6.761   2.850  1.00  0.00    -0.394 OA
ATOM     17  H   UNL     1      13.481   6.972   3.371  1.00  0.00     0.210 HD
ENDBRANCH  15  16
ENDBRANCH   4  15
TORSDOF 7
ENDMDL
