MODEL 1
REMARK VINA RESULT:     5.264      0.000      0.000
REMARK INTER + INTRA:           7.796
REMARK INTER:                   7.264
REMARK INTRA:                   0.532
REMARK UNBOUND:                 0.532
REMARK SMILES CCCCc1cccc(O)c1CCCC
REMARK SMILES IDX 5 1 11 2 9 3 8 4 7 5 6 6 4 7 3 8 2 9 1 10 12 11 13 12 14 13
REMARK SMILES IDX 15 14 10 15
REMARK H PARENT 10 16
REMARK Flexibility Score: inf
ROOT
ATOM      1  C   UNL     1      11.600   8.234  -8.095  1.00  0.00    -0.041 A 
ATOM      2  C   UNL     1      10.273   8.079  -7.586  1.00  0.00    -0.003 A 
ATOM      3  C   UNL     1      10.072   7.231  -6.459  1.00  0.00     0.119 A 
ATOM      4  C   UNL     1      11.159   6.572  -5.875  1.00  0.00     0.046 A 
ATOM      5  C   UNL     1      12.445   6.737  -6.376  1.00  0.00     0.004 A 
ATOM      6  C   UNL     1      12.664   7.564  -7.472  1.00  0.00     0.004 A 
ENDROOT
BRANCH   1   7
ATOM      7  C   UNL     1      11.943   9.162  -9.244  1.00  0.00     0.036 C 
BRANCH   7   8
ATOM      8  C   UNL     1      12.717   8.411 -10.333  1.00  0.00     0.004 C 
BRANCH   8   9
ATOM      9  C   UNL     1      13.635   9.361 -11.112  1.00  0.00    -0.003 C 
ATOM     10  C   UNL     1      14.935   8.669 -11.511  1.00  0.00     0.004 C 
ENDBRANCH   8   9
ENDBRANCH   7   8
ENDBRANCH   1   7
BRANCH   2  11
ATOM     11  C   UNL     1       9.101   8.780  -8.261  1.00  0.00     0.040 C 
BRANCH  11  12
ATOM     12  C   UNL     1       7.792   8.642  -7.455  1.00  0.00     0.005 C 
BRANCH  12  13
ATOM     13  C   UNL     1       7.422   9.890  -6.638  1.00  0.00    -0.003 C 
ATOM     14  C   UNL     1       6.099   9.730  -5.889  1.00  0.00     0.004 C 
ENDBRANCH  12  13
ENDBRANCH  11  12
ENDBRANCH   2  11
BRANCH   3  15
ATOM     15  O   UNL     1       8.821   7.011  -5.875  1.00  0.00    -0.508 OA
ATOM     16  H   UNL     1       8.196   6.259  -6.120  1.00  0.00     0.293 HD
ENDBRANCH   3  15
TORSDOF 7
ENDMDL
MODEL 2
REMARK VINA RESULT:     5.974      1.617      5.642
REMARK INTER + INTRA:           8.777
REMARK INTER:                   8.762
REMARK INTRA:                   0.015
REMARK UNBOUND:                 0.532
REMARK SMILES CCCCc1cccc(O)c1CCCC
REMARK SMILES IDX 5 1 11 2 9 3 8 4 7 5 6 6 4 7 3 8 2 9 1 10 12 11 13 12 14 13
REMARK SMILES IDX 15 14 10 15
REMARK H PARENT 10 16
REMARK Flexibility Score: inf
ROOT
ATOM      1  C   UNL     1      10.421   8.064  -7.571  1.00  0.00    -0.041 A 
ATOM      2  C   UNL     1      11.538   7.970  -8.457  1.00  0.00    -0.003 A 
ATOM      3  C   UNL     1      12.706   7.288  -8.008  1.00  0.00     0.119 A 
ATOM      4  C   UNL     1      12.742   6.730  -6.727  1.00  0.00     0.046 A 
ATOM      5  C   UNL     1      11.646   6.823  -5.878  1.00  0.00     0.004 A 
ATOM      6  C   UNL     1      10.494   7.479  -6.297  1.00  0.00     0.004 A 
ENDROOT
BRANCH   1   7
ATOM      7  C   UNL     1       9.103   8.704  -7.964  1.00  0.00     0.036 C 
BRANCH   7   8
ATOM      8  C   UNL     1       8.019   8.389  -6.928  1.00  0.00     0.004 C 
BRANCH   8   9
ATOM      9  C   UNL     1       6.786   9.278  -7.132  1.00  0.00    -0.003 C 
ATOM     10  C   UNL     1       6.475  10.085  -5.875  1.00  0.00     0.004 C 
ENDBRANCH   8   9
ENDBRANCH   7   8
ENDBRANCH   1   7
BRANCH   2  11
ATOM     11  C   UNL     1      11.487   8.616  -9.836  1.00  0.00     0.040 C 
BRANCH  11  12
ATOM     12  C   UNL     1      12.753   9.443 -10.143  1.00  0.00     0.005 C 
BRANCH  12  13
ATOM     13  C   UNL     1      13.394   9.129 -11.504  1.00  0.00    -0.003 C 
ATOM     14  C   UNL     1      14.845   8.663 -11.376  1.00  0.00     0.004 C 
ENDBRANCH  12  13
ENDBRANCH  11  12
ENDBRANCH   2  11
BRANCH   3  15
ATOM     15  O   UNL     1      13.853   7.131  -8.791  1.00  0.00    -0.508 OA
ATOM     16  H   UNL     1      14.762   6.877  -8.436  1.00  0.00     0.293 HD
ENDBRANCH   3  15
TORSDOF 7
ENDMDL
MODEL 3
REMARK VINA RESULT:     6.326      9.978     12.046
REMARK INTER + INTRA:           9.261
REMARK INTER:                   8.494
REMARK INTRA:                   0.767
REMARK UNBOUND:                 0.532
REMARK SMILES CCCCc1cccc(O)c1CCCC
REMARK SMILES IDX 5 1 11 2 9 3 8 4 7 5 6 6 4 7 3 8 2 9 1 10 12 11 13 12 14 13
REMARK SMILES IDX 15 14 10 15
REMARK H PARENT 10 16
REMARK Flexibility Score: inf
ROOT
ATOM      1  C   UNL     1      -0.413   5.728 -10.340  1.00  0.00    -0.041 A 
ATOM      2  C   UNL     1      -0.527   6.149  -8.979  1.00  0.00    -0.003 A 
ATOM      3  C   UNL     1       0.566   5.904  -8.097  1.00  0.00     0.119 A 
ATOM      4  C   UNL     1       1.717   5.265  -8.570  1.00  0.00     0.046 A 
ATOM      5  C   UNL     1       1.817   4.867  -9.897  1.00  0.00     0.004 A 
ATOM      6  C   UNL     1       0.766   5.101 -10.775  1.00  0.00     0.004 A 
ENDROOT
BRANCH   1   7
ATOM      7  C   UNL     1      -1.480   5.996 -11.383  1.00  0.00     0.036 C 
BRANCH   7   8
ATOM      8  C   UNL     1      -0.987   5.596 -12.777  1.00  0.00     0.004 C 
BRANCH   8   9
ATOM      9  C   UNL     1      -1.933   4.577 -13.425  1.00  0.00    -0.003 C 
ATOM     10  C   UNL     1      -3.365   4.765 -12.935  1.00  0.00     0.004 C 
ENDBRANCH   8   9
ENDBRANCH   7   8
ENDBRANCH   1   7
BRANCH   2  11
ATOM     11  C   UNL     1      -1.805   6.813  -8.480  1.00  0.00     0.040 C 
BRANCH  11  12
ATOM     12  C   UNL     1      -1.651   7.386  -7.057  1.00  0.00     0.005 C 
BRANCH  12  13
ATOM     13  C   UNL     1      -1.368   8.895  -7.014  1.00  0.00    -0.003 C 
ATOM     14  C   UNL     1       0.121   9.219  -7.146  1.00  0.00     0.004 C 
ENDBRANCH  12  13
ENDBRANCH  11  12
ENDBRANCH   2  11
BRANCH   3  15
ATOM     15  O   UNL     1       0.566   6.277  -6.750  1.00  0.00    -0.508 OA
ATOM     16  H   UNL     1      -0.172   6.069  -6.096  1.00  0.00     0.293 HD
ENDBRANCH   3  15
TORSDOF 7
ENDMDL
MODEL 4
REMARK VINA RESULT:     7.186     10.203     12.087
REMARK INTER + INTRA:          10.449
REMARK INTER:                  10.543
REMARK INTRA:                  -0.094
REMARK UNBOUND:                 0.532
REMARK SMILES CCCCc1cccc(O)c1CCCC
REMARK SMILES IDX 5 1 11 2 9 3 8 4 7 5 6 6 4 7 3 8 2 9 1 10 12 11 13 12 14 13
REMARK SMILES IDX 15 14 10 15
REMARK H PARENT 10 16
REMARK Flexibility Score: inf
ROOT
ATOM      1  C   UNL     1       0.443   6.131  -9.031  1.00  0.00    -0.041 A 
ATOM      2  C   UNL     1      -0.958   6.306  -9.249  1.00  0.00    -0.003 A 
ATOM      3  C   UNL     1      -1.731   6.934  -8.230  1.00  0.00     0.119 A 
ATOM      4  C   UNL     1      -1.117   7.364  -7.049  1.00  0.00     0.046 A 
ATOM      5  C   UNL     1       0.248   7.193  -6.853  1.00  0.00     0.004 A 
ATOM      6  C   UNL     1       1.022   6.588  -7.836  1.00  0.00     0.004 A 
ENDROOT
BRANCH   1   7
ATOM      7  C   UNL     1       1.376   5.539 -10.070  1.00  0.00     0.036 C 
BRANCH   7   8
ATOM      8  C   UNL     1       2.179   4.376  -9.477  1.00  0.00     0.004 C 
BRANCH   8   9
ATOM      9  C   UNL     1       1.593   3.026  -9.907  1.00  0.00    -0.003 C 
ATOM     10  C   UNL     1       0.799   2.383  -8.775  1.00  0.00     0.004 C 
ENDBRANCH   8   9
ENDBRANCH   7   8
ENDBRANCH   1   7
BRANCH   2  11
ATOM     11  C   UNL     1      -1.610   5.798 -10.529  1.00  0.00     0.040 C 
BRANCH  11  12
ATOM     12  C   UNL     1      -0.725   6.034 -11.771  1.00  0.00     0.005 C 
BRANCH  12  13
ATOM     13  C   UNL     1      -1.193   5.284 -13.028  1.00  0.00    -0.003 C 
ATOM     14  C   UNL     1      -2.679   4.929 -12.981  1.00  0.00     0.004 C 
ENDBRANCH  12  13
ENDBRANCH  11  12
ENDBRANCH   2  11
BRANCH   3  15
ATOM     15  O   UNL     1      -3.106   7.162  -8.338  1.00  0.00    -0.508 OA
ATOM     16  H   UNL     1      -3.799   6.444  -8.486  1.00  0.00     0.293 HD
ENDBRANCH   3  15
TORSDOF 7
ENDMDL
MODEL 5
REMARK VINA RESULT:     7.342      9.929     12.173
REMARK INTER + INTRA:          10.664
REMARK INTER:                  10.315
REMARK INTRA:                   0.348
REMARK UNBOUND:                 0.532
REMARK SMILES CCCCc1cccc(O)c1CCCC
REMARK SMILES IDX 5 1 11 2 9 3 8 4 7 5 6 6 4 7 3 8 2 9 1 10 12 11 13 12 14 13
REMARK SMILES IDX 15 14 10 15
REMARK H PARENT 10 16
REMARK Flexibility Score: inf
ROOT
ATOM      1  C   UNL     1      -0.667   6.202  -9.597  1.00  0.00    -0.041 A 
ATOM      2  C   UNL     1       0.401   6.166  -8.648  1.00  0.00    -0.003 A 
ATOM      3  C   UNL     1       0.171   6.696  -7.345  1.00  0.00     0.119 A 
ATOM      4  C   UNL     1      -1.077   7.236  -7.019  1.00  0.00     0.046 A 
ATOM      5  C   UNL     1      -2.109   7.259  -7.949  1.00  0.00     0.004 A 
ATOM      6  C   UNL     1      -1.909   6.742  -9.224  1.00  0.00     0.004 A 
ENDROOT
BRANCH   1   7
ATOM      7  C   UNL     1      -0.561   5.606 -10.987  1.00  0.00     0.036 C 
BRANCH   7   8
ATOM      8  C   UNL     1      -1.851   5.846 -11.779  1.00  0.00     0.004 C 
BRANCH   8   9
ATOM      9  C   UNL     1      -1.927   4.926 -13.003  1.00  0.00    -0.003 C 
ATOM     10  C   UNL     1      -0.760   5.174 -13.953  1.00  0.00     0.004 C 
ENDBRANCH   8   9
ENDBRANCH   7   8
ENDBRANCH   1   7
BRANCH   2  11
ATOM     11  C   UNL     1       1.762   5.604  -9.039  1.00  0.00     0.040 C 
BRANCH  11  12
ATOM     12  C   UNL     1       1.665   4.581 -10.189  1.00  0.00     0.005 C 
BRANCH  12  13
ATOM     13  C   UNL     1       1.989   3.137  -9.776  1.00  0.00    -0.003 C 
ATOM     14  C   UNL     1       0.865   2.492  -8.964  1.00  0.00     0.004 C 
ENDBRANCH  12  13
ENDBRANCH  11  12
ENDBRANCH   2  11
BRANCH   3  15
ATOM     15  O   UNL     1       1.140   6.708  -6.338  1.00  0.00    -0.508 OA
ATOM     16  H   UNL     1       1.008   6.339  -5.409  1.00  0.00     0.293 HD
ENDBRANCH   3  15
TORSDOF 7
ENDMDL
MODEL 6
REMARK VINA RESULT:     8.195     10.355     12.806
REMARK INTER + INTRA:          11.842
REMARK INTER:                  12.057
REMARK INTRA:                  -0.216
REMARK UNBOUND:                 0.532
REMARK SMILES CCCCc1cccc(O)c1CCCC
REMARK SMILES IDX 5 1 11 2 9 3 8 4 7 5 6 6 4 7 3 8 2 9 1 10 12 11 13 12 14 13
REMARK SMILES IDX 15 14 10 15
REMARK H PARENT 10 16
REMARK Flexibility Score: inf
ROOT
ATOM      1  C   UNL     1      -1.300   5.727 -10.296  1.00  0.00    -0.041 A 
ATOM      2  C   UNL     1      -0.252   5.974 -11.236  1.00  0.00    -0.003 A 
ATOM      3  C   UNL     1      -0.545   5.861 -12.626  1.00  0.00     0.119 A 
ATOM      4  C   UNL     1      -1.834   5.516 -13.044  1.00  0.00     0.046 A 
ATOM      5  C   UNL     1      -2.845   5.284 -12.120  1.00  0.00     0.004 A 
ATOM      6  C   UNL     1      -2.583   5.394 -10.759  1.00  0.00     0.004 A 
ENDROOT
BRANCH   1   7
ATOM      7  C   UNL     1      -1.123   5.884  -8.798  1.00  0.00     0.036 C 
BRANCH   7   8
ATOM      8  C   UNL     1      -1.581   7.273  -8.342  1.00  0.00     0.004 C 
BRANCH   8   9
ATOM      9  C   UNL     1      -0.657   7.828  -7.251  1.00  0.00    -0.003 C 
ATOM     10  C   UNL     1       0.527   6.898  -7.006  1.00  0.00     0.004 C 
ENDBRANCH   8   9
ENDBRANCH   7   8
ENDBRANCH   1   7
BRANCH   2  11
ATOM     11  C   UNL     1       1.153   6.316 -10.754  1.00  0.00     0.040 C 
BRANCH  11  12
ATOM     12  C   UNL     1       1.603   5.423  -9.579  1.00  0.00     0.005 C 
BRANCH  12  13
ATOM     13  C   UNL     1       1.883   3.963  -9.970  1.00  0.00    -0.003 C 
ATOM     14  C   UNL     1       1.061   2.968  -9.150  1.00  0.00     0.004 C 
ENDBRANCH  12  13
ENDBRANCH  11  12
ENDBRANCH   2  11
BRANCH   3  15
ATOM     15  O   UNL     1       0.399   6.086 -13.632  1.00  0.00    -0.508 OA
ATOM     16  H   UNL     1       1.167   6.737 -13.565  1.00  0.00     0.293 HD
ENDBRANCH   3  15
TORSDOF 7
ENDMDL
