MODEL 1
REMARK VINA RESULT:    -3.569      0.000      0.000
REMARK INTER + INTRA:          -3.882
REMARK INTER:                  -3.882
REMARK INTRA:                   0.000
REMARK UNBOUND:                 0.000
REMARK SMILES [NH3+]CC(=O)[O-]
REMARK SMILES IDX 2 1 1 2 3 6 4 7 5 8
REMARK H PARENT 1 3 1 4 1 5
REMARK Flexibility Score: inf
ROOT
ATOM      1  C   UNL     1      -1.848   2.011   8.438  1.00  0.00     0.312 C 
ENDROOT
BRANCH   1   2
ATOM      2  N   UNL     1      -2.628   3.246   8.393  1.00  0.00    -0.353 N 
ATOM      3  H   UNL     1      -2.411   3.756   7.507  1.00  0.00     0.344 HD
ATOM      4  H   UNL     1      -3.650   3.025   8.416  1.00  0.00     0.344 HD
ATOM      5  H   UNL     1      -2.379   3.857   9.205  1.00  0.00     0.344 HD
ENDBRANCH   1   2
BRANCH   1   6
ATOM      6  C   UNL     1      -2.474   0.958   7.576  1.00  0.00     0.096 C 
ATOM      7  O   UNL     1      -2.622   1.156   6.342  1.00  0.00    -0.544 OA
ATOM      8  O   UNL     1      -2.937  -0.221   8.146  1.00  0.00    -0.544 OA
ENDBRANCH   1   6
TORSDOF 2
ENDMDL
MODEL 2
REMARK VINA RESULT:    -3.363      1.077      1.805
REMARK INTER + INTRA:          -3.658
REMARK INTER:                  -3.658
REMARK INTRA:                   0.000
REMARK UNBOUND:                 0.000
REMARK SMILES [NH3+]CC(=O)[O-]
REMARK SMILES IDX 2 1 1 2 3 6 4 7 5 8
REMARK H PARENT 1 3 1 4 1 5
REMARK Flexibility Score: inf
ROOT
ATOM      1  C   UNL     1      -2.076   1.899   8.604  1.00  0.00     0.312 C 
ENDROOT
BRANCH   1   2
ATOM      2  N   UNL     1      -0.618   1.997   8.596  1.00  0.00    -0.353 N 
ATOM      3  H   UNL     1      -0.322   2.645   7.831  1.00  0.00     0.344 HD
ATOM      4  H   UNL     1      -0.279   2.375   9.510  1.00  0.00     0.344 HD
ATOM      5  H   UNL     1      -0.196   1.054   8.424  1.00  0.00     0.344 HD
ENDBRANCH   1   2
BRANCH   1   6
ATOM      6  C   UNL     1      -2.539   0.829   7.665  1.00  0.00     0.096 C 
ATOM      7  O   UNL     1      -2.830  -0.315   8.102  1.00  0.00    -0.544 OA
ATOM      8  O   UNL     1      -2.601   1.082   6.300  1.00  0.00    -0.544 OA
ENDBRANCH   1   6
TORSDOF 2
ENDMDL
MODEL 3
REMARK VINA RESULT:    -3.356      2.248      2.463
REMARK INTER + INTRA:          -3.650
REMARK INTER:                  -3.650
REMARK INTRA:                   0.000
REMARK UNBOUND:                 0.000
REMARK SMILES [NH3+]CC(=O)[O-]
REMARK SMILES IDX 2 1 1 2 3 6 4 7 5 8
REMARK H PARENT 1 3 1 4 1 5
REMARK Flexibility Score: inf
ROOT
ATOM      1  C   UNL     1      -2.685   0.477   8.979  1.00  0.00     0.312 C 
ENDROOT
BRANCH   1   2
ATOM      2  N   UNL     1      -2.509  -0.951   8.720  1.00  0.00    -0.353 N 
ATOM      3  H   UNL     1      -2.301  -1.092   7.705  1.00  0.00     0.344 HD
ATOM      4  H   UNL     1      -1.712  -1.323   9.284  1.00  0.00     0.344 HD
ATOM      5  H   UNL     1      -3.386  -1.470   8.961  1.00  0.00     0.344 HD
ENDBRANCH   1   2
BRANCH   1   6
ATOM      6  C   UNL     1      -2.274   1.285   7.787  1.00  0.00     0.096 C 
ATOM      7  O   UNL     1      -1.499   2.267   7.924  1.00  0.00    -0.544 OA
ATOM      8  O   UNL     1      -2.789   0.982   6.533  1.00  0.00    -0.544 OA
ENDBRANCH   1   6
TORSDOF 2
ENDMDL
MODEL 4
REMARK VINA RESULT:    -2.912     11.940     12.101
REMARK INTER + INTRA:          -3.167
REMARK INTER:                  -3.167
REMARK INTRA:                   0.000
REMARK UNBOUND:                 0.000
REMARK SMILES [NH3+]CC(=O)[O-]
REMARK SMILES IDX 2 1 1 2 3 6 4 7 5 8
REMARK H PARENT 1 3 1 4 1 5
REMARK Flexibility Score: inf
ROOT
ATOM      1  C   UNL     1       6.959  -4.162   3.047  1.00  0.00     0.312 C 
ENDROOT
BRANCH   1   2
ATOM      2  N   UNL     1       5.692  -4.653   3.585  1.00  0.00    -0.353 N 
ATOM      3  H   UNL     1       5.744  -5.691   3.694  1.00  0.00     0.344 HD
ATOM      4  H   UNL     1       5.508  -4.222   4.520  1.00  0.00     0.344 HD
ATOM      5  H   UNL     1       4.910  -4.420   2.929  1.00  0.00     0.344 HD
ENDBRANCH   1   2
BRANCH   1   6
ATOM      6  C   UNL     1       6.767  -3.594   1.675  1.00  0.00     0.096 C 
ATOM      7  O   UNL     1       6.404  -4.337   0.727  1.00  0.00    -0.544 OA
ATOM      8  O   UNL     1       7.038  -2.252   1.436  1.00  0.00    -0.544 OA
ENDBRANCH   1   6
TORSDOF 2
ENDMDL
MODEL 5
REMARK VINA RESULT:    -2.841     10.938     11.156
REMARK INTER + INTRA:          -3.090
REMARK INTER:                  -3.090
REMARK INTRA:                   0.000
REMARK UNBOUND:                 0.000
REMARK SMILES [NH3+]CC(=O)[O-]
REMARK SMILES IDX 2 1 1 2 3 6 4 7 5 8
REMARK H PARENT 1 3 1 4 1 5
REMARK Flexibility Score: inf
ROOT
ATOM      1  C   UNL     1       2.313   9.797   1.153  1.00  0.00     0.312 C 
ENDROOT
BRANCH   1   2
ATOM      2  N   UNL     1       1.560   9.830   2.406  1.00  0.00    -0.353 N 
ATOM      3  H   UNL     1       0.550   9.996   2.194  1.00  0.00     0.344 HD
ATOM      4  H   UNL     1       1.656   8.917   2.906  1.00  0.00     0.344 HD
ATOM      5  H   UNL     1       1.911  10.606   3.015  1.00  0.00     0.344 HD
ENDBRANCH   1   2
BRANCH   1   6
ATOM      6  C   UNL     1       2.180   8.460   0.492  1.00  0.00     0.096 C 
ATOM      7  O   UNL     1       2.978   7.530   0.778  1.00  0.00    -0.544 OA
ATOM      8  O   UNL     1       1.206   8.259  -0.478  1.00  0.00    -0.544 OA
ENDBRANCH   1   6
TORSDOF 2
ENDMDL
MODEL 6
REMARK VINA RESULT:    -2.825     10.381     10.797
REMARK INTER + INTRA:          -3.073
REMARK INTER:                  -3.073
REMARK INTRA:                   0.000
REMARK UNBOUND:                 0.000
REMARK SMILES [NH3+]CC(=O)[O-]
REMARK SMILES IDX 2 1 1 2 3 6 4 7 5 8
REMARK H PARENT 1 3 1 4 1 5
REMARK Flexibility Score: inf
ROOT
ATOM      1  C   UNL     1       6.272   4.388   2.860  1.00  0.00     0.312 C 
ENDROOT
BRANCH   1   2
ATOM      2  N   UNL     1       5.076   4.906   3.522  1.00  0.00    -0.353 N 
ATOM      3  H   UNL     1       4.510   5.449   2.832  1.00  0.00     0.344 HD
ATOM      4  H   UNL     1       4.498   4.115   3.887  1.00  0.00     0.344 HD
ATOM      5  H   UNL     1       5.348   5.539   4.310  1.00  0.00     0.344 HD
ENDBRANCH   1   2
BRANCH   1   6
ATOM      6  C   UNL     1       6.053   4.282   1.382  1.00  0.00     0.096 C 
ATOM      7  O   UNL     1       4.954   4.629   0.878  1.00  0.00    -0.544 OA
ATOM      8  O   UNL     1       7.047   3.752   0.570  1.00  0.00    -0.544 OA
ENDBRANCH   1   6
TORSDOF 2
ENDMDL
MODEL 7
REMARK VINA RESULT:    -2.809     15.550     15.784
REMARK INTER + INTRA:          -3.055
REMARK INTER:                  -3.055
REMARK INTRA:                   0.000
REMARK UNBOUND:                 0.000
REMARK SMILES [NH3+]CC(=O)[O-]
REMARK SMILES IDX 2 1 1 2 3 6 4 7 5 8
REMARK H PARENT 1 3 1 4 1 5
REMARK Flexibility Score: inf
ROOT
ATOM      1  C   UNL     1       6.363  -7.087  -0.513  1.00  0.00     0.312 C 
ENDROOT
BRANCH   1   2
ATOM      2  N   UNL     1       6.384  -5.719  -1.030  1.00  0.00    -0.353 N 
ATOM      3  H   UNL     1       5.402  -5.378  -1.139  1.00  0.00     0.344 HD
ATOM      4  H   UNL     1       6.889  -5.092  -0.363  1.00  0.00     0.344 HD
ATOM      5  H   UNL     1       6.856  -5.696  -1.964  1.00  0.00     0.344 HD
ENDBRANCH   1   2
BRANCH   1   6
ATOM      6  C   UNL     1       6.562  -8.074  -1.622  1.00  0.00     0.096 C 
ATOM      7  O   UNL     1       7.725  -8.385  -1.991  1.00  0.00    -0.544 OA
ATOM      8  O   UNL     1       5.463  -8.612  -2.279  1.00  0.00    -0.544 OA
ENDBRANCH   1   6
TORSDOF 2
ENDMDL
MODEL 8
REMARK VINA RESULT:    -2.698     11.064     11.328
REMARK INTER + INTRA:          -2.935
REMARK INTER:                  -2.935
REMARK INTRA:                   0.000
REMARK UNBOUND:                 0.000
REMARK SMILES [NH3+]CC(=O)[O-]
REMARK SMILES IDX 2 1 1 2 3 6 4 7 5 8
REMARK H PARENT 1 3 1 4 1 5
REMARK Flexibility Score: inf
ROOT
ATOM      1  C   UNL     1       2.353   8.261   0.320  1.00  0.00     0.312 C 
ENDROOT
BRANCH   1   2
ATOM      2  N   UNL     1       2.744   7.353  -0.757  1.00  0.00    -0.353 N 
ATOM      3  H   UNL     1       3.782   7.227  -0.739  1.00  0.00     0.344 HD
ATOM      4  H   UNL     1       2.287   6.423  -0.625  1.00  0.00     0.344 HD
ATOM      5  H   UNL     1       2.468   7.755  -1.683  1.00  0.00     0.344 HD
ENDBRANCH   1   2
BRANCH   1   6
ATOM      6  C   UNL     1       3.350   8.218   1.436  1.00  0.00     0.096 C 
ATOM      7  O   UNL     1       3.595   9.254   2.108  1.00  0.00    -0.544 OA
ATOM      8  O   UNL     1       4.045   7.044   1.701  1.00  0.00    -0.544 OA
ENDBRANCH   1   6
TORSDOF 2
ENDMDL
MODEL 9
REMARK VINA RESULT:    -2.649     10.990     11.226
REMARK INTER + INTRA:          -2.881
REMARK INTER:                  -2.881
REMARK INTRA:                   0.000
REMARK UNBOUND:                 0.000
REMARK SMILES [NH3+]CC(=O)[O-]
REMARK SMILES IDX 2 1 1 2 3 6 4 7 5 8
REMARK H PARENT 1 3 1 4 1 5
REMARK Flexibility Score: inf
ROOT
ATOM      1  C   UNL     1       6.966   3.641   1.172  1.00  0.00     0.312 C 
ENDROOT
BRANCH   1   2
ATOM      2  N   UNL     1       7.434   2.515   0.366  1.00  0.00    -0.353 N 
ATOM      3  H   UNL     1       7.804   1.771   1.000  1.00  0.00     0.344 HD
ATOM      4  H   UNL     1       6.643   2.121  -0.193  1.00  0.00     0.344 HD
ATOM      5  H   UNL     1       8.200   2.826  -0.275  1.00  0.00     0.344 HD
ENDBRANCH   1   2
BRANCH   1   6
ATOM      6  C   UNL     1       6.569   3.184   2.541  1.00  0.00     0.096 C 
ATOM      7  O   UNL     1       6.207   4.020   3.409  1.00  0.00    -0.544 OA
ATOM      8  O   UNL     1       6.648   1.837   2.873  1.00  0.00    -0.544 OA
ENDBRANCH   1   6
TORSDOF 2
ENDMDL
