MODEL 1
REMARK VINA RESULT:     4.099      0.000      0.000
REMARK INTER + INTRA:           7.695
REMARK INTER:                   7.455
REMARK INTRA:                   0.240
REMARK UNBOUND:                 0.240
REMARK SMILES CCCCCCCCCCCCCCCC(=O)[O-]
REMARK SMILES IDX 9 1 10 2 11 3 12 4 13 5 14 6 15 7 16 8 17 9 18 10 8 11 7 12
REMARK SMILES IDX 6 13 5 14 4 15 3 16 2 17 1 18
REMARK H PARENT
REMARK Flexibility Score: inf
ROOT
ATOM      1  C   UNL     1       6.855  27.673  10.087  1.00  0.00     0.000 C 
ENDROOT
BRANCH   1   2
ATOM      2  C   UNL     1       7.080  28.689   8.957  1.00  0.00     0.000 C 
BRANCH   2   3
ATOM      3  C   UNL     1       8.450  28.533   8.273  1.00  0.00     0.000 C 
BRANCH   3   4
ATOM      4  C   UNL     1       9.364  29.771   8.345  1.00  0.00     0.000 C 
BRANCH   4   5
ATOM      5  C   UNL     1      10.860  29.415   8.276  1.00  0.00     0.000 C 
BRANCH   5   6
ATOM      6  C   UNL     1      11.389  28.823   9.592  1.00  0.00     0.006 C 
BRANCH   6   7
ATOM      7  C   UNL     1      12.394  29.744  10.296  1.00  0.00     0.053 C 
BRANCH   7   8
ATOM      8  C   UNL     1      13.788  29.233  10.108  1.00  0.00     0.041 C 
ATOM      9  O   UNL     1      14.771  30.010  10.240  1.00  0.00    -0.550 OA
ATOM     10  O   UNL     1      14.004  27.888   9.832  1.00  0.00    -0.550 OA
ENDBRANCH   7   8
ENDBRANCH   6   7
ENDBRANCH   5   6
ENDBRANCH   4   5
ENDBRANCH   3   4
ENDBRANCH   2   3
ENDBRANCH   1   2
BRANCH   1  11
ATOM     11  C   UNL     1       5.737  26.687   9.724  1.00  0.00     0.000 C 
BRANCH  11  12
ATOM     12  C   UNL     1       5.433  26.727   8.222  1.00  0.00    -0.000 C 
BRANCH  12  13
ATOM     13  C   UNL     1       4.265  27.678   7.923  1.00  0.00    -0.000 C 
BRANCH  13  14
ATOM     14  C   UNL     1       4.045  28.712   9.039  1.00  0.00    -0.000 C 
BRANCH  14  15
ATOM     15  C   UNL     1       3.409  30.014   8.519  1.00  0.00    -0.000 C 
BRANCH  15  16
ATOM     16  C   UNL     1       1.944  30.169   8.958  1.00  0.00    -0.000 C 
BRANCH  16  17
ATOM     17  C   UNL     1       0.954  29.712   7.877  1.00  0.00    -0.003 C 
ATOM     18  C   UNL     1       0.624  28.228   8.025  1.00  0.00     0.004 C 
ENDBRANCH  16  17
ENDBRANCH  15  16
ENDBRANCH  14  15
ENDBRANCH  13  14
ENDBRANCH  12  13
ENDBRANCH  11  12
ENDBRANCH   1  11
TORSDOF 14
ENDMDL
MODEL 2
REMARK VINA RESULT:     4.470      1.609      2.583
REMARK INTER + INTRA:           8.369
REMARK INTER:                   9.226
REMARK INTRA:                  -0.857
REMARK UNBOUND:                 0.240
REMARK SMILES CCCCCCCCCCCCCCCC(=O)[O-]
REMARK SMILES IDX 9 1 10 2 11 3 12 4 13 5 14 6 15 7 16 8 17 9 18 10 8 11 7 12
REMARK SMILES IDX 6 13 5 14 4 15 3 16 2 17 1 18
REMARK H PARENT
REMARK Flexibility Score: inf
ROOT
ATOM      1  C   UNL     1       8.713  28.669  10.032  1.00  0.00     0.000 C 
ENDROOT
BRANCH   1   2
ATOM      2  C   UNL     1       9.455  29.231   8.810  1.00  0.00     0.000 C 
BRANCH   2   3
ATOM      3  C   UNL     1      10.964  29.415   9.055  1.00  0.00     0.000 C 
BRANCH   3   4
ATOM      4  C   UNL     1      11.720  30.180   7.952  1.00  0.00     0.000 C 
BRANCH   4   5
ATOM      5  C   UNL     1      13.235  29.911   7.970  1.00  0.00     0.000 C 
BRANCH   5   6
ATOM      6  C   UNL     1      13.667  29.027   9.150  1.00  0.00     0.006 C 
BRANCH   6   7
ATOM      7  C   UNL     1      14.716  27.979   8.755  1.00  0.00     0.053 C 
BRANCH   7   8
ATOM      8  C   UNL     1      14.173  26.599   8.953  1.00  0.00     0.041 C 
ATOM      9  O   UNL     1      13.726  26.248  10.078  1.00  0.00    -0.550 OA
ATOM     10  O   UNL     1      14.117  25.714   7.882  1.00  0.00    -0.550 OA
ENDBRANCH   7   8
ENDBRANCH   6   7
ENDBRANCH   5   6
ENDBRANCH   4   5
ENDBRANCH   3   4
ENDBRANCH   2   3
ENDBRANCH   1   2
BRANCH   1  11
ATOM     11  C   UNL     1       7.223  28.475   9.727  1.00  0.00     0.000 C 
BRANCH  11  12
ATOM     12  C   UNL     1       6.973  28.405   8.216  1.00  0.00    -0.000 C 
BRANCH  12  13
ATOM     13  C   UNL     1       5.470  28.325   7.910  1.00  0.00    -0.000 C 
BRANCH  13  14
ATOM     14  C   UNL     1       4.737  27.318   8.812  1.00  0.00    -0.000 C 
BRANCH  14  15
ATOM     15  C   UNL     1       3.211  27.521   8.802  1.00  0.00    -0.000 C 
BRANCH  15  16
ATOM     16  C   UNL     1       2.776  28.668   7.876  1.00  0.00    -0.000 C 
BRANCH  16  17
ATOM     17  C   UNL     1       2.156  29.843   8.645  1.00  0.00    -0.003 C 
ATOM     18  C   UNL     1       3.185  30.507   9.558  1.00  0.00     0.004 C 
ENDBRANCH  16  17
ENDBRANCH  15  16
ENDBRANCH  14  15
ENDBRANCH  13  14
ENDBRANCH  12  13
ENDBRANCH  11  12
ENDBRANCH   1  11
TORSDOF 14
ENDMDL
MODEL 3
REMARK VINA RESULT:     4.616      2.341      3.966
REMARK INTER + INTRA:           8.635
REMARK INTER:                   9.286
REMARK INTRA:                  -0.651
REMARK UNBOUND:                 0.240
REMARK SMILES CCCCCCCCCCCCCCCC(=O)[O-]
REMARK SMILES IDX 9 1 10 2 11 3 12 4 13 5 14 6 15 7 16 8 17 9 18 10 8 11 7 12
REMARK SMILES IDX 6 13 5 14 4 15 3 16 2 17 1 18
REMARK H PARENT
REMARK Flexibility Score: inf
ROOT
ATOM      1  C   UNL     1       8.712  29.249   8.744  1.00  0.00     0.000 C 
ENDROOT
BRANCH   1   2
ATOM      2  C   UNL     1       9.910  29.713   7.902  1.00  0.00     0.000 C 
BRANCH   2   3
ATOM      3  C   UNL     1      11.117  30.140   8.756  1.00  0.00     0.000 C 
BRANCH   3   4
ATOM      4  C   UNL     1      12.240  30.864   7.991  1.00  0.00     0.000 C 
BRANCH   4   5
ATOM      5  C   UNL     1      13.583  30.847   8.743  1.00  0.00     0.000 C 
BRANCH   5   6
ATOM      6  C   UNL     1      13.651  29.744   9.811  1.00  0.00     0.006 C 
BRANCH   6   7
ATOM      7  C   UNL     1      14.615  28.611   9.435  1.00  0.00     0.053 C 
BRANCH   7   8
ATOM      8  C   UNL     1      13.855  27.358   9.135  1.00  0.00     0.041 C 
ATOM      9  O   UNL     1      12.918  27.370   8.293  1.00  0.00    -0.550 OA
ATOM     10  O   UNL     1      14.211  26.165   9.753  1.00  0.00    -0.550 OA
ENDBRANCH   7   8
ENDBRANCH   6   7
ENDBRANCH   5   6
ENDBRANCH   4   5
ENDBRANCH   3   4
ENDBRANCH   2   3
ENDBRANCH   1   2
BRANCH   1  11
ATOM     11  C   UNL     1       7.680  28.519   7.875  1.00  0.00     0.000 C 
BRANCH  11  12
ATOM     12  C   UNL     1       6.323  29.233   7.913  1.00  0.00    -0.000 C 
BRANCH  12  13
ATOM     13  C   UNL     1       5.369  28.546   8.901  1.00  0.00    -0.000 C 
BRANCH  13  14
ATOM     14  C   UNL     1       5.343  27.018   8.732  1.00  0.00    -0.000 C 
BRANCH  14  15
ATOM     15  C   UNL     1       6.032  26.286   9.898  1.00  0.00    -0.000 C 
BRANCH  15  16
ATOM     16  C   UNL     1       5.049  25.902  11.015  1.00  0.00    -0.000 C 
BRANCH  16  17
ATOM     17  C   UNL     1       5.664  24.930  12.032  1.00  0.00    -0.003 C 
ATOM     18  C   UNL     1       5.154  25.214  13.443  1.00  0.00     0.004 C 
ENDBRANCH  16  17
ENDBRANCH  15  16
ENDBRANCH  14  15
ENDBRANCH  13  14
ENDBRANCH  12  13
ENDBRANCH  11  12
ENDBRANCH   1  11
TORSDOF 14
ENDMDL
MODEL 4
REMARK VINA RESULT:     5.577      7.262      9.931
REMARK INTER + INTRA:          10.382
REMARK INTER:                  10.983
REMARK INTRA:                  -0.601
REMARK UNBOUND:                 0.240
REMARK SMILES CCCCCCCCCCCCCCCC(=O)[O-]
REMARK SMILES IDX 9 1 10 2 11 3 12 4 13 5 14 6 15 7 16 8 17 9 18 10 8 11 7 12
REMARK SMILES IDX 6 13 5 14 4 15 3 16 2 17 1 18
REMARK H PARENT
REMARK Flexibility Score: inf
ROOT
ATOM      1  C   UNL     1       4.887  24.816  13.138  1.00  0.00     0.000 C 
ENDROOT
BRANCH   1   2
ATOM      2  C   UNL     1       5.752  25.489  12.062  1.00  0.00     0.000 C 
BRANCH   2   3
ATOM      3  C   UNL     1       4.948  25.897  10.814  1.00  0.00     0.000 C 
BRANCH   3   4
ATOM      4  C   UNL     1       5.767  26.575   9.699  1.00  0.00     0.000 C 
BRANCH   4   5
ATOM      5  C   UNL     1       5.185  27.934   9.272  1.00  0.00     0.000 C 
BRANCH   5   6
ATOM      6  C   UNL     1       3.963  27.792   8.351  1.00  0.00     0.006 C 
BRANCH   6   7
ATOM      7  C   UNL     1       3.365  29.145   7.943  1.00  0.00     0.053 C 
BRANCH   7   8
ATOM      8  C   UNL     1       1.871  29.068   7.919  1.00  0.00     0.041 C 
ATOM      9  O   UNL     1       1.181  30.122   7.892  1.00  0.00    -0.550 OA
ATOM     10  O   UNL     1       1.239  27.830   7.881  1.00  0.00    -0.550 OA
ENDBRANCH   7   8
ENDBRANCH   6   7
ENDBRANCH   5   6
ENDBRANCH   4   5
ENDBRANCH   3   4
ENDBRANCH   2   3
ENDBRANCH   1   2
BRANCH   1  11
ATOM     11  C   UNL     1       5.742  24.375  14.333  1.00  0.00     0.000 C 
BRANCH  11  12
ATOM     12  C   UNL     1       6.862  23.426  13.890  1.00  0.00    -0.000 C 
BRANCH  12  13
ATOM     13  C   UNL     1       7.263  22.480  15.031  1.00  0.00    -0.000 C 
BRANCH  13  14
ATOM     14  C   UNL     1       6.938  23.056  16.419  1.00  0.00    -0.000 C 
BRANCH  14  15
ATOM     15  C   UNL     1       7.011  21.994  17.530  1.00  0.00    -0.000 C 
BRANCH  15  16
ATOM     16  C   UNL     1       5.680  21.837  18.283  1.00  0.00    -0.000 C 
BRANCH  16  17
ATOM     17  C   UNL     1       5.425  20.391  18.731  1.00  0.00    -0.003 C 
ATOM     18  C   UNL     1       5.412  19.438  17.538  1.00  0.00     0.004 C 
ENDBRANCH  16  17
ENDBRANCH  15  16
ENDBRANCH  14  15
ENDBRANCH  13  14
ENDBRANCH  12  13
ENDBRANCH  11  12
ENDBRANCH   1  11
TORSDOF 14
ENDMDL
MODEL 5
REMARK VINA RESULT:     6.037      5.974      7.592
REMARK INTER + INTRA:          11.218
REMARK INTER:                  11.880
REMARK INTRA:                  -0.662
REMARK UNBOUND:                 0.240
REMARK SMILES CCCCCCCCCCCCCCCC(=O)[O-]
REMARK SMILES IDX 9 1 10 2 11 3 12 4 13 5 14 6 15 7 16 8 17 9 18 10 8 11 7 12
REMARK SMILES IDX 6 13 5 14 4 15 3 16 2 17 1 18
REMARK H PARENT
REMARK Flexibility Score: inf
ROOT
ATOM      1  C   UNL     1       5.844  25.865  10.788  1.00  0.00     0.000 C 
ENDROOT
BRANCH   1   2
ATOM      2  C   UNL     1       5.322  25.781  12.230  1.00  0.00     0.000 C 
BRANCH   2   3
ATOM      3  C   UNL     1       5.362  24.353  12.802  1.00  0.00     0.000 C 
BRANCH   3   4
ATOM      4  C   UNL     1       6.043  24.213  14.176  1.00  0.00     0.000 C 
BRANCH   4   5
ATOM      5  C   UNL     1       7.055  23.055  14.227  1.00  0.00     0.000 C 
BRANCH   5   6
ATOM      6  C   UNL     1       7.307  22.552  15.657  1.00  0.00     0.006 C 
BRANCH   6   7
ATOM      7  C   UNL     1       6.336  23.156  16.680  1.00  0.00     0.053 C 
BRANCH   7   8
ATOM      8  C   UNL     1       6.160  22.228  17.841  1.00  0.00     0.041 C 
ATOM      9  O   UNL     1       5.991  22.688  19.001  1.00  0.00    -0.550 OA
ATOM     10  O   UNL     1       6.136  20.853  17.634  1.00  0.00    -0.550 OA
ENDBRANCH   7   8
ENDBRANCH   6   7
ENDBRANCH   5   6
ENDBRANCH   4   5
ENDBRANCH   3   4
ENDBRANCH   2   3
ENDBRANCH   1   2
BRANCH   1  11
ATOM     11  C   UNL     1       5.363  27.151  10.105  1.00  0.00     0.000 C 
BRANCH  11  12
ATOM     12  C   UNL     1       5.396  27.010   8.578  1.00  0.00    -0.000 C 
BRANCH  12  13
ATOM     13  C   UNL     1       4.183  27.700   7.936  1.00  0.00    -0.000 C 
BRANCH  13  14
ATOM     14  C   UNL     1       2.853  27.282   8.586  1.00  0.00    -0.000 C 
BRANCH  14  15
ATOM     15  C   UNL     1       1.675  28.163   8.133  1.00  0.00    -0.000 C 
BRANCH  15  16
ATOM     16  C   UNL     1       2.093  29.619   7.875  1.00  0.00    -0.000 C 
BRANCH  16  17
ATOM     17  C   UNL     1       2.493  30.354   9.162  1.00  0.00    -0.003 C 
ATOM     18  C   UNL     1       3.869  31.002   9.022  1.00  0.00     0.004 C 
ENDBRANCH  16  17
ENDBRANCH  15  16
ENDBRANCH  14  15
ENDBRANCH  13  14
ENDBRANCH  12  13
ENDBRANCH  11  12
ENDBRANCH   1  11
TORSDOF 14
ENDMDL
MODEL 6
REMARK VINA RESULT:     6.111      6.951      8.562
REMARK INTER + INTRA:          11.353
REMARK INTER:                  11.882
REMARK INTRA:                  -0.529
REMARK UNBOUND:                 0.240
REMARK SMILES CCCCCCCCCCCCCCCC(=O)[O-]
REMARK SMILES IDX 9 1 10 2 11 3 12 4 13 5 14 6 15 7 16 8 17 9 18 10 8 11 7 12
REMARK SMILES IDX 6 13 5 14 4 15 3 16 2 17 1 18
REMARK H PARENT
REMARK Flexibility Score: inf
ROOT
ATOM      1  C   UNL     1       5.055  25.482  11.891  1.00  0.00     0.000 C 
ENDROOT
BRANCH   1   2
ATOM      2  C   UNL     1       6.203  25.080  12.829  1.00  0.00     0.000 C 
BRANCH   2   3
ATOM      3  C   UNL     1       5.713  24.399  14.120  1.00  0.00     0.000 C 
BRANCH   3   4
ATOM      4  C   UNL     1       6.685  23.372  14.730  1.00  0.00     0.000 C 
BRANCH   4   5
ATOM      5  C   UNL     1       6.559  23.263  16.260  1.00  0.00     0.000 C 
BRANCH   5   6
ATOM      6  C   UNL     1       6.546  21.808  16.752  1.00  0.00     0.006 C 
BRANCH   6   7
ATOM      7  C   UNL     1       5.930  21.657  18.149  1.00  0.00     0.053 C 
BRANCH   7   8
ATOM      8  C   UNL     1       5.602  20.223  18.421  1.00  0.00     0.041 C 
ATOM      9  O   UNL     1       5.583  19.386  17.480  1.00  0.00    -0.550 OA
ATOM     10  O   UNL     1       5.362  19.800  19.724  1.00  0.00    -0.550 OA
ENDBRANCH   7   8
ENDBRANCH   6   7
ENDBRANCH   5   6
ENDBRANCH   4   5
ENDBRANCH   3   4
ENDBRANCH   2   3
ENDBRANCH   1   2
BRANCH   1  11
ATOM     11  C   UNL     1       5.552  25.633  10.448  1.00  0.00     0.000 C 
BRANCH  11  12
ATOM     12  C   UNL     1       5.369  27.071   9.949  1.00  0.00    -0.000 C 
BRANCH  12  13
ATOM     13  C   UNL     1       5.261  27.112   8.418  1.00  0.00    -0.000 C 
BRANCH  13  14
ATOM     14  C   UNL     1       5.084  28.539   7.875  1.00  0.00    -0.000 C 
BRANCH  14  15
ATOM     15  C   UNL     1       4.099  29.371   8.715  1.00  0.00    -0.000 C 
BRANCH  15  16
ATOM     16  C   UNL     1       2.931  29.921   7.880  1.00  0.00    -0.000 C 
BRANCH  16  17
ATOM     17  C   UNL     1       1.598  29.236   8.209  1.00  0.00    -0.003 C 
ATOM     18  C   UNL     1       1.653  27.743   7.892  1.00  0.00     0.004 C 
ENDBRANCH  16  17
ENDBRANCH  15  16
ENDBRANCH  14  15
ENDBRANCH  13  14
ENDBRANCH  12  13
ENDBRANCH  11  12
ENDBRANCH   1  11
TORSDOF 14
ENDMDL
