MODEL 1
REMARK VINA RESULT:    -3.896      0.000      0.000
REMARK INTER + INTRA:          -5.209
REMARK INTER:                  -4.807
REMARK INTRA:                  -0.402
REMARK UNBOUND:                -0.402
REMARK SMILES C=CC[C@H](C)C(=O)CC
REMARK SMILES IDX 4 1 5 2 6 3 7 4 8 5 9 6 3 7 2 8 1 9
REMARK H PARENT
REMARK Flexibility Score: inf
ROOT
ATOM      1  C   UNL     1      13.334 -30.657  23.333  1.00  0.00     0.057 C 
ATOM      2  C   UNL     1      13.804 -31.868  24.146  1.00  0.00     0.016 C 
ENDROOT
BRANCH   1   3
ATOM      3  C   UNL     1      14.382 -30.294  22.300  1.00  0.00     0.135 C 
ATOM      4  O   UNL     1      14.189 -30.559  21.121  1.00  0.00    -0.299 OA
BRANCH   3   5
ATOM      5  C   UNL     1      15.654 -29.589  22.694  1.00  0.00     0.072 C 
ATOM      6  C   UNL     1      15.754 -28.225  22.021  1.00  0.00     0.012 C 
ENDBRANCH   3   5
ENDBRANCH   1   3
BRANCH   1   7
ATOM      7  C   UNL     1      13.028 -29.467  24.264  1.00  0.00     0.038 C 
BRANCH   7   8
ATOM      8  C   UNL     1      12.142 -28.455  23.586  1.00  0.00    -0.034 C 
ATOM      9  C   UNL     1      11.027 -28.813  22.941  1.00  0.00     0.004 C 
ENDBRANCH   7   8
ENDBRANCH   1   7
TORSDOF 4
ENDMDL
MODEL 2
REMARK VINA RESULT:    -3.854      1.440      2.490
REMARK INTER + INTRA:          -5.157
REMARK INTER:                  -4.862
REMARK INTRA:                  -0.295
REMARK UNBOUND:                -0.402
REMARK SMILES C=CC[C@H](C)C(=O)CC
REMARK SMILES IDX 4 1 5 2 6 3 7 4 8 5 9 6 3 7 2 8 1 9
REMARK H PARENT
REMARK Flexibility Score: inf
ROOT
ATOM      1  C   UNL     1      14.748 -29.936  23.232  1.00  0.00     0.057 C 
ATOM      2  C   UNL     1      15.086 -28.467  22.955  1.00  0.00     0.016 C 
ENDROOT
BRANCH   1   3
ATOM      3  C   UNL     1      14.769 -30.721  21.936  1.00  0.00     0.135 C 
ATOM      4  O   UNL     1      15.839 -31.040  21.437  1.00  0.00    -0.299 OA
BRANCH   3   5
ATOM      5  C   UNL     1      13.490 -31.140  21.257  1.00  0.00     0.072 C 
ATOM      6  C   UNL     1      13.694 -32.410  20.440  1.00  0.00     0.012 C 
ENDBRANCH   3   5
ENDBRANCH   1   3
BRANCH   1   7
ATOM      7  C   UNL     1      13.382 -30.052  23.937  1.00  0.00     0.038 C 
BRANCH   7   8
ATOM      8  C   UNL     1      12.680 -28.721  23.993  1.00  0.00    -0.034 C 
ATOM      9  C   UNL     1      11.429 -28.563  23.548  1.00  0.00     0.004 C 
ENDBRANCH   7   8
ENDBRANCH   1   7
TORSDOF 4
ENDMDL
MODEL 3
REMARK VINA RESULT:    -3.852      1.773      3.406
REMARK INTER + INTRA:          -5.155
REMARK INTER:                  -4.990
REMARK INTRA:                  -0.164
REMARK UNBOUND:                -0.402
REMARK SMILES C=CC[C@H](C)C(=O)CC
REMARK SMILES IDX 4 1 5 2 6 3 7 4 8 5 9 6 3 7 2 8 1 9
REMARK H PARENT
REMARK Flexibility Score: inf
ROOT
ATOM      1  C   UNL     1      13.895 -30.871  22.839  1.00  0.00     0.057 C 
ATOM      2  C   UNL     1      13.598 -31.729  24.074  1.00  0.00     0.016 C 
ENDROOT
BRANCH   1   3
ATOM      3  C   UNL     1      13.872 -29.403  23.216  1.00  0.00     0.135 C 
ATOM      4  O   UNL     1      14.653 -28.627  22.682  1.00  0.00    -0.299 OA
BRANCH   3   5
ATOM      5  C   UNL     1      12.886 -28.873  24.225  1.00  0.00     0.072 C 
ATOM      6  C   UNL     1      11.618 -28.376  23.540  1.00  0.00     0.012 C 
ENDBRANCH   3   5
ENDBRANCH   1   3
BRANCH   1   7
ATOM      7  C   UNL     1      12.888 -31.177  21.713  1.00  0.00     0.038 C 
BRANCH   7   8
ATOM      8  C   UNL     1      13.528 -31.977  20.609  1.00  0.00    -0.034 C 
ATOM      9  C   UNL     1      14.377 -32.977  20.862  1.00  0.00     0.004 C 
ENDBRANCH   7   8
ENDBRANCH   1   7
TORSDOF 4
ENDMDL
MODEL 4
REMARK VINA RESULT:    -3.839      1.662      2.303
REMARK INTER + INTRA:          -5.139
REMARK INTER:                  -4.913
REMARK INTRA:                  -0.226
REMARK UNBOUND:                -0.402
REMARK SMILES C=CC[C@H](C)C(=O)CC
REMARK SMILES IDX 4 1 5 2 6 3 7 4 8 5 9 6 3 7 2 8 1 9
REMARK H PARENT
REMARK Flexibility Score: inf
ROOT
ATOM      1  C   UNL     1      13.278 -31.164  23.228  1.00  0.00     0.057 C 
ATOM      2  C   UNL     1      13.868 -32.164  24.228  1.00  0.00     0.016 C 
ENDROOT
BRANCH   1   3
ATOM      3  C   UNL     1      13.616 -31.591  21.814  1.00  0.00     0.135 C 
ATOM      4  O   UNL     1      12.787 -31.455  20.925  1.00  0.00    -0.299 OA
BRANCH   3   5
ATOM      5  C   UNL     1      14.968 -32.163  21.474  1.00  0.00     0.072 C 
ATOM      6  C   UNL     1      14.836 -33.552  20.860  1.00  0.00     0.012 C 
ENDBRANCH   3   5
ENDBRANCH   1   3
BRANCH   1   7
ATOM      7  C   UNL     1      13.791 -29.740  23.522  1.00  0.00     0.038 C 
BRANCH   7   8
ATOM      8  C   UNL     1      12.729 -28.901  24.182  1.00  0.00    -0.034 C 
ATOM      9  C   UNL     1      11.624 -28.522  23.533  1.00  0.00     0.004 C 
ENDBRANCH   7   8
ENDBRANCH   1   7
TORSDOF 4
ENDMDL
MODEL 5
REMARK VINA RESULT:    -3.829      1.037      3.072
REMARK INTER + INTRA:          -5.127
REMARK INTER:                  -4.632
REMARK INTRA:                  -0.495
REMARK UNBOUND:                -0.402
REMARK SMILES C=CC[C@H](C)C(=O)CC
REMARK SMILES IDX 4 1 5 2 6 3 7 4 8 5 9 6 3 7 2 8 1 9
REMARK H PARENT
REMARK Flexibility Score: inf
ROOT
ATOM      1  C   UNL     1      13.990 -30.629  23.468  1.00  0.00     0.057 C 
ATOM      2  C   UNL     1      13.846 -32.041  24.046  1.00  0.00     0.016 C 
ENDROOT
BRANCH   1   3
ATOM      3  C   UNL     1      12.705 -30.225  22.774  1.00  0.00     0.135 C 
ATOM      4  O   UNL     1      12.280 -30.896  21.845  1.00  0.00    -0.299 OA
BRANCH   3   5
ATOM      5  C   UNL     1      11.924 -29.017  23.223  1.00  0.00     0.072 C 
ATOM      6  C   UNL     1      12.588 -28.351  24.423  1.00  0.00     0.012 C 
ENDBRANCH   3   5
ENDBRANCH   1   3
BRANCH   1   7
ATOM      7  C   UNL     1      15.194 -30.559  22.508  1.00  0.00     0.038 C 
BRANCH   7   8
ATOM      8  C   UNL     1      15.361 -29.174  21.940  1.00  0.00    -0.034 C 
ATOM      9  C   UNL     1      15.900 -28.180  22.653  1.00  0.00     0.004 C 
ENDBRANCH   7   8
ENDBRANCH   1   7
TORSDOF 4
ENDMDL
MODEL 6
REMARK VINA RESULT:    -3.813      2.232      4.123
REMARK INTER + INTRA:          -5.108
REMARK INTER:                  -4.841
REMARK INTRA:                  -0.267
REMARK UNBOUND:                -0.402
REMARK SMILES C=CC[C@H](C)C(=O)CC
REMARK SMILES IDX 4 1 5 2 6 3 7 4 8 5 9 6 3 7 2 8 1 9
REMARK H PARENT
REMARK Flexibility Score: inf
ROOT
ATOM      1  C   UNL     1      13.907 -30.931  21.219  1.00  0.00     0.057 C 
ATOM      2  C   UNL     1      15.315 -30.535  21.677  1.00  0.00     0.016 C 
ENDROOT
BRANCH   1   3
ATOM      3  C   UNL     1      12.905 -30.621  22.312  1.00  0.00     0.135 C 
ATOM      4  O   UNL     1      11.709 -30.621  22.057  1.00  0.00    -0.299 OA
BRANCH   3   5
ATOM      5  C   UNL     1      13.353 -30.333  23.722  1.00  0.00     0.072 C 
ATOM      6  C   UNL     1      12.759 -29.023  24.228  1.00  0.00     0.012 C 
ENDBRANCH   3   5
ENDBRANCH   1   3
BRANCH   1   7
ATOM      7  C   UNL     1      13.866 -32.422  20.826  1.00  0.00     0.038 C 
BRANCH   7   8
ATOM      8  C   UNL     1      14.791 -33.240  21.689  1.00  0.00    -0.034 C 
ATOM      9  C   UNL     1      15.361 -34.364  21.244  1.00  0.00     0.004 C 
ENDBRANCH   7   8
ENDBRANCH   1   7
TORSDOF 4
ENDMDL
MODEL 7
REMARK VINA RESULT:    -3.806      1.018      1.425
REMARK INTER + INTRA:          -5.099
REMARK INTER:                  -4.700
REMARK INTRA:                  -0.399
REMARK UNBOUND:                -0.402
REMARK SMILES C=CC[C@H](C)C(=O)CC
REMARK SMILES IDX 4 1 5 2 6 3 7 4 8 5 9 6 3 7 2 8 1 9
REMARK H PARENT
REMARK Flexibility Score: inf
ROOT
ATOM      1  C   UNL     1      13.868 -30.226  22.332  1.00  0.00     0.057 C 
ATOM      2  C   UNL     1      13.224 -31.327  21.482  1.00  0.00     0.016 C 
ENDROOT
BRANCH   1   3
ATOM      3  C   UNL     1      15.376 -30.293  22.203  1.00  0.00     0.135 C 
ATOM      4  O   UNL     1      15.881 -30.992  21.336  1.00  0.00    -0.299 OA
BRANCH   3   5
ATOM      5  C   UNL     1      16.272 -29.493  23.113  1.00  0.00     0.072 C 
ATOM      6  C   UNL     1      16.142 -28.000  22.834  1.00  0.00     0.012 C 
ENDBRANCH   3   5
ENDBRANCH   1   3
BRANCH   1   7
ATOM      7  C   UNL     1      13.423 -30.350  23.803  1.00  0.00     0.038 C 
BRANCH   7   8
ATOM      8  C   UNL     1      12.753 -29.089  24.280  1.00  0.00    -0.034 C 
ATOM      9  C   UNL     1      11.841 -28.451  23.541  1.00  0.00     0.004 C 
ENDBRANCH   7   8
ENDBRANCH   1   7
TORSDOF 4
ENDMDL
MODEL 8
REMARK VINA RESULT:    -3.773      1.889      3.580
REMARK INTER + INTRA:          -5.058
REMARK INTER:                  -4.602
REMARK INTRA:                  -0.456
REMARK UNBOUND:                -0.402
REMARK SMILES C=CC[C@H](C)C(=O)CC
REMARK SMILES IDX 4 1 5 2 6 3 7 4 8 5 9 6 3 7 2 8 1 9
REMARK H PARENT
REMARK Flexibility Score: inf
ROOT
ATOM      1  C   UNL     1      14.318 -29.208  22.982  1.00  0.00     0.057 C 
ATOM      2  C   UNL     1      15.769 -28.716  22.973  1.00  0.00     0.016 C 
ENDROOT
BRANCH   1   3
ATOM      3  C   UNL     1      13.467 -28.284  23.829  1.00  0.00     0.135 C 
ATOM      4  O   UNL     1      13.920 -27.210  24.199  1.00  0.00    -0.299 OA
BRANCH   3   5
ATOM      5  C   UNL     1      12.056 -28.654  24.208  1.00  0.00     0.072 C 
ATOM      6  C   UNL     1      11.086 -28.352  23.071  1.00  0.00     0.012 C 
ENDBRANCH   3   5
ENDBRANCH   1   3
BRANCH   1   7
ATOM      7  C   UNL     1      14.244 -30.662  23.488  1.00  0.00     0.038 C 
BRANCH   7   8
ATOM      8  C   UNL     1      13.838 -31.606  22.387  1.00  0.00    -0.034 C 
ATOM      9  C   UNL     1      13.029 -31.225  21.393  1.00  0.00     0.004 C 
ENDBRANCH   7   8
ENDBRANCH   1   7
TORSDOF 4
ENDMDL
MODEL 9
REMARK VINA RESULT:    -3.711      1.624      2.621
REMARK INTER + INTRA:          -4.982
REMARK INTER:                  -4.528
REMARK INTRA:                  -0.453
REMARK UNBOUND:                -0.402
REMARK SMILES C=CC[C@H](C)C(=O)CC
REMARK SMILES IDX 4 1 5 2 6 3 7 4 8 5 9 6 3 7 2 8 1 9
REMARK H PARENT
REMARK Flexibility Score: inf
ROOT
ATOM      1  C   UNL     1      13.749 -30.110  23.854  1.00  0.00     0.057 C 
ATOM      2  C   UNL     1      12.718 -28.979  23.927  1.00  0.00     0.016 C 
ENDROOT
BRANCH   1   3
ATOM      3  C   UNL     1      15.006 -29.615  23.167  1.00  0.00     0.135 C 
ATOM      4  O   UNL     1      15.034 -28.489  22.689  1.00  0.00    -0.299 OA
BRANCH   3   5
ATOM      5  C   UNL     1      16.238 -30.479  23.079  1.00  0.00     0.072 C 
ATOM      6  C   UNL     1      16.585 -30.791  21.628  1.00  0.00     0.012 C 
ENDBRANCH   3   5
ENDBRANCH   1   3
BRANCH   1   7
ATOM      7  C   UNL     1      13.158 -31.335  23.129  1.00  0.00     0.038 C 
BRANCH   7   8
ATOM      8  C   UNL     1      12.789 -31.003  21.707  1.00  0.00    -0.034 C 
ATOM      9  C   UNL     1      13.209 -31.745  20.677  1.00  0.00     0.004 C 
ENDBRANCH   7   8
ENDBRANCH   1   7
TORSDOF 4
ENDMDL
