MODEL 1
REMARK VINA RESULT:    -5.455      0.000      0.000
REMARK INTER + INTRA:          -5.614
REMARK INTER:                  -5.614
REMARK INTRA:                   0.000
REMARK UNBOUND:                 0.000
REMARK SMILES Nc1ncnc2nc[nH]c12
REMARK SMILES IDX 8 1 7 2 6 3 5 4 4 5 3 6 2 7 10 8 9 9 1 11
REMARK H PARENT 9 10 1 12 1 13
REMARK Flexibility Score: inf
ROOT
ATOM      1  C   UNL     1      25.463 -11.822  24.771  1.00  0.00     0.199 A 
ATOM      2  N   UNL     1      24.471 -11.565  23.875  1.00  0.00    -0.217 NA
ATOM      3  C   UNL     1      23.713 -12.670  23.964  1.00  0.00     0.182 A 
ATOM      4  N   UNL     1      22.580 -12.931  23.270  1.00  0.00    -0.215 NA
ATOM      5  C   UNL     1      21.943 -14.119  23.499  1.00  0.00     0.226 A 
ATOM      6  N   UNL     1      22.445 -15.015  24.407  1.00  0.00    -0.217 NA
ATOM      7  C   UNL     1      23.588 -14.754  25.109  1.00  0.00     0.152 A 
ATOM      8  C   UNL     1      24.226 -13.541  24.865  1.00  0.00     0.127 A 
ATOM      9  N   UNL     1      25.341 -13.022  25.393  1.00  0.00    -0.340 N 
ATOM     10  H   UNL     1      25.975 -13.432  26.113  1.00  0.00     0.168 HD
ENDROOT
BRANCH   7  11
ATOM     11  N   UNL     1      24.092 -15.702  26.050  1.00  0.00    -0.382 N 
ATOM     12  H   UNL     1      24.989 -15.540  26.558  1.00  0.00     0.158 HD
ATOM     13  H   UNL     1      23.560 -16.580  26.244  1.00  0.00     0.158 HD
ENDBRANCH   7  11
TORSDOF 1
ENDMDL
MODEL 2
REMARK VINA RESULT:    -5.121      0.880      2.928
REMARK INTER + INTRA:          -5.271
REMARK INTER:                  -5.271
REMARK INTRA:                   0.000
REMARK UNBOUND:                 0.000
REMARK SMILES Nc1ncnc2nc[nH]c12
REMARK SMILES IDX 8 1 7 2 6 3 5 4 4 5 3 6 2 7 10 8 9 9 1 11
REMARK H PARENT 9 10 1 12 1 13
REMARK Flexibility Score: inf
ROOT
ATOM      1  C   UNL     1      21.143 -14.505  23.262  1.00  0.00     0.199 A 
ATOM      2  N   UNL     1      21.679 -13.339  22.807  1.00  0.00    -0.217 NA
ATOM      3  C   UNL     1      22.783 -13.219  23.561  1.00  0.00     0.182 A 
ATOM      4  N   UNL     1      23.692 -12.215  23.511  1.00  0.00    -0.215 NA
ATOM      5  C   UNL     1      24.759 -12.268  24.364  1.00  0.00     0.226 A 
ATOM      6  N   UNL     1      24.897 -13.312  25.243  1.00  0.00    -0.217 NA
ATOM      7  C   UNL     1      23.982 -14.325  25.296  1.00  0.00     0.152 A 
ATOM      8  C   UNL     1      22.901 -14.258  24.421  1.00  0.00     0.127 A 
ATOM      9  N   UNL     1      21.867 -15.090  24.249  1.00  0.00    -0.340 N 
ATOM     10  H   UNL     1      21.657 -15.982  24.749  1.00  0.00     0.168 HD
ENDROOT
BRANCH   7  11
ATOM     11  N   UNL     1      24.146 -15.402  26.220  1.00  0.00    -0.382 N 
ATOM     12  H   UNL     1      23.372 -15.697  26.853  1.00  0.00     0.158 HD
ATOM     13  H   UNL     1      25.056 -15.912  26.270  1.00  0.00     0.158 HD
ENDBRANCH   7  11
TORSDOF 1
ENDMDL
MODEL 3
REMARK VINA RESULT:    -4.811      0.853      2.452
REMARK INTER + INTRA:          -4.952
REMARK INTER:                  -4.952
REMARK INTRA:                   0.000
REMARK UNBOUND:                 0.000
REMARK SMILES Nc1ncnc2nc[nH]c12
REMARK SMILES IDX 8 1 7 2 6 3 5 4 4 5 3 6 2 7 10 8 9 9 1 11
REMARK H PARENT 9 10 1 12 1 13
REMARK Flexibility Score: inf
ROOT
ATOM      1  C   UNL     1      24.675 -11.198  24.612  1.00  0.00     0.199 A 
ATOM      2  N   UNL     1      25.174 -12.203  25.383  1.00  0.00    -0.217 NA
ATOM      3  C   UNL     1      24.349 -13.223  25.091  1.00  0.00     0.182 A 
ATOM      4  N   UNL     1      24.405 -14.478  25.597  1.00  0.00    -0.215 NA
ATOM      5  C   UNL     1      23.473 -15.385  25.176  1.00  0.00     0.226 A 
ATOM      6  N   UNL     1      22.511 -15.025  24.267  1.00  0.00    -0.217 NA
ATOM      7  C   UNL     1      22.453 -13.759  23.756  1.00  0.00     0.152 A 
ATOM      8  C   UNL     1      23.409 -12.847  24.194  1.00  0.00     0.127 A 
ATOM      9  N   UNL     1      23.596 -11.561  23.873  1.00  0.00    -0.340 N 
ATOM     10  H   UNL     1      23.049 -10.966  23.213  1.00  0.00     0.168 HD
ENDROOT
BRANCH   7  11
ATOM     11  N   UNL     1      21.442 -13.406  22.810  1.00  0.00    -0.382 N 
ATOM     12  H   UNL     1      20.666 -12.756  23.062  1.00  0.00     0.158 HD
ATOM     13  H   UNL     1      21.471 -13.800  21.843  1.00  0.00     0.158 HD
ENDBRANCH   7  11
TORSDOF 1
ENDMDL
MODEL 4
REMARK VINA RESULT:    -4.661      7.552      8.436
REMARK INTER + INTRA:          -4.797
REMARK INTER:                  -4.797
REMARK INTRA:                   0.000
REMARK UNBOUND:                 0.000
REMARK SMILES Nc1ncnc2nc[nH]c12
REMARK SMILES IDX 8 1 7 2 6 3 5 4 4 5 3 6 2 7 10 8 9 9 1 11
REMARK H PARENT 9 10 1 12 1 13
REMARK Flexibility Score: inf
ROOT
ATOM      1  C   UNL     1      29.164  -9.340  21.886  1.00  0.00     0.199 A 
ATOM      2  N   UNL     1      28.458  -8.275  22.357  1.00  0.00    -0.217 NA
ATOM      3  C   UNL     1      29.100  -7.992  23.503  1.00  0.00     0.182 A 
ATOM      4  N   UNL     1      28.797  -7.002  24.376  1.00  0.00    -0.215 NA
ATOM      5  C   UNL     1      29.571  -6.870  25.495  1.00  0.00     0.226 A 
ATOM      6  N   UNL     1      30.623  -7.721  25.719  1.00  0.00    -0.217 NA
ATOM      7  C   UNL     1      30.931  -8.720  24.839  1.00  0.00     0.152 A 
ATOM      8  C   UNL     1      30.133  -8.843  23.705  1.00  0.00     0.127 A 
ATOM      9  N   UNL     1      30.194  -9.710  22.688  1.00  0.00    -0.340 N 
ATOM     10  H   UNL     1      30.869 -10.491  22.535  1.00  0.00     0.168 HD
ENDROOT
BRANCH   7  11
ATOM     11  N   UNL     1      32.031  -9.595  25.093  1.00  0.00    -0.382 N 
ATOM     12  H   UNL     1      32.190 -10.449  24.516  1.00  0.00     0.158 HD
ATOM     13  H   UNL     1      32.697  -9.384  25.869  1.00  0.00     0.158 HD
ENDBRANCH   7  11
TORSDOF 1
ENDMDL
MODEL 5
REMARK VINA RESULT:    -4.651      6.978      8.459
REMARK INTER + INTRA:          -4.787
REMARK INTER:                  -4.787
REMARK INTRA:                   0.000
REMARK UNBOUND:                 0.000
REMARK SMILES Nc1ncnc2nc[nH]c12
REMARK SMILES IDX 8 1 7 2 6 3 5 4 4 5 3 6 2 7 10 8 9 9 1 11
REMARK H PARENT 9 10 1 12 1 13
REMARK Flexibility Score: inf
ROOT
ATOM      1  C   UNL     1      28.976  -7.235  24.094  1.00  0.00     0.199 A 
ATOM      2  N   UNL     1      28.199  -8.258  24.545  1.00  0.00    -0.217 NA
ATOM      3  C   UNL     1      27.814  -7.814  25.753  1.00  0.00     0.182 A 
ATOM      4  N   UNL     1      27.016  -8.460  26.635  1.00  0.00    -0.215 NA
ATOM      5  C   UNL     1      26.733  -7.843  27.822  1.00  0.00     0.226 A 
ATOM      6  N   UNL     1      27.250  -6.604  28.103  1.00  0.00    -0.217 NA
ATOM      7  C   UNL     1      28.056  -5.950  27.214  1.00  0.00     0.152 A 
ATOM      8  C   UNL     1      28.334  -6.591  26.010  1.00  0.00     0.127 A 
ATOM      9  N   UNL     1      29.078  -6.202  24.968  1.00  0.00    -0.340 N 
ATOM     10  H   UNL     1      29.614  -5.315  24.843  1.00  0.00     0.168 HD
ENDROOT
BRANCH   7  11
ATOM     11  N   UNL     1      28.583  -4.660  27.528  1.00  0.00    -0.382 N 
ATOM     12  H   UNL     1      29.560  -4.396  27.277  1.00  0.00     0.158 HD
ATOM     13  H   UNL     1      27.985  -3.957  28.017  1.00  0.00     0.158 HD
ENDBRANCH   7  11
TORSDOF 1
ENDMDL
MODEL 6
REMARK VINA RESULT:    -4.609      2.524      4.645
REMARK INTER + INTRA:          -4.743
REMARK INTER:                  -4.743
REMARK INTRA:                   0.000
REMARK UNBOUND:                 0.000
REMARK SMILES Nc1ncnc2nc[nH]c12
REMARK SMILES IDX 8 1 7 2 6 3 5 4 4 5 3 6 2 7 10 8 9 9 1 11
REMARK H PARENT 9 10 1 12 1 13
REMARK Flexibility Score: inf
ROOT
ATOM      1  C   UNL     1      24.307 -12.704  24.344  1.00  0.00     0.199 A 
ATOM      2  N   UNL     1      25.589 -12.244  24.357  1.00  0.00    -0.217 NA
ATOM      3  C   UNL     1      25.471 -11.088  25.031  1.00  0.00     0.182 A 
ATOM      4  N   UNL     1      26.467 -10.220  25.328  1.00  0.00    -0.215 NA
ATOM      5  C   UNL     1      26.150  -9.089  26.027  1.00  0.00     0.226 A 
ATOM      6  N   UNL     1      24.856  -8.847  26.411  1.00  0.00    -0.217 NA
ATOM      7  C   UNL     1      23.849  -9.721  26.112  1.00  0.00     0.152 A 
ATOM      8  C   UNL     1      24.187 -10.869  25.400  1.00  0.00     0.127 A 
ATOM      9  N   UNL     1      23.427 -11.885  24.974  1.00  0.00    -0.340 N 
ATOM     10  H   UNL     1      22.400 -12.026  25.092  1.00  0.00     0.168 HD
ENDROOT
BRANCH   7  11
ATOM     11  N   UNL     1      22.508  -9.448  26.523  1.00  0.00    -0.382 N 
ATOM     12  H   UNL     1      22.301  -9.023  27.452  1.00  0.00     0.158 HD
ATOM     13  H   UNL     1      21.711  -9.674  25.886  1.00  0.00     0.158 HD
ENDBRANCH   7  11
TORSDOF 1
ENDMDL
MODEL 7
REMARK VINA RESULT:    -4.566      7.830      8.528
REMARK INTER + INTRA:          -4.700
REMARK INTER:                  -4.700
REMARK INTRA:                   0.000
REMARK UNBOUND:                 0.000
REMARK SMILES Nc1ncnc2nc[nH]c12
REMARK SMILES IDX 8 1 7 2 6 3 5 4 4 5 3 6 2 7 10 8 9 9 1 11
REMARK H PARENT 9 10 1 12 1 13
REMARK Flexibility Score: inf
ROOT
ATOM      1  C   UNL     1      31.917 -10.343  21.624  1.00  0.00     0.199 A 
ATOM      2  N   UNL     1      30.763  -9.884  21.066  1.00  0.00    -0.217 NA
ATOM      3  C   UNL     1      30.212  -9.195  22.079  1.00  0.00     0.182 A 
ATOM      4  N   UNL     1      29.033  -8.527  22.054  1.00  0.00    -0.215 NA
ATOM      5  C   UNL     1      28.636  -7.879  23.191  1.00  0.00     0.226 A 
ATOM      6  N   UNL     1      29.414  -7.912  24.320  1.00  0.00    -0.217 NA
ATOM      7  C   UNL     1      30.602  -8.586  24.346  1.00  0.00     0.152 A 
ATOM      8  C   UNL     1      30.994  -9.240  23.182  1.00  0.00     0.127 A 
ATOM      9  N   UNL     1      32.087  -9.965  22.916  1.00  0.00    -0.340 N 
ATOM     10  H   UNL     1      32.887 -10.194  23.545  1.00  0.00     0.168 HD
ENDROOT
BRANCH   7  11
ATOM     11  N   UNL     1      31.396  -8.606  25.534  1.00  0.00    -0.382 N 
ATOM     12  H   UNL     1      31.014  -8.964  26.436  1.00  0.00     0.158 HD
ATOM     13  H   UNL     1      32.381  -8.260  25.510  1.00  0.00     0.158 HD
ENDBRANCH   7  11
TORSDOF 1
ENDMDL
MODEL 8
REMARK VINA RESULT:    -4.529      6.583      7.700
REMARK INTER + INTRA:          -4.661
REMARK INTER:                  -4.661
REMARK INTRA:                   0.000
REMARK UNBOUND:                 0.000
REMARK SMILES Nc1ncnc2nc[nH]c12
REMARK SMILES IDX 8 1 7 2 6 3 5 4 4 5 3 6 2 7 10 8 9 9 1 11
REMARK H PARENT 9 10 1 12 1 13
REMARK Flexibility Score: inf
ROOT
ATOM      1  C   UNL     1      24.822 -12.336  19.656  1.00  0.00     0.199 A 
ATOM      2  N   UNL     1      25.623 -13.140  18.904  1.00  0.00    -0.217 NA
ATOM      3  C   UNL     1      24.993 -13.142  17.718  1.00  0.00     0.182 A 
ATOM      4  N   UNL     1      25.379 -13.800  16.599  1.00  0.00    -0.215 NA
ATOM      5  C   UNL     1      24.604 -13.679  15.480  1.00  0.00     0.226 A 
ATOM      6  N   UNL     1      23.467 -12.911  15.499  1.00  0.00    -0.217 NA
ATOM      7  C   UNL     1      23.076 -12.247  16.628  1.00  0.00     0.152 A 
ATOM      8  C   UNL     1      23.876 -12.379  17.759  1.00  0.00     0.127 A 
ATOM      9  N   UNL     1      23.746 -11.856  18.984  1.00  0.00    -0.340 N 
ATOM     10  H   UNL     1      22.999 -11.225  19.348  1.00  0.00     0.168 HD
ENDROOT
BRANCH   7  11
ATOM     11  N   UNL     1      21.888 -11.453  16.625  1.00  0.00    -0.382 N 
ATOM     12  H   UNL     1      21.707 -10.750  15.876  1.00  0.00     0.158 HD
ATOM     13  H   UNL     1      21.179 -11.571  17.383  1.00  0.00     0.158 HD
ENDBRANCH   7  11
TORSDOF 1
ENDMDL
MODEL 9
REMARK VINA RESULT:    -4.511      4.419      5.933
REMARK INTER + INTRA:          -4.643
REMARK INTER:                  -4.643
REMARK INTRA:                   0.000
REMARK UNBOUND:                 0.000
REMARK SMILES Nc1ncnc2nc[nH]c12
REMARK SMILES IDX 8 1 7 2 6 3 5 4 4 5 3 6 2 7 10 8 9 9 1 11
REMARK H PARENT 9 10 1 12 1 13
REMARK Flexibility Score: inf
ROOT
ATOM      1  C   UNL     1      24.614 -10.548  25.335  1.00  0.00     0.199 A 
ATOM      2  N   UNL     1      25.542  -9.935  26.121  1.00  0.00    -0.217 NA
ATOM      3  C   UNL     1      24.775  -9.248  26.983  1.00  0.00     0.182 A 
ATOM      4  N   UNL     1      25.206  -8.454  27.993  1.00  0.00    -0.215 NA
ATOM      5  C   UNL     1      24.268  -7.833  28.770  1.00  0.00     0.226 A 
ATOM      6  N   UNL     1      22.930  -8.015  28.527  1.00  0.00    -0.217 NA
ATOM      7  C   UNL     1      22.494  -8.815  27.509  1.00  0.00     0.152 A 
ATOM      8  C   UNL     1      23.460  -9.440  26.726  1.00  0.00     0.127 A 
ATOM      9  N   UNL     1      23.333 -10.265  25.680  1.00  0.00    -0.340 N 
ATOM     10  H   UNL     1      22.461 -10.616  25.227  1.00  0.00     0.168 HD
ENDROOT
BRANCH   7  11
ATOM     11  N   UNL     1      21.095  -8.989  27.274  1.00  0.00    -0.382 N 
ATOM     12  H   UNL     1      20.643  -9.925  27.357  1.00  0.00     0.158 HD
ATOM     13  H   UNL     1      20.504  -8.168  27.014  1.00  0.00     0.158 HD
ENDBRANCH   7  11
TORSDOF 1
ENDMDL
