MODEL 1
REMARK VINA RESULT:    -3.811      0.000      0.000
REMARK INTER + INTRA:          -4.472
REMARK INTER:                  -4.256
REMARK INTRA:                  -0.215
REMARK UNBOUND:                -0.215
REMARK SMILES O=C([O-])C=Cc1ccccc1
REMARK SMILES IDX 4 1 5 2 2 3 1 4 3 5 6 6 7 7 11 8 8 9 10 10 9 11
REMARK H PARENT
REMARK Flexibility Score: inf
ROOT
ATOM      1  C   UNL     1     -22.489  23.777  10.872  1.00  0.00     0.025 C 
ATOM      2  C   UNL     1     -21.744  22.949  11.621  1.00  0.00     0.010 C 
ENDROOT
BRANCH   1   3
ATOM      3  C   UNL     1     -23.067  25.060  11.318  1.00  0.00     0.064 C 
ATOM      4  O   UNL     1     -23.970  25.105  12.195  1.00  0.00    -0.545 OA
ATOM      5  O   UNL     1     -22.654  26.236  10.709  1.00  0.00    -0.545 OA
ENDBRANCH   1   3
BRANCH   2   6
ATOM      6  C   UNL     1     -21.215  23.254  12.966  1.00  0.00    -0.026 A 
ATOM      7  C   UNL     1     -21.957  22.877  14.097  1.00  0.00     0.008 A 
ATOM      8  C   UNL     1     -19.940  23.820  13.138  1.00  0.00     0.008 A 
ATOM      9  C   UNL     1     -21.453  23.111  15.381  1.00  0.00     0.001 A 
ATOM     10  C   UNL     1     -19.438  24.052  14.423  1.00  0.00     0.001 A 
ATOM     11  C   UNL     1     -20.197  23.702  15.544  1.00  0.00     0.000 A 
ENDBRANCH   2   6
TORSDOF 2
ENDMDL
MODEL 2
REMARK VINA RESULT:    -3.805      2.196      3.280
REMARK INTER + INTRA:          -4.465
REMARK INTER:                  -4.251
REMARK INTRA:                  -0.214
REMARK UNBOUND:                -0.215
REMARK SMILES O=C([O-])C=Cc1ccccc1
REMARK SMILES IDX 4 1 5 2 2 3 1 4 3 5 6 6 7 7 11 8 8 9 10 10 9 11
REMARK H PARENT
REMARK Flexibility Score: inf
ROOT
ATOM      1  C   UNL     1     -22.990  25.983   9.604  1.00  0.00     0.025 C 
ATOM      2  C   UNL     1     -22.995  26.086  10.942  1.00  0.00     0.010 C 
ENDROOT
BRANCH   1   3
ATOM      3  C   UNL     1     -22.761  24.744   8.835  1.00  0.00     0.064 C 
ATOM      4  O   UNL     1     -23.674  23.893   8.672  1.00  0.00    -0.545 OA
ATOM      5  O   UNL     1     -21.492  24.480   8.340  1.00  0.00    -0.545 OA
ENDBRANCH   1   3
BRANCH   2   6
ATOM      6  C   UNL     1     -22.954  24.952  11.889  1.00  0.00    -0.026 A 
ATOM      7  C   UNL     1     -21.716  24.383  12.227  1.00  0.00     0.008 A 
ATOM      8  C   UNL     1     -24.118  24.499  12.535  1.00  0.00     0.008 A 
ATOM      9  C   UNL     1     -21.650  23.342  13.158  1.00  0.00     0.001 A 
ATOM     10  C   UNL     1     -24.048  23.458  13.466  1.00  0.00     0.001 A 
ATOM     11  C   UNL     1     -22.814  22.877  13.774  1.00  0.00     0.000 A 
ENDBRANCH   2   6
TORSDOF 2
ENDMDL
MODEL 3
REMARK VINA RESULT:    -3.696      2.268      4.753
REMARK INTER + INTRA:          -4.343
REMARK INTER:                  -4.186
REMARK INTRA:                  -0.157
REMARK UNBOUND:                -0.215
REMARK SMILES O=C([O-])C=Cc1ccccc1
REMARK SMILES IDX 4 1 5 2 2 3 1 4 3 5 6 6 7 7 11 8 8 9 10 10 9 11
REMARK H PARENT
REMARK Flexibility Score: inf
ROOT
ATOM      1  C   UNL     1     -22.437  23.600  13.633  1.00  0.00     0.025 C 
ATOM      2  C   UNL     1     -23.495  23.911  12.868  1.00  0.00     0.010 C 
ENDROOT
BRANCH   1   3
ATOM      3  C   UNL     1     -21.026  23.610  13.200  1.00  0.00     0.064 C 
ATOM      4  O   UNL     1     -20.621  22.875  12.261  1.00  0.00    -0.545 OA
ATOM      5  O   UNL     1     -20.113  24.396  13.888  1.00  0.00    -0.545 OA
ENDBRANCH   1   3
BRANCH   2   6
ATOM      6  C   UNL     1     -23.430  24.493  11.512  1.00  0.00    -0.026 A 
ATOM      7  C   UNL     1     -23.079  25.844  11.359  1.00  0.00     0.008 A 
ATOM      8  C   UNL     1     -23.612  23.697  10.367  1.00  0.00     0.008 A 
ATOM      9  C   UNL     1     -22.963  26.402  10.082  1.00  0.00     0.001 A 
ATOM     10  C   UNL     1     -23.494  24.258   9.092  1.00  0.00     0.001 A 
ATOM     11  C   UNL     1     -23.174  25.612   8.950  1.00  0.00     0.000 A 
ENDBRANCH   2   6
TORSDOF 2
ENDMDL
MODEL 4
REMARK VINA RESULT:    -3.616      8.689     10.328
REMARK INTER + INTRA:          -4.254
REMARK INTER:                  -4.036
REMARK INTRA:                  -0.218
REMARK UNBOUND:                -0.215
REMARK SMILES O=C([O-])C=Cc1ccccc1
REMARK SMILES IDX 4 1 5 2 2 3 1 4 3 5 6 6 7 7 11 8 8 9 10 10 9 11
REMARK H PARENT
REMARK Flexibility Score: inf
ROOT
ATOM      1  C   UNL     1     -20.525  28.633  19.396  1.00  0.00     0.025 C 
ATOM      2  C   UNL     1     -19.782  29.615  19.930  1.00  0.00     0.010 C 
ENDROOT
BRANCH   1   3
ATOM      3  C   UNL     1     -20.839  27.341  20.038  1.00  0.00     0.064 C 
ATOM      4  O   UNL     1     -21.851  27.201  20.774  1.00  0.00    -0.545 OA
ATOM      5  O   UNL     1     -19.961  26.278  19.882  1.00  0.00    -0.545 OA
ENDBRANCH   1   3
BRANCH   2   6
ATOM      6  C   UNL     1     -19.294  29.658  21.323  1.00  0.00    -0.026 A 
ATOM      7  C   UNL     1     -18.139  28.939  21.670  1.00  0.00     0.008 A 
ATOM      8  C   UNL     1     -19.903  30.485  22.284  1.00  0.00     0.008 A 
ATOM      9  C   UNL     1     -17.632  29.006  22.972  1.00  0.00     0.001 A 
ATOM     10  C   UNL     1     -19.393  30.550  23.584  1.00  0.00     0.001 A 
ATOM     11  C   UNL     1     -18.260  29.806  23.929  1.00  0.00     0.000 A 
ENDBRANCH   2   6
TORSDOF 2
ENDMDL
MODEL 5
REMARK VINA RESULT:    -3.569      9.548     10.951
REMARK INTER + INTRA:          -4.201
REMARK INTER:                  -3.926
REMARK INTRA:                  -0.275
REMARK UNBOUND:                -0.215
REMARK SMILES O=C([O-])C=Cc1ccccc1
REMARK SMILES IDX 4 1 5 2 2 3 1 4 3 5 6 6 7 7 11 8 8 9 10 10 9 11
REMARK H PARENT
REMARK Flexibility Score: inf
ROOT
ATOM      1  C   UNL     1     -23.043  32.219  22.244  1.00  0.00     0.025 C 
ATOM      2  C   UNL     1     -22.514  30.989  22.326  1.00  0.00     0.010 C 
ENDROOT
BRANCH   1   3
ATOM      3  C   UNL     1     -22.872  33.160  21.119  1.00  0.00     0.064 C 
ATOM      4  O   UNL     1     -21.918  33.981  21.088  1.00  0.00    -0.545 OA
ATOM      5  O   UNL     1     -23.821  33.185  20.108  1.00  0.00    -0.545 OA
ENDBRANCH   1   3
BRANCH   2   6
ATOM      6  C   UNL     1     -21.816  30.282  21.233  1.00  0.00    -0.026 A 
ATOM      7  C   UNL     1     -20.413  30.291  21.195  1.00  0.00     0.008 A 
ATOM      8  C   UNL     1     -22.525  29.518  20.289  1.00  0.00     0.008 A 
ATOM      9  C   UNL     1     -19.730  29.587  20.197  1.00  0.00     0.001 A 
ATOM     10  C   UNL     1     -21.839  28.815  19.293  1.00  0.00     0.001 A 
ATOM     11  C   UNL     1     -20.442  28.854  19.245  1.00  0.00     0.000 A 
ENDBRANCH   2   6
TORSDOF 2
ENDMDL
MODEL 6
REMARK VINA RESULT:    -3.519      8.753     10.344
REMARK INTER + INTRA:          -4.145
REMARK INTER:                  -3.875
REMARK INTRA:                  -0.270
REMARK UNBOUND:                -0.215
REMARK SMILES O=C([O-])C=Cc1ccccc1
REMARK SMILES IDX 4 1 5 2 2 3 1 4 3 5 6 6 7 7 11 8 8 9 10 10 9 11
REMARK H PARENT
REMARK Flexibility Score: inf
ROOT
ATOM      1  C   UNL     1     -21.041  28.417  19.607  1.00  0.00     0.025 C 
ATOM      2  C   UNL     1     -20.008  29.252  19.801  1.00  0.00     0.010 C 
ENDROOT
BRANCH   1   3
ATOM      3  C   UNL     1     -21.664  27.560  20.636  1.00  0.00     0.064 C 
ATOM      4  O   UNL     1     -21.284  26.375  20.823  1.00  0.00    -0.545 OA
ATOM      5  O   UNL     1     -22.738  28.051  21.364  1.00  0.00    -0.545 OA
ENDBRANCH   1   3
BRANCH   2   6
ATOM      6  C   UNL     1     -19.425  29.602  21.113  1.00  0.00    -0.026 A 
ATOM      7  C   UNL     1     -20.031  30.603  21.889  1.00  0.00     0.008 A 
ATOM      8  C   UNL     1     -18.339  28.884  21.643  1.00  0.00     0.008 A 
ATOM      9  C   UNL     1     -19.525  30.916  23.155  1.00  0.00     0.001 A 
ATOM     10  C   UNL     1     -17.836  29.199  22.909  1.00  0.00     0.001 A 
ATOM     11  C   UNL     1     -18.427  30.219  23.663  1.00  0.00     0.000 A 
ENDBRANCH   2   6
TORSDOF 2
ENDMDL
MODEL 7
REMARK VINA RESULT:    -3.455      9.553     11.275
REMARK INTER + INTRA:          -4.074
REMARK INTER:                  -3.912
REMARK INTRA:                  -0.162
REMARK UNBOUND:                -0.215
REMARK SMILES O=C([O-])C=Cc1ccccc1
REMARK SMILES IDX 4 1 5 2 2 3 1 4 3 5 6 6 7 7 11 8 8 9 10 10 9 11
REMARK H PARENT
REMARK Flexibility Score: inf
ROOT
ATOM      1  C   UNL     1     -19.075  30.639  23.267  1.00  0.00     0.025 C 
ATOM      2  C   UNL     1     -19.974  31.040  22.355  1.00  0.00     0.010 C 
ENDROOT
BRANCH   1   3
ATOM      3  C   UNL     1     -18.633  29.248  23.490  1.00  0.00     0.064 C 
ATOM      4  O   UNL     1     -19.366  28.411  24.078  1.00  0.00    -0.545 OA
ATOM      5  O   UNL     1     -17.354  28.875  23.102  1.00  0.00    -0.545 OA
ENDBRANCH   1   3
BRANCH   2   6
ATOM      6  C   UNL     1     -20.550  30.194  21.290  1.00  0.00    -0.026 A 
ATOM      7  C   UNL     1     -21.935  29.963  21.269  1.00  0.00     0.008 A 
ATOM      8  C   UNL     1     -19.755  29.699  20.241  1.00  0.00     0.008 A 
ATOM      9  C   UNL     1     -22.508  29.206  20.242  1.00  0.00     0.001 A 
ATOM     10  C   UNL     1     -20.331  28.943  19.216  1.00  0.00     0.001 A 
ATOM     11  C   UNL     1     -21.707  28.693  19.219  1.00  0.00     0.000 A 
ENDBRANCH   2   6
TORSDOF 2
ENDMDL
MODEL 8
REMARK VINA RESULT:    -3.269      8.410      9.286
REMARK INTER + INTRA:          -3.866
REMARK INTER:                  -3.593
REMARK INTRA:                  -0.274
REMARK UNBOUND:                -0.215
REMARK SMILES O=C([O-])C=Cc1ccccc1
REMARK SMILES IDX 4 1 5 2 2 3 1 4 3 5 6 6 7 7 11 8 8 9 10 10 9 11
REMARK H PARENT
REMARK Flexibility Score: inf
ROOT
ATOM      1  C   UNL     1     -22.276  28.933  19.397  1.00  0.00     0.025 C 
ATOM      2  C   UNL     1     -20.967  28.686  19.233  1.00  0.00     0.010 C 
ENDROOT
BRANCH   1   3
ATOM      3  C   UNL     1     -23.042  28.734  20.644  1.00  0.00     0.064 C 
ATOM      4  O   UNL     1     -23.199  29.666  21.476  1.00  0.00    -0.545 OA
ATOM      5  O   UNL     1     -23.541  27.473  20.937  1.00  0.00    -0.545 OA
ENDBRANCH   1   3
BRANCH   2   6
ATOM      6  C   UNL     1     -20.018  28.344  20.312  1.00  0.00    -0.026 A 
ATOM      7  C   UNL     1     -19.792  26.994  20.626  1.00  0.00     0.008 A 
ATOM      8  C   UNL     1     -19.262  29.337  20.961  1.00  0.00     0.008 A 
ATOM      9  C   UNL     1     -18.860  26.646  21.610  1.00  0.00     0.001 A 
ATOM     10  C   UNL     1     -18.332  28.985  21.943  1.00  0.00     0.001 A 
ATOM     11  C   UNL     1     -18.135  27.640  22.271  1.00  0.00     0.000 A 
ENDBRANCH   2   6
TORSDOF 2
ENDMDL
MODEL 9
REMARK VINA RESULT:    -3.243      9.313     11.122
REMARK INTER + INTRA:          -3.837
REMARK INTER:                  -3.699
REMARK INTRA:                  -0.138
REMARK UNBOUND:                -0.215
REMARK SMILES O=C([O-])C=Cc1ccccc1
REMARK SMILES IDX 4 1 5 2 2 3 1 4 3 5 6 6 7 7 11 8 8 9 10 10 9 11
REMARK H PARENT
REMARK Flexibility Score: inf
ROOT
ATOM      1  C   UNL     1     -18.722  30.405  23.515  1.00  0.00     0.025 C 
ATOM      2  C   UNL     1     -18.191  29.602  22.579  1.00  0.00     0.010 C 
ENDROOT
BRANCH   1   3
ATOM      3  C   UNL     1     -20.117  30.888  23.547  1.00  0.00     0.064 C 
ATOM      4  O   UNL     1     -21.036  30.208  24.076  1.00  0.00    -0.545 OA
ATOM      5  O   UNL     1     -20.433  32.084  22.920  1.00  0.00    -0.545 OA
ENDBRANCH   1   3
BRANCH   2   6
ATOM      6  C   UNL     1     -18.947  28.910  21.515  1.00  0.00    -0.026 A 
ATOM      7  C   UNL     1     -19.164  27.526  21.615  1.00  0.00     0.008 A 
ATOM      8  C   UNL     1     -19.540  29.624  20.459  1.00  0.00     0.008 A 
ATOM      9  C   UNL     1     -19.919  26.860  20.645  1.00  0.00     0.001 A 
ATOM     10  C   UNL     1     -20.295  28.955  19.491  1.00  0.00     0.001 A 
ATOM     11  C   UNL     1     -20.480  27.572  19.582  1.00  0.00     0.000 A 
ENDBRANCH   2   6
TORSDOF 2
ENDMDL
