MODEL 1
REMARK VINA RESULT:    -5.247      0.000      0.000
REMARK INTER + INTRA:          -6.397
REMARK INTER:                  -6.321
REMARK INTRA:                  -0.077
REMARK UNBOUND:                -0.077
REMARK SMILES OCCc1ccc(O)c(O)c1
REMARK SMILES IDX 3 1 4 2 5 3 6 4 7 5 11 6 9 7 8 8 10 10 2 12 1 13
REMARK H PARENT 8 9 10 11 1 14
REMARK Flexibility Score: inf
ROOT
ATOM      1  C   UNL     1      69.944  50.323   3.398  1.00  0.00     0.064 C 
ENDROOT
BRANCH   1   2
ATOM      2  C   UNL     1      70.436  49.519   4.573  1.00  0.00    -0.042 A 
ATOM      3  C   UNL     1      71.366  48.486   4.384  1.00  0.00     0.008 A 
ATOM      4  C   UNL     1      71.798  47.720   5.470  1.00  0.00     0.050 A 
ATOM      5  C   UNL     1      71.297  47.971   6.754  1.00  0.00     0.157 A 
ATOM      6  C   UNL     1      69.925  49.760   5.858  1.00  0.00     0.054 A 
ATOM      7  C   UNL     1      70.357  48.992   6.949  1.00  0.00     0.157 A 
BRANCH   5   8
ATOM      8  O   UNL     1      71.725  47.209   7.841  1.00  0.00    -0.504 OA
ATOM      9  H   UNL     1      72.605  47.398   8.306  1.00  0.00     0.293 HD
ENDBRANCH   5   8
BRANCH   7  10
ATOM     10  O   UNL     1      69.856  49.234   8.227  1.00  0.00    -0.504 OA
ATOM     11  H   UNL     1      70.338  48.904   9.056  1.00  0.00     0.293 HD
ENDBRANCH   7  10
ENDBRANCH   1   2
BRANCH   1  12
ATOM     12  C   UNL     1      70.439  49.716   2.083  1.00  0.00     0.161 C 
BRANCH  12  13
ATOM     13  O   UNL     1      70.503  50.701   1.089  1.00  0.00    -0.396 OA
ATOM     14  H   UNL     1      70.429  51.577   1.551  1.00  0.00     0.210 HD
ENDBRANCH  12  13
ENDBRANCH   1  12
TORSDOF 5
ENDMDL
MODEL 2
REMARK VINA RESULT:    -5.197      0.922      2.111
REMARK INTER + INTRA:          -6.338
REMARK INTER:                  -6.261
REMARK INTRA:                  -0.077
REMARK UNBOUND:                -0.077
REMARK SMILES OCCc1ccc(O)c(O)c1
REMARK SMILES IDX 3 1 4 2 5 3 6 4 7 5 11 6 9 7 8 8 10 10 2 12 1 13
REMARK H PARENT 8 9 10 11 1 14
REMARK Flexibility Score: inf
ROOT
ATOM      1  C   UNL     1      69.947  50.292   3.382  1.00  0.00     0.064 C 
ENDROOT
BRANCH   1   2
ATOM      2  C   UNL     1      70.473  49.461   4.522  1.00  0.00    -0.042 A 
ATOM      3  C   UNL     1      70.031  49.697   5.832  1.00  0.00     0.008 A 
ATOM      4  C   UNL     1      70.542  48.946   6.895  1.00  0.00     0.050 A 
ATOM      5  C   UNL     1      71.510  47.960   6.660  1.00  0.00     0.157 A 
ATOM      6  C   UNL     1      71.452  48.482   4.291  1.00  0.00     0.054 A 
ATOM      7  C   UNL     1      71.968  47.729   5.356  1.00  0.00     0.157 A 
BRANCH   5   8
ATOM      8  O   UNL     1      72.023  47.209   7.717  1.00  0.00    -0.504 OA
ATOM      9  H   UNL     1      71.416  46.692   8.343  1.00  0.00     0.293 HD
ENDBRANCH   5   8
BRANCH   7  10
ATOM     10  O   UNL     1      72.934  46.751   5.127  1.00  0.00    -0.504 OA
ATOM     11  H   UNL     1      73.741  46.931   4.540  1.00  0.00     0.293 HD
ENDBRANCH   7  10
ENDBRANCH   1   2
BRANCH   1  12
ATOM     12  C   UNL     1      70.374  49.698   2.038  1.00  0.00     0.161 C 
BRANCH  12  13
ATOM     13  O   UNL     1      70.487  50.711   1.075  1.00  0.00    -0.396 OA
ATOM     14  H   UNL     1      69.701  51.305   1.194  1.00  0.00     0.210 HD
ENDBRANCH  12  13
ENDBRANCH   1  12
TORSDOF 5
ENDMDL
MODEL 3
REMARK VINA RESULT:    -5.187     13.865     15.979
REMARK INTER + INTRA:          -6.326
REMARK INTER:                  -6.239
REMARK INTRA:                  -0.086
REMARK UNBOUND:                -0.077
REMARK SMILES OCCc1ccc(O)c(O)c1
REMARK SMILES IDX 3 1 4 2 5 3 6 4 7 5 11 6 9 7 8 8 10 10 2 12 1 13
REMARK H PARENT 8 9 10 11 1 14
REMARK Flexibility Score: inf
ROOT
ATOM      1  C   UNL     1      74.606  42.108  -6.376  1.00  0.00     0.064 C 
ENDROOT
BRANCH   1   2
ATOM      2  C   UNL     1      74.051  41.045  -7.288  1.00  0.00    -0.042 A 
ATOM      3  C   UNL     1      74.622  40.828  -8.551  1.00  0.00     0.008 A 
ATOM      4  C   UNL     1      74.087  39.863  -9.409  1.00  0.00     0.050 A 
ATOM      5  C   UNL     1      72.970  39.113  -9.018  1.00  0.00     0.157 A 
ATOM      6  C   UNL     1      72.924  40.303  -6.904  1.00  0.00     0.054 A 
ATOM      7  C   UNL     1      72.385  39.335  -7.764  1.00  0.00     0.157 A 
BRANCH   5   8
ATOM      8  O   UNL     1      72.433  38.150  -9.871  1.00  0.00    -0.504 OA
ATOM      9  H   UNL     1      71.623  38.345 -10.448  1.00  0.00     0.293 HD
ENDBRANCH   5   8
BRANCH   7  10
ATOM     10  O   UNL     1      71.270  38.591  -7.382  1.00  0.00    -0.504 OA
ATOM     11  H   UNL     1      71.112  38.332  -6.414  1.00  0.00     0.293 HD
ENDBRANCH   7  10
ENDBRANCH   1   2
BRANCH   1  12
ATOM     12  C   UNL     1      73.627  42.411  -5.240  1.00  0.00     0.161 C 
BRANCH  12  13
ATOM     13  O   UNL     1      73.275  43.768  -5.254  1.00  0.00    -0.396 OA
ATOM     14  H   UNL     1      73.718  44.169  -6.047  1.00  0.00     0.210 HD
ENDBRANCH  12  13
ENDBRANCH   1  12
TORSDOF 5
ENDMDL
MODEL 4
REMARK VINA RESULT:    -4.866      7.968     10.180
REMARK INTER + INTRA:          -5.939
REMARK INTER:                  -5.889
REMARK INTRA:                  -0.050
REMARK UNBOUND:                -0.077
REMARK SMILES OCCc1ccc(O)c(O)c1
REMARK SMILES IDX 3 1 4 2 5 3 6 4 7 5 11 6 9 7 8 8 10 10 2 12 1 13
REMARK H PARENT 8 9 10 11 1 14
REMARK Flexibility Score: inf
ROOT
ATOM      1  C   UNL     1      72.063  44.724  -0.204  1.00  0.00     0.064 C 
ENDROOT
BRANCH   1   2
ATOM      2  C   UNL     1      72.512  44.325  -1.585  1.00  0.00    -0.042 A 
ATOM      3  C   UNL     1      73.255  45.218  -2.373  1.00  0.00     0.008 A 
ATOM      4  C   UNL     1      73.645  44.859  -3.666  1.00  0.00     0.050 A 
ATOM      5  C   UNL     1      73.289  43.610  -4.189  1.00  0.00     0.157 A 
ATOM      6  C   UNL     1      72.145  43.079  -2.116  1.00  0.00     0.054 A 
ATOM      7  C   UNL     1      72.535  42.718  -3.414  1.00  0.00     0.157 A 
BRANCH   5   8
ATOM      8  O   UNL     1      73.676  43.247  -5.479  1.00  0.00    -0.504 OA
ATOM      9  H   UNL     1      74.030  43.931  -6.137  1.00  0.00     0.293 HD
ENDBRANCH   5   8
BRANCH   7  10
ATOM     10  O   UNL     1      72.177  41.478  -3.940  1.00  0.00    -0.504 OA
ATOM     11  H   UNL     1      72.083  41.334  -4.939  1.00  0.00     0.293 HD
ENDBRANCH   7  10
ENDBRANCH   1   2
BRANCH   1  12
ATOM     12  C   UNL     1      70.721  45.457  -0.263  1.00  0.00     0.161 C 
BRANCH  12  13
ATOM     13  O   UNL     1      70.233  45.679   1.032  1.00  0.00    -0.396 OA
ATOM     14  H   UNL     1      71.024  45.725   1.630  1.00  0.00     0.210 HD
ENDBRANCH  12  13
ENDBRANCH   1  12
TORSDOF 5
ENDMDL
MODEL 5
REMARK VINA RESULT:    -4.853      9.275     11.086
REMARK INTER + INTRA:          -5.923
REMARK INTER:                  -5.837
REMARK INTRA:                  -0.086
REMARK UNBOUND:                -0.077
REMARK SMILES OCCc1ccc(O)c(O)c1
REMARK SMILES IDX 3 1 4 2 5 3 6 4 7 5 11 6 9 7 8 8 10 10 2 12 1 13
REMARK H PARENT 8 9 10 11 1 14
REMARK Flexibility Score: inf
ROOT
ATOM      1  C   UNL     1      74.079  42.804  -5.796  1.00  0.00     0.064 C 
ENDROOT
BRANCH   1   2
ATOM      2  C   UNL     1      73.668  43.346  -4.452  1.00  0.00    -0.042 A 
ATOM      3  C   UNL     1      72.901  42.562  -3.578  1.00  0.00     0.008 A 
ATOM      4  C   UNL     1      72.494  43.076  -2.343  1.00  0.00     0.050 A 
ATOM      5  C   UNL     1      72.839  44.383  -1.975  1.00  0.00     0.157 A 
ATOM      6  C   UNL     1      74.002  44.660  -4.087  1.00  0.00     0.054 A 
ATOM      7  C   UNL     1      73.594  45.178  -2.850  1.00  0.00     0.157 A 
BRANCH   5   8
ATOM      8  O   UNL     1      72.436  44.901  -0.745  1.00  0.00    -0.504 OA
ATOM      9  H   UNL     1      71.456  44.975  -0.497  1.00  0.00     0.293 HD
ENDBRANCH   5   8
BRANCH   7  10
ATOM     10  O   UNL     1      73.930  46.480  -2.482  1.00  0.00    -0.504 OA
ATOM     11  H   UNL     1      74.386  47.112  -3.131  1.00  0.00     0.293 HD
ENDBRANCH   7  10
ENDBRANCH   1   2
BRANCH   1  12
ATOM     12  C   UNL     1      73.482  41.414  -6.023  1.00  0.00     0.161 C 
BRANCH  12  13
ATOM     13  O   UNL     1      72.890  41.343  -7.291  1.00  0.00    -0.396 OA
ATOM     14  H   UNL     1      71.921  41.180  -7.144  1.00  0.00     0.210 HD
ENDBRANCH  12  13
ENDBRANCH   1  12
TORSDOF 5
ENDMDL
MODEL 6
REMARK VINA RESULT:    -4.719     13.621     15.867
REMARK INTER + INTRA:          -5.761
REMARK INTER:                  -5.667
REMARK INTRA:                  -0.094
REMARK UNBOUND:                -0.077
REMARK SMILES OCCc1ccc(O)c(O)c1
REMARK SMILES IDX 3 1 4 2 5 3 6 4 7 5 11 6 9 7 8 8 10 10 2 12 1 13
REMARK H PARENT 8 9 10 11 1 14
REMARK Flexibility Score: inf
ROOT
ATOM      1  C   UNL     1      74.504  42.457  -6.096  1.00  0.00     0.064 C 
ENDROOT
BRANCH   1   2
ATOM      2  C   UNL     1      73.940  41.337  -6.930  1.00  0.00    -0.042 A 
ATOM      3  C   UNL     1      72.815  40.624  -6.489  1.00  0.00     0.008 A 
ATOM      4  C   UNL     1      72.311  39.564  -7.248  1.00  0.00     0.050 A 
ATOM      5  C   UNL     1      72.932  39.198  -8.449  1.00  0.00     0.157 A 
ATOM      6  C   UNL     1      74.569  40.960  -8.127  1.00  0.00     0.054 A 
ATOM      7  C   UNL     1      74.065  39.896  -8.889  1.00  0.00     0.157 A 
BRANCH   5   8
ATOM      8  O   UNL     1      72.433  38.142  -9.210  1.00  0.00    -0.504 OA
ATOM      9  H   UNL     1      73.013  37.650  -9.879  1.00  0.00     0.293 HD
ENDBRANCH   5   8
BRANCH   7  10
ATOM     10  O   UNL     1      74.684  39.526 -10.082  1.00  0.00    -0.504 OA
ATOM     11  H   UNL     1      74.456  38.654 -10.548  1.00  0.00     0.293 HD
ENDBRANCH   7  10
ENDBRANCH   1   2
BRANCH   1  12
ATOM     12  C   UNL     1      73.621  42.718  -4.874  1.00  0.00     0.161 C 
BRANCH  12  13
ATOM     13  O   UNL     1      73.066  44.003  -4.943  1.00  0.00    -0.396 OA
ATOM     14  H   UNL     1      73.459  44.440  -5.743  1.00  0.00     0.210 HD
ENDBRANCH  12  13
ENDBRANCH   1  12
TORSDOF 5
ENDMDL
MODEL 7
REMARK VINA RESULT:    -4.633      2.691      4.151
REMARK INTER + INTRA:          -5.658
REMARK INTER:                  -5.554
REMARK INTRA:                  -0.103
REMARK UNBOUND:                -0.077
REMARK SMILES OCCc1ccc(O)c(O)c1
REMARK SMILES IDX 3 1 4 2 5 3 6 4 7 5 11 6 9 7 8 8 10 10 2 12 1 13
REMARK H PARENT 8 9 10 11 1 14
REMARK Flexibility Score: inf
ROOT
ATOM      1  C   UNL     1      70.729  49.258   4.463  1.00  0.00     0.064 C 
ENDROOT
BRANCH   1   2
ATOM      2  C   UNL     1      71.715  48.126   4.578  1.00  0.00    -0.042 A 
ATOM      3  C   UNL     1      72.678  48.127   5.599  1.00  0.00     0.008 A 
ATOM      4  C   UNL     1      73.613  47.091   5.687  1.00  0.00     0.050 A 
ATOM      5  C   UNL     1      73.603  46.051   4.749  1.00  0.00     0.157 A 
ATOM      6  C   UNL     1      71.715  47.089   3.632  1.00  0.00     0.054 A 
ATOM      7  C   UNL     1      72.654  46.050   3.718  1.00  0.00     0.157 A 
BRANCH   5   8
ATOM      8  O   UNL     1      74.534  45.016   4.833  1.00  0.00    -0.504 OA
ATOM      9  H   UNL     1      75.420  45.138   5.309  1.00  0.00     0.293 HD
ENDBRANCH   5   8
BRANCH   7  10
ATOM     10  O   UNL     1      72.651  45.016   2.783  1.00  0.00    -0.504 OA
ATOM     11  H   UNL     1      73.310  44.997   2.013  1.00  0.00     0.293 HD
ENDBRANCH   7  10
ENDBRANCH   1   2
BRANCH   1  12
ATOM     12  C   UNL     1      70.002  49.479   5.792  1.00  0.00     0.161 C 
BRANCH  12  13
ATOM     13  O   UNL     1      69.232  48.353   6.115  1.00  0.00    -0.396 OA
ATOM     14  H   UNL     1      68.943  47.950   5.255  1.00  0.00     0.210 HD
ENDBRANCH  12  13
ENDBRANCH   1  12
TORSDOF 5
ENDMDL
MODEL 8
REMARK VINA RESULT:    -4.530      2.420      5.108
REMARK INTER + INTRA:          -5.534
REMARK INTER:                  -5.483
REMARK INTRA:                  -0.050
REMARK UNBOUND:                -0.077
REMARK SMILES OCCc1ccc(O)c(O)c1
REMARK SMILES IDX 3 1 4 2 5 3 6 4 7 5 11 6 9 7 8 8 10 10 2 12 1 13
REMARK H PARENT 8 9 10 11 1 14
REMARK Flexibility Score: inf
ROOT
ATOM      1  C   UNL     1      73.993  48.261   8.068  1.00  0.00     0.064 C 
ENDROOT
BRANCH   1   2
ATOM      2  C   UNL     1      73.194  48.193   6.793  1.00  0.00    -0.042 A 
ATOM      3  C   UNL     1      73.832  47.925   5.572  1.00  0.00     0.008 A 
ATOM      4  C   UNL     1      73.094  47.893   4.384  1.00  0.00     0.050 A 
ATOM      5  C   UNL     1      71.716  48.141   4.403  1.00  0.00     0.157 A 
ATOM      6  C   UNL     1      71.815  48.454   6.808  1.00  0.00     0.054 A 
ATOM      7  C   UNL     1      71.074  48.424   5.617  1.00  0.00     0.157 A 
BRANCH   5   8
ATOM      8  O   UNL     1      70.976  48.110   3.221  1.00  0.00    -0.504 OA
ATOM      9  H   UNL     1      70.412  47.307   2.970  1.00  0.00     0.293 HD
ENDBRANCH   5   8
BRANCH   7  10
ATOM     10  O   UNL     1      69.703  48.675   5.631  1.00  0.00    -0.504 OA
ATOM     11  H   UNL     1      69.144  48.518   6.462  1.00  0.00     0.293 HD
ENDBRANCH   7  10
ENDBRANCH   1   2
BRANCH   1  12
ATOM     12  C   UNL     1      73.719  47.036   8.943  1.00  0.00     0.161 C 
BRANCH  12  13
ATOM     13  O   UNL     1      74.468  47.108  10.125  1.00  0.00    -0.396 OA
ATOM     14  H   UNL     1      75.060  46.312  10.136  1.00  0.00     0.210 HD
ENDBRANCH  12  13
ENDBRANCH   1  12
TORSDOF 5
ENDMDL
