MODEL 1
REMARK VINA RESULT:   131.164      0.000      0.000
REMARK INTER + INTRA:         157.004
REMARK INTER:                 154.168
REMARK INTRA:                   2.836
REMARK UNBOUND:                 2.836
REMARK SMILES C=C(C)[C@H]1CC[C@@]2(CO)CC[C@]3(C)[C@@H](CC[C@@H]4[C@@]5(C)CC[C@H](O)C(C)(C)[C@H]5CC[C@@]43C)[C@@H]12
REMARK SMILES IDX 4 1 5 2 6 3 7 4 32 5 14 6 15 7 16 8 17 9 18 10 20 11 21 12
REMARK SMILES IDX 22 13 24 14 27 15 28 16 29 17 30 18 12 19 11 20 10 21 13 22
REMARK SMILES IDX 31 23 25 24 26 25 19 26 2 27 3 28 1 29 8 30 9 31 23 33
REMARK H PARENT 9 32 23 34
REMARK Flexibility Score: inf
ROOT
ATOM      1  C   UNL     1     -43.801  30.782 -24.476  1.00  0.00     0.018 C 
ATOM      2  C   UNL     1     -45.328  30.640 -24.516  1.00  0.00     0.009 C 
ATOM      3  C   UNL     1     -45.815  30.871 -23.097  1.00  0.00     0.010 C 
ATOM      4  C   UNL     1     -44.844  31.888 -22.453  1.00  0.00    -0.003 C 
ATOM      5  C   UNL     1     -43.546  31.818 -23.333  1.00  0.00     0.008 C 
ATOM      6  C   UNL     1     -42.193  31.975 -22.522  1.00  0.00    -0.000 C 
ATOM      7  C   UNL     1     -40.920  32.154 -23.354  1.00  0.00     0.005 C 
ATOM      8  C   UNL     1     -39.898  31.050 -23.212  1.00  0.00     0.005 C 
ATOM      9  C   UNL     1     -39.491  30.700 -21.739  1.00  0.00     0.002 C 
ATOM     10  C   UNL     1     -38.222  29.697 -21.761  1.00  0.00    -0.026 C 
ATOM     11  C   UNL     1     -37.502  29.585 -20.376  1.00  0.00     0.010 C 
ATOM     12  C   UNL     1     -36.380  28.532 -20.322  1.00  0.00     0.033 C 
ATOM     13  C   UNL     1     -36.868  27.142 -20.758  1.00  0.00     0.120 C 
ATOM     14  C   UNL     1     -37.538  27.138 -22.168  1.00  0.00    -0.006 C 
ATOM     15  C   UNL     1     -38.673  28.261 -22.259  1.00  0.00     0.003 C 
ATOM     16  C   UNL     1     -39.984  27.796 -21.552  1.00  0.00     0.005 C 
ATOM     17  C   UNL     1     -41.145  28.809 -21.519  1.00  0.00     0.008 C 
ATOM     18  C   UNL     1     -40.790  30.209 -20.955  1.00  0.00    -0.024 C 
ATOM     19  C   UNL     1     -42.021  31.286 -21.095  1.00  0.00    -0.024 C 
ATOM     20  C   UNL     1     -43.394  30.623 -20.733  1.00  0.00     0.008 C 
ATOM     21  C   UNL     1     -44.598  31.543 -20.952  1.00  0.00     0.010 C 
ATOM     22  C   UNL     1     -41.771  32.454 -20.057  1.00  0.00     0.012 C 
ATOM     23  C   UNL     1     -40.519  30.004 -19.422  1.00  0.00     0.012 C 
ATOM     24  C   UNL     1     -38.138  25.721 -22.406  1.00  0.00     0.014 C 
ATOM     25  C   UNL     1     -36.471  27.317 -23.289  1.00  0.00     0.014 C 
ATOM     26  C   UNL     1     -37.154  30.326 -22.724  1.00  0.00     0.012 C 
ENDROOT
BRANCH   1  27
ATOM     27  C   UNL     1     -43.086  29.428 -24.465  1.00  0.00    -0.077 C 
ATOM     28  C   UNL     1     -42.677  28.707 -25.733  1.00  0.00     0.039 C 
ATOM     29  C   UNL     1     -42.516  29.013 -23.320  1.00  0.00     0.008 C 
ENDBRANCH   1  27
BRANCH   4  30
ATOM     30  C   UNL     1     -45.473  33.311 -22.534  1.00  0.00     0.163 C 
BRANCH  30  31
ATOM     31  O   UNL     1     -46.386  33.393 -23.597  1.00  0.00    -0.396 OA
ATOM     32  H   UNL     1     -46.447  32.481 -23.980  1.00  0.00     0.210 HD
ENDBRANCH  30  31
ENDBRANCH   4  30
BRANCH  13  33
ATOM     33  O   UNL     1     -35.788  26.241 -20.735  1.00  0.00    -0.393 OA
ATOM     34  H   UNL     1     -36.081  25.421 -21.212  1.00  0.00     0.210 HD
ENDBRANCH  13  33
TORSDOF 4
ENDMDL
MODEL 2
REMARK VINA RESULT:   131.284     10.098     13.147
REMARK INTER + INTRA:         157.145
REMARK INTER:                 157.960
REMARK INTRA:                  -0.816
REMARK UNBOUND:                 2.836
REMARK SMILES C=C(C)[C@H]1CC[C@@]2(CO)CC[C@]3(C)[C@@H](CC[C@@H]4[C@@]5(C)CC[C@H](O)C(C)(C)[C@H]5CC[C@@]43C)[C@@H]12
REMARK SMILES IDX 4 1 5 2 6 3 7 4 32 5 14 6 15 7 16 8 17 9 18 10 20 11 21 12
REMARK SMILES IDX 22 13 24 14 27 15 28 16 29 17 30 18 12 19 11 20 10 21 13 22
REMARK SMILES IDX 31 23 25 24 26 25 19 26 2 27 3 28 1 29 8 30 9 31 23 33
REMARK H PARENT 9 32 23 34
REMARK Flexibility Score: inf
ROOT
ATOM      1  C   UNL     1     -29.509  33.465 -15.352  1.00  0.00     0.018 C 
ATOM      2  C   UNL     1     -29.166  34.757 -16.104  1.00  0.00     0.009 C 
ATOM      3  C   UNL     1     -29.987  34.739 -17.381  1.00  0.00     0.010 C 
ATOM      4  C   UNL     1     -31.306  34.003 -17.051  1.00  0.00    -0.003 C 
ATOM      5  C   UNL     1     -30.992  33.174 -15.756  1.00  0.00     0.008 C 
ATOM      6  C   UNL     1     -31.698  31.757 -15.695  1.00  0.00    -0.000 C 
ATOM      7  C   UNL     1     -31.619  31.016 -14.357  1.00  0.00     0.005 C 
ATOM      8  C   UNL     1     -30.866  29.706 -14.391  1.00  0.00     0.005 C 
ATOM      9  C   UNL     1     -31.328  28.697 -15.498  1.00  0.00     0.002 C 
ATOM     10  C   UNL     1     -30.617  27.266 -15.245  1.00  0.00    -0.026 C 
ATOM     11  C   UNL     1     -31.285  26.097 -16.044  1.00  0.00     0.010 C 
ATOM     12  C   UNL     1     -30.547  24.749 -15.940  1.00  0.00     0.033 C 
ATOM     13  C   UNL     1     -29.068  24.865 -16.344  1.00  0.00     0.120 C 
ATOM     14  C   UNL     1     -28.296  25.960 -15.544  1.00  0.00    -0.006 C 
ATOM     15  C   UNL     1     -29.074  27.356 -15.597  1.00  0.00     0.003 C 
ATOM     16  C   UNL     1     -28.841  28.080 -16.960  1.00  0.00     0.005 C 
ATOM     17  C   UNL     1     -29.580  29.416 -17.166  1.00  0.00     0.008 C 
ATOM     18  C   UNL     1     -31.112  29.372 -16.925  1.00  0.00    -0.024 C 
ATOM     19  C   UNL     1     -31.813  30.854 -17.004  1.00  0.00    -0.024 C 
ATOM     20  C   UNL     1     -31.233  31.691 -18.195  1.00  0.00     0.008 C 
ATOM     21  C   UNL     1     -31.765  33.126 -18.255  1.00  0.00     0.010 C 
ATOM     22  C   UNL     1     -33.359  30.651 -17.276  1.00  0.00     0.012 C 
ATOM     23  C   UNL     1     -31.710  28.508 -18.092  1.00  0.00     0.012 C 
ATOM     24  C   UNL     1     -26.875  26.092 -16.167  1.00  0.00     0.014 C 
ATOM     25  C   UNL     1     -28.050  25.504 -14.075  1.00  0.00     0.014 C 
ATOM     26  C   UNL     1     -30.837  26.902 -13.734  1.00  0.00     0.012 C 
ENDROOT
BRANCH   1  27
ATOM     27  C   UNL     1     -28.437  32.385 -15.522  1.00  0.00    -0.077 C 
ATOM     28  C   UNL     1     -27.607  32.245 -16.782  1.00  0.00     0.039 C 
ATOM     29  C   UNL     1     -27.987  31.751 -14.425  1.00  0.00     0.008 C 
ENDBRANCH   1  27
BRANCH   4  30
ATOM     30  C   UNL     1     -32.415  35.058 -16.760  1.00  0.00     0.163 C 
BRANCH  30  31
ATOM     31  O   UNL     1     -32.188  35.694 -15.530  1.00  0.00    -0.396 OA
ATOM     32  H   UNL     1     -32.609  35.119 -14.840  1.00  0.00     0.210 HD
ENDBRANCH  30  31
ENDBRANCH   4  30
BRANCH  13  33
ATOM     33  O   UNL     1     -28.443  23.616 -16.180  1.00  0.00    -0.393 OA
ATOM     34  H   UNL     1     -28.794  23.018 -16.890  1.00  0.00     0.210 HD
ENDBRANCH  13  33
TORSDOF 4
ENDMDL
MODEL 3
REMARK VINA RESULT:   133.254     10.182     13.539
REMARK INTER + INTRA:         159.460
REMARK INTER:                 160.266
REMARK INTRA:                  -0.807
REMARK UNBOUND:                 2.836
REMARK SMILES C=C(C)[C@H]1CC[C@@]2(CO)CC[C@]3(C)[C@@H](CC[C@@H]4[C@@]5(C)CC[C@H](O)C(C)(C)[C@H]5CC[C@@]43C)[C@@H]12
REMARK SMILES IDX 4 1 5 2 6 3 7 4 32 5 14 6 15 7 16 8 17 9 18 10 20 11 21 12
REMARK SMILES IDX 22 13 24 14 27 15 28 16 29 17 30 18 12 19 11 20 10 21 13 22
REMARK SMILES IDX 31 23 25 24 26 25 19 26 2 27 3 28 1 29 8 30 9 31 23 33
REMARK H PARENT 9 32 23 34
REMARK Flexibility Score: inf
ROOT
ATOM      1  C   UNL     1     -29.179  24.990 -15.356  1.00  0.00     0.018 C 
ATOM      2  C   UNL     1     -28.434  24.706 -14.046  1.00  0.00     0.009 C 
ATOM      3  C   UNL     1     -28.857  25.789 -13.071  1.00  0.00     0.010 C 
ATOM      4  C   UNL     1     -30.317  26.158 -13.421  1.00  0.00    -0.003 C 
ATOM      5  C   UNL     1     -30.517  25.656 -14.895  1.00  0.00     0.008 C 
ATOM      6  C   UNL     1     -31.432  26.591 -15.790  1.00  0.00    -0.000 C 
ATOM      7  C   UNL     1     -31.851  26.028 -17.150  1.00  0.00     0.005 C 
ATOM      8  C   UNL     1     -31.343  26.796 -18.349  1.00  0.00     0.005 C 
ATOM      9  C   UNL     1     -31.635  28.336 -18.330  1.00  0.00     0.002 C 
ATOM     10  C   UNL     1     -31.265  28.966 -19.773  1.00  0.00    -0.026 C 
ATOM     11  C   UNL     1     -31.864  30.396 -19.992  1.00  0.00     0.010 C 
ATOM     12  C   UNL     1     -31.413  31.085 -21.293  1.00  0.00     0.033 C 
ATOM     13  C   UNL     1     -29.882  31.147 -21.417  1.00  0.00     0.120 C 
ATOM     14  C   UNL     1     -29.198  29.751 -21.286  1.00  0.00    -0.006 C 
ATOM     15  C   UNL     1     -29.691  28.998 -19.965  1.00  0.00     0.003 C 
ATOM     16  C   UNL     1     -28.972  29.554 -18.696  1.00  0.00     0.005 C 
ATOM     17  C   UNL     1     -29.398  28.951 -17.344  1.00  0.00     0.008 C 
ATOM     18  C   UNL     1     -30.921  28.974 -17.055  1.00  0.00    -0.024 C 
ATOM     19  C   UNL     1     -31.322  28.177 -15.677  1.00  0.00    -0.024 C 
ATOM     20  C   UNL     1     -30.304  28.490 -14.528  1.00  0.00     0.008 C 
ATOM     21  C   UNL     1     -30.557  27.688 -13.247  1.00  0.00     0.010 C 
ATOM     22  C   UNL     1     -32.742  28.695 -15.207  1.00  0.00     0.012 C 
ATOM     23  C   UNL     1     -31.302  30.484 -16.851  1.00  0.00     0.012 C 
ATOM     24  C   UNL     1     -27.657  29.978 -21.252  1.00  0.00     0.014 C 
ATOM     25  C   UNL     1     -29.449  28.888 -22.559  1.00  0.00     0.014 C 
ATOM     26  C   UNL     1     -31.954  28.068 -20.860  1.00  0.00     0.012 C 
ENDROOT
BRANCH   1  27
ATOM     27  C   UNL     1     -28.292  25.678 -16.398  1.00  0.00    -0.077 C 
ATOM     28  C   UNL     1     -27.362  26.823 -16.053  1.00  0.00     0.039 C 
ATOM     29  C   UNL     1     -28.082  25.058 -17.572  1.00  0.00     0.008 C 
ENDBRANCH   1  27
BRANCH   4  30
ATOM     30  C   UNL     1     -31.277  25.397 -12.459  1.00  0.00     0.163 C 
BRANCH  30  31
ATOM     31  O   UNL     1     -31.949  26.291 -11.612  1.00  0.00    -0.396 OA
ATOM     32  H   UNL     1     -31.541  27.181 -11.771  1.00  0.00     0.210 HD
ENDBRANCH  30  31
ENDBRANCH   4  30
BRANCH  13  33
ATOM     33  O   UNL     1     -29.539  31.740 -22.646  1.00  0.00    -0.393 OA
ATOM     34  H   UNL     1     -30.192  31.414 -23.319  1.00  0.00     0.210 HD
ENDBRANCH  13  33
TORSDOF 4
ENDMDL
MODEL 4
REMARK VINA RESULT:   133.807      9.412     12.175
REMARK INTER + INTRA:         160.110
REMARK INTER:                 160.542
REMARK INTRA:                  -0.432
REMARK UNBOUND:                 2.836
REMARK SMILES C=C(C)[C@H]1CC[C@@]2(CO)CC[C@]3(C)[C@@H](CC[C@@H]4[C@@]5(C)CC[C@H](O)C(C)(C)[C@H]5CC[C@@]43C)[C@@H]12
REMARK SMILES IDX 4 1 5 2 6 3 7 4 32 5 14 6 15 7 16 8 17 9 18 10 20 11 21 12
REMARK SMILES IDX 22 13 24 14 27 15 28 16 29 17 30 18 12 19 11 20 10 21 13 22
REMARK SMILES IDX 31 23 25 24 26 25 19 26 2 27 3 28 1 29 8 30 9 31 23 33
REMARK H PARENT 9 32 23 34
REMARK Flexibility Score: inf
ROOT
ATOM      1  C   UNL     1     -30.732  30.856 -19.477  1.00  0.00     0.018 C 
ATOM      2  C   UNL     1     -31.757  31.433 -20.460  1.00  0.00     0.009 C 
ATOM      3  C   UNL     1     -33.100  31.382 -19.756  1.00  0.00     0.010 C 
ATOM      4  C   UNL     1     -32.821  31.586 -18.249  1.00  0.00    -0.003 C 
ATOM      5  C   UNL     1     -31.302  31.234 -18.070  1.00  0.00     0.008 C 
ATOM      6  C   UNL     1     -30.953  30.497 -16.711  1.00  0.00    -0.000 C 
ATOM      7  C   UNL     1     -29.466  30.348 -16.382  1.00  0.00     0.005 C 
ATOM      8  C   UNL     1     -28.962  28.925 -16.308  1.00  0.00     0.005 C 
ATOM      9  C   UNL     1     -29.782  27.972 -15.372  1.00  0.00     0.002 C 
ATOM     10  C   UNL     1     -28.983  26.577 -15.199  1.00  0.00    -0.026 C 
ATOM     11  C   UNL     1     -29.506  25.711 -14.004  1.00  0.00     0.010 C 
ATOM     12  C   UNL     1     -28.866  24.314 -13.898  1.00  0.00     0.033 C 
ATOM     13  C   UNL     1     -28.998  23.516 -15.205  1.00  0.00     0.120 C 
ATOM     14  C   UNL     1     -28.432  24.271 -16.448  1.00  0.00    -0.006 C 
ATOM     15  C   UNL     1     -29.048  25.743 -16.546  1.00  0.00     0.003 C 
ATOM     16  C   UNL     1     -30.495  25.712 -17.130  1.00  0.00     0.005 C 
ATOM     17  C   UNL     1     -31.227  27.064 -17.227  1.00  0.00     0.008 C 
ATOM     18  C   UNL     1     -31.279  27.888 -15.915  1.00  0.00    -0.024 C 
ATOM     19  C   UNL     1     -31.929  29.381 -16.123  1.00  0.00    -0.024 C 
ATOM     20  C   UNL     1     -33.184  29.325 -17.059  1.00  0.00     0.008 C 
ATOM     21  C   UNL     1     -33.771  30.701 -17.386  1.00  0.00     0.010 C 
ATOM     22  C   UNL     1     -32.414  29.906 -14.711  1.00  0.00     0.012 C 
ATOM     23  C   UNL     1     -32.224  27.098 -14.941  1.00  0.00     0.012 C 
ATOM     24  C   UNL     1     -28.787  23.435 -17.714  1.00  0.00     0.014 C 
ATOM     25  C   UNL     1     -26.875  24.307 -16.413  1.00  0.00     0.014 C 
ATOM     26  C   UNL     1     -27.502  26.936 -14.822  1.00  0.00     0.012 C 
ENDROOT
BRANCH   1  27
ATOM     27  C   UNL     1     -30.364  29.405 -19.796  1.00  0.00    -0.077 C 
ATOM     28  C   UNL     1     -31.393  28.295 -19.863  1.00  0.00     0.039 C 
ATOM     29  C   UNL     1     -29.163  29.154 -20.349  1.00  0.00     0.008 C 
ENDBRANCH   1  27
BRANCH   4  30
ATOM     30  C   UNL     1     -33.074  33.079 -17.885  1.00  0.00     0.163 C 
BRANCH  30  31
ATOM     31  O   UNL     1     -31.889  33.825 -17.982  1.00  0.00    -0.396 OA
ATOM     32  H   UNL     1     -31.162  33.169 -18.141  1.00  0.00     0.210 HD
ENDBRANCH  30  31
ENDBRANCH   4  30
BRANCH  13  33
ATOM     33  O   UNL     1     -28.352  22.275 -15.058  1.00  0.00    -0.393 OA
ATOM     34  H   UNL     1     -29.018  21.571 -15.277  1.00  0.00     0.210 HD
ENDBRANCH  13  33
TORSDOF 4
ENDMDL
MODEL 5
REMARK VINA RESULT:   133.888      9.905     15.030
REMARK INTER + INTRA:         160.206
REMARK INTER:                 157.192
REMARK INTRA:                   3.013
REMARK UNBOUND:                 2.836
REMARK SMILES C=C(C)[C@H]1CC[C@@]2(CO)CC[C@]3(C)[C@@H](CC[C@@H]4[C@@]5(C)CC[C@H](O)C(C)(C)[C@H]5CC[C@@]43C)[C@@H]12
REMARK SMILES IDX 4 1 5 2 6 3 7 4 32 5 14 6 15 7 16 8 17 9 18 10 20 11 21 12
REMARK SMILES IDX 22 13 24 14 27 15 28 16 29 17 30 18 12 19 11 20 10 21 13 22
REMARK SMILES IDX 31 23 25 24 26 25 19 26 2 27 3 28 1 29 8 30 9 31 23 33
REMARK H PARENT 9 32 23 34
REMARK Flexibility Score: inf
ROOT
ATOM      1  C   UNL     1     -31.390  22.514 -13.999  1.00  0.00     0.018 C 
ATOM      2  C   UNL     1     -31.097  21.010 -14.065  1.00  0.00     0.009 C 
ATOM      3  C   UNL     1     -29.596  20.875 -14.240  1.00  0.00     0.010 C 
ATOM      4  C   UNL     1     -28.951  22.066 -13.494  1.00  0.00    -0.003 C 
ATOM      5  C   UNL     1     -30.103  23.123 -13.353  1.00  0.00     0.008 C 
ATOM      6  C   UNL     1     -29.632  24.630 -13.491  1.00  0.00    -0.000 C 
ATOM      7  C   UNL     1     -30.664  25.700 -13.125  1.00  0.00     0.005 C 
ATOM      8  C   UNL     1     -31.083  26.605 -14.261  1.00  0.00     0.005 C 
ATOM      9  C   UNL     1     -29.906  27.288 -15.041  1.00  0.00     0.002 C 
ATOM     10  C   UNL     1     -30.509  28.407 -16.041  1.00  0.00    -0.026 C 
ATOM     11  C   UNL     1     -29.424  29.399 -16.580  1.00  0.00     0.010 C 
ATOM     12  C   UNL     1     -29.935  30.388 -17.645  1.00  0.00     0.033 C 
ATOM     13  C   UNL     1     -30.605  29.670 -18.828  1.00  0.00     0.120 C 
ATOM     14  C   UNL     1     -31.756  28.710 -18.394  1.00  0.00    -0.006 C 
ATOM     15  C   UNL     1     -31.259  27.708 -17.251  1.00  0.00     0.003 C 
ATOM     16  C   UNL     1     -30.411  26.543 -17.851  1.00  0.00     0.005 C 
ATOM     17  C   UNL     1     -29.822  25.533 -16.849  1.00  0.00     0.008 C 
ATOM     18  C   UNL     1     -28.998  26.150 -15.689  1.00  0.00    -0.024 C 
ATOM     19  C   UNL     1     -28.535  25.039 -14.573  1.00  0.00    -0.024 C 
ATOM     20  C   UNL     1     -28.048  23.717 -15.260  1.00  0.00     0.008 C 
ATOM     21  C   UNL     1     -27.709  22.598 -14.271  1.00  0.00     0.010 C 
ATOM     22  C   UNL     1     -27.308  25.634 -13.769  1.00  0.00     0.012 C 
ATOM     23  C   UNL     1     -27.692  26.728 -16.344  1.00  0.00     0.012 C 
ATOM     24  C   UNL     1     -32.222  27.925 -19.656  1.00  0.00     0.014 C 
ATOM     25  C   UNL     1     -33.008  29.517 -17.937  1.00  0.00     0.014 C 
ATOM     26  C   UNL     1     -31.491  29.298 -15.200  1.00  0.00     0.012 C 
ENDROOT
BRANCH   1  27
ATOM     27  C   UNL     1     -31.924  23.067 -15.324  1.00  0.00    -0.077 C 
ATOM     28  C   UNL     1     -32.990  22.359 -16.136  1.00  0.00     0.039 C 
ATOM     29  C   UNL     1     -31.691  24.357 -15.621  1.00  0.00     0.008 C 
ENDBRANCH   1  27
BRANCH   4  30
ATOM     30  C   UNL     1     -28.484  21.588 -12.086  1.00  0.00     0.163 C 
BRANCH  30  31
ATOM     31  O   UNL     1     -27.144  21.940 -11.859  1.00  0.00    -0.396 OA
ATOM     32  H   UNL     1     -26.667  21.776 -12.712  1.00  0.00     0.210 HD
ENDBRANCH  30  31
ENDBRANCH   4  30
BRANCH  13  33
ATOM     33  O   UNL     1     -31.091  30.628 -19.736  1.00  0.00    -0.393 OA
ATOM     34  H   UNL     1     -31.287  31.450 -19.216  1.00  0.00     0.210 HD
ENDBRANCH  13  33
TORSDOF 4
ENDMDL
