MODEL 1
REMARK VINA RESULT:    -4.376      0.000      0.000
REMARK INTER + INTRA:         -10.474
REMARK INTER:                  -7.958
REMARK INTRA:                  -2.517
REMARK UNBOUND:                -2.517
REMARK SMILES CCCCCCCCCCCCCC[C@H](C)C(=O)[O-]
REMARK SMILES IDX 9 1 10 2 11 3 12 4 13 5 14 6 15 7 16 8 17 9 18 10 19 11 8 12
REMARK SMILES IDX 7 13 6 14 5 15 4 16 3 17 2 18 1 19
REMARK H PARENT
REMARK Flexibility Score: inf
ROOT
ATOM      1  C   UNL     1      19.497  -6.751 -18.553  1.00  0.00     0.000 C 
ENDROOT
BRANCH   1   2
ATOM      2  C   UNL     1      19.038  -6.360 -17.140  1.00  0.00     0.000 C 
BRANCH   2   3
ATOM      3  C   UNL     1      17.509  -6.256 -17.021  1.00  0.00     0.000 C 
BRANCH   3   4
ATOM      4  C   UNL     1      17.062  -5.081 -16.138  1.00  0.00     0.000 C 
BRANCH   4   5
ATOM      5  C   UNL     1      16.209  -4.086 -16.941  1.00  0.00     0.001 C 
BRANCH   5   6
ATOM      6  C   UNL     1      15.642  -4.689 -18.240  1.00  0.00     0.009 C 
BRANCH   6   7
ATOM      7  C   UNL     1      15.936  -3.873 -19.520  1.00  0.00     0.032 C 
ATOM      8  C   UNL     1      16.924  -2.725 -19.272  1.00  0.00     0.014 C 
BRANCH   7   9
ATOM      9  C   UNL     1      14.647  -3.320 -20.067  1.00  0.00     0.044 C 
ATOM     10  O   UNL     1      13.581  -3.982 -19.963  1.00  0.00    -0.550 OA
ATOM     11  O   UNL     1      14.622  -2.072 -20.677  1.00  0.00    -0.550 OA
ENDBRANCH   7   9
ENDBRANCH   6   7
ENDBRANCH   5   6
ENDBRANCH   4   5
ENDBRANCH   3   4
ENDBRANCH   2   3
ENDBRANCH   1   2
BRANCH   1  12
ATOM     12  C   UNL     1      18.347  -6.606 -19.561  1.00  0.00     0.000 C 
BRANCH  12  13
ATOM     13  C   UNL     1      18.833  -6.564 -21.021  1.00  0.00    -0.000 C 
BRANCH  13  14
ATOM     14  C   UNL     1      19.116  -5.153 -21.576  1.00  0.00    -0.000 C 
BRANCH  14  15
ATOM     15  C   UNL     1      20.586  -4.867 -21.933  1.00  0.00    -0.000 C 
BRANCH  15  16
ATOM     16  C   UNL     1      21.005  -3.419 -21.626  1.00  0.00    -0.000 C 
BRANCH  16  17
ATOM     17  C   UNL     1      20.404  -2.886 -20.312  1.00  0.00    -0.000 C 
BRANCH  17  18
ATOM     18  C   UNL     1      21.119  -3.354 -19.032  1.00  0.00    -0.003 C 
ATOM     19  C   UNL     1      20.335  -3.040 -17.758  1.00  0.00     0.004 C 
ENDBRANCH  17  18
ENDBRANCH  16  17
ENDBRANCH  15  16
ENDBRANCH  14  15
ENDBRANCH  13  14
ENDBRANCH  12  13
ENDBRANCH   1  12
TORSDOF 14
ENDMDL
MODEL 2
REMARK VINA RESULT:    -4.363      8.263     11.370
REMARK INTER + INTRA:         -10.450
REMARK INTER:                  -8.051
REMARK INTRA:                  -2.400
REMARK UNBOUND:                -2.517
REMARK SMILES CCCCCCCCCCCCCC[C@H](C)C(=O)[O-]
REMARK SMILES IDX 9 1 10 2 11 3 12 4 13 5 14 6 15 7 16 8 17 9 18 10 19 11 8 12
REMARK SMILES IDX 7 13 6 14 5 15 4 16 3 17 2 18 1 19
REMARK H PARENT
REMARK Flexibility Score: inf
ROOT
ATOM      1  C   UNL     1       9.411  -8.754 -22.069  1.00  0.00     0.000 C 
ENDROOT
BRANCH   1   2
ATOM      2  C   UNL     1       8.056  -8.041 -21.937  1.00  0.00     0.000 C 
BRANCH   2   3
ATOM      3  C   UNL     1       8.171  -6.677 -21.236  1.00  0.00     0.000 C 
BRANCH   3   4
ATOM      4  C   UNL     1       7.159  -5.650 -21.769  1.00  0.00     0.000 C 
BRANCH   4   5
ATOM      5  C   UNL     1       7.876  -4.500 -22.492  1.00  0.00     0.001 C 
BRANCH   5   6
ATOM      6  C   UNL     1       9.410  -4.585 -22.389  1.00  0.00     0.009 C 
BRANCH   6   7
ATOM      7  C   UNL     1      10.182  -3.828 -23.494  1.00  0.00     0.032 C 
ATOM      8  C   UNL     1       9.512  -3.950 -24.869  1.00  0.00     0.014 C 
BRANCH   7   9
ATOM      9  C   UNL     1      11.590  -4.355 -23.570  1.00  0.00     0.044 C 
ATOM     10  O   UNL     1      12.458  -3.745 -24.251  1.00  0.00    -0.550 OA
ATOM     11  O   UNL     1      11.947  -5.507 -22.881  1.00  0.00    -0.550 OA
ENDBRANCH   7   9
ENDBRANCH   6   7
ENDBRANCH   5   6
ENDBRANCH   4   5
ENDBRANCH   3   4
ENDBRANCH   2   3
ENDBRANCH   1   2
BRANCH   1  12
ATOM     12  C   UNL     1       9.770  -8.976 -23.545  1.00  0.00     0.000 C 
BRANCH  12  13
ATOM     13  C   UNL     1       9.622  -7.702 -24.395  1.00  0.00    -0.000 C 
BRANCH  13  14
ATOM     14  C   UNL     1       8.764  -7.860 -25.668  1.00  0.00    -0.000 C 
BRANCH  14  15
ATOM     15  C   UNL     1       7.243  -7.766 -25.453  1.00  0.00    -0.000 C 
BRANCH  15  16
ATOM     16  C   UNL     1       6.729  -6.316 -25.438  1.00  0.00    -0.000 C 
BRANCH  16  17
ATOM     17  C   UNL     1       5.694  -6.035 -26.543  1.00  0.00    -0.000 C 
BRANCH  17  18
ATOM     18  C   UNL     1       5.292  -4.558 -26.700  1.00  0.00    -0.003 C 
ATOM     19  C   UNL     1       5.845  -3.664 -25.590  1.00  0.00     0.004 C 
ENDBRANCH  17  18
ENDBRANCH  16  17
ENDBRANCH  15  16
ENDBRANCH  14  15
ENDBRANCH  13  14
ENDBRANCH  12  13
ENDBRANCH   1  12
TORSDOF 14
ENDMDL
MODEL 3
REMARK VINA RESULT:    -4.314      2.675      5.254
REMARK INTER + INTRA:         -10.361
REMARK INTER:                  -8.019
REMARK INTRA:                  -2.342
REMARK UNBOUND:                -2.517
REMARK SMILES CCCCCCCCCCCCCC[C@H](C)C(=O)[O-]
REMARK SMILES IDX 9 1 10 2 11 3 12 4 13 5 14 6 15 7 16 8 17 9 18 10 19 11 8 12
REMARK SMILES IDX 7 13 6 14 5 15 4 16 3 17 2 18 1 19
REMARK H PARENT
REMARK Flexibility Score: inf
ROOT
ATOM      1  C   UNL     1      19.867  -5.546 -18.385  1.00  0.00     0.000 C 
ENDROOT
BRANCH   1   2
ATOM      2  C   UNL     1      20.379  -4.360 -17.552  1.00  0.00     0.000 C 
BRANCH   2   3
ATOM      3  C   UNL     1      20.092  -3.003 -18.215  1.00  0.00     0.000 C 
BRANCH   3   4
ATOM      4  C   UNL     1      21.032  -2.708 -19.393  1.00  0.00     0.000 C 
BRANCH   4   5
ATOM      5  C   UNL     1      20.263  -2.718 -20.723  1.00  0.00     0.001 C 
BRANCH   5   6
ATOM      6  C   UNL     1      20.815  -3.744 -21.731  1.00  0.00     0.009 C 
BRANCH   6   7
ATOM      7  C   UNL     1      19.775  -4.753 -22.271  1.00  0.00     0.032 C 
ATOM      8  C   UNL     1      18.392  -4.569 -21.634  1.00  0.00     0.014 C 
BRANCH   7   9
ATOM      9  C   UNL     1      20.264  -6.155 -22.022  1.00  0.00     0.044 C 
ATOM     10  O   UNL     1      19.478  -7.131 -22.155  1.00  0.00    -0.550 OA
ATOM     11  O   UNL     1      21.585  -6.383 -21.659  1.00  0.00    -0.550 OA
ENDBRANCH   7   9
ENDBRANCH   6   7
ENDBRANCH   5   6
ENDBRANCH   4   5
ENDBRANCH   3   4
ENDBRANCH   2   3
ENDBRANCH   1   2
BRANCH   1  12
ATOM     12  C   UNL     1      19.254  -6.625 -17.480  1.00  0.00     0.000 C 
BRANCH  12  13
ATOM     13  C   UNL     1      18.351  -6.040 -16.379  1.00  0.00    -0.000 C 
BRANCH  13  14
ATOM     14  C   UNL     1      16.837  -6.117 -16.666  1.00  0.00    -0.000 C 
BRANCH  14  15
ATOM     15  C   UNL     1      16.456  -6.636 -18.063  1.00  0.00    -0.000 C 
BRANCH  15  16
ATOM     16  C   UNL     1      15.889  -5.535 -18.976  1.00  0.00    -0.000 C 
BRANCH  16  17
ATOM     17  C   UNL     1      15.454  -4.278 -18.200  1.00  0.00    -0.000 C 
BRANCH  17  18
ATOM     18  C   UNL     1      16.342  -3.039 -18.415  1.00  0.00    -0.003 C 
ATOM     19  C   UNL     1      16.705  -2.328 -17.112  1.00  0.00     0.004 C 
ENDBRANCH  17  18
ENDBRANCH  16  17
ENDBRANCH  15  16
ENDBRANCH  14  15
ENDBRANCH  13  14
ENDBRANCH  12  13
ENDBRANCH   1  12
TORSDOF 14
ENDMDL
MODEL 4
REMARK VINA RESULT:    -4.302      1.367      3.122
REMARK INTER + INTRA:         -10.340
REMARK INTER:                  -7.755
REMARK INTRA:                  -2.585
REMARK UNBOUND:                -2.517
REMARK SMILES CCCCCCCCCCCCCC[C@H](C)C(=O)[O-]
REMARK SMILES IDX 9 1 10 2 11 3 12 4 13 5 14 6 15 7 16 8 17 9 18 10 19 11 8 12
REMARK SMILES IDX 7 13 6 14 5 15 4 16 3 17 2 18 1 19
REMARK H PARENT
REMARK Flexibility Score: inf
ROOT
ATOM      1  C   UNL     1      21.242  -4.890 -18.474  1.00  0.00     0.000 C 
ENDROOT
BRANCH   1   2
ATOM      2  C   UNL     1      21.062  -5.597 -17.122  1.00  0.00     0.000 C 
BRANCH   2   3
ATOM      3  C   UNL     1      20.008  -6.715 -17.174  1.00  0.00     0.000 C 
BRANCH   3   4
ATOM      4  C   UNL     1      18.630  -6.210 -17.626  1.00  0.00     0.000 C 
BRANCH   4   5
ATOM      5  C   UNL     1      17.701  -6.000 -16.420  1.00  0.00     0.001 C 
BRANCH   5   6
ATOM      6  C   UNL     1      16.940  -4.662 -16.471  1.00  0.00     0.009 C 
BRANCH   6   7
ATOM      7  C   UNL     1      17.121  -3.858 -17.779  1.00  0.00     0.032 C 
ATOM      8  C   UNL     1      17.629  -2.432 -17.527  1.00  0.00     0.014 C 
BRANCH   7   9
ATOM      9  C   UNL     1      15.811  -3.804 -18.518  1.00  0.00     0.044 C 
ATOM     10  O   UNL     1      14.770  -4.284 -17.995  1.00  0.00    -0.550 OA
ATOM     11  O   UNL     1      15.737  -3.213 -19.773  1.00  0.00    -0.550 OA
ENDBRANCH   7   9
ENDBRANCH   6   7
ENDBRANCH   5   6
ENDBRANCH   4   5
ENDBRANCH   3   4
ENDBRANCH   2   3
ENDBRANCH   1   2
BRANCH   1  12
ATOM     12  C   UNL     1      21.199  -3.365 -18.303  1.00  0.00     0.000 C 
BRANCH  12  13
ATOM     13  C   UNL     1      20.825  -2.628 -19.602  1.00  0.00    -0.000 C 
BRANCH  13  14
ATOM     14  C   UNL     1      20.425  -3.541 -20.780  1.00  0.00    -0.000 C 
BRANCH  14  15
ATOM     15  C   UNL     1      18.914  -3.634 -21.058  1.00  0.00    -0.000 C 
BRANCH  15  16
ATOM     16  C   UNL     1      18.457  -5.060 -21.411  1.00  0.00    -0.000 C 
BRANCH  16  17
ATOM     17  C   UNL     1      19.241  -5.666 -22.590  1.00  0.00    -0.000 C 
BRANCH  17  18
ATOM     18  C   UNL     1      19.965  -6.988 -22.281  1.00  0.00    -0.003 C 
ATOM     19  C   UNL     1      19.751  -7.468 -20.846  1.00  0.00     0.004 C 
ENDBRANCH  17  18
ENDBRANCH  16  17
ENDBRANCH  15  16
ENDBRANCH  14  15
ENDBRANCH  13  14
ENDBRANCH  12  13
ENDBRANCH   1  12
TORSDOF 14
ENDMDL
MODEL 5
REMARK VINA RESULT:    -4.296      1.900      3.452
REMARK INTER + INTRA:         -10.328
REMARK INTER:                  -7.701
REMARK INTRA:                  -2.627
REMARK UNBOUND:                -2.517
REMARK SMILES CCCCCCCCCCCCCC[C@H](C)C(=O)[O-]
REMARK SMILES IDX 9 1 10 2 11 3 12 4 13 5 14 6 15 7 16 8 17 9 18 10 19 11 8 12
REMARK SMILES IDX 7 13 6 14 5 15 4 16 3 17 2 18 1 19
REMARK H PARENT
REMARK Flexibility Score: inf
ROOT
ATOM      1  C   UNL     1      19.411  -5.533 -22.603  1.00  0.00     0.000 C 
ENDROOT
BRANCH   1   2
ATOM      2  C   UNL     1      18.449  -6.507 -21.906  1.00  0.00     0.000 C 
BRANCH   2   3
ATOM      3  C   UNL     1      18.369  -6.276 -20.388  1.00  0.00     0.000 C 
BRANCH   3   4
ATOM      4  C   UNL     1      17.526  -5.045 -20.020  1.00  0.00     0.000 C 
BRANCH   4   5
ATOM      5  C   UNL     1      16.064  -5.439 -19.763  1.00  0.00     0.001 C 
BRANCH   5   6
ATOM      6  C   UNL     1      15.651  -5.293 -18.287  1.00  0.00     0.009 C 
BRANCH   6   7
ATOM      7  C   UNL     1      16.769  -4.796 -17.342  1.00  0.00     0.032 C 
ATOM      8  C   UNL     1      17.100  -5.809 -16.238  1.00  0.00     0.014 C 
BRANCH   7   9
ATOM      9  C   UNL     1      16.355  -3.490 -16.720  1.00  0.00     0.044 C 
ATOM     10  O   UNL     1      15.576  -3.479 -15.730  1.00  0.00    -0.550 OA
ATOM     11  O   UNL     1      16.837  -2.288 -17.225  1.00  0.00    -0.550 OA
ENDBRANCH   7   9
ENDBRANCH   6   7
ENDBRANCH   5   6
ENDBRANCH   4   5
ENDBRANCH   3   4
ENDBRANCH   2   3
ENDBRANCH   1   2
BRANCH   1  12
ATOM     12  C   UNL     1      20.748  -5.453 -21.851  1.00  0.00     0.000 C 
BRANCH  12  13
ATOM     13  C   UNL     1      21.209  -4.005 -21.604  1.00  0.00    -0.000 C 
BRANCH  13  14
ATOM     14  C   UNL     1      20.072  -2.984 -21.390  1.00  0.00    -0.000 C 
BRANCH  14  15
ATOM     15  C   UNL     1      20.022  -2.337 -19.994  1.00  0.00    -0.000 C 
BRANCH  15  16
ATOM     16  C   UNL     1      20.991  -2.992 -18.995  1.00  0.00    -0.000 C 
BRANCH  16  17
ATOM     17  C   UNL     1      20.271  -3.645 -17.801  1.00  0.00    -0.000 C 
BRANCH  17  18
ATOM     18  C   UNL     1      20.526  -5.153 -17.631  1.00  0.00    -0.003 C 
ATOM     19  C   UNL     1      21.826  -5.619 -18.285  1.00  0.00     0.004 C 
ENDBRANCH  17  18
ENDBRANCH  16  17
ENDBRANCH  15  16
ENDBRANCH  14  15
ENDBRANCH  13  14
ENDBRANCH  12  13
ENDBRANCH   1  12
TORSDOF 14
ENDMDL
MODEL 6
REMARK VINA RESULT:    -4.272      6.938      9.812
REMARK INTER + INTRA:         -10.284
REMARK INTER:                  -7.879
REMARK INTRA:                  -2.405
REMARK UNBOUND:                -2.517
REMARK SMILES CCCCCCCCCCCCCC[C@H](C)C(=O)[O-]
REMARK SMILES IDX 9 1 10 2 11 3 12 4 13 5 14 6 15 7 16 8 17 9 18 10 19 11 8 12
REMARK SMILES IDX 7 13 6 14 5 15 4 16 3 17 2 18 1 19
REMARK H PARENT
REMARK Flexibility Score: inf
ROOT
ATOM      1  C   UNL     1       7.304  -7.118 -21.435  1.00  0.00     0.000 C 
ENDROOT
BRANCH   1   2
ATOM      2  C   UNL     1       7.031  -5.617 -21.616  1.00  0.00     0.000 C 
BRANCH   2   3
ATOM      3  C   UNL     1       8.190  -4.884 -22.313  1.00  0.00     0.000 C 
BRANCH   3   4
ATOM      4  C   UNL     1       7.780  -4.275 -23.662  1.00  0.00     0.000 C 
BRANCH   4   5
ATOM      5  C   UNL     1       8.823  -4.592 -24.745  1.00  0.00     0.001 C 
BRANCH   5   6
ATOM      6  C   UNL     1       9.608  -3.350 -25.208  1.00  0.00     0.009 C 
BRANCH   6   7
ATOM      7  C   UNL     1      11.121  -3.580 -25.431  1.00  0.00     0.032 C 
ATOM      8  C   UNL     1      11.415  -4.911 -26.136  1.00  0.00     0.014 C 
BRANCH   7   9
ATOM      9  C   UNL     1      11.833  -3.543 -24.105  1.00  0.00     0.044 C 
ATOM     10  O   UNL     1      11.493  -2.704 -23.228  1.00  0.00    -0.550 OA
ATOM     11  O   UNL     1      12.858  -4.440 -23.833  1.00  0.00    -0.550 OA
ENDBRANCH   7   9
ENDBRANCH   6   7
ENDBRANCH   5   6
ENDBRANCH   4   5
ENDBRANCH   3   4
ENDBRANCH   2   3
ENDBRANCH   1   2
BRANCH   1  12
ATOM     12  C   UNL     1       7.413  -7.822 -22.795  1.00  0.00     0.000 C 
BRANCH  12  13
ATOM     13  C   UNL     1       8.711  -8.635 -22.944  1.00  0.00    -0.000 C 
BRANCH  13  14
ATOM     14  C   UNL     1       9.813  -7.960 -23.788  1.00  0.00    -0.000 C 
BRANCH  14  15
ATOM     15  C   UNL     1      10.956  -7.315 -22.984  1.00  0.00    -0.000 C 
BRANCH  15  16
ATOM     16  C   UNL     1      11.195  -8.000 -21.628  1.00  0.00    -0.000 C 
BRANCH  16  17
ATOM     17  C   UNL     1      11.349  -6.997 -20.469  1.00  0.00    -0.000 C 
BRANCH  17  18
ATOM     18  C   UNL     1      11.085  -5.527 -20.839  1.00  0.00    -0.003 C 
ATOM     19  C   UNL     1      11.857  -4.540 -19.964  1.00  0.00     0.004 C 
ENDBRANCH  17  18
ENDBRANCH  16  17
ENDBRANCH  15  16
ENDBRANCH  14  15
ENDBRANCH  13  14
ENDBRANCH  12  13
ENDBRANCH   1  12
TORSDOF 14
ENDMDL
MODEL 7
REMARK VINA RESULT:    -4.269      2.193      4.482
REMARK INTER + INTRA:         -10.280
REMARK INTER:                  -7.646
REMARK INTRA:                  -2.633
REMARK UNBOUND:                -2.517
REMARK SMILES CCCCCCCCCCCCCC[C@H](C)C(=O)[O-]
REMARK SMILES IDX 9 1 10 2 11 3 12 4 13 5 14 6 15 7 16 8 17 9 18 10 19 11 8 12
REMARK SMILES IDX 7 13 6 14 5 15 4 16 3 17 2 18 1 19
REMARK H PARENT
REMARK Flexibility Score: inf
ROOT
ATOM      1  C   UNL     1      20.877  -4.174 -21.601  1.00  0.00     0.000 C 
ENDROOT
BRANCH   1   2
ATOM      2  C   UNL     1      21.454  -3.986 -20.189  1.00  0.00     0.000 C 
BRANCH   2   3
ATOM      3  C   UNL     1      20.785  -2.831 -19.425  1.00  0.00     0.000 C 
BRANCH   3   4
ATOM      4  C   UNL     1      19.460  -2.387 -20.063  1.00  0.00     0.000 C 
BRANCH   4   5
ATOM      5  C   UNL     1      18.261  -2.917 -19.263  1.00  0.00     0.001 C 
BRANCH   5   6
ATOM      6  C   UNL     1      18.626  -3.308 -17.818  1.00  0.00     0.009 C 
BRANCH   6   7
ATOM      7  C   UNL     1      18.465  -4.810 -17.488  1.00  0.00     0.032 C 
ATOM      8  C   UNL     1      18.342  -5.679 -18.746  1.00  0.00     0.014 C 
BRANCH   7   9
ATOM      9  C   UNL     1      17.250  -5.003 -16.620  1.00  0.00     0.044 C 
ATOM     10  O   UNL     1      16.930  -6.157 -16.228  1.00  0.00    -0.550 OA
ATOM     11  O   UNL     1      16.483  -3.911 -16.234  1.00  0.00    -0.550 OA
ENDBRANCH   7   9
ENDBRANCH   6   7
ENDBRANCH   5   6
ENDBRANCH   4   5
ENDBRANCH   3   4
ENDBRANCH   2   3
ENDBRANCH   1   2
BRANCH   1  12
ATOM     12  C   UNL     1      20.731  -5.665 -21.937  1.00  0.00     0.000 C 
BRANCH  12  13
ATOM     13  C   UNL     1      19.309  -6.038 -22.396  1.00  0.00    -0.000 C 
BRANCH  13  14
ATOM     14  C   UNL     1      18.358  -4.843 -22.617  1.00  0.00    -0.000 C 
BRANCH  14  15
ATOM     15  C   UNL     1      16.857  -5.174 -22.552  1.00  0.00    -0.000 C 
BRANCH  15  16
ATOM     16  C   UNL     1      15.963  -3.934 -22.721  1.00  0.00    -0.000 C 
BRANCH  16  17
ATOM     17  C   UNL     1      15.152  -3.603 -21.454  1.00  0.00    -0.000 C 
BRANCH  17  18
ATOM     18  C   UNL     1      15.108  -4.721 -20.397  1.00  0.00    -0.003 C 
ATOM     19  C   UNL     1      14.509  -4.266 -19.067  1.00  0.00     0.004 C 
ENDBRANCH  17  18
ENDBRANCH  16  17
ENDBRANCH  15  16
ENDBRANCH  14  15
ENDBRANCH  13  14
ENDBRANCH  12  13
ENDBRANCH   1  12
TORSDOF 14
ENDMDL
MODEL 8
REMARK VINA RESULT:    -4.263      0.964      2.509
REMARK INTER + INTRA:         -10.268
REMARK INTER:                  -7.951
REMARK INTRA:                  -2.317
REMARK UNBOUND:                -2.517
REMARK SMILES CCCCCCCCCCCCCC[C@H](C)C(=O)[O-]
REMARK SMILES IDX 9 1 10 2 11 3 12 4 13 5 14 6 15 7 16 8 17 9 18 10 19 11 8 12
REMARK SMILES IDX 7 13 6 14 5 15 4 16 3 17 2 18 1 19
REMARK H PARENT
REMARK Flexibility Score: inf
ROOT
ATOM      1  C   UNL     1      19.884  -6.748 -18.171  1.00  0.00     0.000 C 
ENDROOT
BRANCH   1   2
ATOM      2  C   UNL     1      19.127  -6.378 -16.885  1.00  0.00     0.000 C 
BRANCH   2   3
ATOM      3  C   UNL     1      17.646  -6.053 -17.143  1.00  0.00     0.000 C 
BRANCH   3   4
ATOM      4  C   UNL     1      17.150  -4.858 -16.316  1.00  0.00     0.000 C 
BRANCH   4   5
ATOM      5  C   UNL     1      16.117  -4.038 -17.105  1.00  0.00     0.001 C 
BRANCH   5   6
ATOM      6  C   UNL     1      15.563  -4.786 -18.332  1.00  0.00     0.009 C 
BRANCH   6   7
ATOM      7  C   UNL     1      15.429  -3.930 -19.613  1.00  0.00     0.032 C 
ATOM      8  C   UNL     1      15.900  -2.485 -19.406  1.00  0.00     0.014 C 
BRANCH   7   9
ATOM      9  C   UNL     1      13.994  -3.933 -20.067  1.00  0.00     0.044 C 
ATOM     10  O   UNL     1      13.661  -3.318 -21.116  1.00  0.00    -0.550 OA
ATOM     11  O   UNL     1      13.029  -4.623 -19.343  1.00  0.00    -0.550 OA
ENDBRANCH   7   9
ENDBRANCH   6   7
ENDBRANCH   5   6
ENDBRANCH   4   5
ENDBRANCH   3   4
ENDBRANCH   2   3
ENDBRANCH   1   2
BRANCH   1  12
ATOM     12  C   UNL     1      21.208  -5.976 -18.266  1.00  0.00     0.000 C 
BRANCH  12  13
ATOM     13  C   UNL     1      21.206  -4.680 -17.436  1.00  0.00    -0.000 C 
BRANCH  13  14
ATOM     14  C   UNL     1      21.059  -3.380 -18.254  1.00  0.00    -0.000 C 
BRANCH  14  15
ATOM     15  C   UNL     1      19.619  -3.011 -18.652  1.00  0.00    -0.000 C 
BRANCH  15  16
ATOM     16  C   UNL     1      19.441  -2.847 -20.172  1.00  0.00    -0.000 C 
BRANCH  16  17
ATOM     17  C   UNL     1      20.698  -3.245 -20.968  1.00  0.00    -0.000 C 
BRANCH  17  18
ATOM     18  C   UNL     1      20.490  -4.374 -21.993  1.00  0.00    -0.003 C 
ATOM     19  C   UNL     1      19.071  -4.941 -21.982  1.00  0.00     0.004 C 
ENDBRANCH  17  18
ENDBRANCH  16  17
ENDBRANCH  15  16
ENDBRANCH  14  15
ENDBRANCH  13  14
ENDBRANCH  12  13
ENDBRANCH   1  12
TORSDOF 14
ENDMDL
MODEL 9
REMARK VINA RESULT:    -4.256      5.836      9.298
REMARK INTER + INTRA:         -10.256
REMARK INTER:                  -8.062
REMARK INTRA:                  -2.194
REMARK UNBOUND:                -2.517
REMARK SMILES CCCCCCCCCCCCCC[C@H](C)C(=O)[O-]
REMARK SMILES IDX 9 1 10 2 11 3 12 4 13 5 14 6 15 7 16 8 17 9 18 10 19 11 8 12
REMARK SMILES IDX 7 13 6 14 5 15 4 16 3 17 2 18 1 19
REMARK H PARENT
REMARK Flexibility Score: inf
ROOT
ATOM      1  C   UNL     1       9.073  -7.298 -20.887  1.00  0.00     0.000 C 
ENDROOT
BRANCH   1   2
ATOM      2  C   UNL     1      10.459  -6.739 -21.246  1.00  0.00     0.000 C 
BRANCH   2   3
ATOM      3  C   UNL     1      11.131  -6.020 -20.064  1.00  0.00     0.000 C 
BRANCH   3   4
ATOM      4  C   UNL     1      11.521  -4.572 -20.397  1.00  0.00     0.000 C 
BRANCH   4   5
ATOM      5  C   UNL     1      11.502  -4.334 -21.915  1.00  0.00     0.001 C 
BRANCH   5   6
ATOM      6  C   UNL     1      12.719  -3.534 -22.415  1.00  0.00     0.009 C 
BRANCH   6   7
ATOM      7  C   UNL     1      13.818  -4.377 -23.102  1.00  0.00     0.032 C 
ATOM      8  C   UNL     1      13.452  -5.865 -23.185  1.00  0.00     0.014 C 
BRANCH   7   9
ATOM      9  C   UNL     1      15.113  -4.217 -22.352  1.00  0.00     0.044 C 
ATOM     10  O   UNL     1      15.117  -3.713 -21.198  1.00  0.00    -0.550 OA
ATOM     11  O   UNL     1      16.310  -4.637 -22.920  1.00  0.00    -0.550 OA
ENDBRANCH   7   9
ENDBRANCH   6   7
ENDBRANCH   5   6
ENDBRANCH   4   5
ENDBRANCH   3   4
ENDBRANCH   2   3
ENDBRANCH   1   2
BRANCH   1  12
ATOM     12  C   UNL     1       8.037  -6.916 -21.954  1.00  0.00     0.000 C 
BRANCH  12  13
ATOM     13  C   UNL     1       7.447  -5.511 -21.738  1.00  0.00    -0.000 C 
BRANCH  13  14
ATOM     14  C   UNL     1       7.963  -4.429 -22.709  1.00  0.00    -0.000 C 
BRANCH  14  15
ATOM     15  C   UNL     1       7.152  -4.268 -24.008  1.00  0.00    -0.000 C 
BRANCH  15  16
ATOM     16  C   UNL     1       7.985  -3.692 -25.166  1.00  0.00    -0.000 C 
BRANCH  16  17
ATOM     17  C   UNL     1       9.494  -3.652 -24.857  1.00  0.00    -0.000 C 
BRANCH  17  18
ATOM     18  C   UNL     1      10.300  -4.852 -25.387  1.00  0.00    -0.003 C 
ATOM     19  C   UNL     1      11.590  -4.442 -26.096  1.00  0.00     0.004 C 
ENDBRANCH  17  18
ENDBRANCH  16  17
ENDBRANCH  15  16
ENDBRANCH  14  15
ENDBRANCH  13  14
ENDBRANCH  12  13
ENDBRANCH   1  12
TORSDOF 14
ENDMDL
