MODEL 1
REMARK VINA RESULT:    -2.570      0.000      0.000
REMARK INTER + INTRA:          -5.848
REMARK INTER:                  -4.824
REMARK INTRA:                  -1.024
REMARK UNBOUND:                -1.024
REMARK SMILES CCCCCCCCC=CCCCCCCCC(=O)[O-]
REMARK SMILES IDX 10 1 9 2 11 3 12 4 13 5 14 6 15 7 16 8 17 9 18 10 19 11
REMARK SMILES IDX 20 12 8 13 7 14 6 15 5 16 4 17 3 18 2 19 1 20
REMARK H PARENT
REMARK Flexibility Score: inf
ROOT
ATOM      1  C   UNL     1       0.875 -15.422 -18.000  1.00  0.00    -0.031 C 
ATOM      2  C   UNL     1       1.872 -14.518 -18.031  1.00  0.00    -0.031 C 
ENDROOT
BRANCH   1   3
ATOM      3  C   UNL     1      -0.410 -15.303 -18.781  1.00  0.00     0.027 C 
BRANCH   3   4
ATOM      4  C   UNL     1      -1.504 -16.187 -18.165  1.00  0.00     0.004 C 
BRANCH   4   5
ATOM      5  C   UNL     1      -2.093 -17.191 -19.172  1.00  0.00     0.000 C 
BRANCH   5   6
ATOM      6  C   UNL     1      -1.066 -17.839 -20.123  1.00  0.00     0.000 C 
BRANCH   6   7
ATOM      7  C   UNL     1      -1.188 -19.366 -20.272  1.00  0.00     0.000 C 
BRANCH   7   8
ATOM      8  C   UNL     1       0.011 -20.120 -19.678  1.00  0.00     0.006 C 
BRANCH   8   9
ATOM      9  C   UNL     1       0.783 -19.233 -18.695  1.00  0.00     0.053 C 
BRANCH   9  10
ATOM     10  C   UNL     1       0.706 -19.794 -17.310  1.00  0.00     0.041 C 
ATOM     11  O   UNL     1      -0.411 -20.061 -16.797  1.00  0.00    -0.550 OA
ATOM     12  O   UNL     1       1.867 -19.974 -16.569  1.00  0.00    -0.550 OA
ENDBRANCH   9  10
ENDBRANCH   8   9
ENDBRANCH   7   8
ENDBRANCH   6   7
ENDBRANCH   5   6
ENDBRANCH   4   5
ENDBRANCH   3   4
ENDBRANCH   1   3
BRANCH   2  13
ATOM     13  C   UNL     1       1.889 -13.295 -18.913  1.00  0.00     0.027 C 
BRANCH  13  14
ATOM     14  C   UNL     1       3.229 -12.554 -18.789  1.00  0.00     0.004 C 
BRANCH  14  15
ATOM     15  C   UNL     1       3.072 -11.028 -18.871  1.00  0.00     0.000 C 
BRANCH  15  16
ATOM     16  C   UNL     1       4.300 -10.340 -19.492  1.00  0.00     0.000 C 
BRANCH  16  17
ATOM     17  C   UNL     1       5.594 -11.142 -19.277  1.00  0.00    -0.000 C 
BRANCH  17  18
ATOM     18  C   UNL     1       6.556 -11.050 -20.476  1.00  0.00    -0.000 C 
BRANCH  18  19
ATOM     19  C   UNL     1       7.966 -10.600 -20.064  1.00  0.00    -0.003 C 
ATOM     20  C   UNL     1       8.721  -9.910 -21.200  1.00  0.00     0.004 C 
ENDBRANCH  18  19
ENDBRANCH  17  18
ENDBRANCH  16  17
ENDBRANCH  15  16
ENDBRANCH  14  15
ENDBRANCH  13  14
ENDBRANCH   2  13
TORSDOF 15
ENDMDL
MODEL 2
REMARK VINA RESULT:    -2.205      4.405      9.570
REMARK INTER + INTRA:          -5.162
REMARK INTER:                  -4.141
REMARK INTRA:                  -1.021
REMARK UNBOUND:                -1.024
REMARK SMILES CCCCCCCCC=CCCCCCCCC(=O)[O-]
REMARK SMILES IDX 10 1 9 2 11 3 12 4 13 5 14 6 15 7 16 8 17 9 18 10 19 11
REMARK SMILES IDX 20 12 8 13 7 14 6 15 5 16 4 17 3 18 2 19 1 20
REMARK H PARENT
REMARK Flexibility Score: inf
ROOT
ATOM      1  C   UNL     1       1.996 -14.512 -18.163  1.00  0.00    -0.031 C 
ATOM      2  C   UNL     1       1.004 -15.421 -18.114  1.00  0.00    -0.031 C 
ENDROOT
BRANCH   1   3
ATOM      3  C   UNL     1       1.966 -13.261 -19.005  1.00  0.00     0.027 C 
BRANCH   3   4
ATOM      4  C   UNL     1       3.229 -12.419 -18.773  1.00  0.00     0.004 C 
BRANCH   4   5
ATOM      5  C   UNL     1       2.995 -10.917 -19.012  1.00  0.00     0.000 C 
BRANCH   5   6
ATOM      6  C   UNL     1       3.520  -9.990 -17.897  1.00  0.00     0.000 C 
BRANCH   6   7
ATOM      7  C   UNL     1       2.483  -9.009 -17.321  1.00  0.00     0.000 C 
BRANCH   7   8
ATOM      8  C   UNL     1       3.049  -8.140 -16.190  1.00  0.00     0.006 C 
BRANCH   8   9
ATOM      9  C   UNL     1       3.889  -8.979 -15.221  1.00  0.00     0.053 C 
BRANCH   9  10
ATOM     10  C   UNL     1       3.747  -8.465 -13.823  1.00  0.00     0.041 C 
ATOM     11  O   UNL     1       3.588  -9.268 -12.867  1.00  0.00    -0.550 OA
ATOM     12  O   UNL     1       3.740  -7.097 -13.584  1.00  0.00    -0.550 OA
ENDBRANCH   9  10
ENDBRANCH   8   9
ENDBRANCH   7   8
ENDBRANCH   6   7
ENDBRANCH   5   6
ENDBRANCH   4   5
ENDBRANCH   3   4
ENDBRANCH   1   3
BRANCH   2  13
ATOM     13  C   UNL     1      -0.318 -15.282 -18.827  1.00  0.00     0.027 C 
BRANCH  13  14
ATOM     14  C   UNL     1      -1.343 -16.283 -18.271  1.00  0.00     0.004 C 
BRANCH  14  15
ATOM     15  C   UNL     1      -2.078 -17.055 -19.377  1.00  0.00     0.000 C 
BRANCH  15  16
ATOM     16  C   UNL     1      -1.189 -18.117 -20.047  1.00  0.00     0.000 C 
BRANCH  16  17
ATOM     17  C   UNL     1      -1.169 -19.443 -19.269  1.00  0.00    -0.000 C 
BRANCH  17  18
ATOM     18  C   UNL     1       0.258 -19.960 -19.013  1.00  0.00    -0.000 C 
BRANCH  18  19
ATOM     19  C   UNL     1       1.020 -19.100 -17.991  1.00  0.00    -0.003 C 
ATOM     20  C   UNL     1       1.432 -19.888 -16.748  1.00  0.00     0.004 C 
ENDBRANCH  18  19
ENDBRANCH  17  18
ENDBRANCH  16  17
ENDBRANCH  15  16
ENDBRANCH  14  15
ENDBRANCH  13  14
ENDBRANCH   2  13
TORSDOF 15
ENDMDL
MODEL 3
REMARK VINA RESULT:    -1.992      3.137      4.497
REMARK INTER + INTRA:          -4.763
REMARK INTER:                  -3.922
REMARK INTRA:                  -0.841
REMARK UNBOUND:                -1.024
REMARK SMILES CCCCCCCCC=CCCCCCCCC(=O)[O-]
REMARK SMILES IDX 10 1 9 2 11 3 12 4 13 5 14 6 15 7 16 8 17 9 18 10 19 11
REMARK SMILES IDX 20 12 8 13 7 14 6 15 5 16 4 17 3 18 2 19 1 20
REMARK H PARENT
REMARK Flexibility Score: inf
ROOT
ATOM      1  C   UNL     1       3.185 -13.267 -19.004  1.00  0.00    -0.031 C 
ATOM      2  C   UNL     1       3.599 -11.989 -18.916  1.00  0.00    -0.031 C 
ENDROOT
BRANCH   1   3
ATOM      3  C   UNL     1       1.751 -13.712 -18.863  1.00  0.00     0.027 C 
BRANCH   3   4
ATOM      4  C   UNL     1       1.631 -14.836 -17.824  1.00  0.00     0.004 C 
BRANCH   4   5
ATOM      5  C   UNL     1       0.816 -16.035 -18.339  1.00  0.00     0.000 C 
BRANCH   5   6
ATOM      6  C   UNL     1      -0.696 -15.776 -18.501  1.00  0.00     0.000 C 
BRANCH   6   7
ATOM      7  C   UNL     1      -1.555 -17.035 -18.715  1.00  0.00     0.000 C 
BRANCH   7   8
ATOM      8  C   UNL     1      -0.941 -18.009 -19.730  1.00  0.00     0.006 C 
BRANCH   8   9
ATOM      9  C   UNL     1      -1.082 -19.458 -19.253  1.00  0.00     0.053 C 
BRANCH   9  10
ATOM     10  C   UNL     1      -0.432 -19.635 -17.917  1.00  0.00     0.041 C 
ATOM     11  O   UNL     1      -1.124 -19.952 -16.914  1.00  0.00    -0.550 OA
ATOM     12  O   UNL     1       0.929 -19.401 -17.769  1.00  0.00    -0.550 OA
ENDBRANCH   9  10
ENDBRANCH   8   9
ENDBRANCH   7   8
ENDBRANCH   6   7
ENDBRANCH   5   6
ENDBRANCH   4   5
ENDBRANCH   3   4
ENDBRANCH   1   3
BRANCH   2  13
ATOM     13  C   UNL     1       2.681 -10.804 -18.748  1.00  0.00     0.027 C 
BRANCH  13  14
ATOM     14  C   UNL     1       3.396  -9.665 -18.005  1.00  0.00     0.004 C 
BRANCH  14  15
ATOM     15  C   UNL     1       2.454  -8.880 -17.078  1.00  0.00     0.000 C 
BRANCH  15  16
ATOM     16  C   UNL     1       3.212  -8.099 -15.991  1.00  0.00     0.000 C 
BRANCH  16  17
ATOM     17  C   UNL     1       3.928  -9.024 -14.993  1.00  0.00    -0.000 C 
BRANCH  17  18
ATOM     18  C   UNL     1       3.812  -8.532 -13.539  1.00  0.00    -0.000 C 
BRANCH  18  19
ATOM     19  C   UNL     1       3.840  -6.999 -13.434  1.00  0.00    -0.003 C 
ATOM     20  C   UNL     1       2.579  -6.429 -12.784  1.00  0.00     0.004 C 
ENDBRANCH  18  19
ENDBRANCH  17  18
ENDBRANCH  16  17
ENDBRANCH  15  16
ENDBRANCH  14  15
ENDBRANCH  13  14
ENDBRANCH   2  13
TORSDOF 15
ENDMDL
MODEL 4
REMARK VINA RESULT:    -1.840      1.823      2.863
REMARK INTER + INTRA:          -4.477
REMARK INTER:                  -3.835
REMARK INTRA:                  -0.642
REMARK UNBOUND:                -1.024
REMARK SMILES CCCCCCCCC=CCCCCCCCC(=O)[O-]
REMARK SMILES IDX 10 1 9 2 11 3 12 4 13 5 14 6 15 7 16 8 17 9 18 10 19 11
REMARK SMILES IDX 20 12 8 13 7 14 6 15 5 16 4 17 3 18 2 19 1 20
REMARK H PARENT
REMARK Flexibility Score: inf
ROOT
ATOM      1  C   UNL     1       0.451 -15.280 -17.993  1.00  0.00    -0.031 C 
ATOM      2  C   UNL     1       1.639 -14.651 -17.914  1.00  0.00    -0.031 C 
ENDROOT
BRANCH   1   3
ATOM      3  C   UNL     1      -0.492 -15.178 -19.165  1.00  0.00     0.027 C 
BRANCH   3   4
ATOM      4  C   UNL     1      -1.895 -15.667 -18.777  1.00  0.00     0.004 C 
BRANCH   4   5
ATOM      5  C   UNL     1      -2.012 -17.201 -18.779  1.00  0.00     0.000 C 
BRANCH   5   6
ATOM      6  C   UNL     1      -1.960 -17.857 -20.174  1.00  0.00     0.000 C 
BRANCH   6   7
ATOM      7  C   UNL     1      -1.771 -19.385 -20.171  1.00  0.00     0.000 C 
BRANCH   7   8
ATOM      8  C   UNL     1      -0.338 -19.807 -19.816  1.00  0.00     0.006 C 
BRANCH   8   9
ATOM      9  C   UNL     1      -0.215 -20.124 -18.322  1.00  0.00     0.053 C 
BRANCH   9  10
ATOM     10  C   UNL     1       0.956 -19.406 -17.728  1.00  0.00     0.041 C 
ATOM     11  O   UNL     1       1.345 -18.316 -18.221  1.00  0.00    -0.550 OA
ATOM     12  O   UNL     1       1.647 -19.967 -16.662  1.00  0.00    -0.550 OA
ENDBRANCH   9  10
ENDBRANCH   8   9
ENDBRANCH   7   8
ENDBRANCH   6   7
ENDBRANCH   5   6
ENDBRANCH   4   5
ENDBRANCH   3   4
ENDBRANCH   1   3
BRANCH   2  13
ATOM     13  C   UNL     1       2.240 -13.819 -19.019  1.00  0.00     0.027 C 
BRANCH  13  14
ATOM     14  C   UNL     1       2.681 -12.447 -18.488  1.00  0.00     0.004 C 
BRANCH  14  15
ATOM     15  C   UNL     1       3.909 -11.893 -19.227  1.00  0.00     0.000 C 
BRANCH  15  16
ATOM     16  C   UNL     1       3.967 -10.356 -19.206  1.00  0.00     0.000 C 
BRANCH  16  17
ATOM     17  C   UNL     1       2.846  -9.736 -18.356  1.00  0.00    -0.000 C 
BRANCH  17  18
ATOM     18  C   UNL     1       3.235  -9.595 -16.873  1.00  0.00    -0.000 C 
BRANCH  18  19
ATOM     19  C   UNL     1       3.147  -8.143 -16.379  1.00  0.00    -0.003 C 
ATOM     20  C   UNL     1       3.643  -7.978 -14.942  1.00  0.00     0.004 C 
ENDBRANCH  18  19
ENDBRANCH  17  18
ENDBRANCH  16  17
ENDBRANCH  15  16
ENDBRANCH  14  15
ENDBRANCH  13  14
ENDBRANCH   2  13
TORSDOF 15
ENDMDL
MODEL 5
REMARK VINA RESULT:    -1.839      3.755      9.204
REMARK INTER + INTRA:          -4.477
REMARK INTER:                  -3.352
REMARK INTRA:                  -1.125
REMARK UNBOUND:                -1.024
REMARK SMILES CCCCCCCCC=CCCCCCCCC(=O)[O-]
REMARK SMILES IDX 10 1 9 2 11 3 12 4 13 5 14 6 15 7 16 8 17 9 18 10 19 11
REMARK SMILES IDX 20 12 8 13 7 14 6 15 5 16 4 17 3 18 2 19 1 20
REMARK H PARENT
REMARK Flexibility Score: inf
ROOT
ATOM      1  C   UNL     1       0.872 -15.740 -17.984  1.00  0.00    -0.031 C 
ATOM      2  C   UNL     1      -0.247 -16.471 -18.147  1.00  0.00    -0.031 C 
ENDROOT
BRANCH   1   3
ATOM      3  C   UNL     1       1.078 -14.357 -18.551  1.00  0.00     0.027 C 
BRANCH   3   4
ATOM      4  C   UNL     1       2.505 -13.864 -18.274  1.00  0.00     0.004 C 
BRANCH   4   5
ATOM      5  C   UNL     1       2.897 -12.659 -19.147  1.00  0.00     0.000 C 
BRANCH   5   6
ATOM      6  C   UNL     1       4.415 -12.432 -19.301  1.00  0.00     0.000 C 
BRANCH   6   7
ATOM      7  C   UNL     1       4.816 -11.050 -19.848  1.00  0.00     0.000 C 
BRANCH   7   8
ATOM      8  C   UNL     1       3.931  -9.917 -19.310  1.00  0.00     0.006 C 
BRANCH   8   9
ATOM      9  C   UNL     1       3.868  -9.950 -17.779  1.00  0.00     0.053 C 
BRANCH   9  10
ATOM     10  C   UNL     1       2.723  -9.124 -17.283  1.00  0.00     0.041 C 
ATOM     11  O   UNL     1       2.892  -8.314 -16.336  1.00  0.00    -0.550 OA
ATOM     12  O   UNL     1       1.459  -9.288 -17.835  1.00  0.00    -0.550 OA
ENDBRANCH   9  10
ENDBRANCH   8   9
ENDBRANCH   7   8
ENDBRANCH   6   7
ENDBRANCH   5   6
ENDBRANCH   4   5
ENDBRANCH   3   4
ENDBRANCH   1   3
BRANCH   2  13
ATOM     13  C   UNL     1      -1.491 -15.984 -18.847  1.00  0.00     0.027 C 
BRANCH  13  14
ATOM     14  C   UNL     1      -1.801 -16.858 -20.072  1.00  0.00     0.004 C 
BRANCH  14  15
ATOM     15  C   UNL     1      -2.054 -18.328 -19.703  1.00  0.00     0.000 C 
BRANCH  15  16
ATOM     16  C   UNL     1      -0.993 -19.275 -20.289  1.00  0.00     0.000 C 
BRANCH  16  17
ATOM     17  C   UNL     1      -0.299 -20.121 -19.209  1.00  0.00    -0.000 C 
BRANCH  17  18
ATOM     18  C   UNL     1      -1.066 -20.124 -17.874  1.00  0.00    -0.000 C 
BRANCH  18  19
ATOM     19  C   UNL     1      -0.127 -20.092 -16.657  1.00  0.00    -0.003 C 
ATOM     20  C   UNL     1       1.311 -19.734 -17.031  1.00  0.00     0.004 C 
ENDBRANCH  18  19
ENDBRANCH  17  18
ENDBRANCH  16  17
ENDBRANCH  15  16
ENDBRANCH  14  15
ENDBRANCH  13  14
ENDBRANCH   2  13
TORSDOF 15
ENDMDL
MODEL 6
REMARK VINA RESULT:    -1.487      3.802      9.097
REMARK INTER + INTRA:          -3.816
REMARK INTER:                  -2.630
REMARK INTRA:                  -1.186
REMARK UNBOUND:                -1.024
REMARK SMILES CCCCCCCCC=CCCCCCCCC(=O)[O-]
REMARK SMILES IDX 10 1 9 2 11 3 12 4 13 5 14 6 15 7 16 8 17 9 18 10 19 11
REMARK SMILES IDX 20 12 8 13 7 14 6 15 5 16 4 17 3 18 2 19 1 20
REMARK H PARENT
REMARK Flexibility Score: inf
ROOT
ATOM      1  C   UNL     1      -0.673 -15.259 -18.720  1.00  0.00    -0.031 C 
ATOM      2  C   UNL     1      -1.728 -16.072 -18.922  1.00  0.00    -0.031 C 
ENDROOT
BRANCH   1   3
ATOM      3  C   UNL     1       0.625 -15.687 -18.084  1.00  0.00     0.027 C 
BRANCH   3   4
ATOM      4  C   UNL     1       1.388 -14.472 -17.537  1.00  0.00     0.004 C 
BRANCH   4   5
ATOM      5  C   UNL     1       2.644 -14.139 -18.361  1.00  0.00     0.000 C 
BRANCH   5   6
ATOM      6  C   UNL     1       2.490 -12.952 -19.334  1.00  0.00     0.000 C 
BRANCH   6   7
ATOM      7  C   UNL     1       2.361 -11.572 -18.664  1.00  0.00     0.000 C 
BRANCH   7   8
ATOM      8  C   UNL     1       3.720 -10.955 -18.305  1.00  0.00     0.006 C 
BRANCH   8   9
ATOM      9  C   UNL     1       4.866 -11.740 -18.951  1.00  0.00     0.053 C 
BRANCH   9  10
ATOM     10  C   UNL     1       5.451 -10.969 -20.092  1.00  0.00     0.041 C 
ATOM     11  O   UNL     1       6.696 -10.951 -20.272  1.00  0.00    -0.550 OA
ATOM     12  O   UNL     1       4.622 -10.230 -20.928  1.00  0.00    -0.550 OA
ENDBRANCH   9  10
ENDBRANCH   8   9
ENDBRANCH   7   8
ENDBRANCH   6   7
ENDBRANCH   5   6
ENDBRANCH   4   5
ENDBRANCH   3   4
ENDBRANCH   1   3
BRANCH   2  13
ATOM     13  C   UNL     1      -1.737 -17.549 -18.619  1.00  0.00     0.027 C 
BRANCH  13  14
ATOM     14  C   UNL     1      -1.675 -18.370 -19.916  1.00  0.00     0.004 C 
BRANCH  14  15
ATOM     15  C   UNL     1      -0.424 -19.258 -19.996  1.00  0.00     0.000 C 
BRANCH  15  16
ATOM     16  C   UNL     1      -0.214 -20.098 -18.724  1.00  0.00     0.000 C 
BRANCH  16  17
ATOM     17  C   UNL     1       1.006 -19.638 -17.910  1.00  0.00    -0.000 C 
BRANCH  17  18
ATOM     18  C   UNL     1       0.795 -19.782 -16.392  1.00  0.00    -0.000 C 
BRANCH  18  19
ATOM     19  C   UNL     1      -0.660 -20.125 -16.031  1.00  0.00    -0.003 C 
ATOM     20  C   UNL     1      -0.952 -19.963 -14.540  1.00  0.00     0.004 C 
ENDBRANCH  18  19
ENDBRANCH  17  18
ENDBRANCH  16  17
ENDBRANCH  15  16
ENDBRANCH  14  15
ENDBRANCH  13  14
ENDBRANCH   2  13
TORSDOF 15
ENDMDL
MODEL 7
REMARK VINA RESULT:    -1.459      2.190      3.380
REMARK INTER + INTRA:          -3.763
REMARK INTER:                  -2.989
REMARK INTRA:                  -0.775
REMARK UNBOUND:                -1.024
REMARK SMILES CCCCCCCCC=CCCCCCCCC(=O)[O-]
REMARK SMILES IDX 10 1 9 2 11 3 12 4 13 5 14 6 15 7 16 8 17 9 18 10 19 11
REMARK SMILES IDX 20 12 8 13 7 14 6 15 5 16 4 17 3 18 2 19 1 20
REMARK H PARENT
REMARK Flexibility Score: inf
ROOT
ATOM      1  C   UNL     1       1.264 -13.925 -18.855  1.00  0.00    -0.031 C 
ATOM      2  C   UNL     1       2.097 -12.901 -19.123  1.00  0.00    -0.031 C 
ENDROOT
BRANCH   1   3
ATOM      3  C   UNL     1       1.609 -15.094 -17.967  1.00  0.00     0.027 C 
BRANCH   3   4
ATOM      4  C   UNL     1       0.823 -16.345 -18.386  1.00  0.00     0.004 C 
BRANCH   4   5
ATOM      5  C   UNL     1      -0.697 -16.109 -18.416  1.00  0.00     0.000 C 
BRANCH   5   6
ATOM      6  C   UNL     1      -1.419 -16.664 -19.661  1.00  0.00     0.000 C 
BRANCH   6   7
ATOM      7  C   UNL     1      -1.430 -18.198 -19.779  1.00  0.00     0.000 C 
BRANCH   7   8
ATOM      8  C   UNL     1      -1.537 -18.900 -18.417  1.00  0.00     0.006 C 
BRANCH   8   9
ATOM      9  C   UNL     1      -0.556 -20.074 -18.327  1.00  0.00     0.053 C 
BRANCH   9  10
ATOM     10  C   UNL     1       0.317 -19.936 -17.120  1.00  0.00     0.041 C 
ATOM     11  O   UNL     1      -0.158 -20.125 -15.970  1.00  0.00    -0.550 OA
ATOM     12  O   UNL     1       1.644 -19.550 -17.263  1.00  0.00    -0.550 OA
ENDBRANCH   9  10
ENDBRANCH   8   9
ENDBRANCH   7   8
ENDBRANCH   6   7
ENDBRANCH   5   6
ENDBRANCH   4   5
ENDBRANCH   3   4
ENDBRANCH   1   3
BRANCH   2  13
ATOM     13  C   UNL     1       3.464 -12.729 -18.510  1.00  0.00     0.027 C 
BRANCH  13  14
ATOM     14  C   UNL     1       4.277 -11.679 -19.284  1.00  0.00     0.004 C 
BRANCH  14  15
ATOM     15  C   UNL     1       4.235 -10.293 -18.623  1.00  0.00     0.000 C 
BRANCH  15  16
ATOM     16  C   UNL     1       2.799  -9.810 -18.355  1.00  0.00     0.000 C 
BRANCH  16  17
ATOM     17  C   UNL     1       2.727  -8.793 -17.204  1.00  0.00    -0.000 C 
BRANCH  17  18
ATOM     18  C   UNL     1       3.595  -9.196 -15.999  1.00  0.00    -0.000 C 
BRANCH  18  19
ATOM     19  C   UNL     1       3.629  -8.113 -14.910  1.00  0.00    -0.003 C 
ATOM     20  C   UNL     1       4.067  -8.656 -13.550  1.00  0.00     0.004 C 
ENDBRANCH  18  19
ENDBRANCH  17  18
ENDBRANCH  16  17
ENDBRANCH  15  16
ENDBRANCH  14  15
ENDBRANCH  13  14
ENDBRANCH   2  13
TORSDOF 15
ENDMDL
MODEL 8
REMARK VINA RESULT:    -1.309      1.544      2.574
REMARK INTER + INTRA:          -3.481
REMARK INTER:                  -2.646
REMARK INTRA:                  -0.835
REMARK UNBOUND:                -1.024
REMARK SMILES CCCCCCCCC=CCCCCCCCC(=O)[O-]
REMARK SMILES IDX 10 1 9 2 11 3 12 4 13 5 14 6 15 7 16 8 17 9 18 10 19 11
REMARK SMILES IDX 20 12 8 13 7 14 6 15 5 16 4 17 3 18 2 19 1 20
REMARK H PARENT
REMARK Flexibility Score: inf
ROOT
ATOM      1  C   UNL     1       0.266 -16.125 -17.992  1.00  0.00    -0.031 C 
ATOM      2  C   UNL     1       1.313 -15.280 -18.053  1.00  0.00    -0.031 C 
ENDROOT
BRANCH   1   3
ATOM      3  C   UNL     1      -1.089 -15.849 -18.594  1.00  0.00     0.027 C 
BRANCH   3   4
ATOM      4  C   UNL     1      -1.247 -16.582 -19.934  1.00  0.00     0.004 C 
BRANCH   4   5
ATOM      5  C   UNL     1      -2.102 -17.856 -19.818  1.00  0.00     0.000 C 
BRANCH   5   6
ATOM      6  C   UNL     1      -1.302 -19.168 -19.685  1.00  0.00     0.000 C 
BRANCH   6   7
ATOM      7  C   UNL     1       0.228 -19.001 -19.664  1.00  0.00     0.000 C 
BRANCH   7   8
ATOM      8  C   UNL     1       0.855 -19.427 -18.329  1.00  0.00     0.006 C 
BRANCH   8   9
ATOM      9  C   UNL     1      -0.180 -20.117 -17.433  1.00  0.00     0.053 C 
BRANCH   9  10
ATOM     10  C   UNL     1       0.270 -20.102 -16.006  1.00  0.00     0.041 C 
ATOM     11  O   UNL     1      -0.577 -20.054 -15.076  1.00  0.00    -0.550 OA
ATOM     12  O   UNL     1       1.626 -20.091 -15.705  1.00  0.00    -0.550 OA
ENDBRANCH   9  10
ENDBRANCH   8   9
ENDBRANCH   7   8
ENDBRANCH   6   7
ENDBRANCH   5   6
ENDBRANCH   4   5
ENDBRANCH   3   4
ENDBRANCH   1   3
BRANCH   2  13
ATOM     13  C   UNL     1       1.311 -13.972 -18.803  1.00  0.00     0.027 C 
BRANCH  13  14
ATOM     14  C   UNL     1       2.504 -13.101 -18.378  1.00  0.00     0.004 C 
BRANCH  14  15
ATOM     15  C   UNL     1       3.592 -13.019 -19.459  1.00  0.00     0.000 C 
BRANCH  15  16
ATOM     16  C   UNL     1       4.793 -12.161 -19.024  1.00  0.00     0.000 C 
BRANCH  16  17
ATOM     17  C   UNL     1       4.811 -10.785 -19.711  1.00  0.00    -0.000 C 
BRANCH  17  18
ATOM     18  C   UNL     1       3.568  -9.940 -19.381  1.00  0.00    -0.000 C 
BRANCH  18  19
ATOM     19  C   UNL     1       3.278  -9.886 -17.872  1.00  0.00    -0.003 C 
ATOM     20  C   UNL     1       1.981  -9.145 -17.547  1.00  0.00     0.004 C 
ENDBRANCH  18  19
ENDBRANCH  17  18
ENDBRANCH  16  17
ENDBRANCH  15  16
ENDBRANCH  14  15
ENDBRANCH  13  14
ENDBRANCH   2  13
TORSDOF 15
ENDMDL
