MODEL 1
REMARK VINA RESULT:    -3.662      0.000      0.000
REMARK INTER + INTRA:          -4.101
REMARK INTER:                  -4.090
REMARK INTRA:                  -0.011
REMARK UNBOUND:                -0.011
REMARK SMILES CCCC(=O)[O-]
REMARK SMILES IDX 3 1 4 2 5 3 6 4 2 5 1 6
REMARK H PARENT
REMARK Flexibility Score: inf
ROOT
ATOM      1  C   UNL     1       2.172   7.802  19.232  1.00  0.00     0.052 C 
ENDROOT
BRANCH   1   2
ATOM      2  C   UNL     1       2.466   8.947  18.311  1.00  0.00     0.041 C 
ATOM      3  O   UNL     1       1.931  10.070  18.506  1.00  0.00    -0.550 OA
ATOM      4  O   UNL     1       3.303   8.765  17.218  1.00  0.00    -0.550 OA
ENDBRANCH   1   2
BRANCH   1   5
ATOM      5  C   UNL     1       2.226   6.456  18.500  1.00  0.00     0.003 C 
ATOM      6  C   UNL     1       2.439   5.282  19.456  1.00  0.00     0.004 C 
ENDBRANCH   1   5
TORSDOF 2
ENDMDL
MODEL 2
REMARK VINA RESULT:    -3.579      1.916      2.878
REMARK INTER + INTRA:          -4.008
REMARK INTER:                  -4.001
REMARK INTRA:                  -0.007
REMARK UNBOUND:                -0.011
REMARK SMILES CCCC(=O)[O-]
REMARK SMILES IDX 3 1 4 2 5 3 6 4 2 5 1 6
REMARK H PARENT
REMARK Flexibility Score: inf
ROOT
ATOM      1  C   UNL     1       2.978   8.049  17.761  1.00  0.00     0.052 C 
ENDROOT
BRANCH   1   2
ATOM      2  C   UNL     1       2.292   8.933  18.757  1.00  0.00     0.041 C 
ATOM      3  O   UNL     1       2.190   8.572  19.959  1.00  0.00    -0.550 OA
ATOM      4  O   UNL     1       1.736  10.139  18.352  1.00  0.00    -0.550 OA
ENDBRANCH   1   2
BRANCH   1   5
ATOM      5  C   UNL     1       3.738   8.863  16.707  1.00  0.00     0.003 C 
ATOM      6  C   UNL     1       4.703   8.003  15.891  1.00  0.00     0.004 C 
ENDBRANCH   1   5
TORSDOF 2
ENDMDL
MODEL 3
REMARK VINA RESULT:    -3.536      4.044      4.816
REMARK INTER + INTRA:          -3.961
REMARK INTER:                  -3.956
REMARK INTRA:                  -0.005
REMARK UNBOUND:                -0.011
REMARK SMILES CCCC(=O)[O-]
REMARK SMILES IDX 3 1 4 2 5 3 6 4 2 5 1 6
REMARK H PARENT
REMARK Flexibility Score: inf
ROOT
ATOM      1  C   UNL     1       2.649   4.908  19.746  1.00  0.00     0.052 C 
ENDROOT
BRANCH   1   2
ATOM      2  C   UNL     1       2.501   3.436  19.511  1.00  0.00     0.041 C 
ATOM      3  O   UNL     1       1.585   2.792  20.087  1.00  0.00    -0.550 OA
ATOM      4  O   UNL     1       3.395   2.770  18.682  1.00  0.00    -0.550 OA
ENDBRANCH   1   2
BRANCH   1   5
ATOM      5  C   UNL     1       2.219   5.726  18.522  1.00  0.00     0.003 C 
ATOM      6  C   UNL     1       2.195   7.228  18.804  1.00  0.00     0.004 C 
ENDBRANCH   1   5
TORSDOF 2
ENDMDL
MODEL 4
REMARK VINA RESULT:    -3.531      3.857      4.859
REMARK INTER + INTRA:          -3.955
REMARK INTER:                  -3.950
REMARK INTRA:                  -0.006
REMARK UNBOUND:                -0.011
REMARK SMILES CCCC(=O)[O-]
REMARK SMILES IDX 3 1 4 2 5 3 6 4 2 5 1 6
REMARK H PARENT
REMARK Flexibility Score: inf
ROOT
ATOM      1  C   UNL     1       2.613   5.029  19.737  1.00  0.00     0.052 C 
ENDROOT
BRANCH   1   2
ATOM      2  C   UNL     1       2.526   3.564  19.434  1.00  0.00     0.041 C 
ATOM      3  O   UNL     1       3.288   3.050  18.573  1.00  0.00    -0.550 OA
ATOM      4  O   UNL     1       1.581   2.775  20.076  1.00  0.00    -0.550 OA
ENDBRANCH   1   2
BRANCH   1   5
ATOM      5  C   UNL     1       2.246   5.885  18.518  1.00  0.00     0.003 C 
ATOM      6  C   UNL     1       2.201   7.377  18.848  1.00  0.00     0.004 C 
ENDBRANCH   1   5
TORSDOF 2
ENDMDL
MODEL 5
REMARK VINA RESULT:    -3.376      2.155      3.125
REMARK INTER + INTRA:          -3.782
REMARK INTER:                  -3.744
REMARK INTRA:                  -0.038
REMARK UNBOUND:                -0.011
REMARK SMILES CCCC(=O)[O-]
REMARK SMILES IDX 3 1 4 2 5 3 6 4 2 5 1 6
REMARK H PARENT
REMARK Flexibility Score: inf
ROOT
ATOM      1  C   UNL     1       1.733   4.819  19.025  1.00  0.00     0.052 C 
ENDROOT
BRANCH   1   2
ATOM      2  C   UNL     1       2.281   6.042  18.355  1.00  0.00     0.041 C 
ATOM      3  O   UNL     1       2.975   5.934  17.310  1.00  0.00    -0.550 OA
ATOM      4  O   UNL     1       2.055   7.298  18.904  1.00  0.00    -0.550 OA
ENDBRANCH   1   2
BRANCH   1   5
ATOM      5  C   UNL     1       2.822   4.047  19.780  1.00  0.00     0.003 C 
ATOM      6  C   UNL     1       3.297   2.812  19.013  1.00  0.00     0.004 C 
ENDBRANCH   1   5
TORSDOF 2
ENDMDL
MODEL 6
REMARK VINA RESULT:    -3.324      5.141      5.836
REMARK INTER + INTRA:          -3.723
REMARK INTER:                  -3.715
REMARK INTRA:                  -0.008
REMARK UNBOUND:                -0.011
REMARK SMILES CCCC(=O)[O-]
REMARK SMILES IDX 3 1 4 2 5 3 6 4 2 5 1 6
REMARK H PARENT
REMARK Flexibility Score: inf
ROOT
ATOM      1  C   UNL     1       3.005   3.614  17.611  1.00  0.00     0.052 C 
ENDROOT
BRANCH   1   2
ATOM      2  C   UNL     1       3.348   2.376  16.840  1.00  0.00     0.041 C 
ATOM      3  O   UNL     1       4.273   1.619  17.237  1.00  0.00    -0.550 OA
ATOM      4  O   UNL     1       2.668   2.075  15.667  1.00  0.00    -0.550 OA
ENDBRANCH   1   2
BRANCH   1   5
ATOM      5  C   UNL     1       3.059   3.374  19.125  1.00  0.00     0.003 C 
ATOM      6  C   UNL     1       2.702   4.627  19.926  1.00  0.00     0.004 C 
ENDBRANCH   1   5
TORSDOF 2
ENDMDL
MODEL 7
REMARK VINA RESULT:    -3.317      4.786      5.568
REMARK INTER + INTRA:          -3.716
REMARK INTER:                  -3.676
REMARK INTRA:                  -0.040
REMARK UNBOUND:                -0.011
REMARK SMILES CCCC(=O)[O-]
REMARK SMILES IDX 3 1 4 2 5 3 6 4 2 5 1 6
REMARK H PARENT
REMARK Flexibility Score: inf
ROOT
ATOM      1  C   UNL     1       5.220   7.516  14.289  1.00  0.00     0.052 C 
ENDROOT
BRANCH   1   2
ATOM      2  C   UNL     1       6.075   8.531  13.593  1.00  0.00     0.041 C 
ATOM      3  O   UNL     1       5.546   9.419  12.875  1.00  0.00    -0.550 OA
ATOM      4  O   UNL     1       7.458   8.473  13.710  1.00  0.00    -0.550 OA
ENDBRANCH   1   2
BRANCH   1   5
ATOM      5  C   UNL     1       5.213   7.725  15.808  1.00  0.00     0.003 C 
ATOM      6  C   UNL     1       4.077   8.640  16.265  1.00  0.00     0.004 C 
ENDBRANCH   1   5
TORSDOF 2
ENDMDL
MODEL 8
REMARK VINA RESULT:    -3.264      3.913      4.817
REMARK INTER + INTRA:          -3.657
REMARK INTER:                  -3.650
REMARK INTRA:                  -0.007
REMARK UNBOUND:                -0.011
REMARK SMILES CCCC(=O)[O-]
REMARK SMILES IDX 3 1 4 2 5 3 6 4 2 5 1 6
REMARK H PARENT
REMARK Flexibility Score: inf
ROOT
ATOM      1  C   UNL     1       2.991   3.548  18.169  1.00  0.00     0.052 C 
ENDROOT
BRANCH   1   2
ATOM      2  C   UNL     1       2.440   3.961  19.500  1.00  0.00     0.041 C 
ATOM      3  O   UNL     1       2.790   5.054  20.018  1.00  0.00    -0.550 OA
ATOM      4  O   UNL     1       1.567   3.124  20.183  1.00  0.00    -0.550 OA
ENDBRANCH   1   2
BRANCH   1   5
ATOM      5  C   UNL     1       2.867   4.669  17.130  1.00  0.00     0.003 C 
ATOM      6  C   UNL     1       3.161   4.182  15.711  1.00  0.00     0.004 C 
ENDBRANCH   1   5
TORSDOF 2
ENDMDL
MODEL 9
REMARK VINA RESULT:    -3.232      2.444      3.475
REMARK INTER + INTRA:          -3.621
REMARK INTER:                  -3.612
REMARK INTRA:                  -0.009
REMARK UNBOUND:                -0.011
REMARK SMILES CCCC(=O)[O-]
REMARK SMILES IDX 3 1 4 2 5 3 6 4 2 5 1 6
REMARK H PARENT
REMARK Flexibility Score: inf
ROOT
ATOM      1  C   UNL     1       2.048   7.071  19.149  1.00  0.00     0.052 C 
ENDROOT
BRANCH   1   2
ATOM      2  C   UNL     1       2.221   5.712  18.543  1.00  0.00     0.041 C 
ATOM      3  O   UNL     1       1.755   4.696  19.123  1.00  0.00    -0.550 OA
ATOM      4  O   UNL     1       2.926   5.563  17.356  1.00  0.00    -0.550 OA
ENDBRANCH   1   2
BRANCH   1   5
ATOM      5  C   UNL     1       2.619   8.172  18.246  1.00  0.00     0.003 C 
ATOM      6  C   UNL     1       2.620   9.541  18.928  1.00  0.00     0.004 C 
ENDBRANCH   1   5
TORSDOF 2
ENDMDL
