MODEL 1
REMARK VINA RESULT:     2.279      0.000      0.000
REMARK INTER + INTRA:           2.638
REMARK INTER:                   2.812
REMARK INTRA:                  -0.174
REMARK UNBOUND:                -0.174
REMARK SMILES C=C1CC[C@@H]2[C@@H]1[C@H]1[C@@H](CC[C@@H]2C)C1(C)C
REMARK SMILES IDX 6 1 5 2 4 3 3 4 2 5 1 6 11 7 12 8 10 9 7 11 8 12 13 13 14 14
REMARK SMILES IDX 15 15 9 16
REMARK H PARENT
REMARK Flexibility Score: 80.00
ROOT
ATOM      1  C   UNL     1     153.049 137.658 161.830  1.00  0.00     0.022 C 
ATOM      2  C   UNL     1     154.157 136.739 162.375  1.00  0.00    -0.000 C 
ATOM      3  C   UNL     1     154.872 137.594 163.436  1.00  0.00     0.009 C 
ATOM      4  C   UNL     1     154.827 139.022 162.898  1.00  0.00     0.031 C 
ATOM      5  C   UNL     1     153.640 139.022 161.997  1.00  0.00    -0.074 C 
ATOM      6  C   UNL     1     153.119 140.140 161.475  1.00  0.00     0.008 C 
ENDROOT
BRANCH   2   7
ATOM      7  C   UNL     1     153.705 135.287 162.780  1.00  0.00    -0.011 C 
ATOM      8  C   UNL     1     154.128 134.880 164.203  1.00  0.00     0.008 C 
BRANCH   7   9
ATOM      9  C   UNL     1     152.195 135.008 162.586  1.00  0.00     0.004 CG0
ATOM     10  G   UNL     1     151.743 134.889 161.114  1.00  0.00     0.000 G0
ENDBRANCH   7   9
ENDBRANCH   2   7
BRANCH   1  11
ATOM     11  C   UNL     1     152.770 137.325 160.356  1.00  0.00     0.006 C 
ATOM     12  C   UNL     1     152.231 135.913 160.053  1.00  0.00    -0.001 C 
ATOM     13  C   UNL     1     151.340 137.153 159.822  1.00  0.00    -0.029 C 
ATOM     14  C   UNL     1     150.167 137.497 160.759  1.00  0.00     0.012 C 
ATOM     15  C   UNL     1     151.169 137.588 158.361  1.00  0.00     0.012 C 
BRANCH  12  16
ATOM     16  C   UNL     1     151.730 134.887 161.109  1.00  0.00     0.005 CG0
ATOM     17  G   UNL     1     152.176 135.012 162.581  1.00  0.00     0.000 G0
ENDBRANCH  12  16
ENDBRANCH   1  11
TORSDOF 0
ENDMDL
MODEL 2
REMARK VINA RESULT:     4.367      0.921      3.691
REMARK INTER + INTRA:           5.214
REMARK INTER:                   5.352
REMARK INTRA:                  -0.138
REMARK UNBOUND:                -0.174
REMARK SMILES C=C1CC[C@@H]2[C@@H]1[C@H]1[C@@H](CC[C@@H]2C)C1(C)C
REMARK SMILES IDX 6 1 5 2 4 3 3 4 2 5 1 6 11 7 12 8 10 9 7 11 8 12 13 13 14 14
REMARK SMILES IDX 15 15 9 16
REMARK H PARENT
REMARK Flexibility Score: 80.00
ROOT
ATOM      1  C   UNL     1     153.103 137.734 161.828  1.00  0.00     0.022 C 
ATOM      2  C   UNL     1     151.643 138.143 161.564  1.00  0.00    -0.000 C 
ATOM      3  C   UNL     1     151.735 139.611 161.111  1.00  0.00     0.009 C 
ATOM      4  C   UNL     1     152.891 140.205 161.911  1.00  0.00     0.031 C 
ATOM      5  C   UNL     1     153.738 139.025 162.240  1.00  0.00    -0.074 C 
ATOM      6  C   UNL     1     154.966 139.129 162.763  1.00  0.00     0.008 C 
ENDROOT
BRANCH   2   7
ATOM      7  C   UNL     1     150.803 137.149 160.679  1.00  0.00    -0.011 C 
ATOM      8  C   UNL     1     150.106 137.821 159.482  1.00  0.00     0.008 C 
BRANCH   7   9
ATOM      9  C   UNL     1     151.585 135.904 160.194  1.00  0.00     0.004 CG0
ATOM     10  G   UNL     1     151.898 134.868 161.294  1.00  0.00     0.000 G0
ENDBRANCH   7   9
ENDBRANCH   2   7
BRANCH   1  11
ATOM     11  C   UNL     1     153.159 136.680 162.945  1.00  0.00     0.006 C 
ATOM     12  C   UNL     1     152.447 135.340 162.671  1.00  0.00    -0.001 C 
ATOM     13  C   UNL     1     153.985 135.393 162.803  1.00  0.00    -0.029 C 
ATOM     14  C   UNL     1     154.911 135.254 161.580  1.00  0.00     0.012 C 
ATOM     15  C   UNL     1     154.558 134.877 164.129  1.00  0.00     0.012 C 
BRANCH  12  16
ATOM     16  C   UNL     1     151.886 134.875 161.298  1.00  0.00     0.005 CG0
ATOM     17  G   UNL     1     151.577 135.912 160.197  1.00  0.00     0.000 G0
ENDBRANCH  12  16
ENDBRANCH   1  11
TORSDOF 0
ENDMDL
MODEL 3
REMARK VINA RESULT:     4.813      1.329      3.877
REMARK INTER + INTRA:           5.764
REMARK INTER:                   5.930
REMARK INTRA:                  -0.166
REMARK UNBOUND:                -0.174
REMARK SMILES C=C1CC[C@@H]2[C@@H]1[C@H]1[C@@H](CC[C@@H]2C)C1(C)C
REMARK SMILES IDX 6 1 5 2 4 3 3 4 2 5 1 6 11 7 12 8 10 9 7 11 8 12 13 13 14 14
REMARK SMILES IDX 15 15 9 16
REMARK H PARENT
REMARK Flexibility Score: 80.00
ROOT
ATOM      1  C   UNL     1     152.255 138.017 161.558  1.00  0.00     0.022 C 
ATOM      2  C   UNL     1     151.180 136.994 161.147  1.00  0.00    -0.000 C 
ATOM      3  C   UNL     1     150.460 137.657 159.959  1.00  0.00     0.009 C 
ATOM      4  C   UNL     1     150.459 139.150 160.273  1.00  0.00     0.031 C 
ATOM      5  C   UNL     1     151.630 139.323 161.177  1.00  0.00    -0.074 C 
ATOM      6  C   UNL     1     152.113 140.521 161.528  1.00  0.00     0.008 C 
ENDROOT
BRANCH   2   7
ATOM      7  C   UNL     1     151.677 135.511 160.975  1.00  0.00    -0.011 C 
ATOM      8  C   UNL     1     151.302 134.884 159.620  1.00  0.00     0.008 C 
BRANCH   7   9
ATOM      9  C   UNL     1     153.188 135.306 161.243  1.00  0.00     0.004 CG0
ATOM     10  G   UNL     1     153.607 135.443 162.722  1.00  0.00     0.000 G0
ENDBRANCH   7   9
ENDBRANCH   2   7
BRANCH   1  11
ATOM     11  C   UNL     1     152.519 137.922 163.069  1.00  0.00     0.006 C 
ATOM     12  C   UNL     1     153.088 136.588 163.591  1.00  0.00    -0.001 C 
ATOM     13  C   UNL     1     153.943 137.873 163.640  1.00  0.00    -0.029 C 
ATOM     14  C   UNL     1     155.123 138.101 162.676  1.00  0.00     0.012 C 
ATOM     15  C   UNL     1     154.080 138.531 165.019  1.00  0.00     0.012 C 
BRANCH  12  16
ATOM     16  C   UNL     1     153.631 135.427 162.712  1.00  0.00     0.005 CG0
ATOM     17  G   UNL     1     153.197 135.306 161.235  1.00  0.00     0.000 G0
ENDBRANCH  12  16
ENDBRANCH   1  11
TORSDOF 0
ENDMDL
