MODEL 1
REMARK VINA RESULT:    -4.699      0.000      0.000
REMARK INTER + INTRA:          -7.308
REMARK INTER:                  -6.347
REMARK INTRA:                  -0.960
REMARK UNBOUND:                -0.960
REMARK SMILES CC(=O)CCC=C(C)CCC=C(C)C
REMARK SMILES IDX 7 1 6 2 8 3 9 4 10 5 11 6 13 7 12 8 14 9 5 10 4 11 2 12 3 13
REMARK SMILES IDX 1 14
REMARK H PARENT
REMARK Flexibility Score: inf
ROOT
ATOM      1  C   UNL     1      -2.374   0.389  30.233  1.00  0.00    -0.077 C 
ATOM      2  C   UNL     1      -3.374  -0.520  30.291  1.00  0.00    -0.028 C 
ATOM      3  C   UNL     1      -2.628   1.866  30.429  1.00  0.00     0.039 C 
ENDROOT
BRANCH   1   4
ATOM      4  C   UNL     1      -0.958  -0.089  29.990  1.00  0.00     0.034 C 
BRANCH   4   5
ATOM      5  C   UNL     1      -0.409   0.484  28.678  1.00  0.00     0.032 C 
BRANCH   5   6
ATOM      6  C   UNL     1      -1.074  -0.152  27.482  1.00  0.00    -0.028 C 
ATOM      7  C   UNL     1      -2.037   2.031  26.746  1.00  0.00     0.039 C 
ATOM      8  C   UNL     1      -1.817   0.544  26.597  1.00  0.00    -0.080 C 
ATOM      9  C   UNL     1      -2.438  -0.191  25.436  1.00  0.00     0.039 C 
ENDBRANCH   5   6
ENDBRANCH   4   5
ENDBRANCH   1   4
BRANCH   2  10
ATOM     10  C   UNL     1      -4.830  -0.176  30.479  1.00  0.00     0.035 C 
BRANCH  10  11
ATOM     11  C   UNL     1      -5.284  -0.506  31.904  1.00  0.00     0.079 C 
BRANCH  11  12
ATOM     12  C   UNL     1      -5.973   0.675  32.532  1.00  0.00     0.130 C 
ATOM     13  O   UNL     1      -5.677   1.807  32.181  1.00  0.00    -0.300 OA
ATOM     14  C   UNL     1      -7.036   0.472  33.568  1.00  0.00     0.087 C 
ENDBRANCH  11  12
ENDBRANCH  10  11
ENDBRANCH   2  10
TORSDOF 6
ENDMDL
MODEL 2
REMARK VINA RESULT:    -4.638      1.469      2.181
REMARK INTER + INTRA:          -7.226
REMARK INTER:                  -6.054
REMARK INTRA:                  -1.171
REMARK UNBOUND:                -0.960
REMARK SMILES CC(=O)CCC=C(C)CCC=C(C)C
REMARK SMILES IDX 7 1 6 2 8 3 9 4 10 5 11 6 13 7 12 8 14 9 5 10 4 11 2 12 3 13
REMARK SMILES IDX 1 14
REMARK H PARENT
REMARK Flexibility Score: inf
ROOT
ATOM      1  C   UNL     1      -1.186   2.374  29.765  1.00  0.00    -0.077 C 
ATOM      2  C   UNL     1      -1.825   1.840  30.830  1.00  0.00    -0.028 C 
ATOM      3  C   UNL     1      -1.650   3.660  29.121  1.00  0.00     0.039 C 
ENDROOT
BRANCH   1   4
ATOM      4  C   UNL     1       0.041   1.677  29.217  1.00  0.00     0.034 C 
BRANCH   4   5
ATOM      5  C   UNL     1      -0.299   0.253  28.763  1.00  0.00     0.032 C 
BRANCH   5   6
ATOM      6  C   UNL     1      -0.876   0.247  27.368  1.00  0.00    -0.028 C 
ATOM      7  C   UNL     1      -3.094  -0.550  28.195  1.00  0.00     0.039 C 
ATOM      8  C   UNL     1      -2.147  -0.117  27.099  1.00  0.00    -0.080 C 
ATOM      9  C   UNL     1      -2.623  -0.088  25.669  1.00  0.00     0.039 C 
ENDBRANCH   5   6
ENDBRANCH   4   5
ENDBRANCH   1   4
BRANCH   2  10
ATOM     10  C   UNL     1      -3.082   2.404  31.443  1.00  0.00     0.035 C 
BRANCH  10  11
ATOM     11  C   UNL     1      -4.311   1.621  30.972  1.00  0.00     0.079 C 
BRANCH  11  12
ATOM     12  C   UNL     1      -4.711   0.592  31.994  1.00  0.00     0.130 C 
ATOM     13  O   UNL     1      -4.814   0.911  33.169  1.00  0.00    -0.300 OA
ATOM     14  C   UNL     1      -5.009  -0.817  31.579  1.00  0.00     0.087 C 
ENDBRANCH  11  12
ENDBRANCH  10  11
ENDBRANCH   2  10
TORSDOF 6
ENDMDL
MODEL 3
REMARK VINA RESULT:    -4.595      1.593      2.791
REMARK INTER + INTRA:          -7.167
REMARK INTER:                  -6.070
REMARK INTRA:                  -1.097
REMARK UNBOUND:                -0.960
REMARK SMILES CC(=O)CCC=C(C)CCC=C(C)C
REMARK SMILES IDX 7 1 6 2 8 3 9 4 10 5 11 6 13 7 12 8 14 9 5 10 4 11 2 12 3 13
REMARK SMILES IDX 1 14
REMARK H PARENT
REMARK Flexibility Score: inf
ROOT
ATOM      1  C   UNL     1      -3.303  -0.101  27.776  1.00  0.00    -0.077 C 
ATOM      2  C   UNL     1      -3.715  -0.756  28.885  1.00  0.00    -0.028 C 
ATOM      3  C   UNL     1      -3.969   1.173  27.310  1.00  0.00     0.039 C 
ENDROOT
BRANCH   1   4
ATOM      4  C   UNL     1      -2.127  -0.646  26.993  1.00  0.00     0.034 C 
BRANCH   4   5
ATOM      5  C   UNL     1      -0.994   0.385  26.924  1.00  0.00     0.032 C 
BRANCH   5   6
ATOM      6  C   UNL     1      -0.467   0.710  28.301  1.00  0.00    -0.028 C 
ATOM      7  C   UNL     1      -0.904   3.149  27.987  1.00  0.00     0.039 C 
ATOM      8  C   UNL     1      -0.422   1.966  28.793  1.00  0.00    -0.080 C 
ATOM      9  C   UNL     1       0.125   2.181  30.181  1.00  0.00     0.039 C 
ENDBRANCH   5   6
ENDBRANCH   4   5
ENDBRANCH   1   4
BRANCH   2  10
ATOM     10  C   UNL     1      -4.899  -0.349  29.726  1.00  0.00     0.035 C 
BRANCH  10  11
ATOM     11  C   UNL     1      -4.621  -0.604  31.210  1.00  0.00     0.079 C 
BRANCH  11  12
ATOM     12  C   UNL     1      -4.470   0.693  31.956  1.00  0.00     0.130 C 
ATOM     13  O   UNL     1      -5.161   0.912  32.940  1.00  0.00    -0.300 OA
ATOM     14  C   UNL     1      -3.462   1.711  31.515  1.00  0.00     0.087 C 
ENDBRANCH  11  12
ENDBRANCH  10  11
ENDBRANCH   2  10
TORSDOF 6
ENDMDL
MODEL 4
REMARK VINA RESULT:    -4.581      2.318      4.538
REMARK INTER + INTRA:          -7.148
REMARK INTER:                  -5.634
REMARK INTRA:                  -1.514
REMARK UNBOUND:                -0.960
REMARK SMILES CC(=O)CCC=C(C)CCC=C(C)C
REMARK SMILES IDX 7 1 6 2 8 3 9 4 10 5 11 6 13 7 12 8 14 9 5 10 4 11 2 12 3 13
REMARK SMILES IDX 1 14
REMARK H PARENT
REMARK Flexibility Score: inf
ROOT
ATOM      1  C   UNL     1      -0.882   0.981  27.768  1.00  0.00    -0.077 C 
ATOM      2  C   UNL     1      -1.372   2.211  27.496  1.00  0.00    -0.028 C 
ATOM      3  C   UNL     1       0.120   0.750  28.875  1.00  0.00     0.039 C 
ENDROOT
BRANCH   1   4
ATOM      4  C   UNL     1      -1.370  -0.202  26.958  1.00  0.00     0.034 C 
BRANCH   4   5
ATOM      5  C   UNL     1      -2.887  -0.375  27.108  1.00  0.00     0.032 C 
BRANCH   5   6
ATOM      6  C   UNL     1      -3.250  -0.831  28.501  1.00  0.00    -0.028 C 
ATOM      7  C   UNL     1      -4.718   1.157  28.863  1.00  0.00     0.039 C 
ATOM      8  C   UNL     1      -4.082  -0.140  29.307  1.00  0.00    -0.080 C 
ATOM      9  C   UNL     1      -4.377  -0.684  30.681  1.00  0.00     0.039 C 
ENDBRANCH   5   6
ENDBRANCH   4   5
ENDBRANCH   1   4
BRANCH   2  10
ATOM     10  C   UNL     1      -0.937   3.477  28.192  1.00  0.00     0.035 C 
BRANCH  10  11
ATOM     11  C   UNL     1      -1.968   3.897  29.243  1.00  0.00     0.079 C 
BRANCH  11  12
ATOM     12  C   UNL     1      -1.508   3.516  30.624  1.00  0.00     0.130 C 
ATOM     13  O   UNL     1      -0.585   4.125  31.145  1.00  0.00    -0.300 OA
ATOM     14  C   UNL     1      -2.187   2.411  31.374  1.00  0.00     0.087 C 
ENDBRANCH  11  12
ENDBRANCH  10  11
ENDBRANCH   2  10
TORSDOF 6
ENDMDL
MODEL 5
REMARK VINA RESULT:    -4.578      9.156     11.531
REMARK INTER + INTRA:          -7.144
REMARK INTER:                  -6.371
REMARK INTRA:                  -0.773
REMARK UNBOUND:                -0.960
REMARK SMILES CC(=O)CCC=C(C)CCC=C(C)C
REMARK SMILES IDX 7 1 6 2 8 3 9 4 10 5 11 6 13 7 12 8 14 9 5 10 4 11 2 12 3 13
REMARK SMILES IDX 1 14
REMARK H PARENT
REMARK Flexibility Score: inf
ROOT
ATOM      1  C   UNL     1     -12.357   1.332  27.287  1.00  0.00    -0.077 C 
ATOM      2  C   UNL     1     -13.419   2.165  27.202  1.00  0.00    -0.028 C 
ATOM      3  C   UNL     1     -11.119   1.531  26.444  1.00  0.00     0.039 C 
ENDROOT
BRANCH   1   4
ATOM      4  C   UNL     1     -12.402   0.182  28.271  1.00  0.00     0.034 C 
BRANCH   4   5
ATOM      5  C   UNL     1     -13.477   0.420  29.338  1.00  0.00     0.032 C 
BRANCH   5   6
ATOM      6  C   UNL     1     -12.924   0.214  30.727  1.00  0.00    -0.028 C 
ATOM      7  C   UNL     1     -12.127   2.578  30.855  1.00  0.00     0.039 C 
ATOM      8  C   UNL     1     -12.308   1.190  31.426  1.00  0.00    -0.080 C 
ATOM      9  C   UNL     1     -11.791   0.878  32.806  1.00  0.00     0.039 C 
ENDBRANCH   5   6
ENDBRANCH   4   5
ENDBRANCH   1   4
BRANCH   2  10
ATOM     10  C   UNL     1     -13.524   3.317  26.234  1.00  0.00     0.035 C 
BRANCH  10  11
ATOM     11  C   UNL     1     -14.690   4.236  26.611  1.00  0.00     0.079 C 
BRANCH  11  12
ATOM     12  C   UNL     1     -16.006   3.533  26.420  1.00  0.00     0.130 C 
ATOM     13  O   UNL     1     -16.359   3.199  25.299  1.00  0.00    -0.300 OA
ATOM     14  C   UNL     1     -16.878   3.218  27.598  1.00  0.00     0.087 C 
ENDBRANCH  11  12
ENDBRANCH  10  11
ENDBRANCH   2  10
TORSDOF 6
ENDMDL
MODEL 6
REMARK VINA RESULT:    -4.554      2.221      6.082
REMARK INTER + INTRA:          -7.111
REMARK INTER:                  -6.244
REMARK INTRA:                  -0.868
REMARK UNBOUND:                -0.960
REMARK SMILES CC(=O)CCC=C(C)CCC=C(C)C
REMARK SMILES IDX 7 1 6 2 8 3 9 4 10 5 11 6 13 7 12 8 14 9 5 10 4 11 2 12 3 13
REMARK SMILES IDX 1 14
REMARK H PARENT
REMARK Flexibility Score: inf
ROOT
ATOM      1  C   UNL     1      -4.162   0.216  28.676  1.00  0.00    -0.077 C 
ATOM      2  C   UNL     1      -3.346  -0.359  27.764  1.00  0.00    -0.028 C 
ATOM      3  C   UNL     1      -4.429   1.703  28.679  1.00  0.00     0.039 C 
ENDROOT
BRANCH   1   4
ATOM      4  C   UNL     1      -4.844  -0.657  29.708  1.00  0.00     0.034 C 
BRANCH   4   5
ATOM      5  C   UNL     1      -4.390  -0.283  31.124  1.00  0.00     0.032 C 
BRANCH   5   6
ATOM      6  C   UNL     1      -5.536  -0.362  32.104  1.00  0.00    -0.028 C 
ATOM      7  C   UNL     1      -5.497   2.106  32.484  1.00  0.00     0.039 C 
ATOM      8  C   UNL     1      -6.046   0.720  32.728  1.00  0.00    -0.080 C 
ATOM      9  C   UNL     1      -7.191   0.529  33.690  1.00  0.00     0.039 C 
ENDBRANCH   5   6
ENDBRANCH   4   5
ENDBRANCH   1   4
BRANCH   2  10
ATOM     10  C   UNL     1      -2.569   0.398  26.716  1.00  0.00     0.035 C 
BRANCH  10  11
ATOM     11  C   UNL     1      -1.063   0.210  26.919  1.00  0.00     0.079 C 
BRANCH  11  12
ATOM     12  C   UNL     1      -0.581   1.004  28.102  1.00  0.00     0.130 C 
ATOM     13  O   UNL     1      -0.061   0.430  29.047  1.00  0.00    -0.300 OA
ATOM     14  C   UNL     1      -0.713   2.497  28.120  1.00  0.00     0.087 C 
ENDBRANCH  11  12
ENDBRANCH  10  11
ENDBRANCH   2  10
TORSDOF 6
ENDMDL
MODEL 7
REMARK VINA RESULT:    -4.543     10.241     12.253
REMARK INTER + INTRA:          -7.097
REMARK INTER:                  -6.096
REMARK INTRA:                  -1.000
REMARK UNBOUND:                -0.960
REMARK SMILES CC(=O)CCC=C(C)CCC=C(C)C
REMARK SMILES IDX 7 1 6 2 8 3 9 4 10 5 11 6 13 7 12 8 14 9 5 10 4 11 2 12 3 13
REMARK SMILES IDX 1 14
REMARK H PARENT
REMARK Flexibility Score: inf
ROOT
ATOM      1  C   UNL     1     -15.271   3.368  28.228  1.00  0.00    -0.077 C 
ATOM      2  C   UNL     1     -14.833   2.103  28.037  1.00  0.00    -0.028 C 
ATOM      3  C   UNL     1     -14.378   4.441  28.807  1.00  0.00     0.039 C 
ENDROOT
BRANCH   1   4
ATOM      4  C   UNL     1     -16.688   3.724  27.829  1.00  0.00     0.034 C 
BRANCH   4   5
ATOM      5  C   UNL     1     -16.875   3.593  26.313  1.00  0.00     0.032 C 
BRANCH   5   6
ATOM      6  C   UNL     1     -16.113   4.666  25.573  1.00  0.00    -0.028 C 
ATOM      7  C   UNL     1     -14.680   2.977  24.421  1.00  0.00     0.039 C 
ATOM      8  C   UNL     1     -15.112   4.395  24.710  1.00  0.00    -0.080 C 
ATOM      9  C   UNL     1     -14.416   5.543  24.024  1.00  0.00     0.039 C 
ENDBRANCH   5   6
ENDBRANCH   4   5
ENDBRANCH   1   4
BRANCH   2  10
ATOM     10  C   UNL     1     -13.466   1.604  28.433  1.00  0.00     0.035 C 
BRANCH  10  11
ATOM     11  C   UNL     1     -13.575   0.548  29.537  1.00  0.00     0.079 C 
BRANCH  11  12
ATOM     12  C   UNL     1     -12.771   0.952  30.743  1.00  0.00     0.130 C 
ATOM     13  O   UNL     1     -12.417   2.114  30.874  1.00  0.00    -0.300 OA
ATOM     14  C   UNL     1     -12.421  -0.055  31.795  1.00  0.00     0.087 C 
ENDBRANCH  11  12
ENDBRANCH  10  11
ENDBRANCH   2  10
TORSDOF 6
ENDMDL
MODEL 8
REMARK VINA RESULT:    -4.483     11.917     13.929
REMARK INTER + INTRA:          -7.016
REMARK INTER:                  -6.042
REMARK INTRA:                  -0.974
REMARK UNBOUND:                -0.960
REMARK SMILES CC(=O)CCC=C(C)CCC=C(C)C
REMARK SMILES IDX 7 1 6 2 8 3 9 4 10 5 11 6 13 7 12 8 14 9 5 10 4 11 2 12 3 13
REMARK SMILES IDX 1 14
REMARK H PARENT
REMARK Flexibility Score: inf
ROOT
ATOM      1  C   UNL     1     -12.920  11.469  30.536  1.00  0.00    -0.077 C 
ATOM      2  C   UNL     1     -13.307  10.200  30.273  1.00  0.00    -0.028 C 
ATOM      3  C   UNL     1     -13.834  12.647  30.294  1.00  0.00     0.039 C 
ENDROOT
BRANCH   1   4
ATOM      4  C   UNL     1     -11.541  11.712  31.112  1.00  0.00     0.034 C 
BRANCH   4   5
ATOM      5  C   UNL     1     -10.716  10.419  31.114  1.00  0.00     0.032 C 
BRANCH   5   6
ATOM      6  C   UNL     1     -10.283  10.049  32.513  1.00  0.00    -0.028 C 
ATOM      7  C   UNL     1     -11.455   7.847  32.388  1.00  0.00     0.039 C 
ATOM      8  C   UNL     1     -10.615   8.881  33.101  1.00  0.00    -0.080 C 
ATOM      9  C   UNL     1     -10.130   8.613  34.503  1.00  0.00     0.039 C 
ENDBRANCH   5   6
ENDBRANCH   4   5
ENDBRANCH   1   4
BRANCH   2  10
ATOM     10  C   UNL     1     -14.631   9.823  29.656  1.00  0.00     0.035 C 
BRANCH  10  11
ATOM     11  C   UNL     1     -15.635   9.416  30.738  1.00  0.00     0.079 C 
BRANCH  11  12
ATOM     12  C   UNL     1     -15.265   8.086  31.337  1.00  0.00     0.130 C 
ATOM     13  O   UNL     1     -15.032   7.135  30.605  1.00  0.00    -0.300 OA
ATOM     14  C   UNL     1     -15.156   7.925  32.822  1.00  0.00     0.087 C 
ENDBRANCH  11  12
ENDBRANCH  10  11
ENDBRANCH   2  10
TORSDOF 6
ENDMDL
MODEL 9
REMARK VINA RESULT:    -4.463      8.388     10.865
REMARK INTER + INTRA:          -6.989
REMARK INTER:                  -6.343
REMARK INTRA:                  -0.646
REMARK UNBOUND:                -0.960
REMARK SMILES CC(=O)CCC=C(C)CCC=C(C)C
REMARK SMILES IDX 7 1 6 2 8 3 9 4 10 5 11 6 13 7 12 8 14 9 5 10 4 11 2 12 3 13
REMARK SMILES IDX 1 14
REMARK H PARENT
REMARK Flexibility Score: inf
ROOT
ATOM      1  C   UNL     1     -12.824   1.020  30.556  1.00  0.00    -0.077 C 
ATOM      2  C   UNL     1     -12.361   2.263  30.818  1.00  0.00    -0.028 C 
ATOM      3  C   UNL     1     -12.608  -0.129  31.514  1.00  0.00     0.039 C 
ENDROOT
BRANCH   1   4
ATOM      4  C   UNL     1     -13.601   0.778  29.279  1.00  0.00     0.034 C 
BRANCH   4   5
ATOM      5  C   UNL     1     -13.673   2.057  28.436  1.00  0.00     0.032 C 
BRANCH   5   6
ATOM      6  C   UNL     1     -15.055   2.257  27.863  1.00  0.00    -0.028 C 
ATOM      7  C   UNL     1     -15.055   4.677  28.482  1.00  0.00     0.039 C 
ATOM      8  C   UNL     1     -15.693   3.446  27.880  1.00  0.00    -0.080 C 
ATOM      9  C   UNL     1     -17.073   3.537  27.281  1.00  0.00     0.039 C 
ENDBRANCH   5   6
ENDBRANCH   4   5
ENDBRANCH   1   4
BRANCH   2  10
ATOM     10  C   UNL     1     -11.534   2.629  32.025  1.00  0.00     0.035 C 
BRANCH  10  11
ATOM     11  C   UNL     1     -10.229   3.309  31.601  1.00  0.00     0.079 C 
BRANCH  11  12
ATOM     12  C   UNL     1     -10.160   4.713  32.137  1.00  0.00     0.130 C 
ATOM     13  O   UNL     1      -9.240   5.445  31.803  1.00  0.00    -0.300 OA
ATOM     14  C   UNL     1     -11.224   5.228  33.057  1.00  0.00     0.087 C 
ENDBRANCH  11  12
ENDBRANCH  10  11
ENDBRANCH   2  10
TORSDOF 6
ENDMDL
