MODEL 1
REMARK VINA RESULT:    -3.913      0.000      0.000
REMARK INTER + INTRA:          -6.159
REMARK INTER:                  -5.743
REMARK INTRA:                  -0.416
REMARK UNBOUND:                -0.416
REMARK SMILES O=C([O-])CCCCCCCC(=O)[O-]
REMARK SMILES IDX 7 1 6 2 5 3 4 4 2 5 1 6 3 7 8 8 9 9 10 10 11 11 12 12 13 13
REMARK H PARENT
REMARK Flexibility Score: inf
ROOT
ATOM      1  C   UNL     1     -30.092 -20.783 -33.797  1.00  0.00     0.000 C 
ENDROOT
BRANCH   1   2
ATOM      2  C   UNL     1     -30.021 -19.460 -33.023  1.00  0.00     0.000 C 
BRANCH   2   3
ATOM      3  C   UNL     1     -28.931 -19.513 -31.943  1.00  0.00     0.006 C 
BRANCH   3   4
ATOM      4  C   UNL     1     -29.417 -18.955 -30.599  1.00  0.00     0.053 C 
BRANCH   4   5
ATOM      5  C   UNL     1     -30.685 -19.614 -30.147  1.00  0.00     0.041 C 
ATOM      6  O   UNL     1     -31.708 -18.921 -29.909  1.00  0.00    -0.550 OA
ATOM      7  O   UNL     1     -30.745 -20.996 -30.024  1.00  0.00    -0.550 OA
ENDBRANCH   4   5
ENDBRANCH   3   4
ENDBRANCH   2   3
ENDBRANCH   1   2
BRANCH   1   8
ATOM      8  C   UNL     1     -31.457 -21.455 -33.615  1.00  0.00     0.000 C 
BRANCH   8   9
ATOM      9  C   UNL     1     -32.248 -21.462 -34.928  1.00  0.00     0.006 C 
BRANCH   9  10
ATOM     10  C   UNL     1     -32.379 -22.882 -35.484  1.00  0.00     0.053 C 
BRANCH  10  11
ATOM     11  C   UNL     1     -31.794 -22.964 -36.859  1.00  0.00     0.041 C 
ATOM     12  O   UNL     1     -31.545 -21.911 -37.504  1.00  0.00    -0.550 OA
ATOM     13  O   UNL     1     -31.476 -24.199 -37.408  1.00  0.00    -0.550 OA
ENDBRANCH  10  11
ENDBRANCH   9  10
ENDBRANCH   8   9
ENDBRANCH   1   8
TORSDOF 8
ENDMDL
MODEL 2
REMARK VINA RESULT:    -3.895      0.865      6.373
REMARK INTER + INTRA:          -6.133
REMARK INTER:                  -5.676
REMARK INTRA:                  -0.457
REMARK UNBOUND:                -0.416
REMARK SMILES O=C([O-])CCCCCCCC(=O)[O-]
REMARK SMILES IDX 7 1 6 2 5 3 4 4 2 5 1 6 3 7 8 8 9 9 10 10 11 11 12 12 13 13
REMARK H PARENT
REMARK Flexibility Score: inf
ROOT
ATOM      1  C   UNL     1     -29.945 -20.774 -33.913  1.00  0.00     0.000 C 
ENDROOT
BRANCH   1   2
ATOM      2  C   UNL     1     -31.328 -21.179 -33.386  1.00  0.00     0.000 C 
BRANCH   2   3
ATOM      3  C   UNL     1     -32.143 -21.894 -34.474  1.00  0.00     0.006 C 
BRANCH   3   4
ATOM      4  C   UNL     1     -31.355 -22.052 -35.781  1.00  0.00     0.053 C 
BRANCH   4   5
ATOM      5  C   UNL     1     -32.111 -22.856 -36.794  1.00  0.00     0.041 C 
ATOM      6  O   UNL     1     -32.974 -23.693 -36.420  1.00  0.00    -0.550 OA
ATOM      7  O   UNL     1     -31.887 -22.657 -38.149  1.00  0.00    -0.550 OA
ENDBRANCH   4   5
ENDBRANCH   3   4
ENDBRANCH   2   3
ENDBRANCH   1   2
BRANCH   1   8
ATOM      8  C   UNL     1     -29.252 -19.803 -32.950  1.00  0.00     0.000 C 
BRANCH   8   9
ATOM      9  C   UNL     1     -30.275 -18.935 -32.210  1.00  0.00     0.006 C 
BRANCH   9  10
ATOM     10  C   UNL     1     -29.996 -18.918 -30.705  1.00  0.00     0.053 C 
BRANCH  10  11
ATOM     11  C   UNL     1     -31.010 -19.741 -29.975  1.00  0.00     0.041 C 
ATOM     12  O   UNL     1     -32.076 -19.212 -29.562  1.00  0.00    -0.550 OA
ATOM     13  O   UNL     1     -30.802 -21.103 -29.795  1.00  0.00    -0.550 OA
ENDBRANCH  10  11
ENDBRANCH   9  10
ENDBRANCH   8   9
ENDBRANCH   1   8
TORSDOF 8
ENDMDL
MODEL 3
REMARK VINA RESULT:    -3.889      0.125      6.504
REMARK INTER + INTRA:          -6.124
REMARK INTER:                  -5.719
REMARK INTRA:                  -0.405
REMARK UNBOUND:                -0.416
REMARK SMILES O=C([O-])CCCCCCCC(=O)[O-]
REMARK SMILES IDX 7 1 6 2 5 3 4 4 2 5 1 6 3 7 8 8 9 9 10 10 11 11 12 12 13 13
REMARK H PARENT
REMARK Flexibility Score: inf
ROOT
ATOM      1  C   UNL     1     -30.168 -20.774 -33.906  1.00  0.00     0.000 C 
ENDROOT
BRANCH   1   2
ATOM      2  C   UNL     1     -31.484 -21.524 -33.665  1.00  0.00     0.000 C 
BRANCH   2   3
ATOM      3  C   UNL     1     -32.331 -21.576 -34.945  1.00  0.00     0.006 C 
BRANCH   3   4
ATOM      4  C   UNL     1     -32.379 -22.984 -35.553  1.00  0.00     0.053 C 
BRANCH   4   5
ATOM      5  C   UNL     1     -31.790 -23.016 -36.930  1.00  0.00     0.041 C 
ATOM      6  O   UNL     1     -31.520 -21.942 -37.528  1.00  0.00    -0.550 OA
ATOM      7  O   UNL     1     -31.507 -24.232 -37.539  1.00  0.00    -0.550 OA
ENDBRANCH   4   5
ENDBRANCH   3   4
ENDBRANCH   2   3
ENDBRANCH   1   2
BRANCH   1   8
ATOM      8  C   UNL     1     -30.101 -19.495 -33.063  1.00  0.00     0.000 C 
BRANCH   8   9
ATOM      9  C   UNL     1     -29.042 -19.617 -31.961  1.00  0.00     0.006 C 
BRANCH   9  10
ATOM     10  C   UNL     1     -29.532 -18.984 -30.656  1.00  0.00     0.053 C 
BRANCH  10  11
ATOM     11  C   UNL     1     -30.746 -19.697 -30.150  1.00  0.00     0.041 C 
ATOM     12  O   UNL     1     -30.740 -20.950 -30.028  1.00  0.00    -0.550 OA
ATOM     13  O   UNL     1     -31.868 -18.973 -29.765  1.00  0.00    -0.550 OA
ENDBRANCH  10  11
ENDBRANCH   9  10
ENDBRANCH   8   9
ENDBRANCH   1   8
TORSDOF 8
ENDMDL
MODEL 4
REMARK VINA RESULT:    -3.867      1.319      2.144
REMARK INTER + INTRA:          -6.091
REMARK INTER:                  -5.710
REMARK INTRA:                  -0.381
REMARK UNBOUND:                -0.416
REMARK SMILES O=C([O-])CCCCCCCC(=O)[O-]
REMARK SMILES IDX 7 1 6 2 5 3 4 4 2 5 1 6 3 7 8 8 9 9 10 10 11 11 12 12 13 13
REMARK H PARENT
REMARK Flexibility Score: inf
ROOT
ATOM      1  C   UNL     1     -31.783 -21.757 -33.967  1.00  0.00     0.000 C 
ENDROOT
BRANCH   1   2
ATOM      2  C   UNL     1     -30.392 -21.163 -34.219  1.00  0.00     0.000 C 
BRANCH   2   3
ATOM      3  C   UNL     1     -29.840 -20.497 -32.951  1.00  0.00     0.006 C 
BRANCH   3   4
ATOM      4  C   UNL     1     -30.645 -20.873 -31.700  1.00  0.00     0.053 C 
BRANCH   4   5
ATOM      5  C   UNL     1     -31.213 -19.665 -31.019  1.00  0.00     0.041 C 
ATOM      6  O   UNL     1     -30.648 -19.191 -29.999  1.00  0.00    -0.550 OA
ATOM      7  O   UNL     1     -32.344 -19.044 -31.532  1.00  0.00    -0.550 OA
ENDBRANCH   4   5
ENDBRANCH   3   4
ENDBRANCH   2   3
ENDBRANCH   1   2
BRANCH   1   8
ATOM      8  C   UNL     1     -32.511 -22.038 -35.287  1.00  0.00     0.000 C 
BRANCH   8   9
ATOM      9  C   UNL     1     -31.514 -22.312 -36.418  1.00  0.00     0.006 C 
BRANCH   9  10
ATOM     10  C   UNL     1     -31.694 -23.725 -36.980  1.00  0.00     0.053 C 
BRANCH  10  11
ATOM     11  C   UNL     1     -31.923 -23.677 -38.458  1.00  0.00     0.041 C 
ATOM     12  O   UNL     1     -31.986 -24.743 -39.124  1.00  0.00    -0.550 OA
ATOM     13  O   UNL     1     -32.117 -22.456 -39.092  1.00  0.00    -0.550 OA
ENDBRANCH  10  11
ENDBRANCH   9  10
ENDBRANCH   8   9
ENDBRANCH   1   8
TORSDOF 8
ENDMDL
MODEL 5
REMARK VINA RESULT:    -3.845      0.827      6.627
REMARK INTER + INTRA:          -6.059
REMARK INTER:                  -5.729
REMARK INTRA:                  -0.330
REMARK UNBOUND:                -0.416
REMARK SMILES O=C([O-])CCCCCCCC(=O)[O-]
REMARK SMILES IDX 7 1 6 2 5 3 4 4 2 5 1 6 3 7 8 8 9 9 10 10 11 11 12 12 13 13
REMARK H PARENT
REMARK Flexibility Score: inf
ROOT
ATOM      1  C   UNL     1     -31.155 -21.128 -33.468  1.00  0.00     0.000 C 
ENDROOT
BRANCH   1   2
ATOM      2  C   UNL     1     -31.281 -21.666 -34.899  1.00  0.00     0.000 C 
BRANCH   2   3
ATOM      3  C   UNL     1     -32.484 -22.610 -35.029  1.00  0.00     0.006 C 
BRANCH   3   4
ATOM      4  C   UNL     1     -33.124 -22.549 -36.422  1.00  0.00     0.053 C 
BRANCH   4   5
ATOM      5  C   UNL     1     -32.151 -22.923 -37.498  1.00  0.00     0.041 C 
ATOM      6  O   UNL     1     -31.898 -22.116 -38.430  1.00  0.00    -0.550 OA
ATOM      7  O   UNL     1     -31.500 -24.148 -37.452  1.00  0.00    -0.550 OA
ENDBRANCH   4   5
ENDBRANCH   3   4
ENDBRANCH   2   3
ENDBRANCH   1   2
BRANCH   1   8
ATOM      8  C   UNL     1     -29.707 -20.737 -33.151  1.00  0.00     0.000 C 
BRANCH   8   9
ATOM      9  C   UNL     1     -29.653 -19.652 -32.070  1.00  0.00     0.006 C 
BRANCH   9  10
ATOM     10  C   UNL     1     -31.061 -19.265 -31.608  1.00  0.00     0.053 C 
BRANCH  10  11
ATOM     11  C   UNL     1     -31.284 -19.691 -30.191  1.00  0.00     0.041 C 
ATOM     12  O   UNL     1     -31.978 -18.980 -29.418  1.00  0.00    -0.550 OA
ATOM     13  O   UNL     1     -30.768 -20.899 -29.738  1.00  0.00    -0.550 OA
ENDBRANCH  10  11
ENDBRANCH   9  10
ENDBRANCH   8   9
ENDBRANCH   1   8
TORSDOF 8
ENDMDL
MODEL 6
REMARK VINA RESULT:    -3.324      1.321      1.968
REMARK INTER + INTRA:          -5.294
REMARK INTER:                  -4.866
REMARK INTRA:                  -0.428
REMARK UNBOUND:                -0.416
REMARK SMILES O=C([O-])CCCCCCCC(=O)[O-]
REMARK SMILES IDX 7 1 6 2 5 3 4 4 2 5 1 6 3 7 8 8 9 9 10 10 11 11 12 12 13 13
REMARK H PARENT
REMARK Flexibility Score: inf
ROOT
ATOM      1  C   UNL     1     -29.128 -20.265 -32.605  1.00  0.00     0.000 C 
ENDROOT
BRANCH   1   2
ATOM      2  C   UNL     1     -28.696 -18.963 -31.919  1.00  0.00     0.000 C 
BRANCH   2   3
ATOM      3  C   UNL     1     -29.265 -18.876 -30.496  1.00  0.00     0.006 C 
BRANCH   3   4
ATOM      4  C   UNL     1     -30.799 -18.875 -30.483  1.00  0.00     0.053 C 
BRANCH   4   5
ATOM      5  C   UNL     1     -31.350 -20.052 -29.737  1.00  0.00     0.041 C 
ATOM      6  O   UNL     1     -30.995 -21.220 -30.047  1.00  0.00    -0.550 OA
ATOM      7  O   UNL     1     -32.228 -19.857 -28.679  1.00  0.00    -0.550 OA
ENDBRANCH   4   5
ENDBRANCH   3   4
ENDBRANCH   2   3
ENDBRANCH   1   2
BRANCH   1   8
ATOM      8  C   UNL     1     -29.997 -19.979 -33.835  1.00  0.00     0.000 C 
BRANCH   8   9
ATOM      9  C   UNL     1     -31.413 -20.535 -33.651  1.00  0.00     0.006 C 
BRANCH   9  10
ATOM     10  C   UNL     1     -31.513 -21.970 -34.174  1.00  0.00     0.053 C 
BRANCH  10  11
ATOM     11  C   UNL     1     -32.606 -22.083 -35.189  1.00  0.00     0.041 C 
ATOM     12  O   UNL     1     -33.321 -21.084 -35.464  1.00  0.00    -0.550 OA
ATOM     13  O   UNL     1     -32.803 -23.278 -35.869  1.00  0.00    -0.550 OA
ENDBRANCH  10  11
ENDBRANCH   9  10
ENDBRANCH   8   9
ENDBRANCH   1   8
TORSDOF 8
ENDMDL
MODEL 7
REMARK VINA RESULT:    -3.185      1.832      2.436
REMARK INTER + INTRA:          -5.091
REMARK INTER:                  -4.777
REMARK INTRA:                  -0.314
REMARK UNBOUND:                -0.416
REMARK SMILES O=C([O-])CCCCCCCC(=O)[O-]
REMARK SMILES IDX 7 1 6 2 5 3 4 4 2 5 1 6 3 7 8 8 9 9 10 10 11 11 12 12 13 13
REMARK H PARENT
REMARK Flexibility Score: inf
ROOT
ATOM      1  C   UNL     1     -30.918 -21.819 -34.773  1.00  0.00     0.000 C 
ENDROOT
BRANCH   1   2
ATOM      2  C   UNL     1     -30.563 -20.674 -33.816  1.00  0.00     0.000 C 
BRANCH   2   3
ATOM      3  C   UNL     1     -31.078 -20.962 -32.399  1.00  0.00     0.006 C 
BRANCH   3   4
ATOM      4  C   UNL     1     -31.546 -19.689 -31.680  1.00  0.00     0.053 C 
BRANCH   4   5
ATOM      5  C   UNL     1     -30.967 -19.583 -30.302  1.00  0.00     0.041 C 
ATOM      6  O   UNL     1     -31.612 -20.013 -29.311  1.00  0.00    -0.550 OA
ATOM      7  O   UNL     1     -29.702 -19.041 -30.119  1.00  0.00    -0.550 OA
ENDBRANCH   4   5
ENDBRANCH   3   4
ENDBRANCH   2   3
ENDBRANCH   1   2
BRANCH   1   8
ATOM      8  C   UNL     1     -32.438 -21.977 -34.904  1.00  0.00     0.000 C 
BRANCH   8   9
ATOM      9  C   UNL     1     -32.807 -22.708 -36.199  1.00  0.00     0.006 C 
BRANCH   9  10
ATOM     10  C   UNL     1     -34.046 -22.086 -36.848  1.00  0.00     0.053 C 
BRANCH  10  11
ATOM     11  C   UNL     1     -33.668 -20.890 -37.663  1.00  0.00     0.041 C 
ATOM     12  O   UNL     1     -33.003 -21.031 -38.723  1.00  0.00    -0.550 OA
ATOM     13  O   UNL     1     -34.092 -19.625 -37.279  1.00  0.00    -0.550 OA
ENDBRANCH  10  11
ENDBRANCH   9  10
ENDBRANCH   8   9
ENDBRANCH   1   8
TORSDOF 8
ENDMDL
MODEL 8
REMARK VINA RESULT:    -2.692      2.319      7.676
REMARK INTER + INTRA:          -4.368
REMARK INTER:                  -4.236
REMARK INTRA:                  -0.131
REMARK UNBOUND:                -0.416
REMARK SMILES O=C([O-])CCCCCCCC(=O)[O-]
REMARK SMILES IDX 7 1 6 2 5 3 4 4 2 5 1 6 3 7 8 8 9 9 10 10 11 11 12 12 13 13
REMARK H PARENT
REMARK Flexibility Score: inf
ROOT
ATOM      1  C   UNL     1     -32.222 -22.994 -35.422  1.00  0.00     0.000 C 
ENDROOT
BRANCH   1   2
ATOM      2  C   UNL     1     -31.740 -23.355 -36.833  1.00  0.00     0.000 C 
BRANCH   2   3
ATOM      3  C   UNL     1     -32.694 -24.356 -37.501  1.00  0.00     0.006 C 
BRANCH   3   4
ATOM      4  C   UNL     1     -31.948 -25.378 -38.369  1.00  0.00     0.053 C 
BRANCH   4   5
ATOM      5  C   UNL     1     -32.690 -26.676 -38.462  1.00  0.00     0.041 C 
ATOM      6  O   UNL     1     -33.843 -26.782 -37.967  1.00  0.00    -0.550 OA
ATOM      7  O   UNL     1     -32.123 -27.756 -39.125  1.00  0.00    -0.550 OA
ENDBRANCH   4   5
ENDBRANCH   3   4
ENDBRANCH   2   3
ENDBRANCH   1   2
BRANCH   1   8
ATOM      8  C   UNL     1     -31.781 -21.579 -35.033  1.00  0.00     0.000 C 
BRANCH   8   9
ATOM      9  C   UNL     1     -31.438 -21.498 -33.542  1.00  0.00     0.006 C 
BRANCH   9  10
ATOM     10  C   UNL     1     -31.268 -20.043 -33.094  1.00  0.00     0.053 C 
BRANCH  10  11
ATOM     11  C   UNL     1     -30.454 -19.971 -31.841  1.00  0.00     0.041 C 
ATOM     12  O   UNL     1     -29.233 -19.669 -31.896  1.00  0.00    -0.550 OA
ATOM     13  O   UNL     1     -31.055 -20.189 -30.608  1.00  0.00    -0.550 OA
ENDBRANCH  10  11
ENDBRANCH   9  10
ENDBRANCH   8   9
ENDBRANCH   1   8
TORSDOF 8
ENDMDL
