MODEL 1
REMARK VINA RESULT:    -0.449      0.000      0.000
REMARK INTER + INTRA:           0.301
REMARK INTER:                  -0.790
REMARK INTRA:                   1.091
REMARK UNBOUND:                 1.091
REMARK SMILES CCCCCCCCCCCCCCC(=O)[O-]
REMARK SMILES IDX 9 1 10 2 11 3 12 4 13 5 14 6 15 7 16 8 17 9 8 10 7 11 6 12
REMARK SMILES IDX 5 13 4 14 3 15 2 16 1 17
REMARK H PARENT
REMARK Flexibility Score: inf
ROOT
ATOM      1  C   UNL     1     -28.556 -21.702 -24.326  1.00  0.00     0.000 C 
ENDROOT
BRANCH   1   2
ATOM      2  C   UNL     1     -27.426 -21.354 -23.346  1.00  0.00     0.000 C 
BRANCH   2   3
ATOM      3  C   UNL     1     -27.676 -21.994 -21.972  1.00  0.00     0.000 C 
BRANCH   3   4
ATOM      4  C   UNL     1     -29.125 -21.818 -21.490  1.00  0.00     0.000 C 
BRANCH   4   5
ATOM      5  C   UNL     1     -29.293 -22.125 -19.994  1.00  0.00     0.006 C 
BRANCH   5   6
ATOM      6  C   UNL     1     -28.538 -21.101 -19.139  1.00  0.00     0.053 C 
BRANCH   6   7
ATOM      7  C   UNL     1     -27.679 -21.795 -18.129  1.00  0.00     0.041 C 
ATOM      8  O   UNL     1     -28.156 -22.123 -17.011  1.00  0.00    -0.550 OA
ATOM      9  O   UNL     1     -26.365 -22.122 -18.440  1.00  0.00    -0.550 OA
ENDBRANCH   6   7
ENDBRANCH   5   6
ENDBRANCH   4   5
ENDBRANCH   3   4
ENDBRANCH   2   3
ENDBRANCH   1   2
BRANCH   1  10
ATOM     10  C   UNL     1     -29.201 -20.457 -24.955  1.00  0.00     0.000 C 
BRANCH  10  11
ATOM     11  C   UNL     1     -29.731 -20.715 -26.374  1.00  0.00    -0.000 C 
BRANCH  11  12
ATOM     12  C   UNL     1     -30.662 -21.932 -26.399  1.00  0.00    -0.000 C 
BRANCH  12  13
ATOM     13  C   UNL     1     -31.482 -22.025 -25.103  1.00  0.00    -0.000 C 
BRANCH  13  14
ATOM     14  C   UNL     1     -31.744 -20.650 -24.469  1.00  0.00    -0.000 C 
BRANCH  14  15
ATOM     15  C   UNL     1     -31.730 -20.695 -22.932  1.00  0.00    -0.000 C 
BRANCH  15  16
ATOM     16  C   UNL     1     -32.875 -19.880 -22.309  1.00  0.00    -0.003 C 
ATOM     17  C   UNL     1     -32.575 -18.383 -22.264  1.00  0.00     0.004 C 
ENDBRANCH  15  16
ENDBRANCH  14  15
ENDBRANCH  13  14
ENDBRANCH  12  13
ENDBRANCH  11  12
ENDBRANCH  10  11
ENDBRANCH   1  10
TORSDOF 13
ENDMDL
MODEL 2
REMARK VINA RESULT:    -0.384      2.516      5.606
REMARK INTER + INTRA:           0.414
REMARK INTER:                  -1.642
REMARK INTRA:                   2.057
REMARK UNBOUND:                 1.091
REMARK SMILES CCCCCCCCCCCCCCC(=O)[O-]
REMARK SMILES IDX 9 1 10 2 11 3 12 4 13 5 14 6 15 7 16 8 17 9 8 10 7 11 6 12
REMARK SMILES IDX 5 13 4 14 3 15 2 16 1 17
REMARK H PARENT
REMARK Flexibility Score: inf
ROOT
ATOM      1  C   UNL     1     -28.858 -19.895 -24.295  1.00  0.00     0.000 C 
ENDROOT
BRANCH   1   2
ATOM      2  C   UNL     1     -29.976 -19.683 -25.327  1.00  0.00     0.000 C 
BRANCH   2   3
ATOM      3  C   UNL     1     -30.082 -20.886 -26.276  1.00  0.00     0.000 C 
BRANCH   3   4
ATOM      4  C   UNL     1     -31.162 -21.891 -25.841  1.00  0.00     0.000 C 
BRANCH   4   5
ATOM      5  C   UNL     1     -31.670 -21.633 -24.414  1.00  0.00     0.006 C 
BRANCH   5   6
ATOM      6  C   UNL     1     -31.952 -20.143 -24.196  1.00  0.00     0.053 C 
BRANCH   6   7
ATOM      7  C   UNL     1     -32.184 -19.861 -22.745  1.00  0.00     0.041 C 
ATOM      8  O   UNL     1     -32.539 -18.712 -22.371  1.00  0.00    -0.550 OA
ATOM      9  O   UNL     1     -32.054 -20.879 -21.809  1.00  0.00    -0.550 OA
ENDBRANCH   6   7
ENDBRANCH   5   6
ENDBRANCH   4   5
ENDBRANCH   3   4
ENDBRANCH   2   3
ENDBRANCH   1   2
BRANCH   1  10
ATOM     10  C   UNL     1     -28.580 -21.381 -24.018  1.00  0.00     0.000 C 
BRANCH  10  11
ATOM     11  C   UNL     1     -27.296 -21.602 -23.206  1.00  0.00    -0.000 C 
BRANCH  11  12
ATOM     12  C   UNL     1     -27.575 -21.518 -21.701  1.00  0.00    -0.000 C 
BRANCH  12  13
ATOM     13  C   UNL     1     -28.945 -22.125 -21.360  1.00  0.00    -0.000 C 
BRANCH  13  14
ATOM     14  C   UNL     1     -29.290 -22.004 -19.868  1.00  0.00    -0.000 C 
BRANCH  14  15
ATOM     15  C   UNL     1     -28.158 -21.358 -19.050  1.00  0.00    -0.000 C 
BRANCH  15  16
ATOM     16  C   UNL     1     -27.889 -22.098 -17.730  1.00  0.00    -0.003 C 
ATOM     17  C   UNL     1     -26.407 -22.125 -17.361  1.00  0.00     0.004 C 
ENDBRANCH  15  16
ENDBRANCH  14  15
ENDBRANCH  13  14
ENDBRANCH  12  13
ENDBRANCH  11  12
ENDBRANCH  10  11
ENDBRANCH   1  10
TORSDOF 13
ENDMDL
MODEL 3
REMARK VINA RESULT:     0.049      3.471      6.561
REMARK INTER + INTRA:           1.177
REMARK INTER:                   1.097
REMARK INTRA:                   0.080
REMARK UNBOUND:                 1.091
REMARK SMILES CCCCCCCCCCCCCCC(=O)[O-]
REMARK SMILES IDX 9 1 10 2 11 3 12 4 13 5 14 6 15 7 16 8 17 9 8 10 7 11 6 12
REMARK SMILES IDX 5 13 4 14 3 15 2 16 1 17
REMARK H PARENT
REMARK Flexibility Score: inf
ROOT
ATOM      1  C   UNL     1     -31.744 -20.902 -21.155  1.00  0.00     0.000 C 
ENDROOT
BRANCH   1   2
ATOM      2  C   UNL     1     -32.693 -20.399 -22.254  1.00  0.00     0.000 C 
BRANCH   2   3
ATOM      3  C   UNL     1     -32.432 -18.919 -22.569  1.00  0.00     0.000 C 
BRANCH   3   4
ATOM      4  C   UNL     1     -31.585 -18.722 -23.838  1.00  0.00     0.000 C 
BRANCH   4   5
ATOM      5  C   UNL     1     -31.981 -19.685 -24.968  1.00  0.00     0.006 C 
BRANCH   5   6
ATOM      6  C   UNL     1     -31.075 -20.921 -24.973  1.00  0.00     0.053 C 
BRANCH   6   7
ATOM      7  C   UNL     1     -30.526 -21.161 -26.344  1.00  0.00     0.041 C 
ATOM      8  O   UNL     1     -31.018 -22.060 -27.076  1.00  0.00    -0.550 OA
ATOM      9  O   UNL     1     -29.502 -20.360 -26.834  1.00  0.00    -0.550 OA
ENDBRANCH   6   7
ENDBRANCH   5   6
ENDBRANCH   4   5
ENDBRANCH   3   4
ENDBRANCH   2   3
ENDBRANCH   1   2
BRANCH   1  10
ATOM     10  C   UNL     1     -30.889 -22.095 -21.610  1.00  0.00     0.000 C 
BRANCH  10  11
ATOM     11  C   UNL     1     -29.843 -21.708 -22.665  1.00  0.00    -0.000 C 
BRANCH  11  12
ATOM     12  C   UNL     1     -28.426 -21.775 -22.085  1.00  0.00    -0.000 C 
BRANCH  12  13
ATOM     13  C   UNL     1     -28.459 -22.125 -20.588  1.00  0.00    -0.000 C 
BRANCH  13  14
ATOM     14  C   UNL     1     -28.339 -20.885 -19.689  1.00  0.00    -0.000 C 
BRANCH  14  15
ATOM     15  C   UNL     1     -28.550 -21.211 -18.201  1.00  0.00    -0.000 C 
BRANCH  15  16
ATOM     16  C   UNL     1     -27.443 -22.113 -17.633  1.00  0.00    -0.003 C 
ATOM     17  C   UNL     1     -26.042 -21.565 -17.899  1.00  0.00     0.004 C 
ENDBRANCH  15  16
ENDBRANCH  14  15
ENDBRANCH  13  14
ENDBRANCH  12  13
ENDBRANCH  11  12
ENDBRANCH  10  11
ENDBRANCH   1  10
TORSDOF 13
ENDMDL
MODEL 4
REMARK VINA RESULT:     0.145      2.975      6.267
REMARK INTER + INTRA:           1.347
REMARK INTER:                   0.718
REMARK INTRA:                   0.629
REMARK UNBOUND:                 1.091
REMARK SMILES CCCCCCCCCCCCCCC(=O)[O-]
REMARK SMILES IDX 9 1 10 2 11 3 12 4 13 5 14 6 15 7 16 8 17 9 8 10 7 11 6 12
REMARK SMILES IDX 5 13 4 14 3 15 2 16 1 17
REMARK H PARENT
REMARK Flexibility Score: inf
ROOT
ATOM      1  C   UNL     1     -27.676 -21.981 -21.999  1.00  0.00     0.000 C 
ENDROOT
BRANCH   1   2
ATOM      2  C   UNL     1     -27.546 -21.637 -23.490  1.00  0.00     0.000 C 
BRANCH   2   3
ATOM      3  C   UNL     1     -28.444 -20.447 -23.858  1.00  0.00     0.000 C 
BRANCH   3   4
ATOM      4  C   UNL     1     -29.453 -20.786 -24.968  1.00  0.00     0.000 C 
BRANCH   4   5
ATOM      5  C   UNL     1     -30.684 -19.866 -24.949  1.00  0.00     0.006 C 
BRANCH   5   6
ATOM      6  C   UNL     1     -31.884 -20.573 -24.309  1.00  0.00     0.053 C 
BRANCH   6   7
ATOM      7  C   UNL     1     -31.943 -20.279 -22.843  1.00  0.00     0.041 C 
ATOM      8  O   UNL     1     -32.563 -19.266 -22.425  1.00  0.00    -0.550 OA
ATOM      9  O   UNL     1     -31.356 -21.150 -21.934  1.00  0.00    -0.550 OA
ENDBRANCH   6   7
ENDBRANCH   5   6
ENDBRANCH   4   5
ENDBRANCH   3   4
ENDBRANCH   2   3
ENDBRANCH   1   2
BRANCH   1  10
ATOM     10  C   UNL     1     -29.108 -21.801 -21.470  1.00  0.00     0.000 C 
BRANCH  10  11
ATOM     11  C   UNL     1     -29.154 -21.551 -19.955  1.00  0.00    -0.000 C 
BRANCH  11  12
ATOM     12  C   UNL     1     -27.746 -21.332 -19.391  1.00  0.00    -0.000 C 
BRANCH  12  13
ATOM     13  C   UNL     1     -27.647 -21.839 -17.944  1.00  0.00    -0.000 C 
BRANCH  13  14
ATOM     14  C   UNL     1     -29.024 -22.121 -17.322  1.00  0.00    -0.000 C 
BRANCH  14  15
ATOM     15  C   UNL     1     -29.105 -21.690 -15.847  1.00  0.00    -0.000 C 
BRANCH  15  16
ATOM     16  C   UNL     1     -30.462 -22.029 -15.209  1.00  0.00    -0.003 C 
ATOM     17  C   UNL     1     -30.924 -20.969 -14.210  1.00  0.00     0.004 C 
ENDBRANCH  15  16
ENDBRANCH  14  15
ENDBRANCH  13  14
ENDBRANCH  12  13
ENDBRANCH  11  12
ENDBRANCH  10  11
ENDBRANCH   1  10
TORSDOF 13
ENDMDL
MODEL 5
REMARK VINA RESULT:     0.159      1.264      3.305
REMARK INTER + INTRA:           1.371
REMARK INTER:                   0.347
REMARK INTRA:                   1.024
REMARK UNBOUND:                 1.091
REMARK SMILES CCCCCCCCCCCCCCC(=O)[O-]
REMARK SMILES IDX 9 1 10 2 11 3 12 4 13 5 14 6 15 7 16 8 17 9 8 10 7 11 6 12
REMARK SMILES IDX 5 13 4 14 3 15 2 16 1 17
REMARK H PARENT
REMARK Flexibility Score: inf
ROOT
ATOM      1  C   UNL     1     -29.804 -21.155 -22.266  1.00  0.00     0.000 C 
ENDROOT
BRANCH   1   2
ATOM      2  C   UNL     1     -29.133 -21.591 -23.578  1.00  0.00     0.000 C 
BRANCH   2   3
ATOM      3  C   UNL     1     -27.691 -21.071 -23.655  1.00  0.00     0.000 C 
BRANCH   3   4
ATOM      4  C   UNL     1     -26.939 -21.203 -22.320  1.00  0.00     0.000 C 
BRANCH   4   5
ATOM      5  C   UNL     1     -27.661 -22.123 -21.323  1.00  0.00     0.006 C 
BRANCH   5   6
ATOM      6  C   UNL     1     -26.949 -22.124 -19.967  1.00  0.00     0.053 C 
BRANCH   6   7
ATOM      7  C   UNL     1     -27.918 -21.827 -18.867  1.00  0.00     0.041 C 
ATOM      8  O   UNL     1     -27.510 -21.357 -17.772  1.00  0.00    -0.550 OA
ATOM      9  O   UNL     1     -29.279 -22.022 -19.067  1.00  0.00    -0.550 OA
ENDBRANCH   6   7
ENDBRANCH   5   6
ENDBRANCH   4   5
ENDBRANCH   3   4
ENDBRANCH   2   3
ENDBRANCH   1   2
BRANCH   1  10
ATOM     10  C   UNL     1     -31.178 -21.811 -22.055  1.00  0.00     0.000 C 
BRANCH  10  11
ATOM     11  C   UNL     1     -32.328 -20.794 -22.059  1.00  0.00    -0.000 C 
BRANCH  11  12
ATOM     12  C   UNL     1     -31.793 -19.360 -22.140  1.00  0.00    -0.000 C 
BRANCH  12  13
ATOM     13  C   UNL     1     -32.212 -18.690 -23.458  1.00  0.00    -0.000 C 
BRANCH  13  14
ATOM     14  C   UNL     1     -32.113 -19.641 -24.661  1.00  0.00    -0.000 C 
BRANCH  14  15
ATOM     15  C   UNL     1     -30.666 -19.831 -25.148  1.00  0.00    -0.000 C 
BRANCH  15  16
ATOM     16  C   UNL     1     -30.594 -20.352 -26.592  1.00  0.00    -0.003 C 
ATOM     17  C   UNL     1     -30.578 -21.878 -26.667  1.00  0.00     0.004 C 
ENDBRANCH  15  16
ENDBRANCH  14  15
ENDBRANCH  13  14
ENDBRANCH  12  13
ENDBRANCH  11  12
ENDBRANCH  10  11
ENDBRANCH   1  10
TORSDOF 13
ENDMDL
MODEL 6
REMARK VINA RESULT:     0.806      2.322      5.691
REMARK INTER + INTRA:           2.510
REMARK INTER:                   3.412
REMARK INTRA:                  -0.903
REMARK UNBOUND:                 1.091
REMARK SMILES CCCCCCCCCCCCCCC(=O)[O-]
REMARK SMILES IDX 9 1 10 2 11 3 12 4 13 5 14 6 15 7 16 8 17 9 8 10 7 11 6 12
REMARK SMILES IDX 5 13 4 14 3 15 2 16 1 17
REMARK H PARENT
REMARK Flexibility Score: inf
ROOT
ATOM      1  C   UNL     1     -31.875 -19.190 -22.543  1.00  0.00     0.000 C 
ENDROOT
BRANCH   1   2
ATOM      2  C   UNL     1     -31.728 -18.933 -24.050  1.00  0.00     0.000 C 
BRANCH   2   3
ATOM      3  C   UNL     1     -31.819 -20.245 -24.842  1.00  0.00     0.000 C 
BRANCH   3   4
ATOM      4  C   UNL     1     -31.116 -20.165 -26.208  1.00  0.00     0.000 C 
BRANCH   4   5
ATOM      5  C   UNL     1     -29.897 -21.096 -26.301  1.00  0.00     0.006 C 
BRANCH   5   6
ATOM      6  C   UNL     1     -29.613 -21.760 -24.951  1.00  0.00     0.053 C 
BRANCH   6   7
ATOM      7  C   UNL     1     -28.529 -21.028 -24.225  1.00  0.00     0.041 C 
ATOM      8  O   UNL     1     -28.401 -19.784 -24.366  1.00  0.00    -0.550 OA
ATOM      9  O   UNL     1     -27.689 -21.712 -23.354  1.00  0.00    -0.550 OA
ENDBRANCH   6   7
ENDBRANCH   5   6
ENDBRANCH   4   5
ENDBRANCH   3   4
ENDBRANCH   2   3
ENDBRANCH   1   2
BRANCH   1  10
ATOM     10  C   UNL     1     -32.621 -20.497 -22.234  1.00  0.00     0.000 C 
BRANCH  10  11
ATOM     11  C   UNL     1     -31.913 -21.347 -21.168  1.00  0.00    -0.000 C 
BRANCH  11  12
ATOM     12  C   UNL     1     -30.681 -22.048 -21.752  1.00  0.00    -0.000 C 
BRANCH  12  13
ATOM     13  C   UNL     1     -29.548 -22.124 -20.718  1.00  0.00    -0.000 C 
BRANCH  13  14
ATOM     14  C   UNL     1     -28.857 -20.770 -20.497  1.00  0.00    -0.000 C 
BRANCH  14  15
ATOM     15  C   UNL     1     -27.787 -20.824 -19.394  1.00  0.00    -0.000 C 
BRANCH  15  16
ATOM     16  C   UNL     1     -27.852 -22.123 -18.573  1.00  0.00    -0.003 C 
ATOM     17  C   UNL     1     -28.504 -21.924 -17.206  1.00  0.00     0.004 C 
ENDBRANCH  15  16
ENDBRANCH  14  15
ENDBRANCH  13  14
ENDBRANCH  12  13
ENDBRANCH  11  12
ENDBRANCH  10  11
ENDBRANCH   1  10
TORSDOF 13
ENDMDL
MODEL 7
REMARK VINA RESULT:     1.113      2.877      6.175
REMARK INTER + INTRA:           3.050
REMARK INTER:                   3.784
REMARK INTRA:                  -0.733
REMARK UNBOUND:                 1.091
REMARK SMILES CCCCCCCCCCCCCCC(=O)[O-]
REMARK SMILES IDX 9 1 10 2 11 3 12 4 13 5 14 6 15 7 16 8 17 9 8 10 7 11 6 12
REMARK SMILES IDX 5 13 4 14 3 15 2 16 1 17
REMARK H PARENT
REMARK Flexibility Score: inf
ROOT
ATOM      1  C   UNL     1     -29.012 -21.317 -24.049  1.00  0.00     0.000 C 
ENDROOT
BRANCH   1   2
ATOM      2  C   UNL     1     -30.508 -21.590 -24.264  1.00  0.00     0.000 C 
BRANCH   2   3
ATOM      3  C   UNL     1     -30.993 -20.977 -25.586  1.00  0.00     0.000 C 
BRANCH   3   4
ATOM      4  C   UNL     1     -31.021 -19.440 -25.551  1.00  0.00     0.000 C 
BRANCH   4   5
ATOM      5  C   UNL     1     -30.923 -18.878 -24.125  1.00  0.00     0.006 C 
BRANCH   5   6
ATOM      6  C   UNL     1     -32.296 -18.421 -23.622  1.00  0.00     0.053 C 
BRANCH   6   7
ATOM      7  C   UNL     1     -32.803 -19.351 -22.565  1.00  0.00     0.041 C 
ATOM      8  O   UNL     1     -32.389 -19.250 -21.381  1.00  0.00    -0.550 OA
ATOM      9  O   UNL     1     -33.770 -20.299 -22.878  1.00  0.00    -0.550 OA
ENDBRANCH   6   7
ENDBRANCH   5   6
ENDBRANCH   4   5
ENDBRANCH   3   4
ENDBRANCH   2   3
ENDBRANCH   1   2
BRANCH   1  10
ATOM     10  C   UNL     1     -28.535 -21.702 -22.639  1.00  0.00     0.000 C 
BRANCH  10  11
ATOM     11  C   UNL     1     -29.684 -21.772 -21.622  1.00  0.00    -0.000 C 
BRANCH  11  12
ATOM     12  C   UNL     1     -29.146 -21.923 -20.195  1.00  0.00    -0.000 C 
BRANCH  12  13
ATOM     13  C   UNL     1     -27.644 -21.605 -20.136  1.00  0.00    -0.000 C 
BRANCH  13  14
ATOM     14  C   UNL     1     -27.218 -21.014 -18.783  1.00  0.00    -0.000 C 
BRANCH  14  15
ATOM     15  C   UNL     1     -26.788 -22.092 -17.775  1.00  0.00    -0.000 C 
BRANCH  15  16
ATOM     16  C   UNL     1     -27.576 -22.015 -16.457  1.00  0.00    -0.003 C 
ATOM     17  C   UNL     1     -29.081 -21.880 -16.678  1.00  0.00     0.004 C 
ENDBRANCH  15  16
ENDBRANCH  14  15
ENDBRANCH  13  14
ENDBRANCH  12  13
ENDBRANCH  11  12
ENDBRANCH  10  11
ENDBRANCH   1  10
TORSDOF 13
ENDMDL
MODEL 8
REMARK VINA RESULT:     1.200      1.298      2.042
REMARK INTER + INTRA:           3.203
REMARK INTER:                   4.065
REMARK INTRA:                  -0.862
REMARK UNBOUND:                 1.091
REMARK SMILES CCCCCCCCCCCCCCC(=O)[O-]
REMARK SMILES IDX 9 1 10 2 11 3 12 4 13 5 14 6 15 7 16 8 17 9 8 10 7 11 6 12
REMARK SMILES IDX 5 13 4 14 3 15 2 16 1 17
REMARK H PARENT
REMARK Flexibility Score: inf
ROOT
ATOM      1  C   UNL     1     -29.034 -22.124 -22.853  1.00  0.00     0.000 C 
ENDROOT
BRANCH   1   2
ATOM      2  C   UNL     1     -30.206 -21.588 -22.017  1.00  0.00     0.000 C 
BRANCH   2   3
ATOM      3  C   UNL     1     -30.109 -22.072 -20.563  1.00  0.00     0.000 C 
BRANCH   3   4
ATOM      4  C   UNL     1     -28.692 -21.927 -19.982  1.00  0.00     0.000 C 
BRANCH   4   5
ATOM      5  C   UNL     1     -28.689 -21.816 -18.450  1.00  0.00     0.006 C 
BRANCH   5   6
ATOM      6  C   UNL     1     -27.560 -20.897 -17.972  1.00  0.00     0.053 C 
BRANCH   6   7
ATOM      7  C   UNL     1     -26.442 -21.703 -17.389  1.00  0.00     0.041 C 
ATOM      8  O   UNL     1     -25.429 -21.977 -18.085  1.00  0.00    -0.550 OA
ATOM      9  O   UNL     1     -26.495 -22.109 -16.061  1.00  0.00    -0.550 OA
ENDBRANCH   6   7
ENDBRANCH   5   6
ENDBRANCH   4   5
ENDBRANCH   3   4
ENDBRANCH   2   3
ENDBRANCH   1   2
BRANCH   1  10
ATOM     10  C   UNL     1     -28.056 -21.019 -23.281  1.00  0.00     0.000 C 
BRANCH  10  11
ATOM     11  C   UNL     1     -28.744 -19.884 -24.055  1.00  0.00    -0.000 C 
BRANCH  11  12
ATOM     12  C   UNL     1     -29.414 -20.415 -25.328  1.00  0.00    -0.000 C 
BRANCH  12  13
ATOM     13  C   UNL     1     -30.730 -19.673 -25.609  1.00  0.00    -0.000 C 
BRANCH  13  14
ATOM     14  C   UNL     1     -31.430 -19.205 -24.324  1.00  0.00    -0.000 C 
BRANCH  14  15
ATOM     15  C   UNL     1     -32.465 -20.222 -23.811  1.00  0.00    -0.000 C 
BRANCH  15  16
ATOM     16  C   UNL     1     -33.100 -19.795 -22.478  1.00  0.00    -0.003 C 
ATOM     17  C   UNL     1     -32.503 -18.500 -21.929  1.00  0.00     0.004 C 
ENDBRANCH  15  16
ENDBRANCH  14  15
ENDBRANCH  13  14
ENDBRANCH  12  13
ENDBRANCH  11  12
ENDBRANCH  10  11
ENDBRANCH   1  10
TORSDOF 13
ENDMDL
