MODEL 1
REMARK VINA RESULT:    -2.600      0.000      0.000
REMARK INTER + INTRA:         -12.886
REMARK INTER:                  -6.855
REMARK INTRA:                  -6.031
REMARK UNBOUND:                -6.031
REMARK SMILES CCCCCCCCCCCCCCCCCCCCCCCCCCCCCC(=O)[O-]
REMARK SMILES IDX 16 1 17 2 18 3 19 4 20 5 21 6 22 7 23 8 24 9 25 10 26 11
REMARK SMILES IDX 27 12 28 13 29 14 30 15 31 16 32 17 15 18 14 19 13 20 12 21
REMARK SMILES IDX 11 22 10 23 9 24 8 25 7 26 6 27 5 28 4 29 3 30 2 31 1 32
REMARK H PARENT
REMARK Flexibility Score: inf
ROOT
ATOM      1  C   UNL     1      66.116  19.653  80.307  1.00  0.00     0.000 C 
ENDROOT
BRANCH   1   2
ATOM      2  C   UNL     1      64.967  19.275  79.354  1.00  0.00     0.000 C 
BRANCH   2   3
ATOM      3  C   UNL     1      64.932  17.770  79.038  1.00  0.00     0.000 C 
BRANCH   3   4
ATOM      4  C   UNL     1      65.384  16.902  80.223  1.00  0.00     0.000 C 
BRANCH   4   5
ATOM      5  C   UNL     1      64.860  15.460  80.139  1.00  0.00     0.000 C 
BRANCH   5   6
ATOM      6  C   UNL     1      63.339  15.439  79.916  1.00  0.00     0.000 C 
BRANCH   6   7
ATOM      7  C   UNL     1      62.787  14.018  79.714  1.00  0.00     0.000 C 
BRANCH   7   8
ATOM      8  C   UNL     1      62.454  13.654  78.255  1.00  0.00     0.000 C 
BRANCH   8   9
ATOM      9  C   UNL     1      63.685  13.252  77.416  1.00  0.00     0.000 C 
BRANCH   9  10
ATOM     10  C   UNL     1      63.942  14.224  76.251  1.00  0.00     0.000 C 
BRANCH  10  11
ATOM     11  C   UNL     1      62.806  15.244  76.073  1.00  0.00     0.000 C 
BRANCH  11  12
ATOM     12  C   UNL     1      63.324  16.679  75.877  1.00  0.00     0.000 C 
BRANCH  12  13
ATOM     13  C   UNL     1      62.259  17.739  76.201  1.00  0.00     0.006 C 
BRANCH  13  14
ATOM     14  C   UNL     1      61.617  17.523  77.577  1.00  0.00     0.053 C 
BRANCH  14  15
ATOM     15  C   UNL     1      61.388  18.836  78.258  1.00  0.00     0.041 C 
ATOM     16  O   UNL     1      61.825  19.900  77.746  1.00  0.00    -0.550 OA
ATOM     17  O   UNL     1      60.653  18.888  79.436  1.00  0.00    -0.550 OA
ENDBRANCH  14  15
ENDBRANCH  13  14
ENDBRANCH  12  13
ENDBRANCH  11  12
ENDBRANCH  10  11
ENDBRANCH   9  10
ENDBRANCH   8   9
ENDBRANCH   7   8
ENDBRANCH   6   7
ENDBRANCH   5   6
ENDBRANCH   4   5
ENDBRANCH   3   4
ENDBRANCH   2   3
ENDBRANCH   1   2
BRANCH   1  18
ATOM     18  C   UNL     1      67.215  20.524  79.673  1.00  0.00     0.000 C 
BRANCH  18  19
ATOM     19  C   UNL     1      68.599  19.859  79.714  1.00  0.00     0.000 C 
BRANCH  19  20
ATOM     20  C   UNL     1      68.633  18.606  78.826  1.00  0.00     0.000 C 
BRANCH  20  21
ATOM     21  C   UNL     1      69.622  18.728  77.655  1.00  0.00     0.000 C 
BRANCH  21  22
ATOM     22  C   UNL     1      68.947  18.532  76.287  1.00  0.00     0.000 C 
BRANCH  22  23
ATOM     23  C   UNL     1      67.459  18.158  76.400  1.00  0.00     0.000 C 
BRANCH  23  24
ATOM     24  C   UNL     1      67.105  16.734  75.931  1.00  0.00    -0.000 C 
BRANCH  24  25
ATOM     25  C   UNL     1      66.952  15.739  77.090  1.00  0.00    -0.000 C 
BRANCH  25  26
ATOM     26  C   UNL     1      68.305  15.136  77.485  1.00  0.00    -0.000 C 
BRANCH  26  27
ATOM     27  C   UNL     1      69.152  14.822  76.245  1.00  0.00    -0.000 C 
BRANCH  27  28
ATOM     28  C   UNL     1      70.652  14.897  76.567  1.00  0.00    -0.000 C 
BRANCH  28  29
ATOM     29  C   UNL     1      70.946  14.680  78.067  1.00  0.00    -0.000 C 
BRANCH  29  30
ATOM     30  C   UNL     1      71.746  15.825  78.716  1.00  0.00    -0.000 C 
BRANCH  30  31
ATOM     31  C   UNL     1      71.574  15.953  80.239  1.00  0.00    -0.003 C 
ATOM     32  C   UNL     1      70.122  15.794  80.689  1.00  0.00     0.004 C 
ENDBRANCH  30  31
ENDBRANCH  29  30
ENDBRANCH  28  29
ENDBRANCH  27  28
ENDBRANCH  26  27
ENDBRANCH  25  26
ENDBRANCH  24  25
ENDBRANCH  23  24
ENDBRANCH  22  23
ENDBRANCH  21  22
ENDBRANCH  20  21
ENDBRANCH  19  20
ENDBRANCH  18  19
ENDBRANCH   1  18
TORSDOF 28
ENDMDL
MODEL 2
REMARK VINA RESULT:    -2.582      3.301      6.749
REMARK INTER + INTRA:         -12.839
REMARK INTER:                  -6.354
REMARK INTRA:                  -6.485
REMARK UNBOUND:                -6.031
REMARK SMILES CCCCCCCCCCCCCCCCCCCCCCCCCCCCCC(=O)[O-]
REMARK SMILES IDX 16 1 17 2 18 3 19 4 20 5 21 6 22 7 23 8 24 9 25 10 26 11
REMARK SMILES IDX 27 12 28 13 29 14 30 15 31 16 32 17 15 18 14 19 13 20 12 21
REMARK SMILES IDX 11 22 10 23 9 24 8 25 7 26 6 27 5 28 4 29 3 30 2 31 1 32
REMARK H PARENT
REMARK Flexibility Score: inf
ROOT
ATOM      1  C   UNL     1      66.796  16.280  76.048  1.00  0.00     0.000 C 
ENDROOT
BRANCH   1   2
ATOM      2  C   UNL     1      65.419  16.715  76.584  1.00  0.00     0.000 C 
BRANCH   2   3
ATOM      3  C   UNL     1      65.478  18.043  77.357  1.00  0.00     0.000 C 
BRANCH   3   4
ATOM      4  C   UNL     1      65.648  17.842  78.872  1.00  0.00     0.000 C 
BRANCH   4   5
ATOM      5  C   UNL     1      64.882  16.618  79.400  1.00  0.00     0.000 C 
BRANCH   5   6
ATOM      6  C   UNL     1      65.806  15.701  80.216  1.00  0.00     0.000 C 
BRANCH   6   7
ATOM      7  C   UNL     1      67.281  16.137  80.156  1.00  0.00     0.000 C 
BRANCH   7   8
ATOM      8  C   UNL     1      68.113  15.779  81.401  1.00  0.00     0.000 C 
BRANCH   8   9
ATOM      9  C   UNL     1      68.441  16.989  82.301  1.00  0.00     0.000 C 
BRANCH   9  10
ATOM     10  C   UNL     1      67.662  18.251  81.890  1.00  0.00     0.000 C 
BRANCH  10  11
ATOM     11  C   UNL     1      68.403  19.547  82.259  1.00  0.00     0.000 C 
BRANCH  11  12
ATOM     12  C   UNL     1      69.930  19.414  82.128  1.00  0.00     0.000 C 
BRANCH  12  13
ATOM     13  C   UNL     1      70.575  20.648  81.477  1.00  0.00     0.006 C 
BRANCH  13  14
ATOM     14  C   UNL     1      69.699  21.254  80.374  1.00  0.00     0.053 C 
BRANCH  14  15
ATOM     15  C   UNL     1      70.470  22.274  79.596  1.00  0.00     0.041 C 
ATOM     16  O   UNL     1      70.913  21.995  78.451  1.00  0.00    -0.550 OA
ATOM     17  O   UNL     1      70.659  23.548  80.118  1.00  0.00    -0.550 OA
ENDBRANCH  14  15
ENDBRANCH  13  14
ENDBRANCH  12  13
ENDBRANCH  11  12
ENDBRANCH  10  11
ENDBRANCH   9  10
ENDBRANCH   8   9
ENDBRANCH   7   8
ENDBRANCH   6   7
ENDBRANCH   5   6
ENDBRANCH   4   5
ENDBRANCH   3   4
ENDBRANCH   2   3
ENDBRANCH   1   2
BRANCH   1  18
ATOM     18  C   UNL     1      67.466  15.147  76.845  1.00  0.00     0.000 C 
BRANCH  18  19
ATOM     19  C   UNL     1      68.529  14.395  76.030  1.00  0.00     0.000 C 
BRANCH  19  20
ATOM     20  C   UNL     1      69.945  14.824  76.445  1.00  0.00     0.000 C 
BRANCH  20  21
ATOM     21  C   UNL     1      70.154  14.806  77.968  1.00  0.00     0.000 C 
BRANCH  21  22
ATOM     22  C   UNL     1      71.359  15.654  78.411  1.00  0.00     0.000 C 
BRANCH  22  23
ATOM     23  C   UNL     1      70.975  16.777  79.392  1.00  0.00     0.000 C 
BRANCH  23  24
ATOM     24  C   UNL     1      70.712  18.149  78.744  1.00  0.00    -0.000 C 
BRANCH  24  25
ATOM     25  C   UNL     1      69.377  18.212  77.988  1.00  0.00    -0.000 C 
BRANCH  25  26
ATOM     26  C   UNL     1      69.597  18.502  76.498  1.00  0.00    -0.000 C 
BRANCH  26  27
ATOM     27  C   UNL     1      68.695  19.646  76.020  1.00  0.00    -0.000 C 
BRANCH  27  28
ATOM     28  C   UNL     1      68.055  20.380  77.209  1.00  0.00    -0.000 C 
BRANCH  28  29
ATOM     29  C   UNL     1      67.013  21.428  76.763  1.00  0.00    -0.000 C 
BRANCH  29  30
ATOM     30  C   UNL     1      66.569  22.382  77.889  1.00  0.00    -0.000 C 
BRANCH  30  31
ATOM     31  C   UNL     1      65.474  21.825  78.815  1.00  0.00    -0.003 C 
ATOM     32  C   UNL     1      65.948  21.645  80.256  1.00  0.00     0.004 C 
ENDBRANCH  30  31
ENDBRANCH  29  30
ENDBRANCH  28  29
ENDBRANCH  27  28
ENDBRANCH  26  27
ENDBRANCH  25  26
ENDBRANCH  24  25
ENDBRANCH  23  24
ENDBRANCH  22  23
ENDBRANCH  21  22
ENDBRANCH  20  21
ENDBRANCH  19  20
ENDBRANCH  18  19
ENDBRANCH   1  18
TORSDOF 28
ENDMDL
MODEL 3
REMARK VINA RESULT:    -2.573      2.512      6.701
REMARK INTER + INTRA:         -12.816
REMARK INTER:                  -7.375
REMARK INTRA:                  -5.441
REMARK UNBOUND:                -6.031
REMARK SMILES CCCCCCCCCCCCCCCCCCCCCCCCCCCCCC(=O)[O-]
REMARK SMILES IDX 16 1 17 2 18 3 19 4 20 5 21 6 22 7 23 8 24 9 25 10 26 11
REMARK SMILES IDX 27 12 28 13 29 14 30 15 31 16 32 17 15 18 14 19 13 20 12 21
REMARK SMILES IDX 11 22 10 23 9 24 8 25 7 26 6 27 5 28 4 29 3 30 2 31 1 32
REMARK H PARENT
REMARK Flexibility Score: inf
ROOT
ATOM      1  C   UNL     1      67.859  16.743  82.746  1.00  0.00     0.000 C 
ENDROOT
BRANCH   1   2
ATOM      2  C   UNL     1      69.060  17.687  82.942  1.00  0.00     0.000 C 
BRANCH   2   3
ATOM      3  C   UNL     1      69.246  18.660  81.765  1.00  0.00     0.000 C 
BRANCH   3   4
ATOM      4  C   UNL     1      70.696  18.712  81.260  1.00  0.00     0.000 C 
BRANCH   4   5
ATOM      5  C   UNL     1      70.818  18.382  79.763  1.00  0.00     0.000 C 
BRANCH   5   6
ATOM      6  C   UNL     1      71.837  17.257  79.528  1.00  0.00     0.000 C 
BRANCH   6   7
ATOM      7  C   UNL     1      71.360  15.900  80.076  1.00  0.00     0.000 C 
BRANCH   7   8
ATOM      8  C   UNL     1      70.570  15.038  79.073  1.00  0.00     0.000 C 
BRANCH   8   9
ATOM      9  C   UNL     1      71.278  14.858  77.714  1.00  0.00     0.000 C 
BRANCH   9  10
ATOM     10  C   UNL     1      70.296  14.919  76.531  1.00  0.00     0.000 C 
BRANCH  10  11
ATOM     11  C   UNL     1      69.248  16.032  76.692  1.00  0.00     0.000 C 
BRANCH  11  12
ATOM     12  C   UNL     1      69.833  17.435  76.455  1.00  0.00     0.000 C 
BRANCH  12  13
ATOM     13  C   UNL     1      68.745  18.510  76.306  1.00  0.00     0.006 C 
BRANCH  13  14
ATOM     14  C   UNL     1      69.328  19.892  75.985  1.00  0.00     0.053 C 
BRANCH  14  15
ATOM     15  C   UNL     1      68.763  20.925  76.910  1.00  0.00     0.041 C 
ATOM     16  O   UNL     1      68.028  20.579  77.872  1.00  0.00    -0.550 OA
ATOM     17  O   UNL     1      69.084  22.265  76.734  1.00  0.00    -0.550 OA
ENDBRANCH  14  15
ENDBRANCH  13  14
ENDBRANCH  12  13
ENDBRANCH  11  12
ENDBRANCH  10  11
ENDBRANCH   9  10
ENDBRANCH   8   9
ENDBRANCH   7   8
ENDBRANCH   6   7
ENDBRANCH   5   6
ENDBRANCH   4   5
ENDBRANCH   3   4
ENDBRANCH   2   3
ENDBRANCH   1   2
BRANCH   1  18
ATOM     18  C   UNL     1      67.992  15.774  81.558  1.00  0.00     0.000 C 
BRANCH  18  19
ATOM     19  C   UNL     1      66.806  15.860  80.584  1.00  0.00     0.000 C 
BRANCH  19  20
ATOM     20  C   UNL     1      67.196  16.624  79.309  1.00  0.00     0.000 C 
BRANCH  20  21
ATOM     21  C   UNL     1      66.221  17.765  78.973  1.00  0.00     0.000 C 
BRANCH  21  22
ATOM     22  C   UNL     1      65.847  18.607  80.206  1.00  0.00     0.000 C 
BRANCH  22  23
ATOM     23  C   UNL     1      64.457  19.257  80.089  1.00  0.00     0.000 C 
BRANCH  23  24
ATOM     24  C   UNL     1      63.269  18.314  80.363  1.00  0.00    -0.000 C 
BRANCH  24  25
ATOM     25  C   UNL     1      63.313  17.682  81.761  1.00  0.00    -0.000 C 
BRANCH  25  26
ATOM     26  C   UNL     1      62.875  16.213  81.718  1.00  0.00    -0.000 C 
BRANCH  26  27
ATOM     27  C   UNL     1      62.591  15.764  80.279  1.00  0.00    -0.000 C 
BRANCH  27  28
ATOM     28  C   UNL     1      63.596  14.696  79.824  1.00  0.00    -0.000 C 
BRANCH  28  29
ATOM     29  C   UNL     1      63.419  14.313  78.339  1.00  0.00    -0.000 C 
BRANCH  29  30
ATOM     30  C   UNL     1      64.559  14.809  77.428  1.00  0.00    -0.000 C 
BRANCH  30  31
ATOM     31  C   UNL     1      64.968  13.832  76.313  1.00  0.00    -0.003 C 
ATOM     32  C   UNL     1      66.422  14.005  75.875  1.00  0.00     0.004 C 
ENDBRANCH  30  31
ENDBRANCH  29  30
ENDBRANCH  28  29
ENDBRANCH  27  28
ENDBRANCH  26  27
ENDBRANCH  25  26
ENDBRANCH  24  25
ENDBRANCH  23  24
ENDBRANCH  22  23
ENDBRANCH  21  22
ENDBRANCH  20  21
ENDBRANCH  19  20
ENDBRANCH  18  19
ENDBRANCH   1  18
TORSDOF 28
ENDMDL
MODEL 4
REMARK VINA RESULT:    -2.567      1.833      5.402
REMARK INTER + INTRA:         -12.800
REMARK INTER:                  -7.813
REMARK INTRA:                  -4.987
REMARK UNBOUND:                -6.031
REMARK SMILES CCCCCCCCCCCCCCCCCCCCCCCCCCCCCC(=O)[O-]
REMARK SMILES IDX 16 1 17 2 18 3 19 4 20 5 21 6 22 7 23 8 24 9 25 10 26 11
REMARK SMILES IDX 27 12 28 13 29 14 30 15 31 16 32 17 15 18 14 19 13 20 12 21
REMARK SMILES IDX 11 22 10 23 9 24 8 25 7 26 6 27 5 28 4 29 3 30 2 31 1 32
REMARK H PARENT
REMARK Flexibility Score: inf
ROOT
ATOM      1  C   UNL     1      71.615  16.214  80.142  1.00  0.00     0.000 C 
ENDROOT
BRANCH   1   2
ATOM      2  C   UNL     1      71.054  17.637  79.959  1.00  0.00     0.000 C 
BRANCH   2   3
ATOM      3  C   UNL     1      69.556  17.728  80.294  1.00  0.00     0.000 C 
BRANCH   3   4
ATOM      4  C   UNL     1      69.042  16.500  81.062  1.00  0.00     0.000 C 
BRANCH   4   5
ATOM      5  C   UNL     1      67.977  15.713  80.281  1.00  0.00     0.000 C 
BRANCH   5   6
ATOM      6  C   UNL     1      66.707  16.554  80.082  1.00  0.00     0.000 C 
BRANCH   6   7
ATOM      7  C   UNL     1      65.620  15.810  79.285  1.00  0.00     0.000 C 
BRANCH   7   8
ATOM      8  C   UNL     1      65.391  16.337  77.856  1.00  0.00     0.000 C 
BRANCH   8   9
ATOM      9  C   UNL     1      65.554  15.260  76.761  1.00  0.00     0.000 C 
BRANCH   9  10
ATOM     10  C   UNL     1      64.778  13.972  77.088  1.00  0.00     0.000 C 
BRANCH  10  11
ATOM     11  C   UNL     1      63.871  13.521  75.932  1.00  0.00     0.000 C 
BRANCH  11  12
ATOM     12  C   UNL     1      62.463  13.123  76.405  1.00  0.00     0.000 C 
BRANCH  12  13
ATOM     13  C   UNL     1      61.374  14.070  75.875  1.00  0.00     0.006 C 
BRANCH  13  14
ATOM     14  C   UNL     1      61.812  15.539  75.903  1.00  0.00     0.053 C 
BRANCH  14  15
ATOM     15  C   UNL     1      60.927  16.331  76.814  1.00  0.00     0.041 C 
ATOM     16  O   UNL     1      59.849  16.819  76.385  1.00  0.00    -0.550 OA
ATOM     17  O   UNL     1      61.273  16.492  78.151  1.00  0.00    -0.550 OA
ENDBRANCH  14  15
ENDBRANCH  13  14
ENDBRANCH  12  13
ENDBRANCH  11  12
ENDBRANCH  10  11
ENDBRANCH   9  10
ENDBRANCH   8   9
ENDBRANCH   7   8
ENDBRANCH   6   7
ENDBRANCH   5   6
ENDBRANCH   4   5
ENDBRANCH   3   4
ENDBRANCH   2   3
ENDBRANCH   1   2
BRANCH   1  18
ATOM     18  C   UNL     1      72.067  15.530  78.839  1.00  0.00     0.000 C 
BRANCH  18  19
ATOM     19  C   UNL     1      71.004  14.580  78.266  1.00  0.00     0.000 C 
BRANCH  19  20
ATOM     20  C   UNL     1      70.892  14.736  76.741  1.00  0.00     0.000 C 
BRANCH  20  21
ATOM     21  C   UNL     1      69.472  15.101  76.279  1.00  0.00     0.000 C 
BRANCH  21  22
ATOM     22  C   UNL     1      68.961  16.407  76.912  1.00  0.00     0.000 C 
BRANCH  22  23
ATOM     23  C   UNL     1      69.859  17.617  76.600  1.00  0.00     0.000 C 
BRANCH  23  24
ATOM     24  C   UNL     1      69.110  18.889  76.156  1.00  0.00    -0.000 C 
BRANCH  24  25
ATOM     25  C   UNL     1      67.583  18.744  76.227  1.00  0.00    -0.000 C 
BRANCH  25  26
ATOM     26  C   UNL     1      67.020  19.424  77.480  1.00  0.00    -0.000 C 
BRANCH  26  27
ATOM     27  C   UNL     1      65.644  20.042  77.199  1.00  0.00    -0.000 C 
BRANCH  27  28
ATOM     28  C   UNL     1      65.063  19.522  75.876  1.00  0.00    -0.000 C 
BRANCH  28  29
ATOM     29  C   UNL     1      63.578  19.117  76.002  1.00  0.00    -0.000 C 
BRANCH  29  30
ATOM     30  C   UNL     1      62.934  19.523  77.341  1.00  0.00    -0.000 C 
BRANCH  30  31
ATOM     31  C   UNL     1      61.489  20.041  77.234  1.00  0.00    -0.003 C 
ATOM     32  C   UNL     1      61.317  21.445  77.813  1.00  0.00     0.004 C 
ENDBRANCH  30  31
ENDBRANCH  29  30
ENDBRANCH  28  29
ENDBRANCH  27  28
ENDBRANCH  26  27
ENDBRANCH  25  26
ENDBRANCH  24  25
ENDBRANCH  23  24
ENDBRANCH  22  23
ENDBRANCH  21  22
ENDBRANCH  20  21
ENDBRANCH  19  20
ENDBRANCH  18  19
ENDBRANCH   1  18
TORSDOF 28
ENDMDL
MODEL 5
REMARK VINA RESULT:    -2.557      3.039      7.346
REMARK INTER + INTRA:         -12.773
REMARK INTER:                  -6.373
REMARK INTRA:                  -6.400
REMARK UNBOUND:                -6.031
REMARK SMILES CCCCCCCCCCCCCCCCCCCCCCCCCCCCCC(=O)[O-]
REMARK SMILES IDX 16 1 17 2 18 3 19 4 20 5 21 6 22 7 23 8 24 9 25 10 26 11
REMARK SMILES IDX 27 12 28 13 29 14 30 15 31 16 32 17 15 18 14 19 13 20 12 21
REMARK SMILES IDX 11 22 10 23 9 24 8 25 7 26 6 27 5 28 4 29 3 30 2 31 1 32
REMARK H PARENT
REMARK Flexibility Score: inf
ROOT
ATOM      1  C   UNL     1      66.460  15.593  75.875  1.00  0.00     0.000 C 
ENDROOT
BRANCH   1   2
ATOM      2  C   UNL     1      66.025  17.056  76.078  1.00  0.00     0.000 C 
BRANCH   2   3
ATOM      3  C   UNL     1      67.003  17.845  76.964  1.00  0.00     0.000 C 
BRANCH   3   4
ATOM      4  C   UNL     1      67.709  18.981  76.206  1.00  0.00     0.000 C 
BRANCH   4   5
ATOM      5  C   UNL     1      69.241  18.845  76.221  1.00  0.00     0.000 C 
BRANCH   5   6
ATOM      6  C   UNL     1      69.913  20.215  76.403  1.00  0.00     0.000 C 
BRANCH   6   7
ATOM      7  C   UNL     1      70.726  20.309  77.705  1.00  0.00     0.000 C 
BRANCH   7   8
ATOM      8  C   UNL     1      70.283  21.429  78.666  1.00  0.00     0.000 C 
BRANCH   8   9
ATOM      9  C   UNL     1      69.835  20.919  80.052  1.00  0.00     0.000 C 
BRANCH   9  10
ATOM     10  C   UNL     1      69.203  19.517  79.984  1.00  0.00     0.000 C 
BRANCH  10  11
ATOM     11  C   UNL     1      67.676  19.550  80.155  1.00  0.00     0.000 C 
BRANCH  11  12
ATOM     12  C   UNL     1      67.240  20.253  81.452  1.00  0.00     0.000 C 
BRANCH  12  13
ATOM     13  C   UNL     1      67.188  19.295  82.652  1.00  0.00     0.006 C 
BRANCH  13  14
ATOM     14  C   UNL     1      68.475  19.331  83.486  1.00  0.00     0.053 C 
BRANCH  14  15
ATOM     15  C   UNL     1      68.746  20.722  83.969  1.00  0.00     0.041 C 
ATOM     16  O   UNL     1      67.948  21.283  84.765  1.00  0.00    -0.550 OA
ATOM     17  O   UNL     1      69.904  21.381  83.573  1.00  0.00    -0.550 OA
ENDBRANCH  14  15
ENDBRANCH  13  14
ENDBRANCH  12  13
ENDBRANCH  11  12
ENDBRANCH  10  11
ENDBRANCH   9  10
ENDBRANCH   8   9
ENDBRANCH   7   8
ENDBRANCH   6   7
ENDBRANCH   5   6
ENDBRANCH   4   5
ENDBRANCH   3   4
ENDBRANCH   2   3
ENDBRANCH   1   2
BRANCH   1  18
ATOM     18  C   UNL     1      67.544  15.104  76.852  1.00  0.00     0.000 C 
BRANCH  18  19
ATOM     19  C   UNL     1      68.730  14.436  76.139  1.00  0.00     0.000 C 
BRANCH  19  20
ATOM     20  C   UNL     1      70.000  15.292  76.268  1.00  0.00     0.000 C 
BRANCH  20  21
ATOM     21  C   UNL     1      70.748  15.060  77.591  1.00  0.00     0.000 C 
BRANCH  21  22
ATOM     22  C   UNL     1      70.606  16.241  78.567  1.00  0.00     0.000 C 
BRANCH  22  23
ATOM     23  C   UNL     1      69.923  15.848  79.889  1.00  0.00     0.000 C 
BRANCH  23  24
ATOM     24  C   UNL     1      68.384  15.904  79.871  1.00  0.00    -0.000 C 
BRANCH  24  25
ATOM     25  C   UNL     1      67.765  15.885  81.276  1.00  0.00    -0.000 C 
BRANCH  25  26
ATOM     26  C   UNL     1      66.248  16.099  81.216  1.00  0.00    -0.000 C 
BRANCH  26  27
ATOM     27  C   UNL     1      65.677  15.622  79.874  1.00  0.00    -0.000 C 
BRANCH  27  28
ATOM     28  C   UNL     1      64.485  16.488  79.441  1.00  0.00    -0.000 C 
BRANCH  28  29
ATOM     29  C   UNL     1      64.495  17.882  80.107  1.00  0.00    -0.000 C 
BRANCH  29  30
ATOM     30  C   UNL     1      63.637  18.929  79.372  1.00  0.00    -0.000 C 
BRANCH  30  31
ATOM     31  C   UNL     1      64.433  19.956  78.549  1.00  0.00    -0.003 C 
ATOM     32  C   UNL     1      63.816  20.224  77.176  1.00  0.00     0.004 C 
ENDBRANCH  30  31
ENDBRANCH  29  30
ENDBRANCH  28  29
ENDBRANCH  27  28
ENDBRANCH  26  27
ENDBRANCH  25  26
ENDBRANCH  24  25
ENDBRANCH  23  24
ENDBRANCH  22  23
ENDBRANCH  21  22
ENDBRANCH  20  21
ENDBRANCH  19  20
ENDBRANCH  18  19
ENDBRANCH   1  18
TORSDOF 28
ENDMDL
MODEL 6
REMARK VINA RESULT:    -2.557      1.706      4.053
REMARK INTER + INTRA:         -12.773
REMARK INTER:                  -6.576
REMARK INTRA:                  -6.197
REMARK UNBOUND:                -6.031
REMARK SMILES CCCCCCCCCCCCCCCCCCCCCCCCCCCCCC(=O)[O-]
REMARK SMILES IDX 16 1 17 2 18 3 19 4 20 5 21 6 22 7 23 8 24 9 25 10 26 11
REMARK SMILES IDX 27 12 28 13 29 14 30 15 31 16 32 17 15 18 14 19 13 20 12 21
REMARK SMILES IDX 11 22 10 23 9 24 8 25 7 26 6 27 5 28 4 29 3 30 2 31 1 32
REMARK H PARENT
REMARK Flexibility Score: inf
ROOT
ATOM      1  C   UNL     1      66.169  19.528  76.523  1.00  0.00     0.000 C 
ENDROOT
BRANCH   1   2
ATOM      2  C   UNL     1      65.100  19.964  77.541  1.00  0.00     0.000 C 
BRANCH   2   3
ATOM      3  C   UNL     1      65.707  20.636  78.784  1.00  0.00     0.000 C 
BRANCH   3   4
ATOM      4  C   UNL     1      66.581  19.679  79.611  1.00  0.00     0.000 C 
BRANCH   4   5
ATOM      5  C   UNL     1      65.753  18.721  80.485  1.00  0.00     0.000 C 
BRANCH   5   6
ATOM      6  C   UNL     1      66.659  17.706  81.198  1.00  0.00     0.000 C 
BRANCH   6   7
ATOM      7  C   UNL     1      66.232  16.249  80.946  1.00  0.00     0.000 C 
BRANCH   7   8
ATOM      8  C   UNL     1      65.201  15.694  81.947  1.00  0.00     0.000 C 
BRANCH   8   9
ATOM      9  C   UNL     1      63.861  15.285  81.299  1.00  0.00     0.000 C 
BRANCH   9  10
ATOM     10  C   UNL     1      63.944  15.240  79.763  1.00  0.00     0.000 C 
BRANCH  10  11
ATOM     11  C   UNL     1      63.002  16.253  79.092  1.00  0.00     0.000 C 
BRANCH  11  12
ATOM     12  C   UNL     1      62.566  17.378  80.046  1.00  0.00     0.000 C 
BRANCH  12  13
ATOM     13  C   UNL     1      62.044  18.615  79.299  1.00  0.00     0.006 C 
BRANCH  13  14
ATOM     14  C   UNL     1      61.660  18.304  77.847  1.00  0.00     0.053 C 
BRANCH  14  15
ATOM     15  C   UNL     1      61.290  19.561  77.123  1.00  0.00     0.041 C 
ATOM     16  O   UNL     1      60.390  20.313  77.579  1.00  0.00    -0.550 OA
ATOM     17  O   UNL     1      61.972  19.923  75.967  1.00  0.00    -0.550 OA
ENDBRANCH  14  15
ENDBRANCH  13  14
ENDBRANCH  12  13
ENDBRANCH  11  12
ENDBRANCH  10  11
ENDBRANCH   9  10
ENDBRANCH   8   9
ENDBRANCH   7   8
ENDBRANCH   6   7
ENDBRANCH   5   6
ENDBRANCH   4   5
ENDBRANCH   3   4
ENDBRANCH   2   3
ENDBRANCH   1   2
BRANCH   1  18
ATOM     18  C   UNL     1      65.917  18.154  75.875  1.00  0.00     0.000 C 
BRANCH  18  19
ATOM     19  C   UNL     1      65.505  17.082  76.896  1.00  0.00     0.000 C 
BRANCH  19  20
ATOM     20  C   UNL     1      66.708  16.214  77.297  1.00  0.00     0.000 C 
BRANCH  20  21
ATOM     21  C   UNL     1      67.512  15.709  76.088  1.00  0.00     0.000 C 
BRANCH  21  22
ATOM     22  C   UNL     1      68.422  14.519  76.438  1.00  0.00     0.000 C 
BRANCH  22  23
ATOM     23  C   UNL     1      69.913  14.811  76.192  1.00  0.00     0.000 C 
BRANCH  23  24
ATOM     24  C   UNL     1      70.743  15.082  77.461  1.00  0.00    -0.000 C 
BRANCH  24  25
ATOM     25  C   UNL     1      69.895  15.105  78.742  1.00  0.00    -0.000 C 
BRANCH  25  26
ATOM     26  C   UNL     1      69.865  16.507  79.361  1.00  0.00    -0.000 C 
BRANCH  26  27
ATOM     27  C   UNL     1      70.498  17.539  78.420  1.00  0.00    -0.000 C 
BRANCH  27  28
ATOM     28  C   UNL     1      69.437  18.490  77.846  1.00  0.00    -0.000 C 
BRANCH  28  29
ATOM     29  C   UNL     1      69.601  18.709  76.326  1.00  0.00    -0.000 C 
BRANCH  29  30
ATOM     30  C   UNL     1      69.855  20.177  75.933  1.00  0.00    -0.000 C 
BRANCH  30  31
ATOM     31  C   UNL     1      69.770  21.182  77.095  1.00  0.00    -0.003 C 
ATOM     32  C   UNL     1      68.604  22.158  76.951  1.00  0.00     0.004 C 
ENDBRANCH  30  31
ENDBRANCH  29  30
ENDBRANCH  28  29
ENDBRANCH  27  28
ENDBRANCH  26  27
ENDBRANCH  25  26
ENDBRANCH  24  25
ENDBRANCH  23  24
ENDBRANCH  22  23
ENDBRANCH  21  22
ENDBRANCH  20  21
ENDBRANCH  19  20
ENDBRANCH  18  19
ENDBRANCH   1  18
TORSDOF 28
ENDMDL
MODEL 7
REMARK VINA RESULT:    -2.524      4.050      7.668
REMARK INTER + INTRA:         -12.685
REMARK INTER:                  -7.235
REMARK INTRA:                  -5.451
REMARK UNBOUND:                -6.031
REMARK SMILES CCCCCCCCCCCCCCCCCCCCCCCCCCCCCC(=O)[O-]
REMARK SMILES IDX 16 1 17 2 18 3 19 4 20 5 21 6 22 7 23 8 24 9 25 10 26 11
REMARK SMILES IDX 27 12 28 13 29 14 30 15 31 16 32 17 15 18 14 19 13 20 12 21
REMARK SMILES IDX 11 22 10 23 9 24 8 25 7 26 6 27 5 28 4 29 3 30 2 31 1 32
REMARK H PARENT
REMARK Flexibility Score: inf
ROOT
ATOM      1  C   UNL     1      65.857  18.729  77.813  1.00  0.00     0.000 C 
ENDROOT
BRANCH   1   2
ATOM      2  C   UNL     1      66.315  18.939  76.358  1.00  0.00     0.000 C 
BRANCH   2   3
ATOM      3  C   UNL     1      67.681  19.640  76.265  1.00  0.00     0.000 C 
BRANCH   3   4
ATOM      4  C   UNL     1      68.858  18.651  76.261  1.00  0.00     0.000 C 
BRANCH   4   5
ATOM      5  C   UNL     1      69.875  18.932  77.379  1.00  0.00     0.000 C 
BRANCH   5   6
ATOM      6  C   UNL     1      69.218  18.815  78.763  1.00  0.00     0.000 C 
BRANCH   6   7
ATOM      7  C   UNL     1      70.221  18.998  79.915  1.00  0.00     0.000 C 
BRANCH   7   8
ATOM      8  C   UNL     1      69.641  19.658  81.180  1.00  0.00     0.000 C 
BRANCH   8   9
ATOM      9  C   UNL     1      70.561  19.555  82.415  1.00  0.00     0.000 C 
BRANCH   9  10
ATOM     10  C   UNL     1      71.057  18.118  82.656  1.00  0.00     0.000 C 
BRANCH  10  11
ATOM     11  C   UNL     1      70.568  17.544  83.996  1.00  0.00     0.000 C 
BRANCH  11  12
ATOM     12  C   UNL     1      69.034  17.516  84.105  1.00  0.00     0.000 C 
BRANCH  12  13
ATOM     13  C   UNL     1      68.546  16.823  85.386  1.00  0.00     0.006 C 
BRANCH  13  14
ATOM     14  C   UNL     1      68.982  17.566  86.656  1.00  0.00     0.053 C 
BRANCH  14  15
ATOM     15  C   UNL     1      68.932  16.650  87.839  1.00  0.00     0.041 C 
ATOM     16  O   UNL     1      67.959  15.867  87.994  1.00  0.00    -0.550 OA
ATOM     17  O   UNL     1      69.984  16.632  88.747  1.00  0.00    -0.550 OA
ENDBRANCH  14  15
ENDBRANCH  13  14
ENDBRANCH  12  13
ENDBRANCH  11  12
ENDBRANCH  10  11
ENDBRANCH   9  10
ENDBRANCH   8   9
ENDBRANCH   7   8
ENDBRANCH   6   7
ENDBRANCH   5   6
ENDBRANCH   4   5
ENDBRANCH   3   4
ENDBRANCH   2   3
ENDBRANCH   1   2
BRANCH   1  18
ATOM     18  C   UNL     1      65.337  17.314  78.124  1.00  0.00     0.000 C 
BRANCH  18  19
ATOM     19  C   UNL     1      65.600  16.320  76.983  1.00  0.00     0.000 C 
BRANCH  19  20
ATOM     20  C   UNL     1      66.876  15.505  77.247  1.00  0.00     0.000 C 
BRANCH  20  21
ATOM     21  C   UNL     1      67.725  15.296  75.983  1.00  0.00     0.000 C 
BRANCH  21  22
ATOM     22  C   UNL     1      68.940  14.385  76.230  1.00  0.00     0.000 C 
BRANCH  22  23
ATOM     23  C   UNL     1      70.255  15.168  76.390  1.00  0.00     0.000 C 
BRANCH  23  24
ATOM     24  C   UNL     1      71.190  14.657  77.502  1.00  0.00    -0.000 C 
BRANCH  24  25
ATOM     25  C   UNL     1      71.583  15.749  78.507  1.00  0.00    -0.000 C 
BRANCH  25  26
ATOM     26  C   UNL     1      70.935  15.502  79.875  1.00  0.00    -0.000 C 
BRANCH  26  27
ATOM     27  C   UNL     1      69.408  15.419  79.754  1.00  0.00    -0.000 C 
BRANCH  27  28
ATOM     28  C   UNL     1      68.731  15.667  81.110  1.00  0.00    -0.000 C 
BRANCH  28  29
ATOM     29  C   UNL     1      67.207  15.880  80.980  1.00  0.00    -0.000 C 
BRANCH  29  30
ATOM     30  C   UNL     1      66.737  17.284  81.402  1.00  0.00    -0.000 C 
BRANCH  30  31
ATOM     31  C   UNL     1      65.284  17.357  81.902  1.00  0.00    -0.003 C 
ATOM     32  C   UNL     1      64.548  16.022  81.787  1.00  0.00     0.004 C 
ENDBRANCH  30  31
ENDBRANCH  29  30
ENDBRANCH  28  29
ENDBRANCH  27  28
ENDBRANCH  26  27
ENDBRANCH  25  26
ENDBRANCH  24  25
ENDBRANCH  23  24
ENDBRANCH  22  23
ENDBRANCH  21  22
ENDBRANCH  20  21
ENDBRANCH  19  20
ENDBRANCH  18  19
ENDBRANCH   1  18
TORSDOF 28
ENDMDL
MODEL 8
REMARK VINA RESULT:    -2.483      3.569      7.892
REMARK INTER + INTRA:         -12.579
REMARK INTER:                  -6.422
REMARK INTRA:                  -6.156
REMARK UNBOUND:                -6.031
REMARK SMILES CCCCCCCCCCCCCCCCCCCCCCCCCCCCCC(=O)[O-]
REMARK SMILES IDX 16 1 17 2 18 3 19 4 20 5 21 6 22 7 23 8 24 9 25 10 26 11
REMARK SMILES IDX 27 12 28 13 29 14 30 15 31 16 32 17 15 18 14 19 13 20 12 21
REMARK SMILES IDX 11 22 10 23 9 24 8 25 7 26 6 27 5 28 4 29 3 30 2 31 1 32
REMARK H PARENT
REMARK Flexibility Score: inf
ROOT
ATOM      1  C   UNL     1      67.688  15.375  75.973  1.00  0.00     0.000 C 
ENDROOT
BRANCH   1   2
ATOM      2  C   UNL     1      67.041  15.953  77.246  1.00  0.00     0.000 C 
BRANCH   2   3
ATOM      3  C   UNL     1      67.527  17.377  77.561  1.00  0.00     0.000 C 
BRANCH   3   4
ATOM      4  C   UNL     1      67.932  18.160  76.301  1.00  0.00     0.000 C 
BRANCH   4   5
ATOM      5  C   UNL     1      69.395  18.632  76.338  1.00  0.00     0.000 C 
BRANCH   5   6
ATOM      6  C   UNL     1      69.858  18.874  77.783  1.00  0.00     0.000 C 
BRANCH   6   7
ATOM      7  C   UNL     1      70.236  20.342  78.048  1.00  0.00     0.000 C 
BRANCH   7   8
ATOM      8  C   UNL     1      71.195  20.560  79.233  1.00  0.00     0.000 C 
BRANCH   8   9
ATOM      9  C   UNL     1      72.007  19.305  79.618  1.00  0.00     0.000 C 
BRANCH   9  10
ATOM     10  C   UNL     1      72.125  19.129  81.141  1.00  0.00     0.000 C 
BRANCH  10  11
ATOM     11  C   UNL     1      70.764  19.210  81.851  1.00  0.00     0.000 C 
BRANCH  11  12
ATOM     12  C   UNL     1      70.890  19.616  83.329  1.00  0.00     0.000 C 
BRANCH  12  13
ATOM     13  C   UNL     1      70.329  18.550  84.284  1.00  0.00     0.006 C 
BRANCH  13  14
ATOM     14  C   UNL     1      68.865  18.810  84.656  1.00  0.00     0.053 C 
BRANCH  14  15
ATOM     15  C   UNL     1      68.118  17.517  84.771  1.00  0.00     0.041 C 
ATOM     16  O   UNL     1      68.718  16.467  85.121  1.00  0.00    -0.550 OA
ATOM     17  O   UNL     1      66.749  17.483  84.534  1.00  0.00    -0.550 OA
ENDBRANCH  14  15
ENDBRANCH  13  14
ENDBRANCH  12  13
ENDBRANCH  11  12
ENDBRANCH  10  11
ENDBRANCH   9  10
ENDBRANCH   8   9
ENDBRANCH   7   8
ENDBRANCH   6   7
ENDBRANCH   5   6
ENDBRANCH   4   5
ENDBRANCH   3   4
ENDBRANCH   2   3
ENDBRANCH   1   2
BRANCH   1  18
ATOM     18  C   UNL     1      68.831  14.376  76.230  1.00  0.00     0.000 C 
BRANCH  18  19
ATOM     19  C   UNL     1      70.185  15.067  76.456  1.00  0.00     0.000 C 
BRANCH  19  20
ATOM     20  C   UNL     1      70.807  14.632  77.792  1.00  0.00     0.000 C 
BRANCH  20  21
ATOM     21  C   UNL     1      71.376  15.810  78.599  1.00  0.00     0.000 C 
BRANCH  21  22
ATOM     22  C   UNL     1      70.854  15.842  80.047  1.00  0.00     0.000 C 
BRANCH  22  23
ATOM     23  C   UNL     1      69.356  15.509  80.152  1.00  0.00     0.000 C 
BRANCH  23  24
ATOM     24  C   UNL     1      68.670  15.982  81.448  1.00  0.00    -0.000 C 
BRANCH  24  25
ATOM     25  C   UNL     1      67.444  16.869  81.191  1.00  0.00    -0.000 C 
BRANCH  25  26
ATOM     26  C   UNL     1      67.858  18.319  80.914  1.00  0.00    -0.000 C 
BRANCH  26  27
ATOM     27  C   UNL     1      66.637  19.248  80.899  1.00  0.00    -0.000 C 
BRANCH  27  28
ATOM     28  C   UNL     1      66.900  20.493  80.039  1.00  0.00    -0.000 C 
BRANCH  28  29
ATOM     29  C   UNL     1      65.992  20.550  78.791  1.00  0.00    -0.000 C 
BRANCH  29  30
ATOM     30  C   UNL     1      66.605  21.328  77.611  1.00  0.00    -0.000 C 
BRANCH  30  31
ATOM     31  C   UNL     1      67.528  22.492  78.012  1.00  0.00    -0.003 C 
ATOM     32  C   UNL     1      67.830  23.438  76.850  1.00  0.00     0.004 C 
ENDBRANCH  30  31
ENDBRANCH  29  30
ENDBRANCH  28  29
ENDBRANCH  27  28
ENDBRANCH  26  27
ENDBRANCH  25  26
ENDBRANCH  24  25
ENDBRANCH  23  24
ENDBRANCH  22  23
ENDBRANCH  21  22
ENDBRANCH  20  21
ENDBRANCH  19  20
ENDBRANCH  18  19
ENDBRANCH   1  18
TORSDOF 28
ENDMDL
