MODEL 1
REMARK VINA RESULT:    -4.785      0.000      0.000
REMARK INTER + INTRA:          -6.301
REMARK INTER:                  -5.764
REMARK INTRA:                  -0.538
REMARK UNBOUND:                -0.538
REMARK SMILES CCCCc1oc(O)c2ccccc12
REMARK SMILES IDX 4 1 5 2 7 3 6 4 9 5 14 6 10 7 13 8 11 9 12 10 8 11 3 13 2 14
REMARK SMILES IDX 1 15
REMARK H PARENT 8 12
REMARK Flexibility Score: inf
ROOT
ATOM      1  C   UNL     1       7.660   7.227  -6.422  1.00  0.00     0.076 C 
ENDROOT
BRANCH   1   2
ATOM      2  C   UNL     1       7.651   8.667  -6.013  1.00  0.00     0.116 A 
ATOM      3  C   UNL     1       8.311  10.522  -5.164  1.00  0.00     0.290 A 
ATOM      4  O   UNL     1       8.622   9.250  -5.332  1.00  0.00    -0.430 OA
ATOM      5  C   UNL     1       7.098  10.787  -5.757  1.00  0.00     0.066 A 
ATOM      6  C   UNL     1       6.675   9.606  -6.303  1.00  0.00     0.027 A 
ATOM      7  C   UNL     1       6.353  11.959  -5.861  1.00  0.00     0.016 A 
ATOM      8  C   UNL     1       5.471   9.510  -7.001  1.00  0.00     0.012 A 
ATOM      9  C   UNL     1       5.131  11.895  -6.558  1.00  0.00     0.001 A 
ATOM     10  C   UNL     1       4.693  10.677  -7.124  1.00  0.00     0.001 A 
BRANCH   3  11
ATOM     11  O   UNL     1       9.104  11.441  -4.488  1.00  0.00    -0.480 OA
ATOM     12  H   UNL     1      10.104  11.299  -4.413  1.00  0.00     0.297 HD
ENDBRANCH   3  11
ENDBRANCH   1   2
BRANCH   1  13
ATOM     13  C   UNL     1       7.151   6.342  -5.277  1.00  0.00     0.008 C 
BRANCH  13  14
ATOM     14  C   UNL     1       5.624   6.170  -5.298  1.00  0.00    -0.003 C 
ATOM     15  C   UNL     1       4.945   6.780  -4.073  1.00  0.00     0.004 C 
ENDBRANCH  13  14
ENDBRANCH   1  13
TORSDOF 4
ENDMDL
MODEL 2
REMARK VINA RESULT:    -4.699     16.134     16.987
REMARK INTER + INTRA:          -6.198
REMARK INTER:                  -5.675
REMARK INTRA:                  -0.523
REMARK UNBOUND:                -0.538
REMARK SMILES CCCCc1oc(O)c2ccccc12
REMARK SMILES IDX 4 1 5 2 7 3 6 4 9 5 14 6 10 7 13 8 11 9 12 10 8 11 3 13 2 14
REMARK SMILES IDX 1 15
REMARK H PARENT 8 12
REMARK Flexibility Score: inf
ROOT
ATOM      1  C   UNL     1       5.207  10.443  10.193  1.00  0.00     0.076 C 
ENDROOT
BRANCH   1   2
ATOM      2  C   UNL     1       6.699  10.542  10.272  1.00  0.00     0.116 A 
ATOM      3  C   UNL     1       8.761   9.962  10.189  1.00  0.00     0.290 A 
ATOM      4  O   UNL     1       7.521   9.527  10.071  1.00  0.00    -0.430 OA
ATOM      5  C   UNL     1       8.757  11.308  10.473  1.00  0.00     0.066 A 
ATOM      6  C   UNL     1       7.442  11.683  10.524  1.00  0.00     0.027 A 
ATOM      7  C   UNL     1       9.794  12.216  10.680  1.00  0.00     0.016 A 
ATOM      8  C   UNL     1       7.065  13.001  10.782  1.00  0.00     0.012 A 
ATOM      9  C   UNL     1       9.445  13.554  10.944  1.00  0.00     0.001 A 
ATOM     10  C   UNL     1       8.088  13.944  10.995  1.00  0.00     0.001 A 
BRANCH   3  11
ATOM     11  O   UNL     1       9.891   9.165  10.043  1.00  0.00    -0.480 OA
ATOM     12  H   UNL     1      10.459   9.229   9.208  1.00  0.00     0.297 HD
ENDBRANCH   3  11
ENDBRANCH   1   2
BRANCH   1  13
ATOM     13  C   UNL     1       4.645   9.801  11.467  1.00  0.00     0.008 C 
BRANCH  13  14
ATOM     14  C   UNL     1       4.510  10.804  12.623  1.00  0.00    -0.003 C 
ATOM     15  C   UNL     1       3.776  12.080  12.212  1.00  0.00     0.004 C 
ENDBRANCH  13  14
ENDBRANCH   1  13
TORSDOF 4
ENDMDL
MODEL 3
REMARK VINA RESULT:    -4.682     16.602     17.898
REMARK INTER + INTRA:          -6.178
REMARK INTER:                  -5.748
REMARK INTRA:                  -0.430
REMARK UNBOUND:                -0.538
REMARK SMILES CCCCc1oc(O)c2ccccc12
REMARK SMILES IDX 4 1 5 2 7 3 6 4 9 5 14 6 10 7 13 8 11 9 12 10 8 11 3 13 2 14
REMARK SMILES IDX 1 15
REMARK H PARENT 8 12
REMARK Flexibility Score: inf
ROOT
ATOM      1  C   UNL     1       7.285  14.095   9.761  1.00  0.00     0.076 C 
ENDROOT
BRANCH   1   2
ATOM      2  C   UNL     1       5.877  14.185  10.263  1.00  0.00     0.116 A 
ATOM      3  C   UNL     1       3.869  14.895  10.507  1.00  0.00     0.290 A 
ATOM      4  O   UNL     1       5.021  15.125   9.905  1.00  0.00    -0.430 OA
ATOM      5  C   UNL     1       3.968  13.763  11.283  1.00  0.00     0.066 A 
ATOM      6  C   UNL     1       5.248  13.305  11.127  1.00  0.00     0.027 A 
ATOM      7  C   UNL     1       3.041  13.110  12.093  1.00  0.00     0.016 A 
ATOM      8  C   UNL     1       5.697  12.151  11.771  1.00  0.00     0.012 A 
ATOM      9  C   UNL     1       3.465  11.944  12.758  1.00  0.00     0.001 A 
ATOM     10  C   UNL     1       4.786  11.467  12.597  1.00  0.00     0.001 A 
BRANCH   3  11
ATOM     11  O   UNL     1       2.736  15.687  10.364  1.00  0.00    -0.480 OA
ATOM     12  H   UNL     1       2.033  15.712  11.092  1.00  0.00     0.297 HD
ENDBRANCH   3  11
ENDBRANCH   1   2
BRANCH   1  13
ATOM     13  C   UNL     1       8.268  14.568  10.839  1.00  0.00     0.008 C 
BRANCH  13  14
ATOM     14  C   UNL     1       9.589  13.783  10.817  1.00  0.00    -0.003 C 
ATOM     15  C   UNL     1       9.408  12.315  11.201  1.00  0.00     0.004 C 
ENDBRANCH  13  14
ENDBRANCH   1  13
TORSDOF 4
ENDMDL
MODEL 4
REMARK VINA RESULT:    -4.674     16.265     17.320
REMARK INTER + INTRA:          -6.168
REMARK INTER:                  -5.707
REMARK INTRA:                  -0.462
REMARK UNBOUND:                -0.538
REMARK SMILES CCCCc1oc(O)c2ccccc12
REMARK SMILES IDX 4 1 5 2 7 3 6 4 9 5 14 6 10 7 13 8 11 9 12 10 8 11 3 13 2 14
REMARK SMILES IDX 1 15
REMARK H PARENT 8 12
REMARK Flexibility Score: inf
ROOT
ATOM      1  C   UNL     1       7.720  12.800  11.044  1.00  0.00     0.076 C 
ENDROOT
BRANCH   1   2
ATOM      2  C   UNL     1       6.512  13.651  10.803  1.00  0.00     0.116 A 
ATOM      3  C   UNL     1       5.289  15.244  10.052  1.00  0.00     0.290 A 
ATOM      4  O   UNL     1       6.517  14.759  10.084  1.00  0.00    -0.430 OA
ATOM      5  C   UNL     1       4.447  14.426  10.770  1.00  0.00     0.066 A 
ATOM      6  C   UNL     1       5.224  13.406  11.248  1.00  0.00     0.027 A 
ATOM      7  C   UNL     1       3.080  14.498  11.026  1.00  0.00     0.016 A 
ATOM      8  C   UNL     1       4.686  12.375  12.020  1.00  0.00     0.012 A 
ATOM      9  C   UNL     1       2.508  13.474  11.804  1.00  0.00     0.001 A 
ATOM     10  C   UNL     1       3.307  12.418  12.298  1.00  0.00     0.001 A 
BRANCH   3  11
ATOM     11  O   UNL     1       4.921  16.407   9.386  1.00  0.00    -0.480 OA
ATOM     12  H   UNL     1       5.552  16.839   8.722  1.00  0.00     0.297 HD
ENDBRANCH   3  11
ENDBRANCH   1   2
BRANCH   1  13
ATOM     13  C   UNL     1       7.889  11.778   9.912  1.00  0.00     0.008 C 
BRANCH  13  14
ATOM     14  C   UNL     1       8.158  10.359  10.434  1.00  0.00    -0.003 C 
ATOM     15  C   UNL     1       6.875   9.610  10.792  1.00  0.00     0.004 C 
ENDBRANCH  13  14
ENDBRANCH   1  13
TORSDOF 4
ENDMDL
MODEL 5
REMARK VINA RESULT:    -4.623     20.227     21.392
REMARK INTER + INTRA:          -6.107
REMARK INTER:                  -5.605
REMARK INTRA:                  -0.502
REMARK UNBOUND:                -0.538
REMARK SMILES CCCCc1oc(O)c2ccccc12
REMARK SMILES IDX 4 1 5 2 7 3 6 4 9 5 14 6 10 7 13 8 11 9 12 10 8 11 3 13 2 14
REMARK SMILES IDX 1 15
REMARK H PARENT 8 12
REMARK Flexibility Score: inf
ROOT
ATOM      1  C   UNL     1      21.421   7.423  10.319  1.00  0.00     0.076 C 
ENDROOT
BRANCH   1   2
ATOM      2  C   UNL     1      20.088   7.813  10.880  1.00  0.00     0.116 A 
ATOM      3  C   UNL     1      18.051   7.648  11.528  1.00  0.00     0.290 A 
ATOM      4  O   UNL     1      19.052   6.998  10.964  1.00  0.00    -0.430 OA
ATOM      5  C   UNL     1      18.442   8.933  11.829  1.00  0.00     0.066 A 
ATOM      6  C   UNL     1      19.744   9.040  11.420  1.00  0.00     0.027 A 
ATOM      7  C   UNL     1      17.765   9.992  12.429  1.00  0.00     0.016 A 
ATOM      8  C   UNL     1      20.469  10.221  11.585  1.00  0.00     0.012 A 
ATOM      9  C   UNL     1      18.469  11.198  12.608  1.00  0.00     0.001 A 
ATOM     10  C   UNL     1      19.814  11.312  12.188  1.00  0.00     0.001 A 
BRANCH   3  11
ATOM     11  O   UNL     1      16.798   7.101  11.774  1.00  0.00    -0.480 OA
ATOM     12  H   UNL     1      16.341   7.246  12.665  1.00  0.00     0.297 HD
ENDBRANCH   3  11
ENDBRANCH   1   2
BRANCH   1  13
ATOM     13  C   UNL     1      21.368   7.389   8.787  1.00  0.00     0.008 C 
BRANCH  13  14
ATOM     14  C   UNL     1      22.125   8.561   8.145  1.00  0.00    -0.003 C 
ATOM     15  C   UNL     1      21.243   9.794   7.945  1.00  0.00     0.004 C 
ENDBRANCH  13  14
ENDBRANCH   1  13
TORSDOF 4
ENDMDL
MODEL 6
REMARK VINA RESULT:    -4.589     16.582     17.733
REMARK INTER + INTRA:          -6.066
REMARK INTER:                  -5.784
REMARK INTRA:                  -0.282
REMARK UNBOUND:                -0.538
REMARK SMILES CCCCc1oc(O)c2ccccc12
REMARK SMILES IDX 4 1 5 2 7 3 6 4 9 5 14 6 10 7 13 8 11 9 12 10 8 11 3 13 2 14
REMARK SMILES IDX 1 15
REMARK H PARENT 8 12
REMARK Flexibility Score: inf
ROOT
ATOM      1  C   UNL     1       7.952  14.234  10.350  1.00  0.00     0.076 C 
ENDROOT
BRANCH   1   2
ATOM      2  C   UNL     1       6.842  13.456  10.985  1.00  0.00     0.116 A 
ATOM      3  C   UNL     1       5.844  11.943  12.130  1.00  0.00     0.290 A 
ATOM      4  O   UNL     1       7.020  12.357  11.697  1.00  0.00    -0.430 OA
ATOM      5  C   UNL     1       4.859  12.799  11.693  1.00  0.00     0.066 A 
ATOM      6  C   UNL     1       5.493  13.768  10.964  1.00  0.00     0.027 A 
ATOM      7  C   UNL     1       3.479  12.801  11.885  1.00  0.00     0.016 A 
ATOM      8  C   UNL     1       4.790  14.819  10.374  1.00  0.00     0.012 A 
ATOM      9  C   UNL     1       2.742  13.847  11.300  1.00  0.00     0.001 A 
ATOM     10  C   UNL     1       3.394  14.851  10.548  1.00  0.00     0.001 A 
BRANCH   3  11
ATOM     11  O   UNL     1       5.649  10.810  12.911  1.00  0.00    -0.480 OA
ATOM     12  H   UNL     1       4.924  10.793  13.618  1.00  0.00     0.297 HD
ENDBRANCH   3  11
ENDBRANCH   1   2
BRANCH   1  13
ATOM     13  C   UNL     1       8.860  13.305   9.536  1.00  0.00     0.008 C 
BRANCH  13  14
ATOM     14  C   UNL     1      10.332  13.391   9.968  1.00  0.00    -0.003 C 
ATOM     15  C   UNL     1      10.527  13.106  11.456  1.00  0.00     0.004 C 
ENDBRANCH  13  14
ENDBRANCH   1  13
TORSDOF 4
ENDMDL
MODEL 7
REMARK VINA RESULT:    -4.579     16.344     17.350
REMARK INTER + INTRA:          -6.054
REMARK INTER:                  -5.538
REMARK INTRA:                  -0.516
REMARK UNBOUND:                -0.538
REMARK SMILES CCCCc1oc(O)c2ccccc12
REMARK SMILES IDX 4 1 5 2 7 3 6 4 9 5 14 6 10 7 13 8 11 9 12 10 8 11 3 13 2 14
REMARK SMILES IDX 1 15
REMARK H PARENT 8 12
REMARK Flexibility Score: inf
ROOT
ATOM      1  C   UNL     1       4.960  12.282  12.008  1.00  0.00     0.076 C 
ENDROOT
BRANCH   1   2
ATOM      2  C   UNL     1       6.175  11.613  11.444  1.00  0.00     0.116 A 
ATOM      3  C   UNL     1       7.430  10.080  10.626  1.00  0.00     0.290 A 
ATOM      4  O   UNL     1       6.231  10.335  11.113  1.00  0.00    -0.430 OA
ATOM      5  C   UNL     1       8.188  11.228  10.631  1.00  0.00     0.066 A 
ATOM      6  C   UNL     1       7.389  12.210  11.150  1.00  0.00     0.027 A 
ATOM      7  C   UNL     1       9.495  11.479  10.218  1.00  0.00     0.016 A 
ATOM      8  C   UNL     1       7.839  13.523  11.291  1.00  0.00     0.012 A 
ATOM      9  C   UNL     1       9.979  12.794  10.349  1.00  0.00     0.001 A 
ATOM     10  C   UNL     1       9.155  13.811  10.883  1.00  0.00     0.001 A 
BRANCH   3  11
ATOM     11  O   UNL     1       7.847   8.832  10.177  1.00  0.00    -0.480 OA
ATOM     12  H   UNL     1       7.939   8.059  10.824  1.00  0.00     0.297 HD
ENDBRANCH   3  11
ENDBRANCH   1   2
BRANCH   1  13
ATOM     13  C   UNL     1       4.109  12.883  10.883  1.00  0.00     0.008 C 
BRANCH  13  14
ATOM     14  C   UNL     1       4.117  14.419  10.893  1.00  0.00    -0.003 C 
ATOM     15  C   UNL     1       4.938  15.011   9.747  1.00  0.00     0.004 C 
ENDBRANCH  13  14
ENDBRANCH   1  13
TORSDOF 4
ENDMDL
MODEL 8
REMARK VINA RESULT:    -4.521     14.925     16.247
REMARK INTER + INTRA:          -5.984
REMARK INTER:                  -5.599
REMARK INTRA:                  -0.385
REMARK UNBOUND:                -0.538
REMARK SMILES CCCCc1oc(O)c2ccccc12
REMARK SMILES IDX 4 1 5 2 7 3 6 4 9 5 14 6 10 7 13 8 11 9 12 10 8 11 3 13 2 14
REMARK SMILES IDX 1 15
REMARK H PARENT 8 12
REMARK Flexibility Score: inf
ROOT
ATOM      1  C   UNL     1       8.455  12.577  11.350  1.00  0.00     0.076 C 
ENDROOT
BRANCH   1   2
ATOM      2  C   UNL     1       9.135  11.569  10.476  1.00  0.00     0.116 A 
ATOM      3  C   UNL     1       9.675   9.672   9.636  1.00  0.00     0.290 A 
ATOM      4  O   UNL     1       8.948  10.264  10.564  1.00  0.00    -0.430 OA
ATOM      5  C   UNL     1      10.361  10.617   8.909  1.00  0.00     0.066 A 
ATOM      6  C   UNL     1      10.017  11.830   9.440  1.00  0.00     0.027 A 
ATOM      7  C   UNL     1      11.241  10.502   7.834  1.00  0.00     0.016 A 
ATOM      8  C   UNL     1      10.527  13.025   8.931  1.00  0.00     0.012 A 
ATOM      9  C   UNL     1      11.773  11.690   7.300  1.00  0.00     0.001 A 
ATOM     10  C   UNL     1      11.418  12.945   7.845  1.00  0.00     0.001 A 
BRANCH   3  11
ATOM     11  O   UNL     1       9.726   8.297   9.436  1.00  0.00    -0.480 OA
ATOM     12  H   UNL     1       9.658   7.662  10.222  1.00  0.00     0.297 HD
ENDBRANCH   3  11
ENDBRANCH   1   2
BRANCH   1  13
ATOM     13  C   UNL     1       6.934  12.382  11.307  1.00  0.00     0.008 C 
BRANCH  13  14
ATOM     14  C   UNL     1       6.186  13.668  10.922  1.00  0.00    -0.003 C 
ATOM     15  C   UNL     1       6.807  14.372   9.717  1.00  0.00     0.004 C 
ENDBRANCH  13  14
ENDBRANCH   1  13
TORSDOF 4
ENDMDL
MODEL 9
REMARK VINA RESULT:    -4.511      1.704      4.292
REMARK INTER + INTRA:          -5.972
REMARK INTER:                  -5.578
REMARK INTRA:                  -0.394
REMARK UNBOUND:                -0.538
REMARK SMILES CCCCc1oc(O)c2ccccc12
REMARK SMILES IDX 4 1 5 2 7 3 6 4 9 5 14 6 10 7 13 8 11 9 12 10 8 11 3 13 2 14
REMARK SMILES IDX 1 15
REMARK H PARENT 8 12
REMARK Flexibility Score: inf
ROOT
ATOM      1  C   UNL     1       7.491  10.234  -6.447  1.00  0.00     0.076 C 
ENDROOT
BRANCH   1   2
ATOM      2  C   UNL     1       7.109   8.852  -6.016  1.00  0.00     0.116 A 
ATOM      3  C   UNL     1       7.301   6.781  -5.497  1.00  0.00     0.290 A 
ATOM      4  O   UNL     1       7.956   7.842  -5.931  1.00  0.00    -0.430 OA
ATOM      5  C   UNL     1       5.980   7.104  -5.286  1.00  0.00     0.066 A 
ATOM      6  C   UNL     1       5.855   8.427  -5.613  1.00  0.00     0.027 A 
ATOM      7  C   UNL     1       4.902   6.348  -4.831  1.00  0.00     0.016 A 
ATOM      8  C   UNL     1       4.635   9.096  -5.506  1.00  0.00     0.012 A 
ATOM      9  C   UNL     1       3.657   6.995  -4.714  1.00  0.00     0.001 A 
ATOM     10  C   UNL     1       3.524   8.361  -5.050  1.00  0.00     0.001 A 
BRANCH   3  11
ATOM     11  O   UNL     1       7.876   5.533  -5.289  1.00  0.00    -0.480 OA
ATOM     12  H   UNL     1       8.177   5.255  -4.363  1.00  0.00     0.297 HD
ENDBRANCH   3  11
ENDBRANCH   1   2
BRANCH   1  13
ATOM     13  C   UNL     1       8.700  10.730  -5.644  1.00  0.00     0.008 C 
BRANCH  13  14
ATOM     14  C   UNL     1       8.332  11.842  -4.650  1.00  0.00    -0.003 C 
ATOM     15  C   UNL     1       6.920  12.383  -4.868  1.00  0.00     0.004 C 
ENDBRANCH  13  14
ENDBRANCH   1  13
TORSDOF 4
ENDMDL
