MODEL 1
REMARK VINA RESULT:    -4.323      0.000      0.000
REMARK INTER + INTRA:          -6.046
REMARK INTER:                  -5.840
REMARK INTRA:                  -0.207
REMARK UNBOUND:                -0.207
REMARK SMILES CCCCCCCC=O
REMARK SMILES IDX 5 1 4 2 3 3 2 4 1 5 6 6 7 7 8 8 9 9
REMARK H PARENT
REMARK Flexibility Score: inf
ROOT
ATOM      1  C   UNL     1      13.003 -29.888 -20.541  1.00  0.00     0.000 C 
ENDROOT
BRANCH   1   2
ATOM      2  C   UNL     1      13.156 -29.154 -21.878  1.00  0.00     0.000 C 
BRANCH   2   3
ATOM      3  C   UNL     1      11.818 -29.080 -22.623  1.00  0.00    -0.000 C 
BRANCH   3   4
ATOM      4  C   UNL     1      11.493 -30.413 -23.304  1.00  0.00    -0.003 C 
ATOM      5  C   UNL     1      10.424 -30.238 -24.379  1.00  0.00     0.004 C 
ENDBRANCH   3   4
ENDBRANCH   2   3
ENDBRANCH   1   2
BRANCH   1   6
ATOM      6  C   UNL     1      13.762 -29.159 -19.422  1.00  0.00     0.008 C 
BRANCH   6   7
ATOM      7  C   UNL     1      14.748 -28.120 -19.973  1.00  0.00     0.072 C 
BRANCH   7   8
ATOM      8  C   UNL     1      14.580 -26.781 -19.316  1.00  0.00     0.224 C 
ATOM      9  O   UNL     1      14.558 -25.760 -19.985  1.00  0.00    -0.303 OA
ENDBRANCH   7   8
ENDBRANCH   6   7
ENDBRANCH   1   6
TORSDOF 6
ENDMDL
MODEL 2
REMARK VINA RESULT:    -4.315      2.227      4.892
REMARK INTER + INTRA:          -6.035
REMARK INTER:                  -5.794
REMARK INTRA:                  -0.241
REMARK UNBOUND:                -0.207
REMARK SMILES CCCCCCCC=O
REMARK SMILES IDX 5 1 4 2 3 3 2 4 1 5 6 6 7 7 8 8 9 9
REMARK H PARENT
REMARK Flexibility Score: inf
ROOT
ATOM      1  C   UNL     1      12.907 -29.927 -21.468  1.00  0.00     0.000 C 
ENDROOT
BRANCH   1   2
ATOM      2  C   UNL     1      12.976 -30.301 -19.982  1.00  0.00     0.000 C 
BRANCH   2   3
ATOM      3  C   UNL     1      13.720 -29.228 -19.178  1.00  0.00    -0.000 C 
BRANCH   3   4
ATOM      4  C   UNL     1      14.522 -28.305 -20.102  1.00  0.00    -0.003 C 
ATOM      5  C   UNL     1      14.824 -26.972 -19.424  1.00  0.00     0.004 C 
ENDBRANCH   3   4
ENDBRANCH   2   3
ENDBRANCH   1   2
BRANCH   1   6
ATOM      6  C   UNL     1      12.252 -31.050 -22.288  1.00  0.00     0.008 C 
BRANCH   6   7
ATOM      7  C   UNL     1      11.255 -30.506 -23.321  1.00  0.00     0.072 C 
BRANCH   7   8
ATOM      8  C   UNL     1      11.072 -29.021 -23.198  1.00  0.00     0.224 C 
ATOM      9  O   UNL     1       9.973 -28.516 -23.368  1.00  0.00    -0.303 OA
ENDBRANCH   7   8
ENDBRANCH   6   7
ENDBRANCH   1   6
TORSDOF 6
ENDMDL
MODEL 3
REMARK VINA RESULT:    -4.263     14.212     16.028
REMARK INTER + INTRA:          -5.965
REMARK INTER:                  -5.557
REMARK INTRA:                  -0.408
REMARK UNBOUND:                -0.207
REMARK SMILES CCCCCCCC=O
REMARK SMILES IDX 5 1 4 2 3 3 2 4 1 5 6 6 7 7 8 8 9 9
REMARK H PARENT
REMARK Flexibility Score: inf
ROOT
ATOM      1  C   UNL     1       9.886 -30.689 -35.845  1.00  0.00     0.000 C 
ENDROOT
BRANCH   1   2
ATOM      2  C   UNL     1      10.899 -29.822 -35.088  1.00  0.00     0.000 C 
BRANCH   2   3
ATOM      3  C   UNL     1      12.023 -30.679 -34.495  1.00  0.00    -0.000 C 
BRANCH   3   4
ATOM      4  C   UNL     1      13.351 -29.915 -34.485  1.00  0.00    -0.003 C 
ATOM      5  C   UNL     1      13.187 -28.515 -35.070  1.00  0.00     0.004 C 
ENDBRANCH   3   4
ENDBRANCH   2   3
ENDBRANCH   1   2
BRANCH   1   6
ATOM      6  C   UNL     1      10.126 -30.620 -37.361  1.00  0.00     0.008 C 
BRANCH   6   7
ATOM      7  C   UNL     1      10.707 -29.267 -37.794  1.00  0.00     0.072 C 
BRANCH   7   8
ATOM      8  C   UNL     1      10.051 -28.746 -39.040  1.00  0.00     0.224 C 
ATOM      9  O   UNL     1       8.847 -28.546 -39.070  1.00  0.00    -0.303 OA
ENDBRANCH   7   8
ENDBRANCH   6   7
ENDBRANCH   1   6
TORSDOF 6
ENDMDL
MODEL 4
REMARK VINA RESULT:    -4.189      2.630      4.618
REMARK INTER + INTRA:          -5.866
REMARK INTER:                  -5.584
REMARK INTRA:                  -0.281
REMARK UNBOUND:                -0.207
REMARK SMILES CCCCCCCC=O
REMARK SMILES IDX 5 1 4 2 3 3 2 4 1 5 6 6 7 7 8 8 9 9
REMARK H PARENT
REMARK Flexibility Score: inf
ROOT
ATOM      1  C   UNL     1      13.493 -29.462 -21.068  1.00  0.00     0.000 C 
ENDROOT
BRANCH   1   2
ATOM      2  C   UNL     1      12.658 -29.933 -19.871  1.00  0.00     0.000 C 
BRANCH   2   3
ATOM      3  C   UNL     1      13.512 -30.745 -18.889  1.00  0.00    -0.000 C 
BRANCH   3   4
ATOM      4  C   UNL     1      13.093 -32.219 -18.884  1.00  0.00    -0.003 C 
ATOM      5  C   UNL     1      12.031 -32.494 -19.945  1.00  0.00     0.004 C 
ENDBRANCH   3   4
ENDBRANCH   2   3
ENDBRANCH   1   2
BRANCH   1   6
ATOM      6  C   UNL     1      12.589 -29.026 -22.232  1.00  0.00     0.008 C 
BRANCH   6   7
ATOM      7  C   UNL     1      11.931 -30.222 -22.933  1.00  0.00     0.072 C 
BRANCH   7   8
ATOM      8  C   UNL     1      10.688 -29.825 -23.675  1.00  0.00     0.224 C 
ATOM      9  O   UNL     1      10.188 -28.724 -23.503  1.00  0.00    -0.303 OA
ENDBRANCH   7   8
ENDBRANCH   6   7
ENDBRANCH   1   6
TORSDOF 6
ENDMDL
MODEL 5
REMARK VINA RESULT:    -4.160      2.495      4.712
REMARK INTER + INTRA:          -5.826
REMARK INTER:                  -5.439
REMARK INTRA:                  -0.387
REMARK UNBOUND:                -0.207
REMARK SMILES CCCCCCCC=O
REMARK SMILES IDX 5 1 4 2 3 3 2 4 1 5 6 6 7 7 8 8 9 9
REMARK H PARENT
REMARK Flexibility Score: inf
ROOT
ATOM      1  C   UNL     1      11.946 -32.229 -21.093  1.00  0.00     0.000 C 
ENDROOT
BRANCH   1   2
ATOM      2  C   UNL     1      12.637 -31.815 -19.789  1.00  0.00     0.000 C 
BRANCH   2   3
ATOM      3  C   UNL     1      12.495 -30.308 -19.545  1.00  0.00    -0.000 C 
BRANCH   3   4
ATOM      4  C   UNL     1      13.856 -29.667 -19.255  1.00  0.00    -0.003 C 
ATOM      5  C   UNL     1      14.183 -28.580 -20.275  1.00  0.00     0.004 C 
ENDBRANCH   3   4
ENDBRANCH   2   3
ENDBRANCH   1   2
BRANCH   1   6
ATOM      6  C   UNL     1      12.351 -31.302 -22.250  1.00  0.00     0.008 C 
BRANCH   6   7
ATOM      7  C   UNL     1      11.133 -30.722 -22.981  1.00  0.00     0.072 C 
BRANCH   7   8
ATOM      8  C   UNL     1      11.149 -29.221 -22.998  1.00  0.00     0.224 C 
ATOM      9  O   UNL     1      10.171 -28.595 -23.374  1.00  0.00    -0.303 OA
ENDBRANCH   7   8
ENDBRANCH   6   7
ENDBRANCH   1   6
TORSDOF 6
ENDMDL
MODEL 6
REMARK VINA RESULT:    -4.121     14.115     15.717
REMARK INTER + INTRA:          -5.773
REMARK INTER:                  -5.242
REMARK INTRA:                  -0.531
REMARK UNBOUND:                -0.207
REMARK SMILES CCCCCCCC=O
REMARK SMILES IDX 5 1 4 2 3 3 2 4 1 5 6 6 7 7 8 8 9 9
REMARK H PARENT
REMARK Flexibility Score: inf
ROOT
ATOM      1  C   UNL     1      12.895 -29.082 -34.917  1.00  0.00     0.000 C 
ENDROOT
BRANCH   1   2
ATOM      2  C   UNL     1      12.216 -28.078 -35.855  1.00  0.00     0.000 C 
BRANCH   2   3
ATOM      3  C   UNL     1      13.032 -27.883 -37.139  1.00  0.00    -0.000 C 
BRANCH   3   4
ATOM      4  C   UNL     1      12.483 -28.750 -38.277  1.00  0.00    -0.003 C 
ATOM      5  C   UNL     1      11.114 -28.258 -38.735  1.00  0.00     0.004 C 
ENDBRANCH   3   4
ENDBRANCH   2   3
ENDBRANCH   1   2
BRANCH   1   6
ATOM      6  C   UNL     1      11.929 -30.210 -34.525  1.00  0.00     0.008 C 
BRANCH   6   7
ATOM      7  C   UNL     1      10.647 -30.195 -35.370  1.00  0.00     0.072 C 
BRANCH   7   8
ATOM      8  C   UNL     1      10.494 -31.448 -36.182  1.00  0.00     0.224 C 
ATOM      9  O   UNL     1      10.186 -31.388 -37.362  1.00  0.00    -0.303 OA
ENDBRANCH   7   8
ENDBRANCH   6   7
ENDBRANCH   1   6
TORSDOF 6
ENDMDL
MODEL 7
REMARK VINA RESULT:    -4.116     14.132     15.747
REMARK INTER + INTRA:          -5.766
REMARK INTER:                  -5.221
REMARK INTRA:                  -0.545
REMARK UNBOUND:                -0.207
REMARK SMILES CCCCCCCC=O
REMARK SMILES IDX 5 1 4 2 3 3 2 4 1 5 6 6 7 7 8 8 9 9
REMARK H PARENT
REMARK Flexibility Score: inf
ROOT
ATOM      1  C   UNL     1      12.379 -28.157 -35.544  1.00  0.00     0.000 C 
ENDROOT
BRANCH   1   2
ATOM      2  C   UNL     1      12.927 -29.454 -34.939  1.00  0.00     0.000 C 
BRANCH   2   3
ATOM      3  C   UNL     1      11.792 -30.331 -34.395  1.00  0.00    -0.000 C 
BRANCH   3   4
ATOM      4  C   UNL     1      10.543 -30.222 -35.276  1.00  0.00    -0.003 C 
ATOM      5  C   UNL     1      10.450 -31.394 -36.249  1.00  0.00     0.004 C 
ENDBRANCH   3   4
ENDBRANCH   2   3
ENDBRANCH   1   2
BRANCH   1   6
ATOM      6  C   UNL     1      13.052 -27.849 -36.890  1.00  0.00     0.008 C 
BRANCH   6   7
ATOM      7  C   UNL     1      12.533 -28.752 -38.017  1.00  0.00     0.072 C 
BRANCH   7   8
ATOM      8  C   UNL     1      11.328 -28.167 -38.696  1.00  0.00     0.224 C 
ATOM      9  O   UNL     1      10.282 -28.794 -38.750  1.00  0.00    -0.303 OA
ENDBRANCH   7   8
ENDBRANCH   6   7
ENDBRANCH   1   6
TORSDOF 6
ENDMDL
MODEL 8
REMARK VINA RESULT:    -4.093     13.787     15.455
REMARK INTER + INTRA:          -5.735
REMARK INTER:                  -5.392
REMARK INTRA:                  -0.342
REMARK UNBOUND:                -0.207
REMARK SMILES CCCCCCCC=O
REMARK SMILES IDX 5 1 4 2 3 3 2 4 1 5 6 6 7 7 8 8 9 9
REMARK H PARENT
REMARK Flexibility Score: inf
ROOT
ATOM      1  C   UNL     1      10.466 -30.160 -35.582  1.00  0.00     0.000 C 
ENDROOT
BRANCH   1   2
ATOM      2  C   UNL     1      10.248 -31.332 -36.547  1.00  0.00     0.000 C 
BRANCH   2   3
ATOM      3  C   UNL     1       9.614 -30.854 -37.859  1.00  0.00    -0.000 C 
BRANCH   3   4
ATOM      4  C   UNL     1      10.028 -29.414 -38.178  1.00  0.00    -0.003 C 
ATOM      5  C   UNL     1       9.001 -28.729 -39.075  1.00  0.00     0.004 C 
ENDBRANCH   3   4
ENDBRANCH   2   3
ENDBRANCH   1   2
BRANCH   1   6
ATOM      6  C   UNL     1      11.517 -30.512 -34.518  1.00  0.00     0.008 C 
BRANCH   6   7
ATOM      7  C   UNL     1      12.764 -29.622 -34.621  1.00  0.00     0.072 C 
BRANCH   7   8
ATOM      8  C   UNL     1      12.550 -28.458 -35.543  1.00  0.00     0.224 C 
ATOM      9  O   UNL     1      13.351 -28.216 -36.432  1.00  0.00    -0.303 OA
ENDBRANCH   7   8
ENDBRANCH   6   7
ENDBRANCH   1   6
TORSDOF 6
ENDMDL
