MODEL 1
REMARK VINA RESULT:    -2.916      0.000      0.000
REMARK INTER + INTRA:          -7.183
REMARK INTER:                  -5.132
REMARK INTRA:                  -2.052
REMARK UNBOUND:                -2.052
REMARK SMILES CCCCCCCCCCCCCCC(=O)[O-]
REMARK SMILES IDX 9 1 10 2 11 3 12 4 13 5 14 6 15 7 16 8 17 9 8 10 7 11 6 12
REMARK SMILES IDX 5 13 4 14 3 15 2 16 1 17
REMARK H PARENT
REMARK Flexibility Score: inf
ROOT
ATOM      1  C   UNL     1      52.195  82.809  31.562  1.00  0.00     0.000 C 
ENDROOT
BRANCH   1   2
ATOM      2  C   UNL     1      52.050  83.558  30.225  1.00  0.00     0.000 C 
BRANCH   2   3
ATOM      3  C   UNL     1      50.614  83.512  29.677  1.00  0.00     0.000 C 
BRANCH   3   4
ATOM      4  C   UNL     1      49.761  82.415  30.341  1.00  0.00     0.000 C 
BRANCH   4   5
ATOM      5  C   UNL     1      48.383  82.930  30.786  1.00  0.00     0.006 C 
BRANCH   5   6
ATOM      6  C   UNL     1      48.454  84.312  31.446  1.00  0.00     0.053 C 
BRANCH   6   7
ATOM      7  C   UNL     1      48.760  84.181  32.903  1.00  0.00     0.041 C 
ATOM      8  O   UNL     1      49.812  84.685  33.379  1.00  0.00    -0.550 OA
ATOM      9  O   UNL     1      47.910  83.458  33.730  1.00  0.00    -0.550 OA
ENDBRANCH   6   7
ENDBRANCH   5   6
ENDBRANCH   4   5
ENDBRANCH   3   4
ENDBRANCH   2   3
ENDBRANCH   1   2
BRANCH   1  10
ATOM     10  C   UNL     1      53.306  81.747  31.524  1.00  0.00     0.000 C 
BRANCH  10  11
ATOM     11  C   UNL     1      53.711  81.363  30.089  1.00  0.00    -0.000 C 
BRANCH  11  12
ATOM     12  C   UNL     1      55.218  81.530  29.839  1.00  0.00    -0.000 C 
BRANCH  12  13
ATOM     13  C   UNL     1      55.558  82.863  29.149  1.00  0.00    -0.000 C 
BRANCH  13  14
ATOM     14  C   UNL     1      56.398  83.792  30.050  1.00  0.00    -0.000 C 
BRANCH  14  15
ATOM     15  C   UNL     1      55.600  84.952  30.675  1.00  0.00    -0.000 C 
BRANCH  15  16
ATOM     16  C   UNL     1      55.308  84.777  32.179  1.00  0.00    -0.003 C 
ATOM     17  C   UNL     1      56.175  83.695  32.821  1.00  0.00     0.004 C 
ENDBRANCH  15  16
ENDBRANCH  14  15
ENDBRANCH  13  14
ENDBRANCH  12  13
ENDBRANCH  11  12
ENDBRANCH  10  11
ENDBRANCH   1  10
TORSDOF 13
ENDMDL
MODEL 2
REMARK VINA RESULT:    -2.712      1.067      1.888
REMARK INTER + INTRA:          -6.826
REMARK INTER:                  -4.778
REMARK INTRA:                  -2.048
REMARK UNBOUND:                -2.052
REMARK SMILES CCCCCCCCCCCCCCC(=O)[O-]
REMARK SMILES IDX 9 1 10 2 11 3 12 4 13 5 14 6 15 7 16 8 17 9 8 10 7 11 6 12
REMARK SMILES IDX 5 13 4 14 3 15 2 16 1 17
REMARK H PARENT
REMARK Flexibility Score: inf
ROOT
ATOM      1  C   UNL     1      52.896  81.907  29.175  1.00  0.00     0.000 C 
ENDROOT
BRANCH   1   2
ATOM      2  C   UNL     1      52.009  81.555  30.382  1.00  0.00     0.000 C 
BRANCH   2   3
ATOM      3  C   UNL     1      51.796  82.751  31.324  1.00  0.00     0.000 C 
BRANCH   3   4
ATOM      4  C   UNL     1      51.479  84.053  30.568  1.00  0.00     0.000 C 
BRANCH   4   5
ATOM      5  C   UNL     1      50.139  84.672  30.997  1.00  0.00     0.006 C 
BRANCH   5   6
ATOM      6  C   UNL     1      49.305  83.727  31.869  1.00  0.00     0.053 C 
BRANCH   6   7
ATOM      7  C   UNL     1      49.074  84.328  33.219  1.00  0.00     0.041 C 
ATOM      8  O   UNL     1      49.943  85.078  33.737  1.00  0.00    -0.550 OA
ATOM      9  O   UNL     1      47.919  84.021  33.928  1.00  0.00    -0.550 OA
ENDBRANCH   6   7
ENDBRANCH   5   6
ENDBRANCH   4   5
ENDBRANCH   3   4
ENDBRANCH   2   3
ENDBRANCH   1   2
BRANCH   1  10
ATOM     10  C   UNL     1      54.141  81.011  29.078  1.00  0.00     0.000 C 
BRANCH  10  11
ATOM     11  C   UNL     1      55.445  81.819  28.943  1.00  0.00    -0.000 C 
BRANCH  11  12
ATOM     12  C   UNL     1      55.193  83.334  28.877  1.00  0.00    -0.000 C 
BRANCH  12  13
ATOM     13  C   UNL     1      56.226  84.140  29.685  1.00  0.00    -0.000 C 
BRANCH  13  14
ATOM     14  C   UNL     1      55.564  85.047  30.742  1.00  0.00    -0.000 C 
BRANCH  14  15
ATOM     15  C   UNL     1      54.948  84.284  31.930  1.00  0.00    -0.000 C 
BRANCH  15  16
ATOM     16  C   UNL     1      55.866  83.195  32.521  1.00  0.00    -0.003 C 
ATOM     17  C   UNL     1      55.177  81.834  32.610  1.00  0.00     0.004 C 
ENDBRANCH  15  16
ENDBRANCH  14  15
ENDBRANCH  13  14
ENDBRANCH  12  13
ENDBRANCH  11  12
ENDBRANCH  10  11
ENDBRANCH   1  10
TORSDOF 13
ENDMDL
MODEL 3
REMARK VINA RESULT:    -2.711      2.076      3.539
REMARK INTER + INTRA:          -6.823
REMARK INTER:                  -4.816
REMARK INTRA:                  -2.007
REMARK UNBOUND:                -2.052
REMARK SMILES CCCCCCCCCCCCCCC(=O)[O-]
REMARK SMILES IDX 9 1 10 2 11 3 12 4 13 5 14 6 15 7 16 8 17 9 8 10 7 11 6 12
REMARK SMILES IDX 5 13 4 14 3 15 2 16 1 17
REMARK H PARENT
REMARK Flexibility Score: inf
ROOT
ATOM      1  C   UNL     1      53.834  81.921  32.834  1.00  0.00     0.000 C 
ENDROOT
BRANCH   1   2
ATOM      2  C   UNL     1      52.937  82.609  31.790  1.00  0.00     0.000 C 
BRANCH   2   3
ATOM      3  C   UNL     1      52.140  83.783  32.382  1.00  0.00     0.000 C 
BRANCH   3   4
ATOM      4  C   UNL     1      51.905  84.913  31.364  1.00  0.00     0.000 C 
BRANCH   4   5
ATOM      5  C   UNL     1      52.293  84.508  29.934  1.00  0.00     0.006 C 
BRANCH   5   6
ATOM      6  C   UNL     1      51.115  84.595  28.955  1.00  0.00     0.053 C 
BRANCH   6   7
ATOM      7  C   UNL     1      50.085  83.562  29.285  1.00  0.00     0.041 C 
ATOM      8  O   UNL     1      50.401  82.344  29.334  1.00  0.00    -0.550 OA
ATOM      9  O   UNL     1      48.764  83.939  29.489  1.00  0.00    -0.550 OA
ENDBRANCH   6   7
ENDBRANCH   5   6
ENDBRANCH   4   5
ENDBRANCH   3   4
ENDBRANCH   2   3
ENDBRANCH   1   2
BRANCH   1  10
ATOM     10  C   UNL     1      55.328  82.013  32.479  1.00  0.00     0.000 C 
BRANCH  10  11
ATOM     11  C   UNL     1      55.927  83.396  32.791  1.00  0.00    -0.000 C 
BRANCH  11  12
ATOM     12  C   UNL     1      55.960  84.314  31.560  1.00  0.00    -0.000 C 
BRANCH  12  13
ATOM     13  C   UNL     1      57.139  84.002  30.621  1.00  0.00    -0.000 C 
BRANCH  13  14
ATOM     14  C   UNL     1      56.712  83.960  29.139  1.00  0.00    -0.000 C 
BRANCH  14  15
ATOM     15  C   UNL     1      55.430  83.147  28.876  1.00  0.00    -0.000 C 
BRANCH  15  16
ATOM     16  C   UNL     1      55.630  81.620  28.941  1.00  0.00    -0.003 C 
ATOM     17  C   UNL     1      54.310  80.853  28.877  1.00  0.00     0.004 C 
ENDBRANCH  15  16
ENDBRANCH  14  15
ENDBRANCH  13  14
ENDBRANCH  12  13
ENDBRANCH  11  12
ENDBRANCH  10  11
ENDBRANCH   1  10
TORSDOF 13
ENDMDL
MODEL 4
REMARK VINA RESULT:    -2.701      3.205      6.188
REMARK INTER + INTRA:          -6.806
REMARK INTER:                  -4.920
REMARK INTRA:                  -1.886
REMARK UNBOUND:                -2.052
REMARK SMILES CCCCCCCCCCCCCCC(=O)[O-]
REMARK SMILES IDX 9 1 10 2 11 3 12 4 13 5 14 6 15 7 16 8 17 9 8 10 7 11 6 12
REMARK SMILES IDX 5 13 4 14 3 15 2 16 1 17
REMARK H PARENT
REMARK Flexibility Score: inf
ROOT
ATOM      1  C   UNL     1      53.407  82.207  32.254  1.00  0.00     0.000 C 
ENDROOT
BRANCH   1   2
ATOM      2  C   UNL     1      54.893  81.883  32.487  1.00  0.00     0.000 C 
BRANCH   2   3
ATOM      3  C   UNL     1      55.757  83.148  32.618  1.00  0.00     0.000 C 
BRANCH   3   4
ATOM      4  C   UNL     1      55.069  84.399  32.044  1.00  0.00     0.000 C 
BRANCH   4   5
ATOM      5  C   UNL     1      55.815  84.978  30.832  1.00  0.00     0.006 C 
BRANCH   5   6
ATOM      6  C   UNL     1      55.445  84.275  29.520  1.00  0.00     0.053 C 
BRANCH   6   7
ATOM      7  C   UNL     1      56.458  83.228  29.185  1.00  0.00     0.041 C 
ATOM      8  O   UNL     1      56.128  82.013  29.152  1.00  0.00    -0.550 OA
ATOM      9  O   UNL     1      57.780  83.587  28.956  1.00  0.00    -0.550 OA
ENDBRANCH   6   7
ENDBRANCH   5   6
ENDBRANCH   4   5
ENDBRANCH   3   4
ENDBRANCH   2   3
ENDBRANCH   1   2
BRANCH   1  10
ATOM     10  C   UNL     1      52.778  81.331  31.158  1.00  0.00     0.000 C 
BRANCH  10  11
ATOM     11  C   UNL     1      52.437  82.127  29.886  1.00  0.00    -0.000 C 
BRANCH  11  12
ATOM     12  C   UNL     1      51.951  83.551  30.196  1.00  0.00    -0.000 C 
BRANCH  12  13
ATOM     13  C   UNL     1      50.493  83.786  29.762  1.00  0.00    -0.000 C 
BRANCH  13  14
ATOM     14  C   UNL     1      49.486  83.050  30.669  1.00  0.00    -0.000 C 
BRANCH  14  15
ATOM     15  C   UNL     1      49.736  83.248  32.177  1.00  0.00    -0.000 C 
BRANCH  15  16
ATOM     16  C   UNL     1      49.785  84.724  32.618  1.00  0.00    -0.003 C 
ATOM     17  C   UNL     1      51.118  85.099  33.264  1.00  0.00     0.004 C 
ENDBRANCH  15  16
ENDBRANCH  14  15
ENDBRANCH  13  14
ENDBRANCH  12  13
ENDBRANCH  11  12
ENDBRANCH  10  11
ENDBRANCH   1  10
TORSDOF 13
ENDMDL
MODEL 5
REMARK VINA RESULT:    -2.649      1.670      2.420
REMARK INTER + INTRA:          -6.714
REMARK INTER:                  -4.738
REMARK INTRA:                  -1.977
REMARK UNBOUND:                -2.052
REMARK SMILES CCCCCCCCCCCCCCC(=O)[O-]
REMARK SMILES IDX 9 1 10 2 11 3 12 4 13 5 14 6 15 7 16 8 17 9 8 10 7 11 6 12
REMARK SMILES IDX 5 13 4 14 3 15 2 16 1 17
REMARK H PARENT
REMARK Flexibility Score: inf
ROOT
ATOM      1  C   UNL     1      52.957  81.271  29.743  1.00  0.00     0.000 C 
ENDROOT
BRANCH   1   2
ATOM      2  C   UNL     1      52.033  82.417  29.297  1.00  0.00     0.000 C 
BRANCH   2   3
ATOM      3  C   UNL     1      52.780  83.753  29.153  1.00  0.00     0.000 C 
BRANCH   3   4
ATOM      4  C   UNL     1      51.884  84.969  29.447  1.00  0.00     0.000 C 
BRANCH   4   5
ATOM      5  C   UNL     1      50.422  84.574  29.708  1.00  0.00     0.006 C 
BRANCH   5   6
ATOM      6  C   UNL     1      49.928  85.020  31.090  1.00  0.00     0.053 C 
BRANCH   6   7
ATOM      7  C   UNL     1      50.516  84.155  32.159  1.00  0.00     0.041 C 
ATOM      8  O   UNL     1      51.353  84.631  32.971  1.00  0.00    -0.550 OA
ATOM      9  O   UNL     1      50.177  82.810  32.230  1.00  0.00    -0.550 OA
ENDBRANCH   6   7
ENDBRANCH   5   6
ENDBRANCH   4   5
ENDBRANCH   3   4
ENDBRANCH   2   3
ENDBRANCH   1   2
BRANCH   1  10
ATOM     10  C   UNL     1      54.424  81.508  29.347  1.00  0.00     0.000 C 
BRANCH  10  11
ATOM     11  C   UNL     1      55.374  81.498  30.558  1.00  0.00    -0.000 C 
BRANCH  11  12
ATOM     12  C   UNL     1      54.639  81.747  31.885  1.00  0.00    -0.000 C 
BRANCH  12  13
ATOM     13  C   UNL     1      54.642  83.230  32.293  1.00  0.00    -0.000 C 
BRANCH  13  14
ATOM     14  C   UNL     1      55.919  83.962  31.831  1.00  0.00    -0.000 C 
BRANCH  14  15
ATOM     15  C   UNL     1      55.659  85.125  30.854  1.00  0.00    -0.000 C 
BRANCH  15  16
ATOM     16  C   UNL     1      56.428  85.010  29.523  1.00  0.00    -0.003 C 
ATOM     17  C   UNL     1      57.855  84.496  29.712  1.00  0.00     0.004 C 
ENDBRANCH  15  16
ENDBRANCH  14  15
ENDBRANCH  13  14
ENDBRANCH  12  13
ENDBRANCH  11  12
ENDBRANCH  10  11
ENDBRANCH   1  10
TORSDOF 13
ENDMDL
MODEL 6
REMARK VINA RESULT:    -2.634      1.660      2.102
REMARK INTER + INTRA:          -6.688
REMARK INTER:                  -5.055
REMARK INTRA:                  -1.633
REMARK UNBOUND:                -2.052
REMARK SMILES CCCCCCCCCCCCCCC(=O)[O-]
REMARK SMILES IDX 9 1 10 2 11 3 12 4 13 5 14 6 15 7 16 8 17 9 8 10 7 11 6 12
REMARK SMILES IDX 5 13 4 14 3 15 2 16 1 17
REMARK H PARENT
REMARK Flexibility Score: inf
ROOT
ATOM      1  C   UNL     1      52.840  81.799  31.806  1.00  0.00     0.000 C 
ENDROOT
BRANCH   1   2
ATOM      2  C   UNL     1      52.252  83.147  32.256  1.00  0.00     0.000 C 
BRANCH   2   3
ATOM      3  C   UNL     1      52.290  84.207  31.142  1.00  0.00     0.000 C 
BRANCH   3   4
ATOM      4  C   UNL     1      50.991  85.028  31.060  1.00  0.00     0.000 C 
BRANCH   4   5
ATOM      5  C   UNL     1      50.046  84.756  32.241  1.00  0.00     0.006 C 
BRANCH   5   6
ATOM      6  C   UNL     1      48.580  84.632  31.808  1.00  0.00     0.053 C 
BRANCH   6   7
ATOM      7  C   UNL     1      48.463  83.749  30.606  1.00  0.00     0.041 C 
ATOM      8  O   UNL     1      47.954  84.190  29.542  1.00  0.00    -0.550 OA
ATOM      9  O   UNL     1      48.872  82.424  30.676  1.00  0.00    -0.550 OA
ENDBRANCH   6   7
ENDBRANCH   5   6
ENDBRANCH   4   5
ENDBRANCH   3   4
ENDBRANCH   2   3
ENDBRANCH   1   2
BRANCH   1  10
ATOM     10  C   UNL     1      52.267  81.326  30.460  1.00  0.00     0.000 C 
BRANCH  10  11
ATOM     11  C   UNL     1      53.356  80.828  29.493  1.00  0.00    -0.000 C 
BRANCH  11  12
ATOM     12  C   UNL     1      54.249  81.968  28.977  1.00  0.00    -0.000 C 
BRANCH  12  13
ATOM     13  C   UNL     1      55.660  81.937  29.589  1.00  0.00    -0.000 C 
BRANCH  13  14
ATOM     14  C   UNL     1      56.492  83.178  29.206  1.00  0.00    -0.000 C 
BRANCH  14  15
ATOM     15  C   UNL     1      56.992  83.997  30.412  1.00  0.00    -0.000 C 
BRANCH  15  16
ATOM     16  C   UNL     1      55.899  84.315  31.451  1.00  0.00    -0.003 C 
ATOM     17  C   UNL     1      56.146  83.623  32.792  1.00  0.00     0.004 C 
ENDBRANCH  15  16
ENDBRANCH  14  15
ENDBRANCH  13  14
ENDBRANCH  12  13
ENDBRANCH  11  12
ENDBRANCH  10  11
ENDBRANCH   1  10
TORSDOF 13
ENDMDL
MODEL 7
REMARK VINA RESULT:    -2.587      1.282      3.044
REMARK INTER + INTRA:          -6.605
REMARK INTER:                  -5.027
REMARK INTRA:                  -1.577
REMARK UNBOUND:                -2.052
REMARK SMILES CCCCCCCCCCCCCCC(=O)[O-]
REMARK SMILES IDX 9 1 10 2 11 3 12 4 13 5 14 6 15 7 16 8 17 9 8 10 7 11 6 12
REMARK SMILES IDX 5 13 4 14 3 15 2 16 1 17
REMARK H PARENT
REMARK Flexibility Score: inf
ROOT
ATOM      1  C   UNL     1      54.772  82.092  32.399  1.00  0.00     0.000 C 
ENDROOT
BRANCH   1   2
ATOM      2  C   UNL     1      53.327  82.592  32.570  1.00  0.00     0.000 C 
BRANCH   2   3
ATOM      3  C   UNL     1      52.301  81.673  31.886  1.00  0.00     0.000 C 
BRANCH   3   4
ATOM      4  C   UNL     1      51.418  82.421  30.872  1.00  0.00     0.000 C 
BRANCH   4   5
ATOM      5  C   UNL     1      51.302  83.921  31.185  1.00  0.00     0.006 C 
BRANCH   5   6
ATOM      6  C   UNL     1      50.320  84.211  32.326  1.00  0.00     0.053 C 
BRANCH   6   7
ATOM      7  C   UNL     1      48.920  83.897  31.903  1.00  0.00     0.041 C 
ATOM      8  O   UNL     1      48.575  84.033  30.700  1.00  0.00    -0.550 OA
ATOM      9  O   UNL     1      47.981  83.503  32.848  1.00  0.00    -0.550 OA
ENDBRANCH   6   7
ENDBRANCH   5   6
ENDBRANCH   4   5
ENDBRANCH   3   4
ENDBRANCH   2   3
ENDBRANCH   1   2
BRANCH   1  10
ATOM     10  C   UNL     1      55.812  83.187  32.686  1.00  0.00     0.000 C 
BRANCH  10  11
ATOM     11  C   UNL     1      55.307  84.595  32.321  1.00  0.00    -0.000 C 
BRANCH  11  12
ATOM     12  C   UNL     1      55.510  84.924  30.833  1.00  0.00    -0.000 C 
BRANCH  12  13
ATOM     13  C   UNL     1      56.966  84.720  30.376  1.00  0.00    -0.000 C 
BRANCH  13  14
ATOM     14  C   UNL     1      57.086  83.663  29.259  1.00  0.00    -0.000 C 
BRANCH  14  15
ATOM     15  C   UNL     1      55.750  82.996  28.877  1.00  0.00    -0.000 C 
BRANCH  15  16
ATOM     16  C   UNL     1      55.712  81.476  29.128  1.00  0.00    -0.003 C 
ATOM     17  C   UNL     1      54.325  80.878  28.898  1.00  0.00     0.004 C 
ENDBRANCH  15  16
ENDBRANCH  14  15
ENDBRANCH  13  14
ENDBRANCH  12  13
ENDBRANCH  11  12
ENDBRANCH  10  11
ENDBRANCH   1  10
TORSDOF 13
ENDMDL
MODEL 8
REMARK VINA RESULT:    -2.570      2.885      6.099
REMARK INTER + INTRA:          -6.574
REMARK INTER:                  -4.763
REMARK INTRA:                  -1.812
REMARK UNBOUND:                -2.052
REMARK SMILES CCCCCCCCCCCCCCC(=O)[O-]
REMARK SMILES IDX 9 1 10 2 11 3 12 4 13 5 14 6 15 7 16 8 17 9 8 10 7 11 6 12
REMARK SMILES IDX 5 13 4 14 3 15 2 16 1 17
REMARK H PARENT
REMARK Flexibility Score: inf
ROOT
ATOM      1  C   UNL     1      55.032  82.089  32.250  1.00  0.00     0.000 C 
ENDROOT
BRANCH   1   2
ATOM      2  C   UNL     1      55.652  83.485  32.436  1.00  0.00     0.000 C 
BRANCH   2   3
ATOM      3  C   UNL     1      56.504  83.916  31.232  1.00  0.00     0.000 C 
BRANCH   3   4
ATOM      4  C   UNL     1      55.703  84.725  30.196  1.00  0.00     0.000 C 
BRANCH   4   5
ATOM      5  C   UNL     1      55.479  83.950  28.888  1.00  0.00     0.006 C 
BRANCH   5   6
ATOM      6  C   UNL     1      54.236  83.053  28.939  1.00  0.00     0.053 C 
BRANCH   6   7
ATOM      7  C   UNL     1      54.631  81.611  28.937  1.00  0.00     0.041 C 
ATOM      8  O   UNL     1      55.846  81.286  28.875  1.00  0.00    -0.550 OA
ATOM      9  O   UNL     1      53.655  80.623  28.954  1.00  0.00    -0.550 OA
ENDBRANCH   6   7
ENDBRANCH   5   6
ENDBRANCH   4   5
ENDBRANCH   3   4
ENDBRANCH   2   3
ENDBRANCH   1   2
BRANCH   1  10
ATOM     10  C   UNL     1      53.517  82.078  32.512  1.00  0.00     0.000 C 
BRANCH  10  11
ATOM     11  C   UNL     1      52.879  83.471  32.365  1.00  0.00    -0.000 C 
BRANCH  11  12
ATOM     12  C   UNL     1      51.425  83.403  31.872  1.00  0.00    -0.000 C 
BRANCH  12  13
ATOM     13  C   UNL     1      51.154  82.161  31.003  1.00  0.00    -0.000 C 
BRANCH  13  14
ATOM     14  C   UNL     1      50.650  82.532  29.593  1.00  0.00    -0.000 C 
BRANCH  14  15
ATOM     15  C   UNL     1      50.451  84.044  29.374  1.00  0.00    -0.000 C 
BRANCH  15  16
ATOM     16  C   UNL     1      48.984  84.457  29.139  1.00  0.00    -0.003 C 
ATOM     17  C   UNL     1      48.065  84.029  30.282  1.00  0.00     0.004 C 
ENDBRANCH  15  16
ENDBRANCH  14  15
ENDBRANCH  13  14
ENDBRANCH  12  13
ENDBRANCH  11  12
ENDBRANCH  10  11
ENDBRANCH   1  10
TORSDOF 13
ENDMDL
MODEL 9
REMARK VINA RESULT:    -2.547      1.427      3.239
REMARK INTER + INTRA:          -6.534
REMARK INTER:                  -4.937
REMARK INTRA:                  -1.597
REMARK UNBOUND:                -2.052
REMARK SMILES CCCCCCCCCCCCCCC(=O)[O-]
REMARK SMILES IDX 9 1 10 2 11 3 12 4 13 5 14 6 15 7 16 8 17 9 8 10 7 11 6 12
REMARK SMILES IDX 5 13 4 14 3 15 2 16 1 17
REMARK H PARENT
REMARK Flexibility Score: inf
ROOT
ATOM      1  C   UNL     1      54.450  83.741  32.083  1.00  0.00     0.000 C 
ENDROOT
BRANCH   1   2
ATOM      2  C   UNL     1      53.677  85.004  32.502  1.00  0.00     0.000 C 
BRANCH   2   3
ATOM      3  C   UNL     1      52.194  84.946  32.101  1.00  0.00     0.000 C 
BRANCH   3   4
ATOM      4  C   UNL     1      51.994  84.592  30.616  1.00  0.00     0.000 C 
BRANCH   4   5
ATOM      5  C   UNL     1      51.131  83.336  30.421  1.00  0.00     0.006 C 
BRANCH   5   6
ATOM      6  C   UNL     1      50.531  82.823  31.736  1.00  0.00     0.053 C 
BRANCH   6   7
ATOM      7  C   UNL     1      49.099  83.238  31.854  1.00  0.00     0.041 C 
ATOM      8  O   UNL     1      48.407  83.433  30.820  1.00  0.00    -0.550 OA
ATOM      9  O   UNL     1      48.541  83.459  33.107  1.00  0.00    -0.550 OA
ENDBRANCH   6   7
ENDBRANCH   5   6
ENDBRANCH   4   5
ENDBRANCH   3   4
ENDBRANCH   2   3
ENDBRANCH   1   2
BRANCH   1  10
ATOM     10  C   UNL     1      55.941  83.815  32.450  1.00  0.00     0.000 C 
BRANCH  10  11
ATOM     11  C   UNL     1      56.845  84.024  31.222  1.00  0.00    -0.000 C 
BRANCH  11  12
ATOM     12  C   UNL     1      56.150  84.826  30.111  1.00  0.00    -0.000 C 
BRANCH  12  13
ATOM     13  C   UNL     1      55.828  83.967  28.875  1.00  0.00    -0.000 C 
BRANCH  13  14
ATOM     14  C   UNL     1      56.557  82.607  28.901  1.00  0.00    -0.000 C 
BRANCH  14  15
ATOM     15  C   UNL     1      55.621  81.395  29.070  1.00  0.00    -0.000 C 
BRANCH  15  16
ATOM     16  C   UNL     1      54.124  81.732  28.927  1.00  0.00    -0.003 C 
ATOM     17  C   UNL     1      53.223  80.529  29.205  1.00  0.00     0.004 C 
ENDBRANCH  15  16
ENDBRANCH  14  15
ENDBRANCH  13  14
ENDBRANCH  12  13
ENDBRANCH  11  12
ENDBRANCH  10  11
ENDBRANCH   1  10
TORSDOF 13
ENDMDL
