MODEL 1
REMARK VINA RESULT:    -2.151      0.000      0.000
REMARK INTER + INTRA:          -2.705
REMARK INTER:                  -2.528
REMARK INTRA:                  -0.177
REMARK UNBOUND:                -0.177
REMARK SMILES O=c1c(O)c(-c2ccc(O)cc2)oc2cc(O)cc(O)c12
REMARK SMILES IDX 5 1 3 2 2 3 1 4 21 5 19 6 18 7 16 8 15 9 14 10 13 11 6 12
REMARK SMILES IDX 7 13 8 14 9 15 12 16 11 17 10 18 4 20 20 22 17 24
REMARK H PARENT 10 19 4 21 20 23 17 25
REMARK Flexibility Score: inf
ROOT
ATOM      1  C   UNL     1      19.627  12.767  -9.625  1.00  0.00     0.180 A 
ATOM      2  C   UNL     1      20.895  12.620 -10.213  1.00  0.00     0.208 A 
ATOM      3  C   UNL     1      21.695  11.527  -9.841  1.00  0.00     0.238 A 
ATOM      4  O   UNL     1      22.850  11.430 -10.332  1.00  0.00    -0.285 OA
ATOM      5  C   UNL     1      21.211  10.588  -8.899  1.00  0.00     0.111 A 
ATOM      6  C   UNL     1      21.920   9.422  -8.481  1.00  0.00     0.134 A 
ATOM      7  C   UNL     1      21.402   8.633  -7.446  1.00  0.00     0.093 A 
ATOM      8  C   UNL     1      20.171   8.930  -6.861  1.00  0.00     0.123 A 
ATOM      9  C   UNL     1      19.442  10.034  -7.305  1.00  0.00     0.094 A 
ATOM     10  C   UNL     1      19.950  10.860  -8.310  1.00  0.00     0.146 A 
ATOM     11  O   UNL     1      19.229  11.907  -8.696  1.00  0.00    -0.452 OA
ENDROOT
BRANCH   1  12
ATOM     12  C   UNL     1      18.717  13.879  -9.983  1.00  0.00     0.021 A 
ATOM     13  C   UNL     1      19.002  15.207  -9.618  1.00  0.00     0.016 A 
ATOM     14  C   UNL     1      18.140  16.243  -9.989  1.00  0.00     0.047 A 
ATOM     15  C   UNL     1      16.991  15.968 -10.741  1.00  0.00     0.115 A 
ATOM     16  C   UNL     1      17.573  13.615 -10.756  1.00  0.00     0.016 A 
ATOM     17  C   UNL     1      16.712  14.653 -11.125  1.00  0.00     0.047 A 
BRANCH  15  18
ATOM     18  O   UNL     1      16.124  16.992 -11.116  1.00  0.00    -0.508 OA
ATOM     19  H   UNL     1      16.410  17.965 -11.085  1.00  0.00     0.293 HD
ENDBRANCH  15  18
ENDBRANCH   1  12
BRANCH   2  20
ATOM     20  O   UNL     1      21.362  13.571 -11.125  1.00  0.00    -0.502 OA
ATOM     21  H   UNL     1      21.637  13.329 -12.069  1.00  0.00     0.293 HD
ENDBRANCH   2  20
BRANCH   6  22
ATOM     22  O   UNL     1      23.114   8.984  -9.061  1.00  0.00    -0.507 OA
ATOM     23  H   UNL     1      24.018   9.028  -8.617  1.00  0.00     0.293 HD
ENDBRANCH   6  22
BRANCH   8  24
ATOM     24  O   UNL     1      19.678   8.113  -5.845  1.00  0.00    -0.508 OA
ATOM     25  H   UNL     1      19.018   7.369  -6.038  1.00  0.00     0.293 HD
ENDBRANCH   8  24
TORSDOF 5
ENDMDL
