MODEL 1
REMARK VINA RESULT:    -7.308      0.000      0.000
REMARK INTER + INTRA:         -10.721
REMARK INTER:                  -9.657
REMARK INTRA:                  -1.063
REMARK UNBOUND:                -1.063
REMARK SMILES CC[C@@H](C=C[C@H](C)[C@@H]1CC[C@@H]2C3=CC[C@@H]4C[C@@H](O)CC[C@@]4(C)[C@H]3CC[C@@]21C)C(C)C
REMARK SMILES IDX 6 1 7 2 5 3 4 4 3 5 2 6 1 7 28 8 29 9 30 10 8 11 9 12 26 13
REMARK SMILES IDX 10 14 11 15 25 16 27 17 12 18 24 19 23 20 13 21 21 22 14 23
REMARK SMILES IDX 15 24 20 25 22 26 16 27 19 28 17 29 18 30
REMARK H PARENT 18 31
REMARK Flexibility Score: inf
ROOT
ATOM      1  C   UNL     1     142.125 135.051 148.195  1.00  0.00     0.012 C 
ATOM      2  C   UNL     1     141.318 134.848 146.899  1.00  0.00     0.012 C 
ENDROOT
BRANCH   1   3
ATOM      3  C   UNL     1     141.207 134.910 149.392  1.00  0.00    -0.028 C 
ATOM      4  C   UNL     1     140.270 133.953 149.542  1.00  0.00    -0.027 C 
BRANCH   4   5
ATOM      5  C   UNL     1     139.441 133.786 150.814  1.00  0.00     0.014 C 
BRANCH   5   6
ATOM      6  C   UNL     1     140.226 133.068 151.956  1.00  0.00     0.004 C 
ATOM      7  C   UNL     1     141.374 132.179 151.447  1.00  0.00     0.004 C 
ENDBRANCH   5   6
BRANCH   5   8
ATOM      8  C   UNL     1     138.048 133.171 150.448  1.00  0.00    -0.011 C 
ATOM      9  C   UNL     1     137.905 131.693 150.841  1.00  0.00     0.008 C 
ATOM     10  C   UNL     1     137.634 133.378 148.976  1.00  0.00     0.008 C 
ENDBRANCH   5   8
ENDBRANCH   4   5
ENDBRANCH   1   3
BRANCH   1  11
ATOM     11  C   UNL     1     143.489 134.285 148.267  1.00  0.00     0.002 C 
ATOM     12  C   UNL     1     143.959 134.066 149.717  1.00  0.00     0.005 C 
ATOM     13  C   UNL     1     144.754 134.738 147.431  1.00  0.00    -0.023 C 
ATOM     14  C   UNL     1     145.332 134.686 149.832  1.00  0.00     0.009 C 
ATOM     15  C   UNL     1     145.924 134.563 148.438  1.00  0.00     0.021 C 
ATOM     16  C   UNL     1     144.733 136.183 146.813  1.00  0.00     0.008 C 
ATOM     17  C   UNL     1     144.985 133.740 146.255  1.00  0.00     0.012 C 
ATOM     18  C   UNL     1     147.058 135.538 148.235  1.00  0.00    -0.067 C 
ATOM     19  C   UNL     1     145.292 137.290 147.727  1.00  0.00     0.009 C 
ATOM     20  C   UNL     1     146.776 137.040 148.131  1.00  0.00     0.021 C 
ATOM     21  C   UNL     1     148.322 135.058 148.204  1.00  0.00    -0.027 C 
ATOM     22  C   UNL     1     147.933 137.902 147.390  1.00  0.00    -0.023 C 
ATOM     23  C   UNL     1     149.481 135.913 147.806  1.00  0.00     0.031 C 
ATOM     24  C   UNL     1     149.000 136.931 146.775  1.00  0.00     0.002 C 
ATOM     25  C   UNL     1     147.417 138.767 146.194  1.00  0.00     0.010 C 
ATOM     26  C   UNL     1     148.613 138.878 148.438  1.00  0.00     0.012 C 
ATOM     27  C   UNL     1     150.191 137.609 146.048  1.00  0.00     0.036 C 
ATOM     28  C   UNL     1     148.520 139.395 145.286  1.00  0.00     0.032 C 
ATOM     29  C   UNL     1     149.973 139.104 145.726  1.00  0.00     0.114 C 
BRANCH  29  30
ATOM     30  O   UNL     1     150.860 139.502 144.712  1.00  0.00    -0.393 OA
ATOM     31  H   UNL     1     151.315 140.327 145.052  1.00  0.00     0.210 HD
ENDBRANCH  29  30
ENDBRANCH   1  11
TORSDOF 6
ENDMDL
MODEL 2
REMARK VINA RESULT:    -7.107      2.809      4.342
REMARK INTER + INTRA:         -10.455
REMARK INTER:                  -9.513
REMARK INTRA:                  -0.943
REMARK UNBOUND:                -1.063
REMARK SMILES CC[C@@H](C=C[C@H](C)[C@@H]1CC[C@@H]2C3=CC[C@@H]4C[C@@H](O)CC[C@@]4(C)[C@H]3CC[C@@]21C)C(C)C
REMARK SMILES IDX 6 1 7 2 5 3 4 4 3 5 2 6 1 7 28 8 29 9 30 10 8 11 9 12 26 13
REMARK SMILES IDX 10 14 11 15 25 16 27 17 12 18 24 19 23 20 13 21 21 22 14 23
REMARK SMILES IDX 15 24 20 25 22 26 16 27 19 28 17 29 18 30
REMARK H PARENT 18 31
REMARK Flexibility Score: inf
ROOT
ATOM      1  C   UNL     1     143.511 135.222 147.452  1.00  0.00     0.012 C 
ATOM      2  C   UNL     1     144.115 133.938 146.853  1.00  0.00     0.012 C 
ENDROOT
BRANCH   1   3
ATOM      3  C   UNL     1     142.757 134.884 148.722  1.00  0.00    -0.028 C 
ATOM      4  C   UNL     1     142.083 133.738 148.941  1.00  0.00    -0.027 C 
BRANCH   4   5
ATOM      5  C   UNL     1     141.426 133.396 150.278  1.00  0.00     0.014 C 
BRANCH   5   6
ATOM      6  C   UNL     1     141.729 131.938 150.744  1.00  0.00     0.004 C 
ATOM      7  C   UNL     1     142.431 131.865 152.112  1.00  0.00     0.004 C 
ENDBRANCH   5   6
BRANCH   5   8
ATOM      8  C   UNL     1     139.913 133.801 150.231  1.00  0.00    -0.011 C 
ATOM      9  C   UNL     1     139.127 133.389 151.484  1.00  0.00     0.008 C 
ATOM     10  C   UNL     1     139.175 133.338 148.957  1.00  0.00     0.008 C 
ENDBRANCH   5   8
ENDBRANCH   4   5
ENDBRANCH   1   3
BRANCH   1  11
ATOM     11  C   UNL     1     144.477 136.453 147.521  1.00  0.00     0.002 C 
ATOM     12  C   UNL     1     145.241 136.670 146.202  1.00  0.00     0.005 C 
ATOM     13  C   UNL     1     145.518 136.640 148.698  1.00  0.00    -0.023 C 
ATOM     14  C   UNL     1     146.713 136.638 146.536  1.00  0.00     0.009 C 
ATOM     15  C   UNL     1     146.792 137.147 147.965  1.00  0.00     0.021 C 
ATOM     16  C   UNL     1     145.827 135.389 149.597  1.00  0.00     0.008 C 
ATOM     17  C   UNL     1     145.031 137.777 149.647  1.00  0.00     0.012 C 
ATOM     18  C   UNL     1     148.084 136.734 148.626  1.00  0.00    -0.067 C 
ATOM     19  C   UNL     1     146.979 134.496 149.097  1.00  0.00     0.009 C 
ATOM     20  C   UNL     1     148.330 135.267 148.992  1.00  0.00     0.021 C 
ATOM     21  C   UNL     1     149.031 137.677 148.834  1.00  0.00    -0.027 C 
ATOM     22  C   UNL     1     149.446 135.028 150.144  1.00  0.00    -0.023 C 
ATOM     23  C   UNL     1     150.247 137.404 149.659  1.00  0.00     0.031 C 
ATOM     24  C   UNL     1     149.876 136.407 150.753  1.00  0.00     0.002 C 
ATOM     25  C   UNL     1     148.943 134.175 151.353  1.00  0.00     0.010 C 
ATOM     26  C   UNL     1     150.699 134.287 149.515  1.00  0.00     0.012 C 
ATOM     27  C   UNL     1     150.963 136.347 151.860  1.00  0.00     0.036 C 
ATOM     28  C   UNL     1     149.880 134.147 152.600  1.00  0.00     0.032 C 
ATOM     29  C   UNL     1     151.199 134.937 152.445  1.00  0.00     0.114 C 
BRANCH  29  30
ATOM     30  O   UNL     1     151.833 135.046 153.693  1.00  0.00    -0.393 OA
ATOM     31  H   UNL     1     152.202 135.977 153.735  1.00  0.00     0.210 HD
ENDBRANCH  29  30
ENDBRANCH   1  11
TORSDOF 6
ENDMDL
MODEL 3
REMARK VINA RESULT:    -6.856      2.673      4.883
REMARK INTER + INTRA:         -10.123
REMARK INTER:                  -8.297
REMARK INTRA:                  -1.826
REMARK UNBOUND:                -1.063
REMARK SMILES CC[C@@H](C=C[C@H](C)[C@@H]1CC[C@@H]2C3=CC[C@@H]4C[C@@H](O)CC[C@@]4(C)[C@H]3CC[C@@]21C)C(C)C
REMARK SMILES IDX 6 1 7 2 5 3 4 4 3 5 2 6 1 7 28 8 29 9 30 10 8 11 9 12 26 13
REMARK SMILES IDX 10 14 11 15 25 16 27 17 12 18 24 19 23 20 13 21 21 22 14 23
REMARK SMILES IDX 15 24 20 25 22 26 16 27 19 28 17 29 18 30
REMARK H PARENT 18 31
REMARK Flexibility Score: inf
ROOT
ATOM      1  C   UNL     1     138.055 134.136 145.680  1.00  0.00     0.012 C 
ATOM      2  C   UNL     1     136.915 134.557 144.733  1.00  0.00     0.012 C 
ENDROOT
BRANCH   1   3
ATOM      3  C   UNL     1     137.495 133.284 146.801  1.00  0.00    -0.028 C 
ATOM      4  C   UNL     1     137.793 133.430 148.107  1.00  0.00    -0.027 C 
BRANCH   4   5
ATOM      5  C   UNL     1     137.122 132.618 149.214  1.00  0.00     0.014 C 
BRANCH   5   6
ATOM      6  C   UNL     1     137.716 132.914 150.626  1.00  0.00     0.004 C 
ATOM      7  C   UNL     1     139.065 133.654 150.582  1.00  0.00     0.004 C 
ENDBRANCH   5   6
BRANCH   5   8
ATOM      8  C   UNL     1     137.075 131.109 148.793  1.00  0.00    -0.011 C 
ATOM      9  C   UNL     1     135.977 130.305 149.505  1.00  0.00     0.008 C 
ATOM     10  C   UNL     1     138.431 130.381 148.902  1.00  0.00     0.008 C 
ENDBRANCH   5   8
ENDBRANCH   4   5
ENDBRANCH   1   3
BRANCH   1  11
ATOM     11  C   UNL     1     139.351 133.605 144.980  1.00  0.00     0.002 C 
ATOM     12  C   UNL     1     139.528 132.085 145.155  1.00  0.00     0.005 C 
ATOM     13  C   UNL     1     140.768 134.269 145.218  1.00  0.00    -0.023 C 
ATOM     14  C   UNL     1     140.874 131.871 145.804  1.00  0.00     0.009 C 
ATOM     15  C   UNL     1     141.717 133.043 145.330  1.00  0.00     0.021 C 
ATOM     16  C   UNL     1     140.917 135.231 146.451  1.00  0.00     0.008 C 
ATOM     17  C   UNL     1     141.183 135.077 143.952  1.00  0.00     0.012 C 
ATOM     18  C   UNL     1     142.904 133.268 146.236  1.00  0.00    -0.067 C 
ATOM     19  C   UNL     1     141.331 134.545 147.767  1.00  0.00     0.009 C 
ATOM     20  C   UNL     1     142.701 133.811 147.654  1.00  0.00     0.021 C 
ATOM     21  C   UNL     1     144.132 132.928 145.783  1.00  0.00    -0.027 C 
ATOM     22  C   UNL     1     144.009 134.511 148.310  1.00  0.00    -0.023 C 
ATOM     23  C   UNL     1     145.376 133.302 146.523  1.00  0.00     0.031 C 
ATOM     24  C   UNL     1     145.138 134.634 147.229  1.00  0.00     0.002 C 
ATOM     25  C   UNL     1     143.762 135.967 148.824  1.00  0.00     0.010 C 
ATOM     26  C   UNL     1     144.511 133.641 149.536  1.00  0.00     0.012 C 
ATOM     27  C   UNL     1     146.469 135.267 147.712  1.00  0.00     0.036 C 
ATOM     28  C   UNL     1     145.040 136.775 149.210  1.00  0.00     0.032 C 
ATOM     29  C   UNL     1     146.371 136.002 149.067  1.00  0.00     0.114 C 
BRANCH  29  30
ATOM     30  O   UNL     1     147.449 136.892 149.199  1.00  0.00    -0.393 OA
ATOM     31  H   UNL     1     148.039 136.731 148.406  1.00  0.00     0.210 HD
ENDBRANCH  29  30
ENDBRANCH   1  11
TORSDOF 6
ENDMDL
MODEL 4
REMARK VINA RESULT:    -6.659      5.470      9.350
REMARK INTER + INTRA:          -9.864
REMARK INTER:                  -7.975
REMARK INTRA:                  -1.889
REMARK UNBOUND:                -1.063
REMARK SMILES CC[C@@H](C=C[C@H](C)[C@@H]1CC[C@@H]2C3=CC[C@@H]4C[C@@H](O)CC[C@@]4(C)[C@H]3CC[C@@]21C)C(C)C
REMARK SMILES IDX 6 1 7 2 5 3 4 4 3 5 2 6 1 7 28 8 29 9 30 10 8 11 9 12 26 13
REMARK SMILES IDX 10 14 11 15 25 16 27 17 12 18 24 19 23 20 13 21 21 22 14 23
REMARK SMILES IDX 15 24 20 25 22 26 16 27 19 28 17 29 18 30
REMARK H PARENT 18 31
REMARK Flexibility Score: inf
ROOT
ATOM      1  C   UNL     1     138.459 132.586 142.796  1.00  0.00     0.012 C 
ATOM      2  C   UNL     1     137.902 131.985 141.492  1.00  0.00     0.012 C 
ENDROOT
BRANCH   1   3
ATOM      3  C   UNL     1     139.183 133.881 142.490  1.00  0.00    -0.028 C 
ATOM      4  C   UNL     1     140.473 134.135 142.786  1.00  0.00    -0.027 C 
BRANCH   4   5
ATOM      5  C   UNL     1     141.191 135.415 142.362  1.00  0.00     0.014 C 
BRANCH   5   6
ATOM      6  C   UNL     1     142.429 135.141 141.452  1.00  0.00     0.004 C 
ATOM      7  C   UNL     1     142.920 133.684 141.508  1.00  0.00     0.004 C 
ENDBRANCH   5   6
BRANCH   5   8
ATOM      8  C   UNL     1     141.453 136.306 143.625  1.00  0.00    -0.011 C 
ATOM      9  C   UNL     1     142.359 135.639 144.670  1.00  0.00     0.008 C 
ATOM     10  C   UNL     1     140.170 136.846 144.292  1.00  0.00     0.008 C 
ENDBRANCH   5   8
ENDBRANCH   4   5
ENDBRANCH   1   3
BRANCH   1  11
ATOM     11  C   UNL     1     137.464 132.612 144.006  1.00  0.00     0.002 C 
ATOM     12  C   UNL     1     136.798 133.989 144.185  1.00  0.00     0.005 C 
ATOM     13  C   UNL     1     137.878 132.104 145.447  1.00  0.00    -0.023 C 
ATOM     14  C   UNL     1     137.107 134.447 145.590  1.00  0.00     0.009 C 
ATOM     15  C   UNL     1     137.239 133.162 146.390  1.00  0.00     0.021 C 
ATOM     16  C   UNL     1     139.412 131.921 145.736  1.00  0.00     0.008 C 
ATOM     17  C   UNL     1     137.191 130.735 145.733  1.00  0.00     0.012 C 
ATOM     18  C   UNL     1     138.011 133.387 147.668  1.00  0.00    -0.067 C 
ATOM     19  C   UNL     1     140.126 133.173 146.280  1.00  0.00     0.009 C 
ATOM     20  C   UNL     1     139.514 133.675 147.623  1.00  0.00     0.021 C 
ATOM     21  C   UNL     1     137.332 133.383 148.838  1.00  0.00    -0.027 C 
ATOM     22  C   UNL     1     140.312 133.360 148.999  1.00  0.00    -0.023 C 
ATOM     23  C   UNL     1     138.035 133.392 150.157  1.00  0.00     0.031 C 
ATOM     24  C   UNL     1     139.354 132.637 150.008  1.00  0.00     0.002 C 
ATOM     25  C   UNL     1     141.534 132.401 148.823  1.00  0.00     0.010 C 
ATOM     26  C   UNL     1     140.846 134.718 149.620  1.00  0.00     0.012 C 
ATOM     27  C   UNL     1     139.967 132.288 151.390  1.00  0.00     0.036 C 
ATOM     28  C   UNL     1     142.162 131.854 150.143  1.00  0.00     0.032 C 
ATOM     29  C   UNL     1     141.508 132.374 151.443  1.00  0.00     0.114 C 
BRANCH  29  30
ATOM     30  O   UNL     1     141.984 131.635 152.538  1.00  0.00    -0.393 OA
ATOM     31  H   UNL     1     141.187 131.160 152.917  1.00  0.00     0.210 HD
ENDBRANCH  29  30
ENDBRANCH   1  11
TORSDOF 6
ENDMDL
MODEL 5
REMARK VINA RESULT:    -6.652      3.845      9.976
REMARK INTER + INTRA:          -9.854
REMARK INTER:                  -8.669
REMARK INTRA:                  -1.185
REMARK UNBOUND:                -1.063
REMARK SMILES CC[C@@H](C=C[C@H](C)[C@@H]1CC[C@@H]2C3=CC[C@@H]4C[C@@H](O)CC[C@@]4(C)[C@H]3CC[C@@]21C)C(C)C
REMARK SMILES IDX 6 1 7 2 5 3 4 4 3 5 2 6 1 7 28 8 29 9 30 10 8 11 9 12 26 13
REMARK SMILES IDX 10 14 11 15 25 16 27 17 12 18 24 19 23 20 13 21 21 22 14 23
REMARK SMILES IDX 15 24 20 25 22 26 16 27 19 28 17 29 18 30
REMARK H PARENT 18 31
REMARK Flexibility Score: inf
ROOT
ATOM      1  C   UNL     1     144.414 134.717 149.410  1.00  0.00     0.012 C 
ATOM      2  C   UNL     1     145.436 133.699 149.948  1.00  0.00     0.012 C 
ENDROOT
BRANCH   1   3
ATOM      3  C   UNL     1     145.033 136.100 149.397  1.00  0.00    -0.028 C 
ATOM      4  C   UNL     1     146.159 136.439 148.739  1.00  0.00    -0.027 C 
BRANCH   4   5
ATOM      5  C   UNL     1     146.687 137.871 148.667  1.00  0.00     0.014 C 
BRANCH   5   6
ATOM      6  C   UNL     1     146.157 138.649 147.421  1.00  0.00     0.004 C 
ATOM      7  C   UNL     1     145.862 137.742 146.213  1.00  0.00     0.004 C 
ENDBRANCH   5   6
BRANCH   5   8
ATOM      8  C   UNL     1     148.242 137.861 148.858  1.00  0.00    -0.011 C 
ATOM      9  C   UNL     1     148.955 139.028 148.158  1.00  0.00     0.008 C 
ATOM     10  C   UNL     1     148.914 136.522 148.490  1.00  0.00     0.008 C 
ENDBRANCH   5   8
ENDBRANCH   4   5
ENDBRANCH   1   3
BRANCH   1  11
ATOM     11  C   UNL     1     143.648 134.284 148.114  1.00  0.00     0.002 C 
ATOM     12  C   UNL     1     143.053 135.486 147.358  1.00  0.00     0.005 C 
ATOM     13  C   UNL     1     142.544 133.150 148.129  1.00  0.00    -0.023 C 
ATOM     14  C   UNL     1     141.569 135.235 147.234  1.00  0.00     0.009 C 
ATOM     15  C   UNL     1     141.438 133.722 147.199  1.00  0.00     0.021 C 
ATOM     16  C   UNL     1     141.963 132.725 149.526  1.00  0.00     0.008 C 
ATOM     17  C   UNL     1     143.111 131.862 147.457  1.00  0.00     0.012 C 
ATOM     18  C   UNL     1     140.041 133.283 147.566  1.00  0.00    -0.067 C 
ATOM     19  C   UNL     1     140.738 133.533 149.995  1.00  0.00     0.009 C 
ATOM     20  C   UNL     1     139.539 133.429 149.006  1.00  0.00     0.021 C 
ATOM     21  C   UNL     1     139.237 132.812 146.586  1.00  0.00    -0.027 C 
ATOM     22  C   UNL     1     138.297 132.462 149.397  1.00  0.00    -0.023 C 
ATOM     23  C   UNL     1     137.922 132.168 146.887  1.00  0.00     0.031 C 
ATOM     24  C   UNL     1     138.031 131.449 148.230  1.00  0.00     0.002 C 
ATOM     25  C   UNL     1     138.548 131.582 150.665  1.00  0.00     0.010 C 
ATOM     26  C   UNL     1     137.008 133.345 149.666  1.00  0.00     0.012 C 
ATOM     27  C   UNL     1     136.851 130.465 148.445  1.00  0.00     0.036 C 
ATOM     28  C   UNL     1     137.506 130.449 150.921  1.00  0.00     0.032 C 
ATOM     29  C   UNL     1     136.345 130.385 149.902  1.00  0.00     0.114 C 
BRANCH  29  30
ATOM     30  O   UNL     1     135.623 129.195 150.086  1.00  0.00    -0.393 OA
ATOM     31  H   UNL     1     135.439 129.132 151.069  1.00  0.00     0.210 HD
ENDBRANCH  29  30
ENDBRANCH   1  11
TORSDOF 6
ENDMDL
MODEL 6
REMARK VINA RESULT:    -6.549      4.973      7.859
REMARK INTER + INTRA:          -9.718
REMARK INTER:                  -8.214
REMARK INTRA:                  -1.504
REMARK UNBOUND:                -1.063
REMARK SMILES CC[C@@H](C=C[C@H](C)[C@@H]1CC[C@@H]2C3=CC[C@@H]4C[C@@H](O)CC[C@@]4(C)[C@H]3CC[C@@]21C)C(C)C
REMARK SMILES IDX 6 1 7 2 5 3 4 4 3 5 2 6 1 7 28 8 29 9 30 10 8 11 9 12 26 13
REMARK SMILES IDX 10 14 11 15 25 16 27 17 12 18 24 19 23 20 13 21 21 22 14 23
REMARK SMILES IDX 15 24 20 25 22 26 16 27 19 28 17 29 18 30
REMARK H PARENT 18 31
REMARK Flexibility Score: inf
ROOT
ATOM      1  C   UNL     1     142.058 140.014 141.564  1.00  0.00     0.012 C 
ATOM      2  C   UNL     1     141.438 140.110 140.158  1.00  0.00     0.012 C 
ENDROOT
BRANCH   1   3
ATOM      3  C   UNL     1     141.774 141.288 142.333  1.00  0.00    -0.028 C 
ATOM      4  C   UNL     1     142.581 141.824 143.270  1.00  0.00    -0.027 C 
BRANCH   4   5
ATOM      5  C   UNL     1     142.305 143.168 143.942  1.00  0.00     0.014 C 
BRANCH   5   6
ATOM      6  C   UNL     1     143.454 144.201 143.723  1.00  0.00     0.004 C 
ATOM      7  C   UNL     1     143.837 144.387 142.244  1.00  0.00     0.004 C 
ENDBRANCH   5   6
BRANCH   5   8
ATOM      8  C   UNL     1     141.876 142.925 145.429  1.00  0.00    -0.011 C 
ATOM      9  C   UNL     1     140.601 143.681 145.833  1.00  0.00     0.008 C 
ATOM     10  C   UNL     1     142.998 143.176 146.459  1.00  0.00     0.008 C 
ENDBRANCH   5   8
ENDBRANCH   4   5
ENDBRANCH   1   3
BRANCH   1  11
ATOM     11  C   UNL     1     141.801 138.669 142.324  1.00  0.00     0.002 C 
ATOM     12  C   UNL     1     140.752 138.821 143.442  1.00  0.00     0.005 C 
ATOM     13  C   UNL     1     142.983 137.795 142.912  1.00  0.00    -0.023 C 
ATOM     14  C   UNL     1     141.410 138.376 144.726  1.00  0.00     0.009 C 
ATOM     15  C   UNL     1     142.433 137.339 144.292  1.00  0.00     0.021 C 
ATOM     16  C   UNL     1     144.390 138.480 143.046  1.00  0.00     0.008 C 
ATOM     17  C   UNL     1     143.175 136.522 142.032  1.00  0.00     0.012 C 
ATOM     18  C   UNL     1     143.499 137.146 145.343  1.00  0.00    -0.067 C 
ATOM     19  C   UNL     1     144.637 139.204 144.384  1.00  0.00     0.009 C 
ATOM     20  C   UNL     1     144.529 138.248 145.610  1.00  0.00     0.021 C 
ATOM     21  C   UNL     1     143.486 136.006 146.071  1.00  0.00    -0.027 C 
ATOM     22  C   UNL     1     145.898 137.746 146.320  1.00  0.00    -0.023 C 
ATOM     23  C   UNL     1     144.612 135.640 146.982  1.00  0.00     0.031 C 
ATOM     24  C   UNL     1     145.911 136.179 146.388  1.00  0.00     0.002 C 
ATOM     25  C   UNL     1     147.198 138.142 145.550  1.00  0.00     0.010 C 
ATOM     26  C   UNL     1     145.990 138.362 147.778  1.00  0.00     0.012 C 
ATOM     27  C   UNL     1     147.153 135.543 147.066  1.00  0.00     0.036 C 
ATOM     28  C   UNL     1     148.512 137.456 146.039  1.00  0.00     0.032 C 
ATOM     29  C   UNL     1     148.344 136.510 147.249  1.00  0.00     0.114 C 
BRANCH  29  30
ATOM     30  O   UNL     1     149.524 135.772 147.438  1.00  0.00    -0.393 OA
ATOM     31  H   UNL     1     149.246 134.809 147.467  1.00  0.00     0.210 HD
ENDBRANCH  29  30
ENDBRANCH   1  11
TORSDOF 6
ENDMDL
MODEL 7
REMARK VINA RESULT:    -6.548      2.801      5.599
REMARK INTER + INTRA:          -9.717
REMARK INTER:                  -8.339
REMARK INTRA:                  -1.378
REMARK UNBOUND:                -1.063
REMARK SMILES CC[C@@H](C=C[C@H](C)[C@@H]1CC[C@@H]2C3=CC[C@@H]4C[C@@H](O)CC[C@@]4(C)[C@H]3CC[C@@]21C)C(C)C
REMARK SMILES IDX 6 1 7 2 5 3 4 4 3 5 2 6 1 7 28 8 29 9 30 10 8 11 9 12 26 13
REMARK SMILES IDX 10 14 11 15 25 16 27 17 12 18 24 19 23 20 13 21 21 22 14 23
REMARK SMILES IDX 15 24 20 25 22 26 16 27 19 28 17 29 18 30
REMARK H PARENT 18 31
REMARK Flexibility Score: inf
ROOT
ATOM      1  C   UNL     1     142.895 133.257 146.589  1.00  0.00     0.012 C 
ATOM      2  C   UNL     1     141.590 132.544 146.988  1.00  0.00     0.012 C 
ENDROOT
BRANCH   1   3
ATOM      3  C   UNL     1     143.253 132.901 145.161  1.00  0.00    -0.028 C 
ATOM      4  C   UNL     1     144.155 131.966 144.799  1.00  0.00    -0.027 C 
BRANCH   4   5
ATOM      5  C   UNL     1     144.406 131.565 143.346  1.00  0.00     0.014 C 
BRANCH   5   6
ATOM      6  C   UNL     1     143.098 131.530 142.495  1.00  0.00     0.004 C 
ATOM      7  C   UNL     1     142.302 130.222 142.647  1.00  0.00     0.004 C 
ENDBRANCH   5   6
BRANCH   5   8
ATOM      8  C   UNL     1     145.282 130.267 143.311  1.00  0.00    -0.011 C 
ATOM      9  C   UNL     1     146.154 130.079 144.561  1.00  0.00     0.008 C 
ATOM     10  C   UNL     1     146.134 130.116 142.033  1.00  0.00     0.008 C 
ENDBRANCH   5   8
ENDBRANCH   4   5
ENDBRANCH   1   3
BRANCH   1  11
ATOM     11  C   UNL     1     142.978 134.774 146.972  1.00  0.00     0.002 C 
ATOM     12  C   UNL     1     142.788 135.695 145.752  1.00  0.00     0.005 C 
ATOM     13  C   UNL     1     144.179 135.364 147.818  1.00  0.00    -0.023 C 
ATOM     14  C   UNL     1     144.013 136.575 145.671  1.00  0.00     0.009 C 
ATOM     15  C   UNL     1     144.478 136.715 147.110  1.00  0.00     0.021 C 
ATOM     16  C   UNL     1     145.471 134.480 147.951  1.00  0.00     0.008 C 
ATOM     17  C   UNL     1     143.689 135.682 149.263  1.00  0.00     0.012 C 
ATOM     18  C   UNL     1     145.926 137.135 147.181  1.00  0.00    -0.067 C 
ATOM     19  C   UNL     1     146.520 134.689 146.843  1.00  0.00     0.009 C 
ATOM     20  C   UNL     1     147.035 136.159 146.775  1.00  0.00     0.021 C 
ATOM     21  C   UNL     1     146.211 138.403 147.557  1.00  0.00    -0.027 C 
ATOM     22  C   UNL     1     148.498 136.493 147.389  1.00  0.00    -0.023 C 
ATOM     23  C   UNL     1     147.608 138.843 147.852  1.00  0.00     0.031 C 
ATOM     24  C   UNL     1     148.377 137.658 148.432  1.00  0.00     0.002 C 
ATOM     25  C   UNL     1     149.151 135.304 148.165  1.00  0.00     0.010 C 
ATOM     26  C   UNL     1     149.480 136.904 146.214  1.00  0.00     0.012 C 
ATOM     27  C   UNL     1     149.704 138.112 149.095  1.00  0.00     0.036 C 
ATOM     28  C   UNL     1     150.422 135.655 148.999  1.00  0.00     0.032 C 
ATOM     29  C   UNL     1     150.880 137.128 148.905  1.00  0.00     0.114 C 
BRANCH  29  30
ATOM     30  O   UNL     1     151.865 137.378 149.875  1.00  0.00    -0.393 OA
ATOM     31  H   UNL     1     151.978 138.374 149.902  1.00  0.00     0.210 HD
ENDBRANCH  29  30
ENDBRANCH   1  11
TORSDOF 6
ENDMDL
MODEL 8
REMARK VINA RESULT:    -6.542      3.672      9.193
REMARK INTER + INTRA:          -9.709
REMARK INTER:                  -8.579
REMARK INTRA:                  -1.130
REMARK UNBOUND:                -1.063
REMARK SMILES CC[C@@H](C=C[C@H](C)[C@@H]1CC[C@@H]2C3=CC[C@@H]4C[C@@H](O)CC[C@@]4(C)[C@H]3CC[C@@]21C)C(C)C
REMARK SMILES IDX 6 1 7 2 5 3 4 4 3 5 2 6 1 7 28 8 29 9 30 10 8 11 9 12 26 13
REMARK SMILES IDX 10 14 11 15 25 16 27 17 12 18 24 19 23 20 13 21 21 22 14 23
REMARK SMILES IDX 15 24 20 25 22 26 16 27 19 28 17 29 18 30
REMARK H PARENT 18 31
REMARK Flexibility Score: inf
ROOT
ATOM      1  C   UNL     1     147.095 134.927 147.595  1.00  0.00     0.012 C 
ATOM      2  C   UNL     1     148.076 135.368 146.493  1.00  0.00     0.012 C 
ENDROOT
BRANCH   1   3
ATOM      3  C   UNL     1     147.820 134.867 148.925  1.00  0.00    -0.028 C 
ATOM      4  C   UNL     1     149.158 134.914 149.080  1.00  0.00    -0.027 C 
BRANCH   4   5
ATOM      5  C   UNL     1     149.839 134.958 150.447  1.00  0.00     0.014 C 
BRANCH   5   6
ATOM      6  C   UNL     1     150.624 136.285 150.689  1.00  0.00     0.004 C 
ATOM      7  C   UNL     1     150.322 137.375 149.644  1.00  0.00     0.004 C 
ENDBRANCH   5   6
BRANCH   5   8
ATOM      8  C   UNL     1     150.647 133.634 150.667  1.00  0.00    -0.011 C 
ATOM      9  C   UNL     1     150.542 133.079 152.095  1.00  0.00     0.008 C 
ATOM     10  C   UNL     1     152.125 133.717 150.230  1.00  0.00     0.008 C 
ENDBRANCH   5   8
ENDBRANCH   4   5
ENDBRANCH   1   3
BRANCH   1  11
ATOM     11  C   UNL     1     145.705 135.648 147.590  1.00  0.00     0.002 C 
ATOM     12  C   UNL     1     145.591 136.703 148.706  1.00  0.00     0.005 C 
ATOM     13  C   UNL     1     144.341 134.846 147.567  1.00  0.00    -0.023 C 
ATOM     14  C   UNL     1     144.386 136.334 149.538  1.00  0.00     0.009 C 
ATOM     15  C   UNL     1     143.450 135.636 148.566  1.00  0.00     0.021 C 
ATOM     16  C   UNL     1     144.396 133.317 147.924  1.00  0.00     0.008 C 
ATOM     17  C   UNL     1     143.692 134.965 146.154  1.00  0.00     0.012 C 
ATOM     18  C   UNL     1     142.440 134.782 149.293  1.00  0.00    -0.067 C 
ATOM     19  C   UNL     1     144.236 132.991 149.421  1.00  0.00     0.009 C 
ATOM     20  C   UNL     1     142.881 133.498 150.002  1.00  0.00     0.021 C 
ATOM     21  C   UNL     1     141.157 135.207 149.346  1.00  0.00    -0.027 C 
ATOM     22  C   UNL     1     141.699 132.418 150.258  1.00  0.00    -0.023 C 
ATOM     23  C   UNL     1     140.058 134.336 149.861  1.00  0.00     0.031 C 
ATOM     24  C   UNL     1     140.393 132.885 149.525  1.00  0.00     0.002 C 
ATOM     25  C   UNL     1     142.005 130.991 149.698  1.00  0.00     0.010 C 
ATOM     26  C   UNL     1     141.439 132.283 151.816  1.00  0.00     0.012 C 
ATOM     27  C   UNL     1     139.157 131.962 149.695  1.00  0.00     0.036 C 
ATOM     28  C   UNL     1     140.802 129.999 149.675  1.00  0.00     0.032 C 
ATOM     29  C   UNL     1     139.482 130.558 150.251  1.00  0.00     0.114 C 
BRANCH  29  30
ATOM     30  O   UNL     1     138.428 129.679 149.954  1.00  0.00    -0.393 OA
ATOM     31  H   UNL     1     137.674 130.252 149.627  1.00  0.00     0.210 HD
ENDBRANCH  29  30
ENDBRANCH   1  11
TORSDOF 6
ENDMDL
MODEL 9
REMARK VINA RESULT:    -6.462      2.496      4.868
REMARK INTER + INTRA:          -9.603
REMARK INTER:                  -8.264
REMARK INTRA:                  -1.338
REMARK UNBOUND:                -1.063
REMARK SMILES CC[C@@H](C=C[C@H](C)[C@@H]1CC[C@@H]2C3=CC[C@@H]4C[C@@H](O)CC[C@@]4(C)[C@H]3CC[C@@]21C)C(C)C
REMARK SMILES IDX 6 1 7 2 5 3 4 4 3 5 2 6 1 7 28 8 29 9 30 10 8 11 9 12 26 13
REMARK SMILES IDX 10 14 11 15 25 16 27 17 12 18 24 19 23 20 13 21 21 22 14 23
REMARK SMILES IDX 15 24 20 25 22 26 16 27 19 28 17 29 18 30
REMARK H PARENT 18 31
REMARK Flexibility Score: inf
ROOT
ATOM      1  C   UNL     1     138.958 132.113 148.346  1.00  0.00     0.012 C 
ATOM      2  C   UNL     1     138.340 133.366 148.993  1.00  0.00     0.012 C 
ENDROOT
BRANCH   1   3
ATOM      3  C   UNL     1     138.943 132.259 146.838  1.00  0.00    -0.028 C 
ATOM      4  C   UNL     1     138.636 133.391 146.172  1.00  0.00    -0.027 C 
BRANCH   4   5
ATOM      5  C   UNL     1     138.739 133.521 144.654  1.00  0.00     0.014 C 
BRANCH   5   6
ATOM      6  C   UNL     1     140.043 134.245 144.196  1.00  0.00     0.004 C 
ATOM      7  C   UNL     1     140.320 135.551 144.962  1.00  0.00     0.004 C 
ENDBRANCH   5   6
BRANCH   5   8
ATOM      8  C   UNL     1     137.397 134.104 144.092  1.00  0.00    -0.011 C 
ATOM      9  C   UNL     1     136.746 135.146 145.013  1.00  0.00     0.008 C 
ATOM     10  C   UNL     1     136.367 133.031 143.680  1.00  0.00     0.008 C 
ENDBRANCH   5   8
ENDBRANCH   4   5
ENDBRANCH   1   3
BRANCH   1  11
ATOM     11  C   UNL     1     140.298 131.615 148.985  1.00  0.00     0.002 C 
ATOM     12  C   UNL     1     140.307 131.768 150.517  1.00  0.00     0.005 C 
ATOM     13  C   UNL     1     141.711 132.099 148.460  1.00  0.00    -0.023 C 
ATOM     14  C   UNL     1     141.505 132.619 150.867  1.00  0.00     0.009 C 
ATOM     15  C   UNL     1     142.516 132.324 149.771  1.00  0.00     0.021 C 
ATOM     16  C   UNL     1     141.743 133.369 147.536  1.00  0.00     0.008 C 
ATOM     17  C   UNL     1     142.399 130.942 147.674  1.00  0.00     0.012 C 
ATOM     18  C   UNL     1     143.553 133.416 149.673  1.00  0.00    -0.067 C 
ATOM     19  C   UNL     1     141.873 134.712 148.279  1.00  0.00     0.009 C 
ATOM     20  C   UNL     1     143.172 134.799 149.136  1.00  0.00     0.021 C 
ATOM     21  C   UNL     1     144.804 133.157 150.119  1.00  0.00    -0.027 C 
ATOM     22  C   UNL     1     144.412 135.679 148.572  1.00  0.00    -0.023 C 
ATOM     23  C   UNL     1     145.938 134.099 149.875  1.00  0.00     0.031 C 
ATOM     24  C   UNL     1     145.708 134.798 148.538  1.00  0.00     0.002 C 
ATOM     25  C   UNL     1     144.216 136.192 147.108  1.00  0.00     0.010 C 
ATOM     26  C   UNL     1     144.626 136.943 149.505  1.00  0.00     0.012 C 
ATOM     27  C   UNL     1     146.995 135.509 148.040  1.00  0.00     0.036 C 
ATOM     28  C   UNL     1     145.481 136.804 146.429  1.00  0.00     0.032 C 
ATOM     29  C   UNL     1     146.742 136.853 147.321  1.00  0.00     0.114 C 
BRANCH  29  30
ATOM     30  O   UNL     1     147.860 137.185 146.538  1.00  0.00    -0.393 OA
ATOM     31  H   UNL     1     148.397 137.832 147.083  1.00  0.00     0.210 HD
ENDBRANCH  29  30
ENDBRANCH   1  11
TORSDOF 6
ENDMDL
