MODEL 1
REMARK VINA RESULT:    -0.595      0.000      0.000
REMARK INTER + INTRA:          -1.104
REMARK INTER:                  -1.117
REMARK INTRA:                   0.013
REMARK UNBOUND:                 0.013
REMARK SMILES O=C([O-])CCCCCCCCCCCCCCC(=O)[O-]
REMARK SMILES IDX 10 1 9 2 8 3 7 4 6 5 5 6 4 7 2 8 1 9 3 10 11 11 12 12 13 13
REMARK SMILES IDX 14 14 15 15 16 16 17 17 18 18 19 19 20 20
REMARK H PARENT
REMARK Flexibility Score: inf
ROOT
ATOM      1  C   UNL     1       2.603 -38.096  19.487  1.00  0.00     0.000 C 
ENDROOT
BRANCH   1   2
ATOM      2  C   UNL     1       3.413 -37.107  18.633  1.00  0.00     0.000 C 
BRANCH   2   3
ATOM      3  C   UNL     1       4.582 -36.476  19.410  1.00  0.00     0.000 C 
BRANCH   3   4
ATOM      4  C   UNL     1       4.109 -35.643  20.612  1.00  0.00     0.000 C 
BRANCH   4   5
ATOM      5  C   UNL     1       5.123 -35.643  21.770  1.00  0.00     0.000 C 
BRANCH   5   6
ATOM      6  C   UNL     1       4.994 -36.886  22.666  1.00  0.00     0.006 C 
BRANCH   6   7
ATOM      7  C   UNL     1       4.942 -36.532  24.159  1.00  0.00     0.053 C 
BRANCH   7   8
ATOM      8  C   UNL     1       4.970 -37.776  24.989  1.00  0.00     0.041 C 
ATOM      9  O   UNL     1       4.999 -38.907  24.437  1.00  0.00    -0.550 OA
ATOM     10  O   UNL     1       5.013 -37.686  26.375  1.00  0.00    -0.550 OA
ENDBRANCH   7   8
ENDBRANCH   6   7
ENDBRANCH   5   6
ENDBRANCH   4   5
ENDBRANCH   3   4
ENDBRANCH   2   3
ENDBRANCH   1   2
BRANCH   1  11
ATOM     11  C   UNL     1       1.087 -37.938  19.300  1.00  0.00     0.000 C 
BRANCH  11  12
ATOM     12  C   UNL     1       0.762 -36.668  18.503  1.00  0.00     0.000 C 
BRANCH  12  13
ATOM     13  C   UNL     1       0.527 -36.993  17.020  1.00  0.00     0.000 C 
BRANCH  13  14
ATOM     14  C   UNL     1       1.085 -35.912  16.082  1.00  0.00     0.000 C 
BRANCH  14  15
ATOM     15  C   UNL     1       2.621 -35.819  16.136  1.00  0.00     0.000 C 
BRANCH  15  16
ATOM     16  C   UNL     1       3.251 -35.659  14.743  1.00  0.00     0.006 C 
BRANCH  16  17
ATOM     17  C   UNL     1       3.210 -36.956  13.925  1.00  0.00     0.053 C 
BRANCH  17  18
ATOM     18  C   UNL     1       4.046 -38.011  14.578  1.00  0.00     0.041 C 
ATOM     19  O   UNL     1       3.783 -38.394  15.749  1.00  0.00    -0.550 OA
ATOM     20  O   UNL     1       5.084 -38.609  13.876  1.00  0.00    -0.550 OA
ENDBRANCH  17  18
ENDBRANCH  16  17
ENDBRANCH  15  16
ENDBRANCH  14  15
ENDBRANCH  13  14
ENDBRANCH  12  13
ENDBRANCH  11  12
ENDBRANCH   1  11
TORSDOF 15
ENDMDL
MODEL 2
REMARK VINA RESULT:    -0.253      1.242      8.105
REMARK INTER + INTRA:          -0.463
REMARK INTER:                  -0.787
REMARK INTRA:                   0.324
REMARK UNBOUND:                 0.013
REMARK SMILES O=C([O-])CCCCCCCCCCCCCCC(=O)[O-]
REMARK SMILES IDX 10 1 9 2 8 3 7 4 6 5 5 6 4 7 2 8 1 9 3 10 11 11 12 12 13 13
REMARK SMILES IDX 14 14 15 15 16 16 17 17 18 18 19 19 20 20
REMARK H PARENT
REMARK Flexibility Score: inf
ROOT
ATOM      1  C   UNL     1       1.658 -37.799  19.534  1.00  0.00     0.000 C 
ENDROOT
BRANCH   1   2
ATOM      2  C   UNL     1       0.405 -37.586  18.669  1.00  0.00     0.000 C 
BRANCH   2   3
ATOM      3  C   UNL     1       0.744 -37.360  17.185  1.00  0.00     0.000 C 
BRANCH   3   4
ATOM      4  C   UNL     1       1.045 -35.886  16.868  1.00  0.00     0.000 C 
BRANCH   4   5
ATOM      5  C   UNL     1       2.383 -35.699  16.131  1.00  0.00     0.000 C 
BRANCH   5   6
ATOM      6  C   UNL     1       2.260 -35.923  14.616  1.00  0.00     0.006 C 
BRANCH   6   7
ATOM      7  C   UNL     1       3.573 -36.404  13.983  1.00  0.00     0.053 C 
BRANCH   7   8
ATOM      8  C   UNL     1       3.943 -37.753  14.514  1.00  0.00     0.041 C 
ATOM      9  O   UNL     1       4.961 -38.350  14.073  1.00  0.00    -0.550 OA
ATOM     10  O   UNL     1       3.193 -38.330  15.531  1.00  0.00    -0.550 OA
ENDBRANCH   7   8
ENDBRANCH   6   7
ENDBRANCH   5   6
ENDBRANCH   4   5
ENDBRANCH   3   4
ENDBRANCH   2   3
ENDBRANCH   1   2
BRANCH   1  11
ATOM     11  C   UNL     1       2.920 -38.058  18.698  1.00  0.00     0.000 C 
BRANCH  11  12
ATOM     12  C   UNL     1       4.044 -37.089  19.088  1.00  0.00     0.000 C 
BRANCH  12  13
ATOM     13  C   UNL     1       4.749 -37.552  20.372  1.00  0.00     0.000 C 
BRANCH  13  14
ATOM     14  C   UNL     1       3.808 -37.573  21.587  1.00  0.00     0.000 C 
BRANCH  14  15
ATOM     15  C   UNL     1       3.983 -38.838  22.447  1.00  0.00     0.000 C 
BRANCH  15  16
ATOM     16  C   UNL     1       5.124 -38.704  23.468  1.00  0.00     0.006 C 
BRANCH  16  17
ATOM     17  C   UNL     1       4.614 -38.577  24.908  1.00  0.00     0.053 C 
BRANCH  17  18
ATOM     18  C   UNL     1       4.568 -37.140  25.322  1.00  0.00     0.041 C 
ATOM     19  O   UNL     1       4.082 -36.816  26.437  1.00  0.00    -0.550 OA
ATOM     20  O   UNL     1       5.108 -36.162  24.497  1.00  0.00    -0.550 OA
ENDBRANCH  17  18
ENDBRANCH  16  17
ENDBRANCH  15  16
ENDBRANCH  14  15
ENDBRANCH  13  14
ENDBRANCH  12  13
ENDBRANCH  11  12
ENDBRANCH   1  11
TORSDOF 15
ENDMDL
MODEL 3
REMARK VINA RESULT:    -0.135      2.465      8.022
REMARK INTER + INTRA:          -0.241
REMARK INTER:                  -1.995
REMARK INTRA:                   1.754
REMARK UNBOUND:                 0.013
REMARK SMILES O=C([O-])CCCCCCCCCCCCCCC(=O)[O-]
REMARK SMILES IDX 10 1 9 2 8 3 7 4 6 5 5 6 4 7 2 8 1 9 3 10 11 11 12 12 13 13
REMARK SMILES IDX 14 14 15 15 16 16 17 17 18 18 19 19 20 20
REMARK H PARENT
REMARK Flexibility Score: inf
ROOT
ATOM      1  C   UNL     1       4.274 -38.985  22.460  1.00  0.00     0.000 C 
ENDROOT
BRANCH   1   2
ATOM      2  C   UNL     1       5.089 -38.704  21.187  1.00  0.00     0.000 C 
BRANCH   2   3
ATOM      3  C   UNL     1       4.696 -37.377  20.515  1.00  0.00     0.000 C 
BRANCH   3   4
ATOM      4  C   UNL     1       4.465 -37.528  19.003  1.00  0.00     0.000 C 
BRANCH   4   5
ATOM      5  C   UNL     1       3.117 -36.942  18.546  1.00  0.00     0.000 C 
BRANCH   5   6
ATOM      6  C   UNL     1       3.147 -36.461  17.086  1.00  0.00     0.006 C 
BRANCH   6   7
ATOM      7  C   UNL     1       2.753 -37.564  16.094  1.00  0.00     0.053 C 
BRANCH   7   8
ATOM      8  C   UNL     1       3.611 -37.495  14.871  1.00  0.00     0.041 C 
ATOM      9  O   UNL     1       3.852 -36.385  14.328  1.00  0.00    -0.550 OA
ATOM     10  O   UNL     1       4.185 -38.652  14.359  1.00  0.00    -0.550 OA
ENDBRANCH   7   8
ENDBRANCH   6   7
ENDBRANCH   5   6
ENDBRANCH   4   5
ENDBRANCH   3   4
ENDBRANCH   2   3
ENDBRANCH   1   2
BRANCH   1  11
ATOM     11  C   UNL     1       4.700 -38.104  23.644  1.00  0.00     0.000 C 
BRANCH  11  12
ATOM     12  C   UNL     1       4.963 -38.954  24.893  1.00  0.00     0.000 C 
BRANCH  12  13
ATOM     13  C   UNL     1       4.877 -38.101  26.168  1.00  0.00     0.000 C 
BRANCH  13  14
ATOM     14  C   UNL     1       4.163 -36.760  25.934  1.00  0.00     0.000 C 
BRANCH  14  15
ATOM     15  C   UNL     1       5.064 -35.725  25.237  1.00  0.00     0.000 C 
BRANCH  15  16
ATOM     16  C   UNL     1       4.844 -35.683  23.716  1.00  0.00     0.006 C 
BRANCH  16  17
ATOM     17  C   UNL     1       4.862 -34.255  23.157  1.00  0.00     0.053 C 
BRANCH  17  18
ATOM     18  C   UNL     1       3.929 -34.138  21.993  1.00  0.00     0.041 C 
ATOM     19  O   UNL     1       2.791 -33.618  22.143  1.00  0.00    -0.550 OA
ATOM     20  O   UNL     1       4.334 -34.556  20.732  1.00  0.00    -0.550 OA
ENDBRANCH  17  18
ENDBRANCH  16  17
ENDBRANCH  15  16
ENDBRANCH  14  15
ENDBRANCH  13  14
ENDBRANCH  12  13
ENDBRANCH  11  12
ENDBRANCH   1  11
TORSDOF 15
ENDMDL
MODEL 4
REMARK VINA RESULT:     0.035      2.361      7.703
REMARK INTER + INTRA:           0.078
REMARK INTER:                  -0.086
REMARK INTRA:                   0.163
REMARK UNBOUND:                 0.013
REMARK SMILES O=C([O-])CCCCCCCCCCCCCCC(=O)[O-]
REMARK SMILES IDX 10 1 9 2 8 3 7 4 6 5 5 6 4 7 2 8 1 9 3 10 11 11 12 12 13 13
REMARK SMILES IDX 14 14 15 15 16 16 17 17 18 18 19 19 20 20
REMARK H PARENT
REMARK Flexibility Score: inf
ROOT
ATOM      1  C   UNL     1       1.490 -37.865  19.396  1.00  0.00     0.000 C 
ENDROOT
BRANCH   1   2
ATOM      2  C   UNL     1       0.577 -37.709  18.169  1.00  0.00     0.000 C 
BRANCH   2   3
ATOM      3  C   UNL     1       1.090 -36.647  17.182  1.00  0.00     0.000 C 
BRANCH   3   4
ATOM      4  C   UNL     1       2.133 -37.207  16.202  1.00  0.00     0.000 C 
BRANCH   4   5
ATOM      5  C   UNL     1       2.892 -36.103  15.445  1.00  0.00     0.000 C 
BRANCH   5   6
ATOM      6  C   UNL     1       3.443 -35.017  16.383  1.00  0.00     0.006 C 
BRANCH   6   7
ATOM      7  C   UNL     1       4.584 -35.530  17.271  1.00  0.00     0.053 C 
BRANCH   7   8
ATOM      8  C   UNL     1       4.902 -34.532  18.339  1.00  0.00     0.041 C 
ATOM      9  O   UNL     1       4.937 -33.303  18.068  1.00  0.00    -0.550 OA
ATOM     10  O   UNL     1       5.113 -34.955  19.645  1.00  0.00    -0.550 OA
ENDBRANCH   7   8
ENDBRANCH   6   7
ENDBRANCH   5   6
ENDBRANCH   4   5
ENDBRANCH   3   4
ENDBRANCH   2   3
ENDBRANCH   1   2
BRANCH   1  11
ATOM     11  C   UNL     1       2.875 -37.233  19.189  1.00  0.00     0.000 C 
BRANCH  11  12
ATOM     12  C   UNL     1       3.979 -38.133  19.759  1.00  0.00     0.000 C 
BRANCH  12  13
ATOM     13  C   UNL     1       4.470 -37.610  21.117  1.00  0.00     0.000 C 
BRANCH  13  14
ATOM     14  C   UNL     1       4.640 -38.730  22.155  1.00  0.00     0.000 C 
BRANCH  14  15
ATOM     15  C   UNL     1       5.125 -38.203  23.518  1.00  0.00     0.000 C 
BRANCH  15  16
ATOM     16  C   UNL     1       4.771 -36.723  23.737  1.00  0.00     0.006 C 
BRANCH  16  17
ATOM     17  C   UNL     1       5.124 -36.236  25.148  1.00  0.00     0.053 C 
BRANCH  17  18
ATOM     18  C   UNL     1       4.490 -37.116  26.179  1.00  0.00     0.041 C 
ATOM     19  O   UNL     1       5.114 -38.112  26.632  1.00  0.00    -0.550 OA
ATOM     20  O   UNL     1       3.231 -36.807  26.677  1.00  0.00    -0.550 OA
ENDBRANCH  17  18
ENDBRANCH  16  17
ENDBRANCH  15  16
ENDBRANCH  14  15
ENDBRANCH  13  14
ENDBRANCH  12  13
ENDBRANCH  11  12
ENDBRANCH   1  11
TORSDOF 15
ENDMDL
MODEL 5
REMARK VINA RESULT:     0.091      3.269      5.296
REMARK INTER + INTRA:           0.183
REMARK INTER:                   0.898
REMARK INTRA:                  -0.715
REMARK UNBOUND:                 0.013
REMARK SMILES O=C([O-])CCCCCCCCCCCCCCC(=O)[O-]
REMARK SMILES IDX 10 1 9 2 8 3 7 4 6 5 5 6 4 7 2 8 1 9 3 10 11 11 12 12 13 13
REMARK SMILES IDX 14 14 15 15 16 16 17 17 18 18 19 19 20 20
REMARK H PARENT
REMARK Flexibility Score: inf
ROOT
ATOM      1  C   UNL     1       5.001 -38.456  23.556  1.00  0.00     0.000 C 
ENDROOT
BRANCH   1   2
ATOM      2  C   UNL     1       5.125 -37.267  24.522  1.00  0.00     0.000 C 
BRANCH   2   3
ATOM      3  C   UNL     1       4.722 -37.631  25.962  1.00  0.00     0.000 C 
BRANCH   3   4
ATOM      4  C   UNL     1       3.654 -36.684  26.532  1.00  0.00     0.000 C 
BRANCH   4   5
ATOM      5  C   UNL     1       2.428 -37.434  27.081  1.00  0.00     0.000 C 
BRANCH   5   6
ATOM      6  C   UNL     1       1.499 -36.526  27.902  1.00  0.00     0.006 C 
BRANCH   6   7
ATOM      7  C   UNL     1       2.098 -35.134  28.143  1.00  0.00     0.053 C 
BRANCH   7   8
ATOM      8  C   UNL     1       1.400 -34.455  29.279  1.00  0.00     0.041 C 
ATOM      9  O   UNL     1       2.031 -34.173  30.332  1.00  0.00    -0.550 OA
ATOM     10  O   UNL     1       0.066 -34.092  29.157  1.00  0.00    -0.550 OA
ENDBRANCH   7   8
ENDBRANCH   6   7
ENDBRANCH   5   6
ENDBRANCH   4   5
ENDBRANCH   3   4
ENDBRANCH   2   3
ENDBRANCH   1   2
BRANCH   1  11
ATOM     11  C   UNL     1       4.777 -38.017  22.101  1.00  0.00     0.000 C 
BRANCH  11  12
ATOM     12  C   UNL     1       4.883 -36.492  21.966  1.00  0.00     0.000 C 
BRANCH  12  13
ATOM     13  C   UNL     1       4.292 -36.016  20.630  1.00  0.00     0.000 C 
BRANCH  13  14
ATOM     14  C   UNL     1       4.097 -37.164  19.627  1.00  0.00     0.000 C 
BRANCH  14  15
ATOM     15  C   UNL     1       2.612 -37.446  19.333  1.00  0.00     0.000 C 
BRANCH  15  16
ATOM     16  C   UNL     1       2.273 -37.317  17.839  1.00  0.00     0.006 C 
BRANCH  16  17
ATOM     17  C   UNL     1       3.503 -36.997  16.981  1.00  0.00     0.053 C 
BRANCH  17  18
ATOM     18  C   UNL     1       3.095 -36.713  15.570  1.00  0.00     0.041 C 
ATOM     19  O   UNL     1       3.846 -37.044  14.614  1.00  0.00    -0.550 OA
ATOM     20  O   UNL     1       1.863 -36.129  15.306  1.00  0.00    -0.550 OA
ENDBRANCH  17  18
ENDBRANCH  16  17
ENDBRANCH  15  16
ENDBRANCH  14  15
ENDBRANCH  13  14
ENDBRANCH  12  13
ENDBRANCH  11  12
ENDBRANCH   1  11
TORSDOF 15
ENDMDL
MODEL 6
REMARK VINA RESULT:     0.244      1.298      2.028
REMARK INTER + INTRA:           0.471
REMARK INTER:                   0.871
REMARK INTRA:                  -0.401
REMARK UNBOUND:                 0.013
REMARK SMILES O=C([O-])CCCCCCCCCCCCCCC(=O)[O-]
REMARK SMILES IDX 10 1 9 2 8 3 7 4 6 5 5 6 4 7 2 8 1 9 3 10 11 11 12 12 13 13
REMARK SMILES IDX 14 14 15 15 16 16 17 17 18 18 19 19 20 20
REMARK H PARENT
REMARK Flexibility Score: inf
ROOT
ATOM      1  C   UNL     1       3.418 -36.165  19.038  1.00  0.00     0.000 C 
ENDROOT
BRANCH   1   2
ATOM      2  C   UNL     1       4.901 -36.563  19.121  1.00  0.00     0.000 C 
BRANCH   2   3
ATOM      3  C   UNL     1       5.119 -37.867  19.908  1.00  0.00     0.000 C 
BRANCH   3   4
ATOM      4  C   UNL     1       5.121 -37.644  21.429  1.00  0.00     0.000 C 
BRANCH   4   5
ATOM      5  C   UNL     1       4.839 -38.934  22.219  1.00  0.00     0.000 C 
BRANCH   5   6
ATOM      6  C   UNL     1       4.791 -38.698  23.737  1.00  0.00     0.006 C 
BRANCH   6   7
ATOM      7  C   UNL     1       4.907 -37.213  24.106  1.00  0.00     0.053 C 
BRANCH   7   8
ATOM      8  C   UNL     1       4.959 -37.048  25.592  1.00  0.00     0.041 C 
ATOM      9  O   UNL     1       5.120 -35.906  26.098  1.00  0.00    -0.550 OA
ATOM     10  O   UNL     1       4.782 -38.149  26.420  1.00  0.00    -0.550 OA
ENDBRANCH   7   8
ENDBRANCH   6   7
ENDBRANCH   5   6
ENDBRANCH   4   5
ENDBRANCH   3   4
ENDBRANCH   2   3
ENDBRANCH   1   2
BRANCH   1  11
ATOM     11  C   UNL     1       2.640 -36.505  20.317  1.00  0.00     0.000 C 
BRANCH  11  12
ATOM     12  C   UNL     1       1.298 -37.170  19.983  1.00  0.00     0.000 C 
BRANCH  12  13
ATOM     13  C   UNL     1       1.419 -38.056  18.734  1.00  0.00     0.000 C 
BRANCH  13  14
ATOM     14  C   UNL     1       0.496 -37.599  17.593  1.00  0.00     0.000 C 
BRANCH  14  15
ATOM     15  C   UNL     1       1.024 -36.346  16.872  1.00  0.00     0.000 C 
BRANCH  15  16
ATOM     16  C   UNL     1       1.803 -36.689  15.591  1.00  0.00     0.006 C 
BRANCH  16  17
ATOM     17  C   UNL     1       3.141 -37.380  15.881  1.00  0.00     0.053 C 
BRANCH  17  18
ATOM     18  C   UNL     1       3.943 -37.513  14.625  1.00  0.00     0.041 C 
ATOM     19  O   UNL     1       4.253 -36.490  13.959  1.00  0.00    -0.550 OA
ATOM     20  O   UNL     1       4.393 -38.762  14.217  1.00  0.00    -0.550 OA
ENDBRANCH  17  18
ENDBRANCH  16  17
ENDBRANCH  15  16
ENDBRANCH  14  15
ENDBRANCH  13  14
ENDBRANCH  12  13
ENDBRANCH  11  12
ENDBRANCH   1  11
TORSDOF 15
ENDMDL
MODEL 7
REMARK VINA RESULT:     0.445      2.078      3.061
REMARK INTER + INTRA:           0.847
REMARK INTER:                   1.126
REMARK INTRA:                  -0.279
REMARK UNBOUND:                 0.013
REMARK SMILES O=C([O-])CCCCCCCCCCCCCCC(=O)[O-]
REMARK SMILES IDX 10 1 9 2 8 3 7 4 6 5 5 6 4 7 2 8 1 9 3 10 11 11 12 12 13 13
REMARK SMILES IDX 14 14 15 15 16 16 17 17 18 18 19 19 20 20
REMARK H PARENT
REMARK Flexibility Score: inf
ROOT
ATOM      1  C   UNL     1       3.827 -35.218  21.586  1.00  0.00     0.000 C 
ENDROOT
BRANCH   1   2
ATOM      2  C   UNL     1       4.912 -36.213  22.029  1.00  0.00     0.000 C 
BRANCH   2   3
ATOM      3  C   UNL     1       5.083 -37.380  21.041  1.00  0.00     0.000 C 
BRANCH   3   4
ATOM      4  C   UNL     1       4.492 -38.694  21.574  1.00  0.00     0.000 C 
BRANCH   4   5
ATOM      5  C   UNL     1       5.111 -39.124  22.916  1.00  0.00     0.000 C 
BRANCH   5   6
ATOM      6  C   UNL     1       4.262 -38.694  24.123  1.00  0.00     0.006 C 
BRANCH   6   7
ATOM      7  C   UNL     1       5.117 -38.239  25.313  1.00  0.00     0.053 C 
BRANCH   7   8
ATOM      8  C   UNL     1       4.460 -37.095  26.019  1.00  0.00     0.041 C 
ATOM      9  O   UNL     1       4.950 -35.938  25.942  1.00  0.00    -0.550 OA
ATOM     10  O   UNL     1       3.280 -37.298  26.723  1.00  0.00    -0.550 OA
ENDBRANCH   7   8
ENDBRANCH   6   7
ENDBRANCH   5   6
ENDBRANCH   4   5
ENDBRANCH   3   4
ENDBRANCH   2   3
ENDBRANCH   1   2
BRANCH   1  11
ATOM     11  C   UNL     1       3.572 -35.254  20.072  1.00  0.00     0.000 C 
BRANCH  11  12
ATOM     12  C   UNL     1       4.766 -34.674  19.301  1.00  0.00     0.000 C 
BRANCH  12  13
ATOM     13  C   UNL     1       4.751 -35.134  17.836  1.00  0.00     0.000 C 
BRANCH  13  14
ATOM     14  C   UNL     1       3.388 -35.703  17.409  1.00  0.00     0.000 C 
BRANCH  14  15
ATOM     15  C   UNL     1       3.318 -37.234  17.548  1.00  0.00     0.000 C 
BRANCH  15  16
ATOM     16  C   UNL     1       2.730 -37.912  16.299  1.00  0.00     0.006 C 
BRANCH  16  17
ATOM     17  C   UNL     1       3.562 -37.647  15.038  1.00  0.00     0.053 C 
BRANCH  17  18
ATOM     18  C   UNL     1       3.048 -36.441  14.317  1.00  0.00     0.041 C 
ATOM     19  O   UNL     1       1.864 -36.414  13.890  1.00  0.00    -0.550 OA
ATOM     20  O   UNL     1       3.861 -35.325  14.163  1.00  0.00    -0.550 OA
ENDBRANCH  17  18
ENDBRANCH  16  17
ENDBRANCH  15  16
ENDBRANCH  14  15
ENDBRANCH  13  14
ENDBRANCH  12  13
ENDBRANCH  11  12
ENDBRANCH   1  11
TORSDOF 15
ENDMDL
MODEL 8
REMARK VINA RESULT:     0.608      1.443      2.840
REMARK INTER + INTRA:           1.154
REMARK INTER:                   0.123
REMARK INTRA:                   1.031
REMARK UNBOUND:                 0.013
REMARK SMILES O=C([O-])CCCCCCCCCCCCCCC(=O)[O-]
REMARK SMILES IDX 10 1 9 2 8 3 7 4 6 5 5 6 4 7 2 8 1 9 3 10 11 11 12 12 13 13
REMARK SMILES IDX 14 14 15 15 16 16 17 17 18 18 19 19 20 20
REMARK H PARENT
REMARK Flexibility Score: inf
ROOT
ATOM      1  C   UNL     1       3.840 -35.892  20.860  1.00  0.00     0.000 C 
ENDROOT
BRANCH   1   2
ATOM      2  C   UNL     1       4.608 -34.666  20.341  1.00  0.00     0.000 C 
BRANCH   2   3
ATOM      3  C   UNL     1       5.125 -33.768  21.479  1.00  0.00     0.000 C 
BRANCH   3   4
ATOM      4  C   UNL     1       4.273 -33.882  22.753  1.00  0.00     0.000 C 
BRANCH   4   5
ATOM      5  C   UNL     1       5.061 -34.455  23.945  1.00  0.00     0.000 C 
BRANCH   5   6
ATOM      6  C   UNL     1       5.125 -35.991  23.926  1.00  0.00     0.006 C 
BRANCH   6   7
ATOM      7  C   UNL     1       5.032 -36.601  25.331  1.00  0.00     0.053 C 
BRANCH   7   8
ATOM      8  C   UNL     1       5.005 -38.094  25.250  1.00  0.00     0.041 C 
ATOM      9  O   UNL     1       5.010 -38.787  26.301  1.00  0.00    -0.550 OA
ATOM     10  O   UNL     1       4.926 -38.722  24.013  1.00  0.00    -0.550 OA
ENDBRANCH   7   8
ENDBRANCH   6   7
ENDBRANCH   5   6
ENDBRANCH   4   5
ENDBRANCH   3   4
ENDBRANCH   2   3
ENDBRANCH   1   2
BRANCH   1  11
ATOM     11  C   UNL     1       4.733 -37.133  21.008  1.00  0.00     0.000 C 
BRANCH  11  12
ATOM     12  C   UNL     1       4.919 -37.839  19.659  1.00  0.00     0.000 C 
BRANCH  12  13
ATOM     13  C   UNL     1       3.872 -37.364  18.640  1.00  0.00     0.000 C 
BRANCH  13  14
ATOM     14  C   UNL     1       2.477 -37.948  18.910  1.00  0.00     0.000 C 
BRANCH  14  15
ATOM     15  C   UNL     1       1.350 -37.087  18.311  1.00  0.00     0.000 C 
BRANCH  15  16
ATOM     16  C   UNL     1       1.762 -36.414  16.991  1.00  0.00     0.006 C 
BRANCH  16  17
ATOM     17  C   UNL     1       2.920 -37.139  16.296  1.00  0.00     0.053 C 
BRANCH  17  18
ATOM     18  C   UNL     1       2.986 -36.754  14.852  1.00  0.00     0.041 C 
ATOM     19  O   UNL     1       2.038 -36.117  14.322  1.00  0.00    -0.550 OA
ATOM     20  O   UNL     1       4.116 -37.054  14.103  1.00  0.00    -0.550 OA
ENDBRANCH  17  18
ENDBRANCH  16  17
ENDBRANCH  15  16
ENDBRANCH  14  15
ENDBRANCH  13  14
ENDBRANCH  12  13
ENDBRANCH  11  12
ENDBRANCH   1  11
TORSDOF 15
ENDMDL
