MODEL 1
REMARK VINA RESULT:    -2.672      0.000      0.000
REMARK INTER + INTRA:          -3.021
REMARK INTER:                  -2.985
REMARK INTRA:                  -0.036
REMARK UNBOUND:                -0.036
REMARK SMILES CCCC(=O)[O-]
REMARK SMILES IDX 3 1 4 2 5 3 6 4 2 5 1 6
REMARK H PARENT
REMARK Flexibility Score: inf
ROOT
ATOM      1  C   UNL     1       3.511  27.784   8.329  1.00  0.00     0.052 C 
ENDROOT
BRANCH   1   2
ATOM      2  C   UNL     1       2.947  29.162   8.498  1.00  0.00     0.041 C 
ATOM      3  O   UNL     1       1.820  29.450   8.017  1.00  0.00    -0.550 OA
ATOM      4  O   UNL     1       3.683  30.137   9.160  1.00  0.00    -0.550 OA
ENDBRANCH   1   2
BRANCH   1   5
ATOM      5  C   UNL     1       5.011  27.743   8.643  1.00  0.00     0.003 C 
ATOM      6  C   UNL     1       5.329  26.860   9.849  1.00  0.00     0.004 C 
ENDBRANCH   1   5
TORSDOF 2
ENDMDL
MODEL 2
REMARK VINA RESULT:    -2.521     12.360     12.792
REMARK INTER + INTRA:          -2.852
REMARK INTER:                  -2.846
REMARK INTRA:                  -0.006
REMARK UNBOUND:                -0.036
REMARK SMILES CCCC(=O)[O-]
REMARK SMILES IDX 3 1 4 2 5 3 6 4 2 5 1 6
REMARK H PARENT
REMARK Flexibility Score: inf
ROOT
ATOM      1  C   UNL     1      -4.632  20.606  13.009  1.00  0.00     0.052 C 
ENDROOT
BRANCH   1   2
ATOM      2  C   UNL     1      -4.140  20.775  14.414  1.00  0.00     0.041 C 
ATOM      3  O   UNL     1      -4.958  20.904  15.362  1.00  0.00    -0.550 OA
ATOM      4  O   UNL     1      -2.776  20.823  14.671  1.00  0.00    -0.550 OA
ENDBRANCH   1   2
BRANCH   1   5
ATOM      5  C   UNL     1      -4.879  19.131  12.668  1.00  0.00     0.003 C 
ATOM      6  C   UNL     1      -4.693  18.840  11.179  1.00  0.00     0.004 C 
ENDBRANCH   1   5
TORSDOF 2
ENDMDL
MODEL 3
REMARK VINA RESULT:    -2.397      2.316      3.201
REMARK INTER + INTRA:          -2.713
REMARK INTER:                  -2.667
REMARK INTRA:                  -0.046
REMARK UNBOUND:                -0.036
REMARK SMILES CCCC(=O)[O-]
REMARK SMILES IDX 3 1 4 2 5 3 6 4 2 5 1 6
REMARK H PARENT
REMARK Flexibility Score: inf
ROOT
ATOM      1  C   UNL     1       3.466  27.748   8.608  1.00  0.00     0.052 C 
ENDROOT
BRANCH   1   2
ATOM      2  C   UNL     1       4.930  27.496   8.802  1.00  0.00     0.041 C 
ATOM      3  O   UNL     1       5.745  27.742   7.875  1.00  0.00    -0.550 OA
ATOM      4  O   UNL     1       5.389  26.959   9.998  1.00  0.00    -0.550 OA
ENDBRANCH   1   2
BRANCH   1   5
ATOM      5  C   UNL     1       3.205  29.119   7.972  1.00  0.00     0.003 C 
ATOM      6  C   UNL     1       3.138  30.238   9.011  1.00  0.00     0.004 C 
ENDBRANCH   1   5
TORSDOF 2
ENDMDL
MODEL 4
REMARK VINA RESULT:    -2.290     15.782     16.397
REMARK INTER + INTRA:          -2.594
REMARK INTER:                  -2.546
REMARK INTRA:                  -0.048
REMARK UNBOUND:                -0.036
REMARK SMILES CCCC(=O)[O-]
REMARK SMILES IDX 3 1 4 2 5 3 6 4 2 5 1 6
REMARK H PARENT
REMARK Flexibility Score: inf
ROOT
ATOM      1  C   UNL     1      -1.511  12.647  11.248  1.00  0.00     0.052 C 
ENDROOT
BRANCH   1   2
ATOM      2  C   UNL     1      -1.370  14.016  10.655  1.00  0.00     0.041 C 
ATOM      3  O   UNL     1      -0.427  14.769  11.014  1.00  0.00    -0.550 OA
ATOM      4  O   UNL     1      -2.301  14.472   9.730  1.00  0.00    -0.550 OA
ENDBRANCH   1   2
BRANCH   1   5
ATOM      5  C   UNL     1      -0.582  11.635  10.565  1.00  0.00     0.003 C 
ATOM      6  C   UNL     1      -1.183  11.072   9.277  1.00  0.00     0.004 C 
ENDBRANCH   1   5
TORSDOF 2
ENDMDL
MODEL 5
REMARK VINA RESULT:    -2.106      8.660      9.599
REMARK INTER + INTRA:          -2.388
REMARK INTER:                  -2.383
REMARK INTRA:                  -0.005
REMARK UNBOUND:                -0.036
REMARK SMILES CCCC(=O)[O-]
REMARK SMILES IDX 3 1 4 2 5 3 6 4 2 5 1 6
REMARK H PARENT
REMARK Flexibility Score: inf
ROOT
ATOM      1  C   UNL     1      12.388  28.063   9.135  1.00  0.00     0.052 C 
ENDROOT
BRANCH   1   2
ATOM      2  C   UNL     1      13.465  27.238   9.770  1.00  0.00     0.041 C 
ATOM      3  O   UNL     1      13.297  26.003   9.948  1.00  0.00    -0.550 OA
ATOM      4  O   UNL     1      14.642  27.841  10.196  1.00  0.00    -0.550 OA
ENDBRANCH   1   2
BRANCH   1   5
ATOM      5  C   UNL     1      11.538  28.791  10.184  1.00  0.00     0.003 C 
ATOM      6  C   UNL     1      10.650  29.871   9.567  1.00  0.00     0.004 C 
ENDBRANCH   1   5
TORSDOF 2
ENDMDL
MODEL 6
REMARK VINA RESULT:    -2.084      8.583      9.453
REMARK INTER + INTRA:          -2.364
REMARK INTER:                  -2.325
REMARK INTRA:                  -0.038
REMARK UNBOUND:                -0.036
REMARK SMILES CCCC(=O)[O-]
REMARK SMILES IDX 3 1 4 2 5 3 6 4 2 5 1 6
REMARK H PARENT
REMARK Flexibility Score: inf
ROOT
ATOM      1  C   UNL     1      12.843  27.378   8.998  1.00  0.00     0.052 C 
ENDROOT
BRANCH   1   2
ATOM      2  C   UNL     1      12.450  28.527   9.875  1.00  0.00     0.041 C 
ATOM      3  O   UNL     1      11.259  28.649  10.268  1.00  0.00    -0.550 OA
ATOM      4  O   UNL     1      13.393  29.482  10.234  1.00  0.00    -0.550 OA
ENDBRANCH   1   2
BRANCH   1   5
ATOM      5  C   UNL     1      13.370  26.194   9.816  1.00  0.00     0.003 C 
ATOM      6  C   UNL     1      14.878  26.273  10.049  1.00  0.00     0.004 C 
ENDBRANCH   1   5
TORSDOF 2
ENDMDL
MODEL 7
REMARK VINA RESULT:    -2.081     15.828     16.402
REMARK INTER + INTRA:          -2.361
REMARK INTER:                  -2.319
REMARK INTRA:                  -0.041
REMARK UNBOUND:                -0.036
REMARK SMILES CCCC(=O)[O-]
REMARK SMILES IDX 3 1 4 2 5 3 6 4 2 5 1 6
REMARK H PARENT
REMARK Flexibility Score: inf
ROOT
ATOM      1  C   UNL     1      -1.156  13.549  10.822  1.00  0.00     0.052 C 
ENDROOT
BRANCH   1   2
ATOM      2  C   UNL     1      -2.380  14.021  10.100  1.00  0.00     0.041 C 
ATOM      3  O   UNL     1      -3.463  13.386  10.202  1.00  0.00    -0.550 OA
ATOM      4  O   UNL     1      -2.317  15.145   9.285  1.00  0.00    -0.550 OA
ENDBRANCH   1   2
BRANCH   1   5
ATOM      5  C   UNL     1      -1.216  12.045  11.118  1.00  0.00     0.003 C 
ATOM      6  C   UNL     1      -0.623  11.206   9.987  1.00  0.00     0.004 C 
ENDBRANCH   1   5
TORSDOF 2
ENDMDL
MODEL 8
REMARK VINA RESULT:    -2.019     17.665     18.539
REMARK INTER + INTRA:          -2.291
REMARK INTER:                  -2.257
REMARK INTRA:                  -0.034
REMARK UNBOUND:                -0.036
REMARK SMILES CCCC(=O)[O-]
REMARK SMILES IDX 3 1 4 2 5 3 6 4 2 5 1 6
REMARK H PARENT
REMARK Flexibility Score: inf
ROOT
ATOM      1  C   UNL     1      13.353  26.917  23.737  1.00  0.00     0.052 C 
ENDROOT
BRANCH   1   2
ATOM      2  C   UNL     1      12.919  28.224  24.326  1.00  0.00     0.041 C 
ATOM      3  O   UNL     1      12.085  28.948  23.722  1.00  0.00    -0.550 OA
ATOM      4  O   UNL     1      13.463  28.658  25.529  1.00  0.00    -0.550 OA
ENDBRANCH   1   2
BRANCH   1   5
ATOM      5  C   UNL     1      13.598  25.860  24.821  1.00  0.00     0.003 C 
ATOM      6  C   UNL     1      15.020  25.301  24.777  1.00  0.00     0.004 C 
ENDBRANCH   1   5
TORSDOF 2
ENDMDL
MODEL 9
REMARK VINA RESULT:    -2.011      7.907      8.625
REMARK INTER + INTRA:          -2.282
REMARK INTER:                  -2.276
REMARK INTRA:                  -0.006
REMARK UNBOUND:                -0.036
REMARK SMILES CCCC(=O)[O-]
REMARK SMILES IDX 3 1 4 2 5 3 6 4 2 5 1 6
REMARK H PARENT
REMARK Flexibility Score: inf
ROOT
ATOM      1  C   UNL     1      11.728  28.463  10.127  1.00  0.00     0.052 C 
ENDROOT
BRANCH   1   2
ATOM      2  C   UNL     1      11.606  29.950  10.265  1.00  0.00     0.041 C 
ATOM      3  O   UNL     1      10.747  30.582   9.596  1.00  0.00    -0.550 OA
ATOM      4  O   UNL     1      12.466  30.642  11.109  1.00  0.00    -0.550 OA
ENDBRANCH   1   2
BRANCH   1   5
ATOM      5  C   UNL     1      13.162  28.041   9.784  1.00  0.00     0.003 C 
ATOM      6  C   UNL     1      13.313  26.523   9.685  1.00  0.00     0.004 C 
ENDBRANCH   1   5
TORSDOF 2
ENDMDL
