MODEL 1
REMARK VINA RESULT:    -4.631      0.000      0.000
REMARK INTER + INTRA:          -5.368
REMARK INTER:                  -5.308
REMARK INTRA:                  -0.060
REMARK UNBOUND:                -0.060
REMARK SMILES CC(C)[C@H]([NH3+])C(=O)[O-]
REMARK SMILES IDX 4 1 5 2 6 6 7 7 8 8 2 9 1 10 3 11
REMARK H PARENT 5 3 5 4 5 5
REMARK Flexibility Score: inf
ROOT
ATOM      1  C   UNL     1     -21.384  68.641  -1.024  1.00  0.00     0.230 C 
ENDROOT
BRANCH   1   2
ATOM      2  N   UNL     1     -22.691  68.005  -0.799  1.00  0.00    -0.350 N 
ATOM      3  H   UNL     1     -22.916  67.338  -1.573  1.00  0.00     0.345 HD
ATOM      4  H   UNL     1     -22.692  67.495   0.114  1.00  0.00     0.345 HD
ATOM      5  H   UNL     1     -23.441  68.732  -0.747  1.00  0.00     0.345 HD
ENDBRANCH   1   2
BRANCH   1   6
ATOM      6  C   UNL     1     -20.396  67.603  -1.500  1.00  0.00     0.099 C 
ATOM      7  O   UNL     1     -19.176  67.701  -1.204  1.00  0.00    -0.544 OA
ATOM      8  O   UNL     1     -20.829  66.537  -2.278  1.00  0.00    -0.544 OA
ENDBRANCH   1   6
BRANCH   1   9
ATOM      9  C   UNL     1     -20.859  69.362   0.255  1.00  0.00     0.047 C 
ATOM     10  C   UNL     1     -21.474  68.774   1.537  1.00  0.00     0.014 C 
ATOM     11  C   UNL     1     -21.153  70.872   0.203  1.00  0.00     0.014 C 
ENDBRANCH   1   9
TORSDOF 3
ENDMDL
MODEL 2
REMARK VINA RESULT:    -4.594      1.808      2.288
REMARK INTER + INTRA:          -5.325
REMARK INTER:                  -5.302
REMARK INTRA:                  -0.023
REMARK UNBOUND:                -0.060
REMARK SMILES CC(C)[C@H]([NH3+])C(=O)[O-]
REMARK SMILES IDX 4 1 5 2 6 6 7 7 8 8 2 9 1 10 3 11
REMARK H PARENT 5 3 5 4 5 5
REMARK Flexibility Score: inf
ROOT
ATOM      1  C   UNL     1     -20.357  68.159  -1.355  1.00  0.00     0.230 C 
ENDROOT
BRANCH   1   2
ATOM      2  N   UNL     1     -20.448  66.834  -1.986  1.00  0.00    -0.350 N 
ATOM      3  H   UNL     1     -19.503  66.503  -2.291  1.00  0.00     0.345 HD
ATOM      4  H   UNL     1     -20.862  66.143  -1.318  1.00  0.00     0.345 HD
ATOM      5  H   UNL     1     -21.079  66.873  -2.818  1.00  0.00     0.345 HD
ENDBRANCH   1   2
BRANCH   1   6
ATOM      6  C   UNL     1     -18.970  68.354  -0.792  1.00  0.00     0.099 C 
ATOM      7  O   UNL     1     -18.414  67.432  -0.137  1.00  0.00    -0.544 OA
ATOM      8  O   UNL     1     -18.304  69.557  -0.985  1.00  0.00    -0.544 OA
ENDBRANCH   1   6
BRANCH   1   9
ATOM      9  C   UNL     1     -21.439  68.353  -0.250  1.00  0.00     0.047 C 
ATOM     10  C   UNL     1     -22.852  68.033  -0.767  1.00  0.00     0.014 C 
ATOM     11  C   UNL     1     -21.420  69.790   0.303  1.00  0.00     0.014 C 
ENDBRANCH   1   9
TORSDOF 3
ENDMDL
MODEL 3
REMARK VINA RESULT:    -4.547      2.316      3.206
REMARK INTER + INTRA:          -5.271
REMARK INTER:                  -5.296
REMARK INTRA:                   0.025
REMARK UNBOUND:                -0.060
REMARK SMILES CC(C)[C@H]([NH3+])C(=O)[O-]
REMARK SMILES IDX 4 1 5 2 6 6 7 7 8 8 2 9 1 10 3 11
REMARK H PARENT 5 3 5 4 5 5
REMARK Flexibility Score: inf
ROOT
ATOM      1  C   UNL     1     -21.656  68.042  -0.289  1.00  0.00     0.230 C 
ENDROOT
BRANCH   1   2
ATOM      2  N   UNL     1     -23.002  68.166  -0.868  1.00  0.00    -0.350 N 
ATOM      3  H   UNL     1     -23.729  67.841  -0.188  1.00  0.00     0.345 HD
ATOM      4  H   UNL     1     -23.191  69.159  -1.135  1.00  0.00     0.345 HD
ATOM      5  H   UNL     1     -23.074  67.594  -1.741  1.00  0.00     0.345 HD
ENDBRANCH   1   2
BRANCH   1   6
ATOM      6  C   UNL     1     -21.422  69.172   0.684  1.00  0.00     0.099 C 
ATOM      7  O   UNL     1     -21.253  68.933   1.909  1.00  0.00    -0.544 OA
ATOM      8  O   UNL     1     -21.402  70.486   0.232  1.00  0.00    -0.544 OA
ENDBRANCH   1   6
BRANCH   1   9
ATOM      9  C   UNL     1     -20.551  68.018  -1.388  1.00  0.00     0.047 C 
ATOM     10  C   UNL     1     -20.521  66.678  -2.143  1.00  0.00     0.014 C 
ATOM     11  C   UNL     1     -19.160  68.286  -0.785  1.00  0.00     0.014 C 
ENDBRANCH   1   9
TORSDOF 3
ENDMDL
MODEL 4
REMARK VINA RESULT:    -4.527      2.418      3.181
REMARK INTER + INTRA:          -5.248
REMARK INTER:                  -5.223
REMARK INTRA:                  -0.025
REMARK UNBOUND:                -0.060
REMARK SMILES CC(C)[C@H]([NH3+])C(=O)[O-]
REMARK SMILES IDX 4 1 5 2 6 6 7 7 8 8 2 9 1 10 3 11
REMARK H PARENT 5 3 5 4 5 5
REMARK Flexibility Score: inf
ROOT
ATOM      1  C   UNL     1     -21.202  68.919  -0.752  1.00  0.00     0.230 C 
ENDROOT
BRANCH   1   2
ATOM      2  N   UNL     1     -20.884  70.151  -0.014  1.00  0.00    -0.350 N 
ATOM      3  H   UNL     1     -21.654  70.852  -0.114  1.00  0.00     0.345 HD
ATOM      4  H   UNL     1     -20.734  69.937   0.999  1.00  0.00     0.345 HD
ATOM      5  H   UNL     1     -19.995  70.567  -0.375  1.00  0.00     0.345 HD
ENDBRANCH   1   2
BRANCH   1   6
ATOM      6  C   UNL     1     -22.473  68.318  -0.201  1.00  0.00     0.099 C 
ATOM      7  O   UNL     1     -22.713  68.358   1.035  1.00  0.00    -0.544 OA
ATOM      8  O   UNL     1     -23.381  67.708  -1.057  1.00  0.00    -0.544 OA
ENDBRANCH   1   6
BRANCH   1   9
ATOM      9  C   UNL     1     -20.032  67.890  -0.701  1.00  0.00     0.047 C 
ATOM     10  C   UNL     1     -18.659  68.578  -0.795  1.00  0.00     0.014 C 
ATOM     11  C   UNL     1     -20.153  66.852  -1.830  1.00  0.00     0.014 C 
ENDBRANCH   1   9
TORSDOF 3
ENDMDL
MODEL 5
REMARK VINA RESULT:    -4.491      1.787      2.175
REMARK INTER + INTRA:          -5.207
REMARK INTER:                  -5.188
REMARK INTRA:                  -0.019
REMARK UNBOUND:                -0.060
REMARK SMILES CC(C)[C@H]([NH3+])C(=O)[O-]
REMARK SMILES IDX 4 1 5 2 6 6 7 7 8 8 2 9 1 10 3 11
REMARK H PARENT 5 3 5 4 5 5
REMARK Flexibility Score: inf
ROOT
ATOM      1  C   UNL     1     -19.731  68.341  -0.350  1.00  0.00     0.230 C 
ENDROOT
BRANCH   1   2
ATOM      2  N   UNL     1     -18.610  69.180  -0.801  1.00  0.00    -0.350 N 
ATOM      3  H   UNL     1     -18.290  68.890  -1.754  1.00  0.00     0.345 HD
ATOM      4  H   UNL     1     -18.895  70.186  -0.818  1.00  0.00     0.345 HD
ATOM      5  H   UNL     1     -17.808  69.100  -0.134  1.00  0.00     0.345 HD
ENDBRANCH   1   2
BRANCH   1   6
ATOM      6  C   UNL     1     -19.812  67.105  -1.213  1.00  0.00     0.099 C 
ATOM      7  O   UNL     1     -18.953  66.191  -1.099  1.00  0.00    -0.544 OA
ATOM      8  O   UNL     1     -20.832  66.976  -2.146  1.00  0.00    -0.544 OA
ENDBRANCH   1   6
BRANCH   1   9
ATOM      9  C   UNL     1     -21.082  69.119  -0.364  1.00  0.00     0.047 C 
ATOM     10  C   UNL     1     -20.890  70.607  -0.026  1.00  0.00     0.014 C 
ATOM     11  C   UNL     1     -22.088  68.504   0.626  1.00  0.00     0.014 C 
ENDBRANCH   1   9
TORSDOF 3
ENDMDL
MODEL 6
REMARK VINA RESULT:    -4.304      2.686      3.612
REMARK INTER + INTRA:          -4.993
REMARK INTER:                  -4.933
REMARK INTRA:                  -0.060
REMARK UNBOUND:                -0.060
REMARK SMILES CC(C)[C@H]([NH3+])C(=O)[O-]
REMARK SMILES IDX 4 1 5 2 6 6 7 7 8 8 2 9 1 10 3 11
REMARK H PARENT 5 3 5 4 5 5
REMARK Flexibility Score: inf
ROOT
ATOM      1  C   UNL     1     -19.872  68.991  -0.926  1.00  0.00     0.230 C 
ENDROOT
BRANCH   1   2
ATOM      2  N   UNL     1     -18.494  69.498  -0.838  1.00  0.00    -0.350 N 
ATOM      3  H   UNL     1     -18.482  70.476  -0.467  1.00  0.00     0.345 HD
ATOM      4  H   UNL     1     -17.920  68.881  -0.218  1.00  0.00     0.345 HD
ATOM      5  H   UNL     1     -18.045  69.487  -1.783  1.00  0.00     0.345 HD
ENDBRANCH   1   2
BRANCH   1   6
ATOM      6  C   UNL     1     -20.742  69.729   0.063  1.00  0.00     0.099 C 
ATOM      7  O   UNL     1     -20.795  70.987   0.051  1.00  0.00    -0.544 OA
ATOM      8  O   UNL     1     -21.483  69.020   1.000  1.00  0.00    -0.544 OA
ENDBRANCH   1   6
BRANCH   1   9
ATOM      9  C   UNL     1     -19.942  67.452  -0.688  1.00  0.00     0.047 C 
ATOM     10  C   UNL     1     -18.623  66.898  -0.121  1.00  0.00     0.014 C 
ATOM     11  C   UNL     1     -20.284  66.702  -1.988  1.00  0.00     0.014 C 
ENDBRANCH   1   9
TORSDOF 3
ENDMDL
MODEL 7
REMARK VINA RESULT:    -4.150      2.700      3.644
REMARK INTER + INTRA:          -4.816
REMARK INTER:                  -4.760
REMARK INTRA:                  -0.056
REMARK UNBOUND:                -0.060
REMARK SMILES CC(C)[C@H]([NH3+])C(=O)[O-]
REMARK SMILES IDX 4 1 5 2 6 6 7 7 8 8 2 9 1 10 3 11
REMARK H PARENT 5 3 5 4 5 5
REMARK Flexibility Score: inf
ROOT
ATOM      1  C   UNL     1     -20.842  69.210   0.428  1.00  0.00     0.230 C 
ENDROOT
BRANCH   1   2
ATOM      2  N   UNL     1     -21.238  68.389   1.582  1.00  0.00    -0.350 N 
ATOM      3  H   UNL     1     -20.964  68.853   2.479  1.00  0.00     0.345 HD
ATOM      4  H   UNL     1     -22.271  68.226   1.573  1.00  0.00     0.345 HD
ATOM      5  H   UNL     1     -20.778  67.450   1.531  1.00  0.00     0.345 HD
ENDBRANCH   1   2
BRANCH   1   6
ATOM      6  C   UNL     1     -21.248  70.644   0.670  1.00  0.00     0.099 C 
ATOM      7  O   UNL     1     -21.071  71.516  -0.222  1.00  0.00    -0.544 OA
ATOM      8  O   UNL     1     -21.813  71.010   1.885  1.00  0.00    -0.544 OA
ENDBRANCH   1   6
BRANCH   1   9
ATOM      9  C   UNL     1     -21.452  68.677  -0.903  1.00  0.00     0.047 C 
ATOM     10  C   UNL     1     -22.840  68.049  -0.687  1.00  0.00     0.014 C 
ATOM     11  C   UNL     1     -20.527  67.638  -1.563  1.00  0.00     0.014 C 
ENDBRANCH   1   9
TORSDOF 3
ENDMDL
MODEL 8
REMARK VINA RESULT:    -4.052      2.077      2.823
REMARK INTER + INTRA:          -4.705
REMARK INTER:                  -4.773
REMARK INTRA:                   0.068
REMARK UNBOUND:                -0.060
REMARK SMILES CC(C)[C@H]([NH3+])C(=O)[O-]
REMARK SMILES IDX 4 1 5 2 6 6 7 7 8 8 2 9 1 10 3 11
REMARK H PARENT 5 3 5 4 5 5
REMARK Flexibility Score: inf
ROOT
ATOM      1  C   UNL     1     -20.470  68.704  -0.123  1.00  0.00     0.230 C 
ENDROOT
BRANCH   1   2
ATOM      2  N   UNL     1     -20.816  70.071   0.294  1.00  0.00    -0.350 N 
ATOM      3  H   UNL     1     -20.438  70.275   1.248  1.00  0.00     0.345 HD
ATOM      4  H   UNL     1     -20.436  70.765  -0.389  1.00  0.00     0.345 HD
ATOM      5  H   UNL     1     -21.856  70.191   0.307  1.00  0.00     0.345 HD
ENDBRANCH   1   2
BRANCH   1   6
ATOM      6  C   UNL     1     -19.005  68.646  -0.485  1.00  0.00     0.099 C 
ATOM      7  O   UNL     1     -18.477  69.574  -1.154  1.00  0.00    -0.544 OA
ATOM      8  O   UNL     1     -18.234  67.561  -0.088  1.00  0.00    -0.544 OA
ENDBRANCH   1   6
BRANCH   1   9
ATOM      9  C   UNL     1     -21.355  68.215  -1.309  1.00  0.00     0.047 C 
ATOM     10  C   UNL     1     -22.802  67.937  -0.868  1.00  0.00     0.014 C 
ATOM     11  C   UNL     1     -20.773  66.944  -1.952  1.00  0.00     0.014 C 
ENDBRANCH   1   9
TORSDOF 3
ENDMDL
MODEL 9
REMARK VINA RESULT:    -3.572      2.502      3.118
REMARK INTER + INTRA:          -4.154
REMARK INTER:                  -4.102
REMARK INTRA:                  -0.052
REMARK UNBOUND:                -0.060
REMARK SMILES CC(C)[C@H]([NH3+])C(=O)[O-]
REMARK SMILES IDX 4 1 5 2 6 6 7 7 8 8 2 9 1 10 3 11
REMARK H PARENT 5 3 5 4 5 5
REMARK Flexibility Score: inf
ROOT
ATOM      1  C   UNL     1     -20.545  68.545   0.335  1.00  0.00     0.230 C 
ENDROOT
BRANCH   1   2
ATOM      2  N   UNL     1     -20.059  67.612   1.363  1.00  0.00    -0.350 N 
ATOM      3  H   UNL     1     -20.326  67.943   2.319  1.00  0.00     0.345 HD
ATOM      4  H   UNL     1     -20.452  66.657   1.199  1.00  0.00     0.345 HD
ATOM      5  H   UNL     1     -19.017  67.529   1.310  1.00  0.00     0.345 HD
ENDBRANCH   1   2
BRANCH   1   6
ATOM      6  C   UNL     1     -22.039  68.388   0.181  1.00  0.00     0.099 C 
ATOM      7  O   UNL     1     -22.779  68.303   1.197  1.00  0.00    -0.544 OA
ATOM      8  O   UNL     1     -22.604  68.328  -1.086  1.00  0.00    -0.544 OA
ENDBRANCH   1   6
BRANCH   1   9
ATOM      9  C   UNL     1     -19.821  68.336  -1.030  1.00  0.00     0.047 C 
ATOM     10  C   UNL     1     -19.380  66.876  -1.227  1.00  0.00     0.014 C 
ATOM     11  C   UNL     1     -18.592  69.254  -1.155  1.00  0.00     0.014 C 
ENDBRANCH   1   9
TORSDOF 3
ENDMDL
