MODEL 1
REMARK VINA RESULT:    -5.625      0.000      0.000
REMARK INTER + INTRA:          -8.444
REMARK INTER:                  -8.584
REMARK INTRA:                   0.140
REMARK UNBOUND:                 0.140
REMARK SMILES CC1=CCC[C@@H](C)C(=O)C[C@@H](C(C)C)C(=O)C1
REMARK SMILES IDX 8 1 9 2 6 3 7 4 5 5 4 6 3 7 2 8 1 9 10 11 11 12 15 13 16 14
REMARK SMILES IDX 17 15 12 17 13 18 14 19
REMARK H PARENT
REMARK Flexibility Score: 70.00
ROOT
ATOM      1  C   UNL     1      -8.520  30.842  42.766  1.00  0.00     0.136 C 
ATOM      2  O   UNL     1      -9.143  31.281  43.722  1.00  0.00    -0.299 OA
ENDROOT
BRANCH   1   3
ATOM      3  C   UNL     1      -8.457  29.349  42.525  1.00  0.00     0.053 C 
ATOM      4  C   UNL     1      -7.748  28.676  43.704  1.00  0.00     0.016 C 
BRANCH   3   5
ATOM      5  C   UNL     1      -7.746  28.990  41.199  1.00  0.00     0.015 C 
BRANCH   5   6
ATOM      6  C   UNL     1      -8.710  28.802  40.010  1.00  0.00     0.028 C 
BRANCH   6   7
ATOM      7  C   UNL     1      -8.280  29.616  38.810  1.00  0.00    -0.028 C 
ATOM      8  C   UNL     1      -8.758  30.831  38.449  1.00  0.00    -0.070 CG0
ATOM      9  C   UNL     1      -8.215  31.456  37.189  1.00  0.00     0.039 C 
ATOM     10  G   UNL     1      -9.749  31.626  39.275  1.00  0.00     0.000 G0
ENDBRANCH   6   7
ENDBRANCH   5   6
ENDBRANCH   3   5
ENDBRANCH   1   3
BRANCH   1  11
ATOM     11  C   UNL     1      -7.844  31.803  41.817  1.00  0.00     0.087 C 
BRANCH  11  12
ATOM     12  C   UNL     1      -8.790  32.937  41.366  1.00  0.00     0.066 C 
BRANCH  12  13
ATOM     13  C   UNL     1      -9.064  32.850  39.876  1.00  0.00     0.140 C 
ATOM     14  O   UNL     1      -8.696  33.751  39.135  1.00  0.00    -0.299 OA
BRANCH  13  15
ATOM     15  C   UNL     1      -9.743  31.648  39.278  1.00  0.00     0.106 CG0
ATOM     16  G   UNL     1      -8.749  30.842  38.467  1.00  0.00     0.000 G0
ENDBRANCH  13  15
ENDBRANCH  12  13
BRANCH  12  17
ATOM     17  C   UNL     1      -8.285  34.344  41.809  1.00  0.00    -0.006 C 
ATOM     18  C   UNL     1      -6.776  34.322  42.105  1.00  0.00     0.008 C 
ATOM     19  C   UNL     1      -9.046  34.945  43.004  1.00  0.00     0.008 C 
ENDBRANCH  12  17
ENDBRANCH  11  12
ENDBRANCH   1  11
TORSDOF 1
ENDMDL
MODEL 2
REMARK VINA RESULT:    -5.113      1.763      3.789
REMARK INTER + INTRA:          -7.663
REMARK INTER:                  -7.954
REMARK INTRA:                   0.291
REMARK UNBOUND:                 0.140
REMARK SMILES CC1=CCC[C@@H](C)C(=O)C[C@@H](C(C)C)C(=O)C1
REMARK SMILES IDX 8 1 9 2 6 3 7 4 5 5 4 6 3 7 2 8 1 9 10 11 11 12 15 13 16 14
REMARK SMILES IDX 17 15 12 17 13 18 14 19
REMARK H PARENT
REMARK Flexibility Score: 70.00
ROOT
ATOM      1  C   UNL     1      -7.902  33.488  41.361  1.00  0.00     0.136 C 
ATOM      2  O   UNL     1      -6.787  33.723  41.805  1.00  0.00    -0.299 OA
ENDROOT
BRANCH   1   3
ATOM      3  C   UNL     1      -8.301  34.013  39.999  1.00  0.00     0.053 C 
ATOM      4  C   UNL     1      -9.810  34.276  39.980  1.00  0.00     0.016 C 
BRANCH   3   5
ATOM      5  C   UNL     1      -7.911  33.052  38.852  1.00  0.00     0.015 C 
BRANCH   5   6
ATOM      6  C   UNL     1      -9.079  32.179  38.350  1.00  0.00     0.028 C 
BRANCH   6   7
ATOM      7  C   UNL     1      -8.710  30.712  38.330  1.00  0.00    -0.028 C 
ATOM      8  C   UNL     1      -8.790  29.847  39.369  1.00  0.00    -0.070 CG0
ATOM      9  C   UNL     1      -8.335  28.428  39.142  1.00  0.00     0.039 C 
ATOM     10  G   UNL     1      -9.376  30.206  40.720  1.00  0.00     0.000 G0
ENDBRANCH   6   7
ENDBRANCH   5   6
ENDBRANCH   3   5
ENDBRANCH   1   3
BRANCH   1  11
ATOM     11  C   UNL     1      -8.859  32.646  42.170  1.00  0.00     0.087 C 
BRANCH  11  12
ATOM     12  C   UNL     1      -8.180  31.384  42.746  1.00  0.00     0.066 C 
BRANCH  12  13
ATOM     13  C   UNL     1      -8.339  30.208  41.798  1.00  0.00     0.140 C 
ATOM     14  O   UNL     1      -7.622  29.224  41.923  1.00  0.00    -0.299 OA
BRANCH  13  15
ATOM     15  C   UNL     1      -9.398  30.206  40.730  1.00  0.00     0.106 CG0
ATOM     16  G   UNL     1      -8.784  29.849  39.392  1.00  0.00     0.000 G0
ENDBRANCH  13  15
ENDBRANCH  12  13
BRANCH  12  17
ATOM     17  C   UNL     1      -8.654  31.062  44.196  1.00  0.00    -0.006 C 
ATOM     18  C   UNL     1      -9.590  32.160  44.727  1.00  0.00     0.008 C 
ATOM     19  C   UNL     1      -7.512  30.816  45.196  1.00  0.00     0.008 C 
ENDBRANCH  12  17
ENDBRANCH  11  12
ENDBRANCH   1  11
TORSDOF 1
ENDMDL
MODEL 3
REMARK VINA RESULT:    -4.744      1.902      4.491
REMARK INTER + INTRA:          -7.100
REMARK INTER:                  -7.337
REMARK INTRA:                   0.237
REMARK UNBOUND:                 0.140
REMARK SMILES CC1=CCC[C@@H](C)C(=O)C[C@@H](C(C)C)C(=O)C1
REMARK SMILES IDX 8 1 9 2 6 3 7 4 5 5 4 6 3 7 2 8 1 9 10 11 11 12 15 13 16 14
REMARK SMILES IDX 17 15 12 17 13 18 14 19
REMARK H PARENT
REMARK Flexibility Score: 70.00
ROOT
ATOM      1  C   UNL     1      -8.903  34.003  40.941  1.00  0.00     0.136 C 
ATOM      2  O   UNL     1      -9.976  34.542  40.713  1.00  0.00    -0.299 OA
ENDROOT
BRANCH   1   3
ATOM      3  C   UNL     1      -8.186  34.267  42.247  1.00  0.00     0.053 C 
ATOM      4  C   UNL     1      -6.694  33.968  42.075  1.00  0.00     0.016 C 
BRANCH   3   5
ATOM      5  C   UNL     1      -8.764  33.444  43.422  1.00  0.00     0.015 C 
BRANCH   5   6
ATOM      6  C   UNL     1      -9.722  32.320  42.980  1.00  0.00     0.028 C 
BRANCH   6   7
ATOM      7  C   UNL     1      -9.194  30.955  43.359  1.00  0.00    -0.028 C 
ATOM      8  C   UNL     1      -8.401  30.160  42.601  1.00  0.00    -0.070 CG0
ATOM      9  C   UNL     1      -8.016  28.812  43.157  1.00  0.00     0.039 C 
ATOM     10  G   UNL     1      -7.825  30.575  41.263  1.00  0.00     0.000 G0
ENDBRANCH   6   7
ENDBRANCH   5   6
ENDBRANCH   3   5
ENDBRANCH   1   3
BRANCH   1  11
ATOM     11  C   UNL     1      -8.320  33.051  39.924  1.00  0.00     0.087 C 
BRANCH  11  12
ATOM     12  C   UNL     1      -9.308  31.924  39.549  1.00  0.00     0.066 C 
BRANCH  12  13
ATOM     13  C   UNL     1      -8.910  30.616  40.209  1.00  0.00     0.140 C 
ATOM     14  O   UNL     1      -9.444  29.572  39.863  1.00  0.00    -0.299 OA
BRANCH  13  15
ATOM     15  C   UNL     1      -7.830  30.570  41.256  1.00  0.00     0.106 CG0
ATOM     16  G   UNL     1      -8.416  30.145  42.587  1.00  0.00     0.000 G0
ENDBRANCH  13  15
ENDBRANCH  12  13
BRANCH  12  17
ATOM     17  C   UNL     1      -9.501  31.792  38.007  1.00  0.00    -0.006 C 
ATOM     18  C   UNL     1      -8.185  31.398  37.317  1.00  0.00     0.008 C 
ATOM     19  C   UNL     1     -10.095  33.040  37.333  1.00  0.00     0.008 C 
ENDBRANCH  12  17
ENDBRANCH  11  12
ENDBRANCH   1  11
TORSDOF 1
ENDMDL
MODEL 4
REMARK VINA RESULT:    -4.659      1.291      3.720
REMARK INTER + INTRA:          -6.969
REMARK INTER:                  -6.583
REMARK INTRA:                  -0.386
REMARK UNBOUND:                 0.140
REMARK SMILES CC1=CCC[C@@H](C)C(=O)C[C@@H](C(C)C)C(=O)C1
REMARK SMILES IDX 8 1 9 2 6 3 7 4 5 5 4 6 3 7 2 8 1 9 10 11 11 12 15 13 16 14
REMARK SMILES IDX 17 15 12 17 13 18 14 19
REMARK H PARENT
REMARK Flexibility Score: 70.00
ROOT
ATOM      1  C   UNL     1      -8.409  33.369  38.937  1.00  0.00     0.136 C 
ATOM      2  O   UNL     1      -7.467  34.147  38.963  1.00  0.00    -0.299 OA
ENDROOT
BRANCH   1   3
ATOM      3  C   UNL     1      -8.633  32.491  37.725  1.00  0.00     0.053 C 
ATOM      4  C   UNL     1     -10.121  32.144  37.619  1.00  0.00     0.016 C 
BRANCH   3   5
ATOM      5  C   UNL     1      -7.784  31.198  37.761  1.00  0.00     0.015 C 
BRANCH   5   6
ATOM      6  C   UNL     1      -8.589  29.938  38.135  1.00  0.00     0.028 C 
BRANCH   6   7
ATOM      7  C   UNL     1      -8.062  29.293  39.398  1.00  0.00    -0.028 C 
ATOM      8  C   UNL     1      -8.520  29.495  40.657  1.00  0.00    -0.070 CG0
ATOM      9  C   UNL     1      -7.823  28.776  41.784  1.00  0.00     0.039 C 
ATOM     10  G   UNL     1      -9.731  30.343  40.986  1.00  0.00     0.000 G0
ENDBRANCH   6   7
ENDBRANCH   5   6
ENDBRANCH   3   5
ENDBRANCH   1   3
BRANCH   1  11
ATOM     11  C   UNL     1      -9.324  33.273  40.134  1.00  0.00     0.087 C 
BRANCH  11  12
ATOM     12  C   UNL     1      -8.604  32.694  41.372  1.00  0.00     0.066 C 
BRANCH  12  13
ATOM     13  C   UNL     1      -9.342  31.479  41.906  1.00  0.00     0.140 C 
ATOM     14  O   UNL     1      -9.664  31.432  43.085  1.00  0.00    -0.299 OA
BRANCH  13  15
ATOM     15  C   UNL     1      -9.732  30.344  40.999  1.00  0.00     0.106 CG0
ATOM     16  G   UNL     1      -8.515  29.506  40.665  1.00  0.00     0.000 G0
ENDBRANCH  13  15
ENDBRANCH  12  13
BRANCH  12  17
ATOM     17  C   UNL     1      -8.340  33.773  42.465  1.00  0.00    -0.006 C 
ATOM     18  C   UNL     1      -9.038  35.097  42.115  1.00  0.00     0.008 C 
ATOM     19  C   UNL     1      -6.852  34.026  42.761  1.00  0.00     0.008 C 
ENDBRANCH  12  17
ENDBRANCH  11  12
ENDBRANCH   1  11
TORSDOF 1
ENDMDL
MODEL 5
REMARK VINA RESULT:    -4.656      1.773      4.176
REMARK INTER + INTRA:          -6.966
REMARK INTER:                  -7.041
REMARK INTRA:                   0.075
REMARK UNBOUND:                 0.140
REMARK SMILES CC1=CCC[C@@H](C)C(=O)C[C@@H](C(C)C)C(=O)C1
REMARK SMILES IDX 8 1 9 2 6 3 7 4 5 5 4 6 3 7 2 8 1 9 10 11 11 12 15 13 16 14
REMARK SMILES IDX 17 15 12 17 13 18 14 19
REMARK H PARENT
REMARK Flexibility Score: 70.00
ROOT
ATOM      1  C   UNL     1      -8.245  29.693  43.032  1.00  0.00     0.136 C 
ATOM      2  O   UNL     1      -7.599  28.662  43.151  1.00  0.00    -0.299 OA
ENDROOT
BRANCH   1   3
ATOM      3  C   UNL     1      -8.037  30.833  44.006  1.00  0.00     0.053 C 
ATOM      4  C   UNL     1      -7.240  30.328  45.214  1.00  0.00     0.016 C 
BRANCH   3   5
ATOM      5  C   UNL     1      -9.368  31.468  44.472  1.00  0.00     0.015 C 
BRANCH   5   6
ATOM      6  C   UNL     1      -9.602  32.890  43.925  1.00  0.00     0.028 C 
BRANCH   6   7
ATOM      7  C   UNL     1      -8.487  33.322  42.999  1.00  0.00    -0.028 C 
ATOM      8  C   UNL     1      -8.444  33.150  41.656  1.00  0.00    -0.070 CG0
ATOM      9  C   UNL     1      -7.215  33.626  40.924  1.00  0.00     0.039 C 
ATOM     10  G   UNL     1      -9.586  32.576  40.843  1.00  0.00     0.000 G0
ENDBRANCH   6   7
ENDBRANCH   5   6
ENDBRANCH   3   5
ENDBRANCH   1   3
BRANCH   1  11
ATOM     11  C   UNL     1      -9.225  29.827  41.891  1.00  0.00     0.087 C 
BRANCH  11  12
ATOM     12  C   UNL     1      -8.522  30.173  40.559  1.00  0.00     0.066 C 
BRANCH  12  13
ATOM     13  C   UNL     1      -9.096  31.445  39.961  1.00  0.00     0.140 C 
ATOM     14  O   UNL     1      -9.200  31.554  38.748  1.00  0.00    -0.299 OA
BRANCH  13  15
ATOM     15  C   UNL     1      -9.587  32.564  40.838  1.00  0.00     0.106 CG0
ATOM     16  G   UNL     1      -8.439  33.127  41.651  1.00  0.00     0.000 G0
ENDBRANCH  13  15
ENDBRANCH  12  13
BRANCH  12  17
ATOM     17  C   UNL     1      -8.524  28.977  39.559  1.00  0.00    -0.006 C 
ATOM     18  C   UNL     1      -9.494  27.875  40.016  1.00  0.00     0.008 C 
ATOM     19  C   UNL     1      -7.135  28.375  39.287  1.00  0.00     0.008 C 
ENDBRANCH  12  17
ENDBRANCH  11  12
ENDBRANCH   1  11
TORSDOF 1
ENDMDL
MODEL 6
REMARK VINA RESULT:    -4.624      1.740      2.815
REMARK INTER + INTRA:          -6.917
REMARK INTER:                  -7.231
REMARK INTRA:                   0.314
REMARK UNBOUND:                 0.140
REMARK SMILES CC1=CCC[C@@H](C)C(=O)C[C@@H](C(C)C)C(=O)C1
REMARK SMILES IDX 8 1 9 2 6 3 7 4 5 5 4 6 3 7 2 8 1 9 10 11 11 12 15 13 16 14
REMARK SMILES IDX 17 15 12 17 13 18 14 19
REMARK H PARENT
REMARK Flexibility Score: 70.00
ROOT
ATOM      1  C   UNL     1      -8.379  29.282  41.468  1.00  0.00     0.136 C 
ATOM      2  O   UNL     1      -8.349  28.368  42.279  1.00  0.00    -0.299 OA
ENDROOT
BRANCH   1   3
ATOM      3  C   UNL     1      -9.053  29.083  40.127  1.00  0.00     0.053 C 
ATOM      4  C   UNL     1      -9.030  27.594  39.766  1.00  0.00     0.016 C 
BRANCH   3   5
ATOM      5  C   UNL     1      -8.396  29.916  39.001  1.00  0.00     0.015 C 
BRANCH   5   6
ATOM      6  C   UNL     1      -9.379  30.847  38.265  1.00  0.00     0.028 C 
BRANCH   6   7
ATOM      7  C   UNL     1      -8.873  32.272  38.223  1.00  0.00    -0.028 C 
ATOM      8  C   UNL     1      -9.113  33.238  39.141  1.00  0.00    -0.070 CG0
ATOM      9  C   UNL     1      -8.538  34.609  38.888  1.00  0.00     0.039 C 
ATOM     10  G   UNL     1      -9.860  33.002  40.438  1.00  0.00     0.000 G0
ENDBRANCH   6   7
ENDBRANCH   5   6
ENDBRANCH   3   5
ENDBRANCH   1   3
BRANCH   1  11
ATOM     11  C   UNL     1      -7.766  30.615  41.829  1.00  0.00     0.087 C 
BRANCH  11  12
ATOM     12  C   UNL     1      -8.810  31.597  42.405  1.00  0.00     0.066 C 
BRANCH  12  13
ATOM     13  C   UNL     1      -8.865  32.870  41.580  1.00  0.00     0.140 C 
ATOM     14  O   UNL     1      -8.074  33.776  41.803  1.00  0.00    -0.299 OA
BRANCH  13  15
ATOM     15  C   UNL     1      -9.849  33.025  40.452  1.00  0.00     0.106 CG0
ATOM     16  G   UNL     1      -9.111  33.223  39.144  1.00  0.00     0.000 G0
ENDBRANCH  13  15
ENDBRANCH  12  13
BRANCH  12  17
ATOM     17  C   UNL     1      -8.594  31.868  43.925  1.00  0.00    -0.006 C 
ATOM     18  C   UNL     1      -8.017  30.631  44.631  1.00  0.00     0.008 C 
ATOM     19  C   UNL     1      -9.850  32.358  44.666  1.00  0.00     0.008 C 
ENDBRANCH  12  17
ENDBRANCH  11  12
ENDBRANCH   1  11
TORSDOF 1
ENDMDL
MODEL 7
REMARK VINA RESULT:    -4.023      1.972      3.913
REMARK INTER + INTRA:          -5.998
REMARK INTER:                  -6.219
REMARK INTRA:                   0.220
REMARK UNBOUND:                 0.140
REMARK SMILES CC1=CCC[C@@H](C)C(=O)C[C@@H](C(C)C)C(=O)C1
REMARK SMILES IDX 8 1 9 2 6 3 7 4 5 5 4 6 3 7 2 8 1 9 10 11 11 12 15 13 16 14
REMARK SMILES IDX 17 15 12 17 13 18 14 19
REMARK H PARENT
REMARK Flexibility Score: 70.00
ROOT
ATOM      1  C   UNL     1      -8.902  29.245  41.260  1.00  0.00     0.136 C 
ATOM      2  O   UNL     1      -9.215  28.072  41.117  1.00  0.00    -0.299 OA
ENDROOT
BRANCH   1   3
ATOM      3  C   UNL     1      -7.679  29.608  42.074  1.00  0.00     0.053 C 
ATOM      4  C   UNL     1      -6.496  28.744  41.624  1.00  0.00     0.016 C 
BRANCH   3   5
ATOM      5  C   UNL     1      -7.907  29.450  43.596  1.00  0.00     0.015 C 
BRANCH   5   6
ATOM      6  C   UNL     1      -8.344  30.752  44.296  1.00  0.00     0.028 C 
BRANCH   6   7
ATOM      7  C   UNL     1      -7.567  31.946  43.790  1.00  0.00    -0.028 C 
ATOM      8  C   UNL     1      -8.007  32.879  42.911  1.00  0.00    -0.070 CG0
ATOM      9  C   UNL     1      -7.052  33.974  42.509  1.00  0.00     0.039 C 
ATOM     10  G   UNL     1      -9.421  32.924  42.368  1.00  0.00     0.000 G0
ENDBRANCH   6   7
ENDBRANCH   5   6
ENDBRANCH   3   5
ENDBRANCH   1   3
BRANCH   1  11
ATOM     11  C   UNL     1      -9.729  30.319  40.596  1.00  0.00     0.087 C 
BRANCH  11  12
ATOM     12  C   UNL     1      -8.874  31.537  40.180  1.00  0.00     0.066 C 
BRANCH  12  13
ATOM     13  C   UNL     1      -9.379  32.803  40.848  1.00  0.00     0.140 C 
ATOM     14  O   UNL     1      -9.795  33.728  40.163  1.00  0.00    -0.299 OA
BRANCH  13  15
ATOM     15  C   UNL     1      -9.425  32.929  42.346  1.00  0.00     0.106 CG0
ATOM     16  G   UNL     1      -8.022  32.867  42.914  1.00  0.00     0.000 G0
ENDBRANCH  13  15
ENDBRANCH  12  13
BRANCH  12  17
ATOM     17  C   UNL     1      -8.749  31.675  38.632  1.00  0.00    -0.006 C 
ATOM     18  C   UNL     1      -8.283  30.355  37.995  1.00  0.00     0.008 C 
ATOM     19  C   UNL     1      -7.845  32.830  38.169  1.00  0.00     0.008 C 
ENDBRANCH  12  17
ENDBRANCH  11  12
ENDBRANCH   1  11
TORSDOF 1
ENDMDL
MODEL 8
REMARK VINA RESULT:    -3.585      1.982      5.332
REMARK INTER + INTRA:          -5.331
REMARK INTER:                  -7.362
REMARK INTRA:                   2.031
REMARK UNBOUND:                 0.140
REMARK SMILES CC1=CCC[C@@H](C)C(=O)C[C@@H](C(C)C)C(=O)C1
REMARK SMILES IDX 8 1 9 2 6 3 7 4 5 5 4 6 3 7 2 8 1 9 10 11 11 12 15 13 16 14
REMARK SMILES IDX 17 15 12 17 13 18 14 19
REMARK H PARENT
REMARK Flexibility Score: 70.00
ROOT
ATOM      1  C   UNL     1      -9.218  31.796  39.573  1.00  0.00     0.136 C 
ATOM      2  O   UNL     1      -9.072  31.124  38.563  1.00  0.00    -0.299 OA
ENDROOT
BRANCH   1   3
ATOM      3  C   UNL     1      -8.613  33.181  39.655  1.00  0.00     0.053 C 
ATOM      4  C   UNL     1      -7.979  33.537  38.307  1.00  0.00     0.016 C 
BRANCH   3   5
ATOM      5  C   UNL     1      -7.567  33.309  40.788  1.00  0.00     0.015 C 
BRANCH   5   6
ATOM      6  C   UNL     1      -7.836  34.483  41.750  1.00  0.00     0.028 C 
BRANCH   6   7
ATOM      7  C   UNL     1      -8.650  34.047  42.948  1.00  0.00    -0.028 C 
ATOM      8  C   UNL     1      -8.730  32.793  43.453  1.00  0.00    -0.070 CG0
ATOM      9  C   UNL     1      -9.634  32.567  44.639  1.00  0.00     0.039 C 
ATOM     10  G   UNL     1      -7.911  31.625  42.942  1.00  0.00     0.000 G0
ENDBRANCH   6   7
ENDBRANCH   5   6
ENDBRANCH   3   5
ENDBRANCH   1   3
BRANCH   1  11
ATOM     11  C   UNL     1     -10.028  31.243  40.722  1.00  0.00     0.087 C 
BRANCH  11  12
ATOM     12  C   UNL     1      -9.338  30.035  41.391  1.00  0.00     0.066 C 
BRANCH  12  13
ATOM     13  C   UNL     1      -8.799  30.412  42.760  1.00  0.00     0.140 C 
ATOM     14  O   UNL     1      -9.051  29.709  43.728  1.00  0.00    -0.299 OA
BRANCH  13  15
ATOM     15  C   UNL     1      -7.915  31.616  42.943  1.00  0.00     0.106 CG0
ATOM     16  G   UNL     1      -8.730  32.782  43.466  1.00  0.00     0.000 G0
ENDBRANCH  13  15
ENDBRANCH  12  13
BRANCH  12  17
ATOM     17  C   UNL     1      -8.259  29.383  40.473  1.00  0.00    -0.006 C 
ATOM     18  C   UNL     1      -8.842  28.192  39.694  1.00  0.00     0.008 C 
ATOM     19  C   UNL     1      -6.977  28.953  41.207  1.00  0.00     0.008 C 
ENDBRANCH  12  17
ENDBRANCH  11  12
ENDBRANCH   1  11
TORSDOF 1
ENDMDL
MODEL 9
REMARK VINA RESULT:    -2.761     17.981     20.007
REMARK INTER + INTRA:          -4.073
REMARK INTER:                  -5.187
REMARK INTRA:                   1.114
REMARK UNBOUND:                 0.140
REMARK SMILES CC1=CCC[C@@H](C)C(=O)C[C@@H](C(C)C)C(=O)C1
REMARK SMILES IDX 8 1 9 2 6 3 7 4 5 5 4 6 3 7 2 8 1 9 10 11 11 12 15 13 16 14
REMARK SMILES IDX 17 15 12 17 13 18 14 19
REMARK H PARENT
REMARK Flexibility Score: 70.00
ROOT
ATOM      1  C   UNL     1       1.081  15.823  50.677  1.00  0.00     0.136 C 
ATOM      2  O   UNL     1       1.504  16.969  50.725  1.00  0.00    -0.299 OA
ENDROOT
BRANCH   1   3
ATOM      3  C   UNL     1       1.369  14.961  49.467  1.00  0.00     0.053 C 
ATOM      4  C   UNL     1       2.607  15.500  48.743  1.00  0.00     0.016 C 
BRANCH   3   5
ATOM      5  C   UNL     1       0.171  14.884  48.492  1.00  0.00     0.015 C 
BRANCH   5   6
ATOM      6  C   UNL     1      -0.339  16.262  48.025  1.00  0.00     0.028 C 
BRANCH   6   7
ATOM      7  C   UNL     1      -1.804  16.453  48.346  1.00  0.00    -0.028 C 
ATOM      8  C   UNL     1      -2.315  17.119  49.410  1.00  0.00    -0.070 CG0
ATOM      9  C   UNL     1      -3.814  17.159  49.562  1.00  0.00     0.039 C 
ATOM     10  G   UNL     1      -1.471  17.881  50.410  1.00  0.00     0.000 G0
ENDBRANCH   6   7
ENDBRANCH   5   6
ENDBRANCH   3   5
ENDBRANCH   1   3
BRANCH   1  11
ATOM     11  C   UNL     1       0.299  15.272  51.845  1.00  0.00     0.087 C 
BRANCH  11  12
ATOM     12  C   UNL     1      -1.206  15.605  51.745  1.00  0.00     0.066 C 
BRANCH  12  13
ATOM     13  C   UNL     1      -1.424  17.108  51.716  1.00  0.00     0.140 C 
ATOM     14  O   UNL     1      -1.524  17.729  52.764  1.00  0.00    -0.299 OA
BRANCH  13  15
ATOM     15  C   UNL     1      -1.474  17.862  50.415  1.00  0.00     0.106 CG0
ATOM     16  G   UNL     1      -2.321  17.107  49.410  1.00  0.00     0.000 G0
ENDBRANCH  13  15
ENDBRANCH  12  13
BRANCH  12  17
ATOM     17  C   UNL     1      -2.048  14.891  52.846  1.00  0.00    -0.006 C 
ATOM     18  C   UNL     1      -3.540  15.233  52.710  1.00  0.00     0.008 C 
ATOM     19  C   UNL     1      -1.574  15.166  54.283  1.00  0.00     0.008 C 
ENDBRANCH  12  17
ENDBRANCH  11  12
ENDBRANCH   1  11
TORSDOF 1
ENDMDL
