MODEL 1
REMARK VINA RESULT:    -3.339      0.000      0.000
REMARK INTER + INTRA:          -8.819
REMARK INTER:                  -6.463
REMARK INTRA:                  -2.357
REMARK UNBOUND:                -2.357
REMARK SMILES CCCCCCCCCCCCCCCCCC(=O)[O-]
REMARK SMILES IDX 10 1 11 2 12 3 13 4 14 5 15 6 16 7 17 8 18 9 19 10 20 11
REMARK SMILES IDX 9 12 8 13 7 14 6 15 5 16 4 17 3 18 2 19 1 20
REMARK H PARENT
REMARK Flexibility Score: inf
ROOT
ATOM      1  C   UNL     1      36.349   4.175  -8.941  1.00  0.00     0.000 C 
ENDROOT
BRANCH   1   2
ATOM      2  C   UNL     1      35.710   3.065  -8.085  1.00  0.00     0.000 C 
BRANCH   2   3
ATOM      3  C   UNL     1      36.050   1.627  -8.521  1.00  0.00     0.000 C 
BRANCH   3   4
ATOM      4  C   UNL     1      37.356   1.082  -7.902  1.00  0.00     0.000 C 
BRANCH   4   5
ATOM      5  C   UNL     1      38.542   1.154  -8.879  1.00  0.00     0.000 C 
BRANCH   5   6
ATOM      6  C   UNL     1      39.597   2.187  -8.454  1.00  0.00     0.000 C 
BRANCH   6   7
ATOM      7  C   UNL     1      39.305   2.791  -7.071  1.00  0.00     0.006 C 
BRANCH   7   8
ATOM      8  C   UNL     1      40.579   2.856  -6.223  1.00  0.00     0.053 C 
BRANCH   8   9
ATOM      9  C   UNL     1      41.058   1.479  -5.888  1.00  0.00     0.041 C 
ATOM     10  O   UNL     1      40.285   0.660  -5.323  1.00  0.00    -0.550 OA
ATOM     11  O   UNL     1      42.344   1.085  -6.237  1.00  0.00    -0.550 OA
ENDBRANCH   8   9
ENDBRANCH   7   8
ENDBRANCH   6   7
ENDBRANCH   5   6
ENDBRANCH   4   5
ENDBRANCH   3   4
ENDBRANCH   2   3
ENDBRANCH   1   2
BRANCH   1  12
ATOM     12  C   UNL     1      36.902   5.372  -8.146  1.00  0.00     0.000 C 
BRANCH  12  13
ATOM     13  C   UNL     1      36.678   5.239  -6.629  1.00  0.00    -0.000 C 
BRANCH  13  14
ATOM     14  C   UNL     1      35.929   6.445  -6.038  1.00  0.00    -0.000 C 
BRANCH  14  15
ATOM     15  C   UNL     1      34.643   6.034  -5.300  1.00  0.00    -0.000 C 
BRANCH  15  16
ATOM     16  C   UNL     1      33.780   5.061  -6.119  1.00  0.00    -0.000 C 
BRANCH  16  17
ATOM     17  C   UNL     1      32.699   5.776  -6.944  1.00  0.00    -0.000 C 
BRANCH  17  18
ATOM     18  C   UNL     1      33.266   6.259  -8.288  1.00  0.00    -0.000 C 
BRANCH  18  19
ATOM     19  C   UNL     1      32.350   5.917  -9.474  1.00  0.00    -0.003 C 
ATOM     20  C   UNL     1      33.110   5.294 -10.646  1.00  0.00     0.004 C 
ENDBRANCH  18  19
ENDBRANCH  17  18
ENDBRANCH  16  17
ENDBRANCH  15  16
ENDBRANCH  14  15
ENDBRANCH  13  14
ENDBRANCH  12  13
ENDBRANCH   1  12
TORSDOF 16
ENDMDL
MODEL 2
REMARK VINA RESULT:    -3.229      3.782      7.175
REMARK INTER + INTRA:          -8.606
REMARK INTER:                  -6.182
REMARK INTRA:                  -2.424
REMARK UNBOUND:                -2.357
REMARK SMILES CCCCCCCCCCCCCCCCCC(=O)[O-]
REMARK SMILES IDX 10 1 11 2 12 3 13 4 14 5 15 6 16 7 17 8 18 9 19 10 20 11
REMARK SMILES IDX 9 12 8 13 7 14 6 15 5 16 4 17 3 18 2 19 1 20
REMARK H PARENT
REMARK Flexibility Score: inf
ROOT
ATOM      1  C   UNL     1      28.602   7.717  -8.714  1.00  0.00     0.000 C 
ENDROOT
BRANCH   1   2
ATOM      2  C   UNL     1      29.599   7.097  -7.716  1.00  0.00     0.000 C 
BRANCH   2   3
ATOM      3  C   UNL     1      29.936   7.979  -6.498  1.00  0.00     0.000 C 
BRANCH   3   4
ATOM      4  C   UNL     1      31.434   8.336  -6.385  1.00  0.00     0.000 C 
BRANCH   4   5
ATOM      5  C   UNL     1      32.224   7.960  -7.650  1.00  0.00     0.000 C 
BRANCH   5   6
ATOM      6  C   UNL     1      33.398   7.013  -7.355  1.00  0.00     0.000 C 
BRANCH   6   7
ATOM      7  C   UNL     1      32.936   5.667  -6.775  1.00  0.00     0.006 C 
BRANCH   7   8
ATOM      8  C   UNL     1      34.133   4.756  -6.488  1.00  0.00     0.053 C 
BRANCH   8   9
ATOM      9  C   UNL     1      35.022   5.368  -5.452  1.00  0.00     0.041 C 
ATOM     10  O   UNL     1      34.640   5.443  -4.254  1.00  0.00    -0.550 OA
ATOM     11  O   UNL     1      36.290   5.819  -5.801  1.00  0.00    -0.550 OA
ENDBRANCH   8   9
ENDBRANCH   7   8
ENDBRANCH   6   7
ENDBRANCH   5   6
ENDBRANCH   4   5
ENDBRANCH   3   4
ENDBRANCH   2   3
ENDBRANCH   1   2
BRANCH   1  12
ATOM     12  C   UNL     1      28.691   7.166 -10.150  1.00  0.00     0.000 C 
BRANCH  12  13
ATOM     13  C   UNL     1      30.050   7.448 -10.815  1.00  0.00    -0.000 C 
BRANCH  13  14
ATOM     14  C   UNL     1      30.721   6.169 -11.343  1.00  0.00    -0.000 C 
BRANCH  14  15
ATOM     15  C   UNL     1      31.954   5.768 -10.515  1.00  0.00    -0.000 C 
BRANCH  15  16
ATOM     16  C   UNL     1      33.014   5.035 -11.353  1.00  0.00    -0.000 C 
BRANCH  16  17
ATOM     17  C   UNL     1      34.448   5.452 -10.993  1.00  0.00    -0.000 C 
BRANCH  17  18
ATOM     18  C   UNL     1      35.066   4.470  -9.986  1.00  0.00    -0.000 C 
BRANCH  18  19
ATOM     19  C   UNL     1      36.417   4.956  -9.438  1.00  0.00    -0.003 C 
ATOM     20  C   UNL     1      36.471   6.475  -9.264  1.00  0.00     0.004 C 
ENDBRANCH  18  19
ENDBRANCH  17  18
ENDBRANCH  16  17
ENDBRANCH  15  16
ENDBRANCH  14  15
ENDBRANCH  13  14
ENDBRANCH  12  13
ENDBRANCH   1  12
TORSDOF 16
ENDMDL
MODEL 3
REMARK VINA RESULT:    -3.220      2.353      4.535
REMARK INTER + INTRA:          -8.589
REMARK INTER:                  -6.432
REMARK INTRA:                  -2.157
REMARK UNBOUND:                -2.357
REMARK SMILES CCCCCCCCCCCCCCCCCC(=O)[O-]
REMARK SMILES IDX 10 1 11 2 12 3 13 4 14 5 15 6 16 7 17 8 18 9 19 10 20 11
REMARK SMILES IDX 9 12 8 13 7 14 6 15 5 16 4 17 3 18 2 19 1 20
REMARK H PARENT
REMARK Flexibility Score: inf
ROOT
ATOM      1  C   UNL     1      33.512   5.491  -7.315  1.00  0.00     0.000 C 
ENDROOT
BRANCH   1   2
ATOM      2  C   UNL     1      34.025   4.849  -6.012  1.00  0.00     0.000 C 
BRANCH   2   3
ATOM      3  C   UNL     1      35.127   5.643  -5.284  1.00  0.00     0.000 C 
BRANCH   3   4
ATOM      4  C   UNL     1      36.173   6.268  -6.233  1.00  0.00     0.000 C 
BRANCH   4   5
ATOM      5  C   UNL     1      37.114   5.216  -6.844  1.00  0.00     0.000 C 
BRANCH   5   6
ATOM      6  C   UNL     1      37.164   5.286  -8.378  1.00  0.00     0.000 C 
BRANCH   6   7
ATOM      7  C   UNL     1      37.024   3.904  -9.035  1.00  0.00     0.006 C 
BRANCH   7   8
ATOM      8  C   UNL     1      36.193   2.963  -8.159  1.00  0.00     0.053 C 
BRANCH   8   9
ATOM      9  C   UNL     1      36.898   1.657  -7.975  1.00  0.00     0.041 C 
ATOM     10  O   UNL     1      36.258   0.575  -8.057  1.00  0.00    -0.550 OA
ATOM     11  O   UNL     1      38.270   1.631  -7.755  1.00  0.00    -0.550 OA
ENDBRANCH   8   9
ENDBRANCH   7   8
ENDBRANCH   6   7
ENDBRANCH   5   6
ENDBRANCH   4   5
ENDBRANCH   3   4
ENDBRANCH   2   3
ENDBRANCH   1   2
BRANCH   1  12
ATOM     12  C   UNL     1      32.103   6.105  -7.227  1.00  0.00     0.000 C 
BRANCH  12  13
ATOM     13  C   UNL     1      32.123   7.603  -6.877  1.00  0.00    -0.000 C 
BRANCH  13  14
ATOM     14  C   UNL     1      30.725   8.147  -6.541  1.00  0.00    -0.000 C 
BRANCH  14  15
ATOM     15  C   UNL     1      29.600   7.216  -7.025  1.00  0.00    -0.000 C 
BRANCH  15  16
ATOM     16  C   UNL     1      28.803   7.813  -8.196  1.00  0.00    -0.000 C 
BRANCH  16  17
ATOM     17  C   UNL     1      29.220   7.231  -9.555  1.00  0.00    -0.000 C 
BRANCH  17  18
ATOM     18  C   UNL     1      30.164   8.191 -10.296  1.00  0.00    -0.000 C 
BRANCH  18  19
ATOM     19  C   UNL     1      31.545   7.572 -10.564  1.00  0.00    -0.003 C 
ATOM     20  C   UNL     1      31.469   6.082 -10.897  1.00  0.00     0.004 C 
ENDBRANCH  18  19
ENDBRANCH  17  18
ENDBRANCH  16  17
ENDBRANCH  15  16
ENDBRANCH  14  15
ENDBRANCH  13  14
ENDBRANCH  12  13
ENDBRANCH   1  12
TORSDOF 16
ENDMDL
MODEL 4
REMARK VINA RESULT:    -3.207     13.013     15.126
REMARK INTER + INTRA:          -8.564
REMARK INTER:                  -5.958
REMARK INTRA:                  -2.606
REMARK UNBOUND:                -2.357
REMARK SMILES CCCCCCCCCCCCCCCCCC(=O)[O-]
REMARK SMILES IDX 10 1 11 2 12 3 13 4 14 5 15 6 16 7 17 8 18 9 19 10 20 11
REMARK SMILES IDX 9 12 8 13 7 14 6 15 5 16 4 17 3 18 2 19 1 20
REMARK H PARENT
REMARK Flexibility Score: inf
ROOT
ATOM      1  C   UNL     1      27.228  -2.727   6.152  1.00  0.00     0.000 C 
ENDROOT
BRANCH   1   2
ATOM      2  C   UNL     1      28.604  -2.140   5.784  1.00  0.00     0.000 C 
BRANCH   2   3
ATOM      3  C   UNL     1      28.687  -0.602   5.817  1.00  0.00     0.000 C 
BRANCH   3   4
ATOM      4  C   UNL     1      30.073  -0.045   5.422  1.00  0.00     0.000 C 
BRANCH   4   5
ATOM      5  C   UNL     1      30.092   0.520   3.992  1.00  0.00     0.000 C 
BRANCH   5   6
ATOM      6  C   UNL     1      31.048  -0.248   3.065  1.00  0.00     0.000 C 
BRANCH   6   7
ATOM      7  C   UNL     1      31.490   0.588   1.853  1.00  0.00     0.006 C 
BRANCH   7   8
ATOM      8  C   UNL     1      32.960   1.000   1.980  1.00  0.00     0.053 C 
BRANCH   8   9
ATOM      9  C   UNL     1      33.131   2.446   1.638  1.00  0.00     0.041 C 
ATOM     10  O   UNL     1      33.436   2.787   0.465  1.00  0.00    -0.550 OA
ATOM     11  O   UNL     1      32.911   3.421   2.604  1.00  0.00    -0.550 OA
ENDBRANCH   8   9
ENDBRANCH   7   8
ENDBRANCH   6   7
ENDBRANCH   5   6
ENDBRANCH   4   5
ENDBRANCH   3   4
ENDBRANCH   2   3
ENDBRANCH   1   2
BRANCH   1  12
ATOM     12  C   UNL     1      26.113  -1.687   6.367  1.00  0.00     0.000 C 
BRANCH  12  13
ATOM     13  C   UNL     1      24.991  -1.788   5.319  1.00  0.00    -0.000 C 
BRANCH  13  14
ATOM     14  C   UNL     1      25.168  -2.994   4.382  1.00  0.00    -0.000 C 
BRANCH  14  15
ATOM     15  C   UNL     1      25.325  -2.577   2.909  1.00  0.00    -0.000 C 
BRANCH  15  16
ATOM     16  C   UNL     1      26.020  -1.215   2.754  1.00  0.00    -0.000 C 
BRANCH  16  17
ATOM     17  C   UNL     1      27.479  -1.342   2.290  1.00  0.00    -0.000 C 
BRANCH  17  18
ATOM     18  C   UNL     1      27.739  -2.726   1.675  1.00  0.00    -0.000 C 
BRANCH  18  19
ATOM     19  C   UNL     1      28.921  -3.453   2.335  1.00  0.00    -0.003 C 
ATOM     20  C   UNL     1      28.483  -4.668   3.154  1.00  0.00     0.004 C 
ENDBRANCH  18  19
ENDBRANCH  17  18
ENDBRANCH  16  17
ENDBRANCH  15  16
ENDBRANCH  14  15
ENDBRANCH  13  14
ENDBRANCH  12  13
ENDBRANCH   1  12
TORSDOF 16
ENDMDL
MODEL 5
REMARK VINA RESULT:    -3.204     11.092     13.972
REMARK INTER + INTRA:          -8.557
REMARK INTER:                  -5.753
REMARK INTRA:                  -2.804
REMARK UNBOUND:                -2.357
REMARK SMILES CCCCCCCCCCCCCCCCCC(=O)[O-]
REMARK SMILES IDX 10 1 11 2 12 3 13 4 14 5 15 6 16 7 17 8 18 9 19 10 20 11
REMARK SMILES IDX 9 12 8 13 7 14 6 15 5 16 4 17 3 18 2 19 1 20
REMARK H PARENT
REMARK Flexibility Score: inf
ROOT
ATOM      1  C   UNL     1      41.011   3.297   7.072  1.00  0.00     0.000 C 
ENDROOT
BRANCH   1   2
ATOM      2  C   UNL     1      39.812   3.954   7.783  1.00  0.00     0.000 C 
BRANCH   2   3
ATOM      3  C   UNL     1      38.879   4.771   6.868  1.00  0.00     0.000 C 
BRANCH   3   4
ATOM      4  C   UNL     1      39.255   6.266   6.773  1.00  0.00     0.000 C 
BRANCH   4   5
ATOM      5  C   UNL     1      38.815   6.897   5.441  1.00  0.00     0.000 C 
BRANCH   5   6
ATOM      6  C   UNL     1      38.104   5.896   4.517  1.00  0.00     0.000 C 
BRANCH   6   7
ATOM      7  C   UNL     1      36.654   6.302   4.213  1.00  0.00     0.006 C 
BRANCH   7   8
ATOM      8  C   UNL     1      35.675   5.211   4.656  1.00  0.00     0.053 C 
BRANCH   8   9
ATOM      9  C   UNL     1      34.402   5.299   3.875  1.00  0.00     0.041 C 
ATOM     10  O   UNL     1      34.137   6.335   3.211  1.00  0.00    -0.550 OA
ATOM     11  O   UNL     1      33.527   4.218   3.846  1.00  0.00    -0.550 OA
ENDBRANCH   8   9
ENDBRANCH   7   8
ENDBRANCH   6   7
ENDBRANCH   5   6
ENDBRANCH   4   5
ENDBRANCH   3   4
ENDBRANCH   2   3
ENDBRANCH   1   2
BRANCH   1  12
ATOM     12  C   UNL     1      41.069   3.522   5.550  1.00  0.00     0.000 C 
BRANCH  12  13
ATOM     13  C   UNL     1      41.947   2.487   4.825  1.00  0.00    -0.000 C 
BRANCH  13  14
ATOM     14  C   UNL     1      41.669   2.436   3.314  1.00  0.00    -0.000 C 
BRANCH  14  15
ATOM     15  C   UNL     1      40.324   3.085   2.942  1.00  0.00    -0.000 C 
BRANCH  15  16
ATOM     16  C   UNL     1      39.440   2.160   2.089  1.00  0.00    -0.000 C 
BRANCH  16  17
ATOM     17  C   UNL     1      38.406   1.391   2.924  1.00  0.00    -0.000 C 
BRANCH  17  18
ATOM     18  C   UNL     1      37.823   2.283   4.031  1.00  0.00    -0.000 C 
BRANCH  18  19
ATOM     19  C   UNL     1      37.847   1.606   5.410  1.00  0.00    -0.003 C 
ATOM     20  C   UNL     1      38.840   0.445   5.481  1.00  0.00     0.004 C 
ENDBRANCH  18  19
ENDBRANCH  17  18
ENDBRANCH  16  17
ENDBRANCH  15  16
ENDBRANCH  14  15
ENDBRANCH  13  14
ENDBRANCH  12  13
ENDBRANCH   1  12
TORSDOF 16
ENDMDL
MODEL 6
REMARK VINA RESULT:    -3.165      2.085      5.027
REMARK INTER + INTRA:          -8.481
REMARK INTER:                  -6.504
REMARK INTRA:                  -1.977
REMARK UNBOUND:                -2.357
REMARK SMILES CCCCCCCCCCCCCCCCCC(=O)[O-]
REMARK SMILES IDX 10 1 11 2 12 3 13 4 14 5 15 6 16 7 17 8 18 9 19 10 20 11
REMARK SMILES IDX 9 12 8 13 7 14 6 15 5 16 4 17 3 18 2 19 1 20
REMARK H PARENT
REMARK Flexibility Score: inf
ROOT
ATOM      1  C   UNL     1      35.356   5.769  -9.801  1.00  0.00     0.000 C 
ENDROOT
BRANCH   1   2
ATOM      2  C   UNL     1      34.686   5.195  -8.538  1.00  0.00     0.000 C 
BRANCH   2   3
ATOM      3  C   UNL     1      35.658   4.640  -7.479  1.00  0.00     0.000 C 
BRANCH   3   4
ATOM      4  C   UNL     1      36.785   5.622  -7.093  1.00  0.00     0.000 C 
BRANCH   4   5
ATOM      5  C   UNL     1      38.167   4.948  -7.067  1.00  0.00     0.000 C 
BRANCH   5   6
ATOM      6  C   UNL     1      38.309   3.848  -8.131  1.00  0.00     0.000 C 
BRANCH   6   7
ATOM      7  C   UNL     1      39.294   2.746  -7.709  1.00  0.00     0.006 C 
BRANCH   7   8
ATOM      8  C   UNL     1      40.138   3.195  -6.513  1.00  0.00     0.053 C 
BRANCH   8   9
ATOM      9  C   UNL     1      40.609   2.011  -5.729  1.00  0.00     0.041 C 
ATOM     10  O   UNL     1      39.815   1.071  -5.463  1.00  0.00    -0.550 OA
ATOM     11  O   UNL     1      41.937   1.926  -5.326  1.00  0.00    -0.550 OA
ENDBRANCH   8   9
ENDBRANCH   7   8
ENDBRANCH   6   7
ENDBRANCH   5   6
ENDBRANCH   4   5
ENDBRANCH   3   4
ENDBRANCH   2   3
ENDBRANCH   1   2
BRANCH   1  12
ATOM     12  C   UNL     1      35.936   4.718 -10.765  1.00  0.00     0.000 C 
BRANCH  12  13
ATOM     13  C   UNL     1      35.141   3.400 -10.762  1.00  0.00    -0.000 C 
BRANCH  13  14
ATOM     14  C   UNL     1      36.023   2.183 -10.440  1.00  0.00    -0.000 C 
BRANCH  14  15
ATOM     15  C   UNL     1      35.637   1.513  -9.109  1.00  0.00    -0.000 C 
BRANCH  15  16
ATOM     16  C   UNL     1      36.477   0.260  -8.815  1.00  0.00    -0.000 C 
BRANCH  16  17
ATOM     17  C   UNL     1      36.475  -0.121  -7.327  1.00  0.00    -0.000 C 
BRANCH  17  18
ATOM     18  C   UNL     1      36.067  -1.590  -7.139  1.00  0.00    -0.000 C 
BRANCH  18  19
ATOM     19  C   UNL     1      36.051  -2.015  -5.662  1.00  0.00    -0.003 C 
ATOM     20  C   UNL     1      34.696  -1.778  -4.995  1.00  0.00     0.004 C 
ENDBRANCH  18  19
ENDBRANCH  17  18
ENDBRANCH  16  17
ENDBRANCH  15  16
ENDBRANCH  14  15
ENDBRANCH  13  14
ENDBRANCH  12  13
ENDBRANCH   1  12
TORSDOF 16
ENDMDL
MODEL 7
REMARK VINA RESULT:    -3.133      3.974      6.353
REMARK INTER + INTRA:          -8.419
REMARK INTER:                  -6.072
REMARK INTRA:                  -2.348
REMARK UNBOUND:                -2.357
REMARK SMILES CCCCCCCCCCCCCCCCCC(=O)[O-]
REMARK SMILES IDX 10 1 11 2 12 3 13 4 14 5 15 6 16 7 17 8 18 9 19 10 20 11
REMARK SMILES IDX 9 12 8 13 7 14 6 15 5 16 4 17 3 18 2 19 1 20
REMARK H PARENT
REMARK Flexibility Score: inf
ROOT
ATOM      1  C   UNL     1      32.030   7.722 -10.835  1.00  0.00     0.000 C 
ENDROOT
BRANCH   1   2
ATOM      2  C   UNL     1      33.518   7.739 -10.436  1.00  0.00     0.000 C 
BRANCH   2   3
ATOM      3  C   UNL     1      34.152   6.351 -10.219  1.00  0.00     0.000 C 
BRANCH   3   4
ATOM      4  C   UNL     1      35.639   6.404  -9.807  1.00  0.00     0.000 C 
BRANCH   4   5
ATOM      5  C   UNL     1      36.050   5.200  -8.941  1.00  0.00     0.000 C 
BRANCH   5   6
ATOM      6  C   UNL     1      36.590   5.619  -7.564  1.00  0.00     0.000 C 
BRANCH   6   7
ATOM      7  C   UNL     1      36.017   6.965  -7.092  1.00  0.00     0.006 C 
BRANCH   7   8
ATOM      8  C   UNL     1      36.268   7.170  -5.595  1.00  0.00     0.053 C 
BRANCH   8   9
ATOM      9  C   UNL     1      35.032   6.867  -4.809  1.00  0.00     0.041 C 
ATOM     10  O   UNL     1      34.161   7.758  -4.628  1.00  0.00    -0.550 OA
ATOM     11  O   UNL     1      34.820   5.586  -4.311  1.00  0.00    -0.550 OA
ENDBRANCH   8   9
ENDBRANCH   7   8
ENDBRANCH   6   7
ENDBRANCH   5   6
ENDBRANCH   4   5
ENDBRANCH   3   4
ENDBRANCH   2   3
ENDBRANCH   1   2
BRANCH   1  12
ATOM     12  C   UNL     1      31.396   6.322 -10.920  1.00  0.00     0.000 C 
BRANCH  12  13
ATOM     13  C   UNL     1      29.945   6.352 -11.434  1.00  0.00    -0.000 C 
BRANCH  13  14
ATOM     14  C   UNL     1      29.148   7.540 -10.871  1.00  0.00    -0.000 C 
BRANCH  14  15
ATOM     15  C   UNL     1      28.551   7.243  -9.484  1.00  0.00    -0.000 C 
BRANCH  15  16
ATOM     16  C   UNL     1      28.549   8.477  -8.567  1.00  0.00    -0.000 C 
BRANCH  16  17
ATOM     17  C   UNL     1      29.214   8.209  -7.209  1.00  0.00    -0.000 C 
BRANCH  17  18
ATOM     18  C   UNL     1      29.966   6.869  -7.223  1.00  0.00    -0.000 C 
BRANCH  18  19
ATOM     19  C   UNL     1      31.490   7.045  -7.134  1.00  0.00    -0.003 C 
ATOM     20  C   UNL     1      32.242   5.715  -7.186  1.00  0.00     0.004 C 
ENDBRANCH  18  19
ENDBRANCH  17  18
ENDBRANCH  16  17
ENDBRANCH  15  16
ENDBRANCH  14  15
ENDBRANCH  13  14
ENDBRANCH  12  13
ENDBRANCH   1  12
TORSDOF 16
ENDMDL
MODEL 8
REMARK VINA RESULT:    -3.120      3.035      6.505
REMARK INTER + INTRA:          -8.394
REMARK INTER:                  -5.875
REMARK INTRA:                  -2.519
REMARK UNBOUND:                -2.357
REMARK SMILES CCCCCCCCCCCCCCCCCC(=O)[O-]
REMARK SMILES IDX 10 1 11 2 12 3 13 4 14 5 15 6 16 7 17 8 18 9 19 10 20 11
REMARK SMILES IDX 9 12 8 13 7 14 6 15 5 16 4 17 3 18 2 19 1 20
REMARK H PARENT
REMARK Flexibility Score: inf
ROOT
ATOM      1  C   UNL     1      36.576   2.738  -9.199  1.00  0.00     0.000 C 
ENDROOT
BRANCH   1   2
ATOM      2  C   UNL     1      35.729   3.717 -10.035  1.00  0.00     0.000 C 
BRANCH   2   3
ATOM      3  C   UNL     1      36.369   5.099 -10.267  1.00  0.00     0.000 C 
BRANCH   3   4
ATOM      4  C   UNL     1      35.451   6.281  -9.889  1.00  0.00     0.000 C 
BRANCH   4   5
ATOM      5  C   UNL     1      35.874   6.954  -8.572  1.00  0.00     0.000 C 
BRANCH   5   6
ATOM      6  C   UNL     1      37.128   6.314  -7.956  1.00  0.00     0.000 C 
BRANCH   6   7
ATOM      7  C   UNL     1      36.853   5.690  -6.578  1.00  0.00     0.006 C 
BRANCH   7   8
ATOM      8  C   UNL     1      35.369   5.350  -6.418  1.00  0.00     0.053 C 
BRANCH   8   9
ATOM      9  C   UNL     1      34.936   5.546  -4.999  1.00  0.00     0.041 C 
ATOM     10  O   UNL     1      35.183   6.629  -4.405  1.00  0.00    -0.550 OA
ATOM     11  O   UNL     1      34.222   4.549  -4.344  1.00  0.00    -0.550 OA
ENDBRANCH   8   9
ENDBRANCH   7   8
ENDBRANCH   6   7
ENDBRANCH   5   6
ENDBRANCH   4   5
ENDBRANCH   3   4
ENDBRANCH   2   3
ENDBRANCH   1   2
BRANCH   1  12
ATOM     12  C   UNL     1      35.836   2.082  -8.019  1.00  0.00     0.000 C 
BRANCH  12  13
ATOM     13  C   UNL     1      36.463   0.744  -7.589  1.00  0.00    -0.000 C 
BRANCH  13  14
ATOM     14  C   UNL     1      37.188   0.037  -8.745  1.00  0.00    -0.000 C 
BRANCH  14  15
ATOM     15  C   UNL     1      38.634  -0.348  -8.385  1.00  0.00    -0.000 C 
BRANCH  15  16
ATOM     16  C   UNL     1      39.087   0.254  -7.045  1.00  0.00    -0.000 C 
BRANCH  16  17
ATOM     17  C   UNL     1      40.371   1.088  -7.172  1.00  0.00    -0.000 C 
BRANCH  17  18
ATOM     18  C   UNL     1      40.398   2.215  -6.128  1.00  0.00    -0.000 C 
BRANCH  18  19
ATOM     19  C   UNL     1      39.731   3.504  -6.631  1.00  0.00    -0.003 C 
ATOM     20  C   UNL     1      40.005   3.772  -8.111  1.00  0.00     0.004 C 
ENDBRANCH  18  19
ENDBRANCH  17  18
ENDBRANCH  16  17
ENDBRANCH  15  16
ENDBRANCH  14  15
ENDBRANCH  13  14
ENDBRANCH  12  13
ENDBRANCH   1  12
TORSDOF 16
ENDMDL
MODEL 9
REMARK VINA RESULT:    -3.114      1.199      2.813
REMARK INTER + INTRA:          -8.383
REMARK INTER:                  -5.845
REMARK INTRA:                  -2.538
REMARK UNBOUND:                -2.357
REMARK SMILES CCCCCCCCCCCCCCCCCC(=O)[O-]
REMARK SMILES IDX 10 1 11 2 12 3 13 4 14 5 15 6 16 7 17 8 18 9 19 10 20 11
REMARK SMILES IDX 9 12 8 13 7 14 6 15 5 16 4 17 3 18 2 19 1 20
REMARK H PARENT
REMARK Flexibility Score: inf
ROOT
ATOM      1  C   UNL     1      37.367   6.130  -7.366  1.00  0.00     0.000 C 
ENDROOT
BRANCH   1   2
ATOM      2  C   UNL     1      37.477   4.600  -7.218  1.00  0.00     0.000 C 
BRANCH   2   3
ATOM      3  C   UNL     1      37.120   3.796  -8.483  1.00  0.00     0.000 C 
BRANCH   3   4
ATOM      4  C   UNL     1      36.038   2.719  -8.250  1.00  0.00     0.000 C 
BRANCH   4   5
ATOM      5  C   UNL     1      36.642   1.347  -7.901  1.00  0.00     0.000 C 
BRANCH   5   6
ATOM      6  C   UNL     1      38.102   1.209  -8.359  1.00  0.00     0.000 C 
BRANCH   6   7
ATOM      7  C   UNL     1      39.011   0.633  -7.261  1.00  0.00     0.006 C 
BRANCH   7   8
ATOM      8  C   UNL     1      39.745   1.752  -6.516  1.00  0.00     0.053 C 
BRANCH   8   9
ATOM      9  C   UNL     1      41.198   1.424  -6.377  1.00  0.00     0.041 C 
ATOM     10  O   UNL     1      41.859   1.874  -5.404  1.00  0.00    -0.550 OA
ATOM     11  O   UNL     1      41.815   0.587  -7.300  1.00  0.00    -0.550 OA
ENDBRANCH   8   9
ENDBRANCH   7   8
ENDBRANCH   6   7
ENDBRANCH   5   6
ENDBRANCH   4   5
ENDBRANCH   3   4
ENDBRANCH   2   3
ENDBRANCH   1   2
BRANCH   1  12
ATOM     12  C   UNL     1      36.552   6.610  -8.581  1.00  0.00     0.000 C 
BRANCH  12  13
ATOM     13  C   UNL     1      35.726   7.874  -8.286  1.00  0.00    -0.000 C 
BRANCH  13  14
ATOM     14  C   UNL     1      34.264   7.740  -8.742  1.00  0.00    -0.000 C 
BRANCH  14  15
ATOM     15  C   UNL     1      33.847   6.273  -8.956  1.00  0.00    -0.000 C 
BRANCH  15  16
ATOM     16  C   UNL     1      32.506   5.938  -8.283  1.00  0.00    -0.000 C 
BRANCH  16  17
ATOM     17  C   UNL     1      32.641   5.716  -6.769  1.00  0.00    -0.000 C 
BRANCH  17  18
ATOM     18  C   UNL     1      33.855   4.829  -6.452  1.00  0.00    -0.000 C 
BRANCH  18  19
ATOM     19  C   UNL     1      34.437   5.099  -5.055  1.00  0.00    -0.003 C 
ATOM     20  C   UNL     1      34.790   6.571  -4.838  1.00  0.00     0.004 C 
ENDBRANCH  18  19
ENDBRANCH  17  18
ENDBRANCH  16  17
ENDBRANCH  15  16
ENDBRANCH  14  15
ENDBRANCH  13  14
ENDBRANCH  12  13
ENDBRANCH   1  12
TORSDOF 16
ENDMDL
