MODEL 1
REMARK VINA RESULT:    -3.431      0.000      0.000
REMARK INTER + INTRA:          -4.121
REMARK INTER:                  -4.033
REMARK INTRA:                  -0.087
REMARK UNBOUND:                -0.087
REMARK SMILES CCCCC(=O)[O-]
REMARK SMILES IDX 4 1 5 2 6 3 7 4 3 5 2 6 1 7
REMARK H PARENT
REMARK Flexibility Score: inf
ROOT
ATOM      1  C   UNL     1      11.759  -8.996 -44.323  1.00  0.00     0.053 C 
ENDROOT
BRANCH   1   2
ATOM      2  C   UNL     1      11.980 -10.453 -44.066  1.00  0.00     0.041 C 
ATOM      3  O   UNL     1      11.011 -11.198 -43.767  1.00  0.00    -0.550 OA
ATOM      4  O   UNL     1      13.265 -10.979 -44.109  1.00  0.00    -0.550 OA
ENDBRANCH   1   2
BRANCH   1   5
ATOM      5  C   UNL     1      10.262  -8.665 -44.277  1.00  0.00     0.006 C 
BRANCH   5   6
ATOM      6  C   UNL     1       9.916  -7.651 -43.176  1.00  0.00    -0.003 C 
ATOM      7  C   UNL     1      10.319  -8.133 -41.783  1.00  0.00     0.004 C 
ENDBRANCH   5   6
ENDBRANCH   1   5
TORSDOF 3
ENDMDL
MODEL 2
REMARK VINA RESULT:    -3.389      1.300      1.643
REMARK INTER + INTRA:          -4.071
REMARK INTER:                  -4.022
REMARK INTRA:                  -0.048
REMARK UNBOUND:                -0.087
REMARK SMILES CCCCC(=O)[O-]
REMARK SMILES IDX 4 1 5 2 6 3 7 4 3 5 2 6 1 7
REMARK H PARENT
REMARK Flexibility Score: inf
ROOT
ATOM      1  C   UNL     1      11.771  -9.881 -44.275  1.00  0.00     0.053 C 
ENDROOT
BRANCH   1   2
ATOM      2  C   UNL     1      10.699 -10.909 -44.457  1.00  0.00     0.041 C 
ATOM      3  O   UNL     1      10.506 -11.787 -43.575  1.00  0.00    -0.550 OA
ATOM      4  O   UNL     1       9.946 -10.929 -45.624  1.00  0.00    -0.550 OA
ENDBRANCH   1   2
BRANCH   1   5
ATOM      5  C   UNL     1      11.266  -8.499 -44.707  1.00  0.00     0.006 C 
BRANCH   5   6
ATOM      6  C   UNL     1      10.102  -7.998 -43.839  1.00  0.00    -0.003 C 
ATOM      7  C   UNL     1      10.413  -8.058 -42.343  1.00  0.00     0.004 C 
ENDBRANCH   5   6
ENDBRANCH   1   5
TORSDOF 3
ENDMDL
MODEL 3
REMARK VINA RESULT:    -3.344      1.170      1.289
REMARK INTER + INTRA:          -4.018
REMARK INTER:                  -3.952
REMARK INTRA:                  -0.066
REMARK UNBOUND:                -0.087
REMARK SMILES CCCCC(=O)[O-]
REMARK SMILES IDX 4 1 5 2 6 3 7 4 3 5 2 6 1 7
REMARK H PARENT
REMARK Flexibility Score: inf
ROOT
ATOM      1  C   UNL     1      11.578  -9.806 -43.988  1.00  0.00     0.053 C 
ENDROOT
BRANCH   1   2
ATOM      2  C   UNL     1      10.922 -10.969 -44.663  1.00  0.00     0.041 C 
ATOM      3  O   UNL     1       9.719 -10.895 -45.026  1.00  0.00    -0.550 OA
ATOM      4  O   UNL     1      11.625 -12.153 -44.846  1.00  0.00    -0.550 OA
ENDBRANCH   1   2
BRANCH   1   5
ATOM      5  C   UNL     1      11.056  -8.485 -44.569  1.00  0.00     0.006 C 
BRANCH   5   6
ATOM      6  C   UNL     1      10.072  -7.776 -43.627  1.00  0.00    -0.003 C 
ATOM      7  C   UNL     1      10.343  -8.078 -42.154  1.00  0.00     0.004 C 
ENDBRANCH   5   6
ENDBRANCH   1   5
TORSDOF 3
ENDMDL
MODEL 4
REMARK VINA RESULT:    -3.138      2.370      3.449
REMARK INTER + INTRA:          -3.776
REMARK INTER:                  -3.678
REMARK INTRA:                  -0.099
REMARK UNBOUND:                -0.087
REMARK SMILES CCCCC(=O)[O-]
REMARK SMILES IDX 4 1 5 2 6 3 7 4 3 5 2 6 1 7
REMARK H PARENT
REMARK Flexibility Score: inf
ROOT
ATOM      1  C   UNL     1      10.875  -8.507 -44.249  1.00  0.00     0.053 C 
ENDROOT
BRANCH   1   2
ATOM      2  C   UNL     1      10.189  -7.888 -43.073  1.00  0.00     0.041 C 
ATOM      3  O   UNL     1       9.365  -6.951 -43.240  1.00  0.00    -0.550 OA
ATOM      4  O   UNL     1      10.497  -8.313 -41.786  1.00  0.00    -0.550 OA
ENDBRANCH   1   2
BRANCH   1   5
ATOM      5  C   UNL     1      10.189  -9.822 -44.639  1.00  0.00     0.006 C 
BRANCH   5   6
ATOM      6  C   UNL     1      11.128 -11.032 -44.529  1.00  0.00    -0.003 C 
ATOM      7  C   UNL     1      11.316 -11.505 -43.088  1.00  0.00     0.004 C 
ENDBRANCH   5   6
ENDBRANCH   1   5
TORSDOF 3
ENDMDL
MODEL 5
REMARK VINA RESULT:    -3.032      2.868      3.769
REMARK INTER + INTRA:          -3.651
REMARK INTER:                  -3.632
REMARK INTRA:                  -0.019
REMARK UNBOUND:                -0.087
REMARK SMILES CCCCC(=O)[O-]
REMARK SMILES IDX 4 1 5 2 6 3 7 4 3 5 2 6 1 7
REMARK H PARENT
REMARK Flexibility Score: inf
ROOT
ATOM      1  C   UNL     1      10.576 -10.123 -44.517  1.00  0.00     0.053 C 
ENDROOT
BRANCH   1   2
ATOM      2  C   UNL     1      11.195  -8.762 -44.479  1.00  0.00     0.041 C 
ATOM      3  O   UNL     1      12.407  -8.608 -44.782  1.00  0.00    -0.550 OA
ATOM      4  O   UNL     1      10.446  -7.670 -44.059  1.00  0.00    -0.550 OA
ENDBRANCH   1   2
BRANCH   1   5
ATOM      5  C   UNL     1       9.141 -10.044 -45.054  1.00  0.00     0.006 C 
BRANCH   5   6
ATOM      6  C   UNL     1       8.849 -11.116 -46.114  1.00  0.00    -0.003 C 
ATOM      7  C   UNL     1       7.413 -11.636 -46.049  1.00  0.00     0.004 C 
ENDBRANCH   5   6
ENDBRANCH   1   5
TORSDOF 3
ENDMDL
MODEL 6
REMARK VINA RESULT:    -3.019      2.260      3.322
REMARK INTER + INTRA:          -3.636
REMARK INTER:                  -3.532
REMARK INTRA:                  -0.104
REMARK UNBOUND:                -0.087
REMARK SMILES CCCCC(=O)[O-]
REMARK SMILES IDX 4 1 5 2 6 3 7 4 3 5 2 6 1 7
REMARK H PARENT
REMARK Flexibility Score: inf
ROOT
ATOM      1  C   UNL     1       9.822  -9.775 -44.614  1.00  0.00     0.053 C 
ENDROOT
BRANCH   1   2
ATOM      2  C   UNL     1      10.507  -8.495 -44.254  1.00  0.00     0.041 C 
ATOM      3  O   UNL     1      10.054  -7.772 -43.329  1.00  0.00    -0.550 OA
ATOM      4  O   UNL     1      11.617  -8.075 -44.975  1.00  0.00    -0.550 OA
ENDBRANCH   1   2
BRANCH   1   5
ATOM      5  C   UNL     1      10.824 -10.937 -44.615  1.00  0.00     0.006 C 
BRANCH   5   6
ATOM      6  C   UNL     1      11.330 -11.279 -43.206  1.00  0.00    -0.003 C 
ATOM      7  C   UNL     1      12.778 -11.768 -43.201  1.00  0.00     0.004 C 
ENDBRANCH   5   6
ENDBRANCH   1   5
TORSDOF 3
ENDMDL
MODEL 7
REMARK VINA RESULT:    -2.959      2.469      3.121
REMARK INTER + INTRA:          -3.565
REMARK INTER:                  -3.457
REMARK INTRA:                  -0.109
REMARK UNBOUND:                -0.087
REMARK SMILES CCCCC(=O)[O-]
REMARK SMILES IDX 4 1 5 2 6 3 7 4 3 5 2 6 1 7
REMARK H PARENT
REMARK Flexibility Score: inf
ROOT
ATOM      1  C   UNL     1      10.513 -11.126 -45.187  1.00  0.00     0.053 C 
ENDROOT
BRANCH   1   2
ATOM      2  C   UNL     1       9.057 -11.439 -45.329  1.00  0.00     0.041 C 
ATOM      3  O   UNL     1       8.659 -12.633 -45.297  1.00  0.00    -0.550 OA
ATOM      4  O   UNL     1       8.144 -10.415 -45.548  1.00  0.00    -0.550 OA
ENDBRANCH   1   2
BRANCH   1   5
ATOM      5  C   UNL     1      10.773 -10.375 -43.875  1.00  0.00     0.006 C 
BRANCH   5   6
ATOM      6  C   UNL     1      11.206  -8.920 -44.106  1.00  0.00    -0.003 C 
ATOM      7  C   UNL     1      10.091  -7.917 -43.810  1.00  0.00     0.004 C 
ENDBRANCH   5   6
ENDBRANCH   1   5
TORSDOF 3
ENDMDL
