MODEL 1
REMARK VINA RESULT:    -5.121      0.000      0.000
REMARK INTER + INTRA:          -6.837
REMARK INTER:                  -6.618
REMARK INTRA:                  -0.218
REMARK UNBOUND:                -0.218
REMARK SMILES CCO[C@@H]1O[C@@H](CO)[C@@H](O)[C@H](O)[C@@H]1O
REMARK SMILES IDX 4 1 13 2 11 3 9 4 6 5 5 6 3 7 2 8 1 9 14 10 12 12 7 14 8 15
REMARK SMILES IDX 10 17
REMARK H PARENT 14 11 12 13 8 16 10 18
REMARK Flexibility Score: inf
ROOT
ATOM      1  C   UNL     1      22.030   3.654  40.665  1.00  0.00     0.281 C 
ATOM      2  C   UNL     1      20.852   3.203  41.553  1.00  0.00     0.202 C 
ATOM      3  C   UNL     1      21.212   3.299  43.048  1.00  0.00     0.179 C 
ATOM      4  C   UNL     1      21.810   4.685  43.358  1.00  0.00     0.177 C 
ATOM      5  C   UNL     1      22.952   4.989  42.364  1.00  0.00     0.178 C 
ATOM      6  O   UNL     1      22.474   4.955  41.027  1.00  0.00    -0.341 OA
ENDROOT
BRANCH   1   7
ATOM      7  O   UNL     1      23.088   2.708  40.726  1.00  0.00    -0.350 OA
BRANCH   7   8
ATOM      8  C   UNL     1      23.604   2.436  39.438  1.00  0.00     0.160 C 
ATOM      9  C   UNL     1      24.796   3.341  39.147  1.00  0.00     0.035 C 
ENDBRANCH   7   8
ENDBRANCH   1   7
BRANCH   2  10
ATOM     10  O   UNL     1      20.483   1.890  41.218  1.00  0.00    -0.385 OA
ATOM     11  H   UNL     1      19.543   1.772  41.514  1.00  0.00     0.211 HD
ENDBRANCH   2  10
BRANCH   3  12
ATOM     12  O   UNL     1      22.129   2.287  43.385  1.00  0.00    -0.387 OA
ATOM     13  H   UNL     1      21.669   1.420  43.234  1.00  0.00     0.211 HD
ENDBRANCH   3  12
BRANCH   5  14
ATOM     14  C   UNL     1      23.567   6.369  42.640  1.00  0.00     0.191 C 
BRANCH  14  15
ATOM     15  O   UNL     1      23.697   7.092  41.445  1.00  0.00    -0.394 OA
ATOM     16  H   UNL     1      22.777   7.289  41.128  1.00  0.00     0.210 HD
ENDBRANCH  14  15
ENDBRANCH   5  14
BRANCH   4  17
ATOM     17  O   UNL     1      20.812   5.670  43.254  1.00  0.00    -0.387 OA
ATOM     18  H   UNL     1      20.447   5.808  44.166  1.00  0.00     0.211 HD
ENDBRANCH   4  17
TORSDOF 7
ENDMDL
MODEL 2
REMARK VINA RESULT:    -4.918      3.337      5.490
REMARK INTER + INTRA:          -6.574
REMARK INTER:                  -6.187
REMARK INTRA:                  -0.387
REMARK UNBOUND:                -0.218
REMARK SMILES CCO[C@@H]1O[C@@H](CO)[C@@H](O)[C@H](O)[C@@H]1O
REMARK SMILES IDX 4 1 13 2 11 3 9 4 6 5 5 6 3 7 2 8 1 9 14 10 12 12 7 14 8 15
REMARK SMILES IDX 10 17
REMARK H PARENT 14 11 12 13 8 16 10 18
REMARK Flexibility Score: inf
ROOT
ATOM      1  C   UNL     1      22.428   4.134  39.038  1.00  0.00     0.281 C 
ATOM      2  C   UNL     1      21.195   4.466  38.174  1.00  0.00     0.202 C 
ATOM      3  C   UNL     1      21.600   5.214  36.890  1.00  0.00     0.179 C 
ATOM      4  C   UNL     1      22.748   4.466  36.183  1.00  0.00     0.177 C 
ATOM      5  C   UNL     1      23.883   4.190  37.194  1.00  0.00     0.178 C 
ATOM      6  O   UNL     1      23.403   3.421  38.287  1.00  0.00    -0.341 OA
ENDROOT
BRANCH   1   7
ATOM      7  O   UNL     1      22.972   5.318  39.603  1.00  0.00    -0.350 OA
BRANCH   7   8
ATOM      8  C   UNL     1      23.234   5.153  40.983  1.00  0.00     0.160 C 
ATOM      9  C   UNL     1      23.924   6.393  41.540  1.00  0.00     0.035 C 
ENDBRANCH   7   8
ENDBRANCH   1   7
BRANCH   2  10
ATOM     10  O   UNL     1      20.284   5.229  38.923  1.00  0.00    -0.385 OA
ATOM     11  H   UNL     1      19.546   5.479  38.307  1.00  0.00     0.211 HD
ENDBRANCH   2  10
BRANCH   3  12
ATOM     12  O   UNL     1      21.995   6.526  37.204  1.00  0.00    -0.387 OA
ATOM     13  H   UNL     1      21.374   6.853  37.906  1.00  0.00     0.211 HD
ENDBRANCH   3  12
BRANCH   5  14
ATOM     14  C   UNL     1      25.042   3.438  36.525  1.00  0.00     0.191 C 
BRANCH  14  15
ATOM     15  O   UNL     1      25.139   3.795  35.172  1.00  0.00    -0.394 OA
ATOM     16  H   UNL     1      25.778   4.553  35.122  1.00  0.00     0.210 HD
ENDBRANCH  14  15
ENDBRANCH   5  14
BRANCH   4  17
ATOM     17  O   UNL     1      22.274   3.253  35.655  1.00  0.00    -0.387 OA
ATOM     18  H   UNL     1      21.571   3.483  34.993  1.00  0.00     0.211 HD
ENDBRANCH   4  17
TORSDOF 7
ENDMDL
MODEL 3
REMARK VINA RESULT:    -4.826      1.545      3.742
REMARK INTER + INTRA:          -6.455
REMARK INTER:                  -5.994
REMARK INTRA:                  -0.462
REMARK UNBOUND:                -0.218
REMARK SMILES CCO[C@@H]1O[C@@H](CO)[C@@H](O)[C@H](O)[C@@H]1O
REMARK SMILES IDX 4 1 13 2 11 3 9 4 6 5 5 6 3 7 2 8 1 9 14 10 12 12 7 14 8 15
REMARK SMILES IDX 10 17
REMARK H PARENT 14 11 12 13 8 16 10 18
REMARK Flexibility Score: inf
ROOT
ATOM      1  C   UNL     1      22.754   4.168  40.465  1.00  0.00     0.281 C 
ATOM      2  C   UNL     1      22.919   4.788  41.868  1.00  0.00     0.202 C 
ATOM      3  C   UNL     1      21.804   4.316  42.820  1.00  0.00     0.179 C 
ATOM      4  C   UNL     1      21.676   2.781  42.763  1.00  0.00     0.177 C 
ATOM      5  C   UNL     1      21.548   2.328  41.292  1.00  0.00     0.178 C 
ATOM      6  O   UNL     1      22.676   2.750  40.539  1.00  0.00    -0.341 OA
ENDROOT
BRANCH   1   7
ATOM      7  O   UNL     1      21.620   4.716  39.810  1.00  0.00    -0.350 OA
BRANCH   7   8
ATOM      8  C   UNL     1      21.818   4.775  38.410  1.00  0.00     0.160 C 
ATOM      9  C   UNL     1      23.221   5.282  38.098  1.00  0.00     0.035 C 
ENDBRANCH   7   8
ENDBRANCH   1   7
BRANCH   2  10
ATOM     10  O   UNL     1      22.923   6.189  41.767  1.00  0.00    -0.385 OA
ATOM     11  H   UNL     1      23.230   6.409  40.849  1.00  0.00     0.211 HD
ENDBRANCH   2  10
BRANCH   3  12
ATOM     12  O   UNL     1      20.585   4.920  42.466  1.00  0.00    -0.387 OA
ATOM     13  H   UNL     1      20.237   5.367  43.281  1.00  0.00     0.211 HD
ENDBRANCH   3  12
BRANCH   5  14
ATOM     14  C   UNL     1      21.426   0.801  41.197  1.00  0.00     0.191 C 
BRANCH  14  15
ATOM     15  O   UNL     1      21.000   0.269  42.423  1.00  0.00    -0.394 OA
ATOM     16  H   UNL     1      21.391  -0.642  42.491  1.00  0.00     0.210 HD
ENDBRANCH  14  15
ENDBRANCH   5  14
BRANCH   4  17
ATOM     17  O   UNL     1      22.806   2.186  43.350  1.00  0.00    -0.387 OA
ATOM     18  H   UNL     1      23.309   1.741  42.619  1.00  0.00     0.211 HD
ENDBRANCH   4  17
TORSDOF 7
ENDMDL
MODEL 4
REMARK VINA RESULT:    -4.540     14.167     15.735
REMARK INTER + INTRA:          -6.086
REMARK INTER:                  -5.614
REMARK INTRA:                  -0.472
REMARK UNBOUND:                -0.218
REMARK SMILES CCO[C@@H]1O[C@@H](CO)[C@@H](O)[C@H](O)[C@@H]1O
REMARK SMILES IDX 4 1 13 2 11 3 9 4 6 5 5 6 3 7 2 8 1 9 14 10 12 12 7 14 8 15
REMARK SMILES IDX 10 17
REMARK H PARENT 14 11 12 13 8 16 10 18
REMARK Flexibility Score: inf
ROOT
ATOM      1  C   UNL     1      36.597   1.846  44.056  1.00  0.00     0.281 C 
ATOM      2  C   UNL     1      37.933   2.326  44.660  1.00  0.00     0.202 C 
ATOM      3  C   UNL     1      38.314   1.493  45.899  1.00  0.00     0.179 C 
ATOM      4  C   UNL     1      38.212  -0.011  45.575  1.00  0.00     0.177 C 
ATOM      5  C   UNL     1      36.830  -0.312  44.954  1.00  0.00     0.178 C 
ATOM      6  O   UNL     1      36.634   0.453  43.774  1.00  0.00    -0.341 OA
ENDROOT
BRANCH   1   7
ATOM      7  O   UNL     1      35.516   2.173  44.918  1.00  0.00    -0.350 OA
BRANCH   7   8
ATOM      8  C   UNL     1      34.339   2.443  44.181  1.00  0.00     0.160 C 
ATOM      9  C   UNL     1      34.482   3.761  43.427  1.00  0.00     0.035 C 
ENDBRANCH   7   8
ENDBRANCH   1   7
BRANCH   2  10
ATOM     10  O   UNL     1      37.839   3.688  44.991  1.00  0.00    -0.385 OA
ATOM     11  H   UNL     1      37.096   3.773  45.643  1.00  0.00     0.211 HD
ENDBRANCH   2  10
BRANCH   3  12
ATOM     12  O   UNL     1      37.469   1.818  46.974  1.00  0.00    -0.387 OA
ATOM     13  H   UNL     1      37.589   2.787  47.152  1.00  0.00     0.211 HD
ENDBRANCH   3  12
BRANCH   5  14
ATOM     14  C   UNL     1      36.696  -1.803  44.612  1.00  0.00     0.191 C 
BRANCH  14  15
ATOM     15  O   UNL     1      37.242  -2.063  43.346  1.00  0.00    -0.394 OA
ATOM     16  H   UNL     1      36.535  -1.852  42.681  1.00  0.00     0.210 HD
ENDBRANCH  14  15
ENDBRANCH   5  14
BRANCH   4  17
ATOM     17  O   UNL     1      39.229  -0.376  44.676  1.00  0.00    -0.387 OA
ATOM     18  H   UNL     1      39.946   0.306  44.760  1.00  0.00     0.211 HD
ENDBRANCH   4  17
TORSDOF 7
ENDMDL
MODEL 5
REMARK VINA RESULT:    -4.490      4.434      5.894
REMARK INTER + INTRA:          -6.021
REMARK INTER:                  -5.615
REMARK INTRA:                  -0.407
REMARK UNBOUND:                -0.218
REMARK SMILES CCO[C@@H]1O[C@@H](CO)[C@@H](O)[C@H](O)[C@@H]1O
REMARK SMILES IDX 4 1 13 2 11 3 9 4 6 5 5 6 3 7 2 8 1 9 14 10 12 12 7 14 8 15
REMARK SMILES IDX 10 17
REMARK H PARENT 14 11 12 13 8 16 10 18
REMARK Flexibility Score: inf
ROOT
ATOM      1  C   UNL     1      20.915   3.573  37.733  1.00  0.00     0.281 C 
ATOM      2  C   UNL     1      21.159   4.955  38.374  1.00  0.00     0.202 C 
ATOM      3  C   UNL     1      22.029   5.844  37.466  1.00  0.00     0.179 C 
ATOM      4  C   UNL     1      21.462   5.848  36.032  1.00  0.00     0.177 C 
ATOM      5  C   UNL     1      21.252   4.393  35.557  1.00  0.00     0.178 C 
ATOM      6  O   UNL     1      20.366   3.705  36.428  1.00  0.00    -0.341 OA
ENDROOT
BRANCH   1   7
ATOM      7  O   UNL     1      22.115   2.814  37.717  1.00  0.00    -0.350 OA
BRANCH   7   8
ATOM      8  C   UNL     1      21.924   1.545  38.313  1.00  0.00     0.160 C 
ATOM      9  C   UNL     1      22.884   1.365  39.484  1.00  0.00     0.035 C 
ENDBRANCH   7   8
ENDBRANCH   1   7
BRANCH   2  10
ATOM     10  O   UNL     1      21.765   4.792  39.631  1.00  0.00    -0.385 OA
ATOM     11  H   UNL     1      21.097   5.074  40.309  1.00  0.00     0.211 HD
ENDBRANCH   2  10
BRANCH   3  12
ATOM     12  O   UNL     1      23.354   5.376  37.464  1.00  0.00    -0.387 OA
ATOM     13  H   UNL     1      23.348   4.496  37.005  1.00  0.00     0.211 HD
ENDBRANCH   3  12
BRANCH   5  14
ATOM     14  C   UNL     1      20.680   4.358  34.132  1.00  0.00     0.191 C 
BRANCH  14  15
ATOM     15  O   UNL     1      20.866   5.597  33.503  1.00  0.00    -0.394 OA
ATOM     16  H   UNL     1      20.792   5.435  32.525  1.00  0.00     0.210 HD
ENDBRANCH  14  15
ENDBRANCH   5  14
BRANCH   4  17
ATOM     17  O   UNL     1      20.239   6.540  36.004  1.00  0.00    -0.387 OA
ATOM     18  H   UNL     1      19.667   6.085  35.333  1.00  0.00     0.211 HD
ENDBRANCH   4  17
TORSDOF 7
ENDMDL
MODEL 6
REMARK VINA RESULT:    -4.482      1.559      3.771
REMARK INTER + INTRA:          -6.011
REMARK INTER:                  -5.910
REMARK INTRA:                  -0.101
REMARK UNBOUND:                -0.218
REMARK SMILES CCO[C@@H]1O[C@@H](CO)[C@@H](O)[C@H](O)[C@@H]1O
REMARK SMILES IDX 4 1 13 2 11 3 9 4 6 5 5 6 3 7 2 8 1 9 14 10 12 12 7 14 8 15
REMARK SMILES IDX 10 17
REMARK H PARENT 14 11 12 13 8 16 10 18
REMARK Flexibility Score: inf
ROOT
ATOM      1  C   UNL     1      22.664   4.226  42.311  1.00  0.00     0.281 C 
ATOM      2  C   UNL     1      22.753   2.687  42.250  1.00  0.00     0.202 C 
ATOM      3  C   UNL     1      22.124   2.144  40.953  1.00  0.00     0.179 C 
ATOM      4  C   UNL     1      22.682   2.909  39.736  1.00  0.00     0.177 C 
ATOM      5  C   UNL     1      22.541   4.429  39.974  1.00  0.00     0.178 C 
ATOM      6  O   UNL     1      23.234   4.817  41.151  1.00  0.00    -0.341 OA
ENDROOT
BRANCH   1   7
ATOM      7  O   UNL     1      21.318   4.638  42.497  1.00  0.00    -0.350 OA
BRANCH   7   8
ATOM      8  C   UNL     1      21.158   5.322  43.725  1.00  0.00     0.160 C 
ATOM      9  C   UNL     1      22.461   6.008  44.118  1.00  0.00     0.035 C 
ENDBRANCH   7   8
ENDBRANCH   1   7
BRANCH   2  10
ATOM     10  O   UNL     1      22.121   2.132  43.375  1.00  0.00    -0.385 OA
ATOM     11  H   UNL     1      21.143   2.219  43.225  1.00  0.00     0.211 HD
ENDBRANCH   2  10
BRANCH   3  12
ATOM     12  O   UNL     1      20.725   2.271  41.009  1.00  0.00    -0.387 OA
ATOM     13  H   UNL     1      20.397   2.250  40.073  1.00  0.00     0.211 HD
ENDBRANCH   3  12
BRANCH   5  14
ATOM     14  C   UNL     1      23.094   5.224  38.782  1.00  0.00     0.191 C 
BRANCH  14  15
ATOM     15  O   UNL     1      22.046   5.817  38.064  1.00  0.00    -0.394 OA
ATOM     16  H   UNL     1      21.251   5.810  38.660  1.00  0.00     0.210 HD
ENDBRANCH  14  15
ENDBRANCH   5  14
BRANCH   4  17
ATOM     17  O   UNL     1      24.035   2.580  39.543  1.00  0.00    -0.387 OA
ATOM     18  H   UNL     1      24.450   2.531  40.443  1.00  0.00     0.211 HD
ENDBRANCH   4  17
TORSDOF 7
ENDMDL
MODEL 7
REMARK VINA RESULT:    -4.457      3.076      4.843
REMARK INTER + INTRA:          -5.978
REMARK INTER:                  -5.572
REMARK INTRA:                  -0.406
REMARK UNBOUND:                -0.218
REMARK SMILES CCO[C@@H]1O[C@@H](CO)[C@@H](O)[C@H](O)[C@@H]1O
REMARK SMILES IDX 4 1 13 2 11 3 9 4 6 5 5 6 3 7 2 8 1 9 14 10 12 12 7 14 8 15
REMARK SMILES IDX 10 17
REMARK H PARENT 14 11 12 13 8 16 10 18
REMARK Flexibility Score: inf
ROOT
ATOM      1  C   UNL     1      21.170   4.304  39.682  1.00  0.00     0.281 C 
ATOM      2  C   UNL     1      22.596   4.877  39.817  1.00  0.00     0.202 C 
ATOM      3  C   UNL     1      23.390   4.708  38.508  1.00  0.00     0.179 C 
ATOM      4  C   UNL     1      22.559   5.221  37.316  1.00  0.00     0.177 C 
ATOM      5  C   UNL     1      21.157   4.573  37.347  1.00  0.00     0.178 C 
ATOM      6  O   UNL     1      20.494   4.872  38.567  1.00  0.00    -0.341 OA
ENDROOT
BRANCH   1   7
ATOM      7  O   UNL     1      21.210   2.887  39.597  1.00  0.00    -0.350 OA
BRANCH   7   8
ATOM      8  C   UNL     1      20.387   2.293  40.582  1.00  0.00     0.160 C 
ATOM      9  C   UNL     1      21.191   1.293  41.406  1.00  0.00     0.035 C 
ENDBRANCH   7   8
ENDBRANCH   1   7
BRANCH   2  10
ATOM     10  O   UNL     1      23.259   4.246  40.882  1.00  0.00    -0.385 OA
ATOM     11  H   UNL     1      24.202   4.558  40.857  1.00  0.00     0.211 HD
ENDBRANCH   2  10
BRANCH   3  12
ATOM     12  O   UNL     1      23.724   3.355  38.322  1.00  0.00    -0.387 OA
ATOM     13  H   UNL     1      23.159   2.830  38.947  1.00  0.00     0.211 HD
ENDBRANCH   3  12
BRANCH   5  14
ATOM     14  C   UNL     1      20.297   5.068  36.176  1.00  0.00     0.191 C 
BRANCH  14  15
ATOM     15  O   UNL     1      19.876   6.386  36.404  1.00  0.00    -0.394 OA
ATOM     16  H   UNL     1      18.974   6.331  36.819  1.00  0.00     0.210 HD
ENDBRANCH  14  15
ENDBRANCH   5  14
BRANCH   4  17
ATOM     17  O   UNL     1      22.439   6.620  37.385  1.00  0.00    -0.387 OA
ATOM     18  H   UNL     1      22.185   6.841  38.318  1.00  0.00     0.211 HD
ENDBRANCH   4  17
TORSDOF 7
ENDMDL
MODEL 8
REMARK VINA RESULT:    -4.424     13.780     15.388
REMARK INTER + INTRA:          -5.935
REMARK INTER:                  -5.524
REMARK INTRA:                  -0.411
REMARK UNBOUND:                -0.218
REMARK SMILES CCO[C@@H]1O[C@@H](CO)[C@@H](O)[C@H](O)[C@@H]1O
REMARK SMILES IDX 4 1 13 2 11 3 9 4 6 5 5 6 3 7 2 8 1 9 14 10 12 12 7 14 8 15
REMARK SMILES IDX 10 17
REMARK H PARENT 14 11 12 13 8 16 10 18
REMARK Flexibility Score: inf
ROOT
ATOM      1  C   UNL     1      38.330   4.984  43.657  1.00  0.00     0.281 C 
ATOM      2  C   UNL     1      37.459   6.257  43.670  1.00  0.00     0.202 C 
ATOM      3  C   UNL     1      35.977   5.920  43.421  1.00  0.00     0.179 C 
ATOM      4  C   UNL     1      35.531   4.778  44.356  1.00  0.00     0.177 C 
ATOM      5  C   UNL     1      36.523   3.600  44.240  1.00  0.00     0.178 C 
ATOM      6  O   UNL     1      37.838   4.017  44.576  1.00  0.00    -0.341 OA
ENDROOT
BRANCH   1   7
ATOM      7  O   UNL     1      38.413   4.453  42.342  1.00  0.00    -0.350 OA
BRANCH   7   8
ATOM      8  C   UNL     1      39.760   4.283  41.944  1.00  0.00     0.160 C 
ATOM      9  C   UNL     1      39.957   4.794  40.521  1.00  0.00     0.035 C 
ENDBRANCH   7   8
ENDBRANCH   1   7
BRANCH   2  10
ATOM     10  O   UNL     1      37.929   7.161  42.703  1.00  0.00    -0.385 OA
ATOM     11  H   UNL     1      38.920   7.103  42.716  1.00  0.00     0.211 HD
ENDBRANCH   2  10
BRANCH   3  12
ATOM     12  O   UNL     1      35.788   5.552  42.078  1.00  0.00    -0.387 OA
ATOM     13  H   UNL     1      35.550   6.379  41.583  1.00  0.00     0.211 HD
ENDBRANCH   3  12
BRANCH   5  14
ATOM     14  C   UNL     1      36.113   2.445  45.165  1.00  0.00     0.191 C 
BRANCH  14  15
ATOM     15  O   UNL     1      36.787   2.540  46.391  1.00  0.00    -0.394 OA
ATOM     16  H   UNL     1      37.268   1.680  46.520  1.00  0.00     0.210 HD
ENDBRANCH  14  15
ENDBRANCH   5  14
BRANCH   4  17
ATOM     17  O   UNL     1      35.488   5.237  45.684  1.00  0.00    -0.387 OA
ATOM     18  H   UNL     1      36.024   6.071  45.717  1.00  0.00     0.211 HD
ENDBRANCH   4  17
TORSDOF 7
ENDMDL
MODEL 9
REMARK VINA RESULT:    -4.409     14.133     15.511
REMARK INTER + INTRA:          -5.917
REMARK INTER:                  -5.452
REMARK INTRA:                  -0.465
REMARK UNBOUND:                -0.218
REMARK SMILES CCO[C@@H]1O[C@@H](CO)[C@@H](O)[C@H](O)[C@@H]1O
REMARK SMILES IDX 4 1 13 2 11 3 9 4 6 5 5 6 3 7 2 8 1 9 14 10 12 12 7 14 8 15
REMARK SMILES IDX 10 17
REMARK H PARENT 14 11 12 13 8 16 10 18
REMARK Flexibility Score: inf
ROOT
ATOM      1  C   UNL     1      37.514   4.518  44.084  1.00  0.00     0.281 C 
ATOM      2  C   UNL     1      36.193   4.470  44.878  1.00  0.00     0.202 C 
ATOM      3  C   UNL     1      35.631   3.036  44.937  1.00  0.00     0.179 C 
ATOM      4  C   UNL     1      36.733   2.056  45.386  1.00  0.00     0.177 C 
ATOM      5  C   UNL     1      37.990   2.257  44.510  1.00  0.00     0.178 C 
ATOM      6  O   UNL     1      38.459   3.594  44.607  1.00  0.00    -0.341 OA
ENDROOT
BRANCH   1   7
ATOM      7  O   UNL     1      37.273   4.289  42.703  1.00  0.00    -0.350 OA
BRANCH   7   8
ATOM      8  C   UNL     1      38.103   5.104  41.898  1.00  0.00     0.160 C 
ATOM      9  C   UNL     1      38.377   6.429  42.599  1.00  0.00     0.035 C 
ENDBRANCH   7   8
ENDBRANCH   1   7
BRANCH   2  10
ATOM     10  O   UNL     1      35.258   5.341  44.294  1.00  0.00    -0.385 OA
ATOM     11  H   UNL     1      34.674   4.787  43.714  1.00  0.00     0.211 HD
ENDBRANCH   2  10
BRANCH   3  12
ATOM     12  O   UNL     1      35.133   2.664  43.676  1.00  0.00    -0.387 OA
ATOM     13  H   UNL     1      35.738   1.960  43.324  1.00  0.00     0.211 HD
ENDBRANCH   3  12
BRANCH   5  14
ATOM     14  C   UNL     1      39.113   1.300  44.935  1.00  0.00     0.191 C 
BRANCH  14  15
ATOM     15  O   UNL     1      39.803   1.819  46.040  1.00  0.00    -0.394 OA
ATOM     16  H   UNL     1      39.378   1.431  46.850  1.00  0.00     0.210 HD
ENDBRANCH  14  15
ENDBRANCH   5  14
BRANCH   4  17
ATOM     17  O   UNL     1      37.052   2.282  46.736  1.00  0.00    -0.387 OA
ATOM     18  H   UNL     1      37.340   3.228  46.809  1.00  0.00     0.211 HD
ENDBRANCH   4  17
TORSDOF 7
ENDMDL
