MODEL 1
REMARK VINA RESULT:    -6.566      0.000      0.000
REMARK INTER + INTRA:          -7.142
REMARK INTER:                  -7.142
REMARK INTRA:                   0.000
REMARK UNBOUND:                 0.000
REMARK SMILES Cc1cc(O)c2c(c1)C(=O)c1cc(O)cc(O)c1C2=O
REMARK SMILES IDX 1 1 2 2 8 3 7 4 6 5 4 6 3 7 19 8 20 9 18 10 11 11 9 12 10 13
REMARK SMILES IDX 12 14 13 15 15 16 16 17 5 18 17 20 14 22
REMARK H PARENT 5 19 17 21 14 23
REMARK Flexibility Score: inf
ROOT
ATOM      1  C   UNL     1     -33.181   4.985  79.482  1.00  0.00     0.044 C 
ATOM      2  C   UNL     1     -34.330   4.626  80.377  1.00  0.00    -0.047 A 
ATOM      3  C   UNL     1     -35.647   4.765  79.923  1.00  0.00     0.016 A 
ATOM      4  C   UNL     1     -36.731   4.473  80.768  1.00  0.00     0.038 A 
ATOM      5  C   UNL     1     -36.495   4.062  82.099  1.00  0.00     0.076 A 
ATOM      6  C   UNL     1     -35.158   3.879  82.539  1.00  0.00     0.127 A 
ATOM      7  C   UNL     1     -34.096   4.194  81.686  1.00  0.00     0.050 A 
ATOM      8  C   UNL     1     -37.663   3.907  83.004  1.00  0.00     0.201 C 
ATOM      9  O   UNL     1     -37.531   4.112  84.240  1.00  0.00    -0.288 OA
ATOM     10  C   UNL     1     -39.017   3.697  82.431  1.00  0.00     0.076 A 
ATOM     11  C   UNL     1     -39.250   4.110  81.099  1.00  0.00     0.041 A 
ATOM     12  C   UNL     1     -38.121   4.593  80.268  1.00  0.00     0.194 C 
ATOM     13  O   UNL     1     -38.342   5.082  79.127  1.00  0.00    -0.289 OA
ATOM     14  C   UNL     1     -40.549   4.056  80.567  1.00  0.00     0.059 A 
ATOM     15  C   UNL     1     -41.611   3.583  81.336  1.00  0.00     0.120 A 
ATOM     16  C   UNL     1     -41.380   3.136  82.640  1.00  0.00     0.093 A 
ATOM     17  C   UNL     1     -40.092   3.160  83.186  1.00  0.00     0.131 A 
ENDROOT
BRANCH   6  18
ATOM     18  O   UNL     1     -34.840   3.359  83.796  1.00  0.00    -0.507 OA
ATOM     19  H   UNL     1     -34.003   2.825  83.984  1.00  0.00     0.293 HD
ENDBRANCH   6  18
BRANCH  17  20
ATOM     20  O   UNL     1     -39.922   2.612  84.460  1.00  0.00    -0.507 OA
ATOM     21  H   UNL     1     -39.761   3.167  85.289  1.00  0.00     0.293 HD
ENDBRANCH  17  20
BRANCH  15  22
ATOM     22  O   UNL     1     -42.893   3.550  80.792  1.00  0.00    -0.508 OA
ATOM     23  H   UNL     1     -43.043   3.419  79.799  1.00  0.00     0.293 HD
ENDBRANCH  15  22
TORSDOF 3
ENDMDL
MODEL 2
REMARK VINA RESULT:    -6.512      2.315      5.193
REMARK INTER + INTRA:          -7.083
REMARK INTER:                  -7.083
REMARK INTRA:                   0.000
REMARK UNBOUND:                 0.000
REMARK SMILES Cc1cc(O)c2c(c1)C(=O)c1cc(O)cc(O)c1C2=O
REMARK SMILES IDX 1 1 2 2 8 3 7 4 6 5 4 6 3 7 19 8 20 9 18 10 11 11 9 12 10 13
REMARK SMILES IDX 12 14 13 15 15 16 16 17 5 18 17 20 14 22
REMARK H PARENT 5 19 17 21 14 23
REMARK Flexibility Score: inf
ROOT
ATOM      1  C   UNL     1     -38.430   7.702  76.058  1.00  0.00     0.044 C 
ATOM      2  C   UNL     1     -38.379   6.897  77.323  1.00  0.00    -0.047 A 
ATOM      3  C   UNL     1     -37.154   6.432  77.814  1.00  0.00     0.016 A 
ATOM      4  C   UNL     1     -37.100   5.641  78.973  1.00  0.00     0.038 A 
ATOM      5  C   UNL     1     -38.294   5.286  79.639  1.00  0.00     0.076 A 
ATOM      6  C   UNL     1     -39.530   5.798  79.163  1.00  0.00     0.127 A 
ATOM      7  C   UNL     1     -39.560   6.567  77.996  1.00  0.00     0.050 A 
ATOM      8  C   UNL     1     -38.209   4.328  80.772  1.00  0.00     0.201 C 
ATOM      9  O   UNL     1     -39.176   3.559  81.018  1.00  0.00    -0.288 OA
ATOM     10  C   UNL     1     -36.921   4.149  81.491  1.00  0.00     0.076 A 
ATOM     11  C   UNL     1     -35.728   4.505  80.821  1.00  0.00     0.041 A 
ATOM     12  C   UNL     1     -35.795   5.180  79.503  1.00  0.00     0.194 C 
ATOM     13  O   UNL     1     -34.738   5.383  78.844  1.00  0.00    -0.289 OA
ATOM     14  C   UNL     1     -34.485   4.223  81.411  1.00  0.00     0.059 A 
ATOM     15  C   UNL     1     -34.416   3.607  82.660  1.00  0.00     0.120 A 
ATOM     16  C   UNL     1     -35.592   3.290  83.344  1.00  0.00     0.093 A 
ATOM     17  C   UNL     1     -36.842   3.578  82.788  1.00  0.00     0.131 A 
ENDROOT
BRANCH   6  18
ATOM     18  O   UNL     1     -40.739   5.597  79.832  1.00  0.00    -0.507 OA
ATOM     19  H   UNL     1     -41.204   4.701  79.889  1.00  0.00     0.293 HD
ENDBRANCH   6  18
BRANCH  17  20
ATOM     20  O   UNL     1     -37.971   3.317  83.568  1.00  0.00    -0.507 OA
ATOM     21  H   UNL     1     -38.565   4.039  83.952  1.00  0.00     0.293 HD
ENDBRANCH  17  20
BRANCH  15  22
ATOM     22  O   UNL     1     -33.172   3.326  83.220  1.00  0.00    -0.508 OA
ATOM     23  H   UNL     1     -32.583   2.585  82.857  1.00  0.00     0.293 HD
ENDBRANCH  15  22
TORSDOF 3
ENDMDL
MODEL 3
REMARK VINA RESULT:    -6.431      1.956      5.634
REMARK INTER + INTRA:          -6.995
REMARK INTER:                  -6.995
REMARK INTRA:                   0.000
REMARK UNBOUND:                 0.000
REMARK SMILES Cc1cc(O)c2c(c1)C(=O)c1cc(O)cc(O)c1C2=O
REMARK SMILES IDX 1 1 2 2 8 3 7 4 6 5 4 6 3 7 19 8 20 9 18 10 11 11 9 12 10 13
REMARK SMILES IDX 12 14 13 15 15 16 16 17 5 18 17 20 14 22
REMARK H PARENT 5 19 17 21 14 23
REMARK Flexibility Score: inf
ROOT
ATOM      1  C   UNL     1     -42.501   2.254  76.876  1.00  0.00     0.044 C 
ATOM      2  C   UNL     1     -41.807   2.716  78.124  1.00  0.00    -0.047 A 
ATOM      3  C   UNL     1     -40.410   2.774  78.172  1.00  0.00     0.016 A 
ATOM      4  C   UNL     1     -39.749   3.163  79.349  1.00  0.00     0.038 A 
ATOM      5  C   UNL     1     -40.497   3.474  80.506  1.00  0.00     0.076 A 
ATOM      6  C   UNL     1     -41.915   3.458  80.438  1.00  0.00     0.127 A 
ATOM      7  C   UNL     1     -42.549   3.048  79.261  1.00  0.00     0.050 A 
ATOM      8  C   UNL     1     -39.761   3.736  81.770  1.00  0.00     0.201 C 
ATOM      9  O   UNL     1     -40.293   3.455  82.877  1.00  0.00    -0.288 OA
ATOM     10  C   UNL     1     -38.335   4.150  81.720  1.00  0.00     0.076 A 
ATOM     11  C   UNL     1     -37.589   3.837  80.561  1.00  0.00     0.041 A 
ATOM     12  C   UNL     1     -38.270   3.252  79.381  1.00  0.00     0.194 C 
ATOM     13  O   UNL     1     -37.591   2.852  78.395  1.00  0.00    -0.289 OA
ATOM     14  C   UNL     1     -36.207   4.088  80.530  1.00  0.00     0.059 A 
ATOM     15  C   UNL     1     -35.565   4.657  81.629  1.00  0.00     0.120 A 
ATOM     16  C   UNL     1     -36.304   5.005  82.762  1.00  0.00     0.093 A 
ATOM     17  C   UNL     1     -37.684   4.785  82.810  1.00  0.00     0.131 A 
ENDROOT
BRANCH   6  18
ATOM     18  O   UNL     1     -42.727   3.869  81.497  1.00  0.00    -0.507 OA
ATOM     19  H   UNL     1     -42.378   4.067  82.425  1.00  0.00     0.293 HD
ENDBRANCH   6  18
BRANCH  17  20
ATOM     20  O   UNL     1     -38.371   5.243  83.938  1.00  0.00    -0.507 OA
ATOM     21  H   UNL     1     -39.274   4.888  84.224  1.00  0.00     0.293 HD
ENDBRANCH  17  20
BRANCH  15  22
ATOM     22  O   UNL     1     -34.192   4.885  81.580  1.00  0.00    -0.508 OA
ATOM     23  H   UNL     1     -33.644   5.002  82.424  1.00  0.00     0.293 HD
ENDBRANCH  15  22
TORSDOF 3
ENDMDL
MODEL 4
REMARK VINA RESULT:    -6.323      1.653      3.457
REMARK INTER + INTRA:          -6.878
REMARK INTER:                  -6.878
REMARK INTRA:                   0.000
REMARK UNBOUND:                 0.000
REMARK SMILES Cc1cc(O)c2c(c1)C(=O)c1cc(O)cc(O)c1C2=O
REMARK SMILES IDX 1 1 2 2 8 3 7 4 6 5 4 6 3 7 19 8 20 9 18 10 11 11 9 12 10 13
REMARK SMILES IDX 12 14 13 15 15 16 16 17 5 18 17 20 14 22
REMARK H PARENT 5 19 17 21 14 23
REMARK Flexibility Score: inf
ROOT
ATOM      1  C   UNL     1     -33.983   5.015  83.431  1.00  0.00     0.044 C 
ATOM      2  C   UNL     1     -34.970   4.677  82.353  1.00  0.00    -0.047 A 
ATOM      3  C   UNL     1     -36.313   4.446  82.673  1.00  0.00     0.016 A 
ATOM      4  C   UNL     1     -37.236   4.086  81.677  1.00  0.00     0.038 A 
ATOM      5  C   UNL     1     -36.803   3.928  80.341  1.00  0.00     0.076 A 
ATOM      6  C   UNL     1     -35.451   4.208  80.014  1.00  0.00     0.127 A 
ATOM      7  C   UNL     1     -34.547   4.546  81.027  1.00  0.00     0.050 A 
ATOM      8  C   UNL     1     -37.774   3.403  79.346  1.00  0.00     0.201 C 
ATOM      9  O   UNL     1     -37.365   2.724  78.368  1.00  0.00    -0.288 OA
ATOM     10  C   UNL     1     -39.232   3.520  79.606  1.00  0.00     0.076 A 
ATOM     11  C   UNL     1     -39.661   3.678  80.944  1.00  0.00     0.041 A 
ATOM     12  C   UNL     1     -38.662   3.875  82.021  1.00  0.00     0.194 C 
ATOM     13  O   UNL     1     -39.029   3.887  83.228  1.00  0.00    -0.289 OA
ATOM     14  C   UNL     1     -41.033   3.653  81.246  1.00  0.00     0.059 A 
ATOM     15  C   UNL     1     -41.979   3.488  80.235  1.00  0.00     0.120 A 
ATOM     16  C   UNL     1     -41.562   3.372  78.906  1.00  0.00     0.093 A 
ATOM     17  C   UNL     1     -40.204   3.414  78.577  1.00  0.00     0.131 A 
ENDROOT
BRANCH   6  18
ATOM     18  O   UNL     1     -34.972   4.195  78.703  1.00  0.00    -0.507 OA
ATOM     19  H   UNL     1     -35.345   3.597  77.977  1.00  0.00     0.293 HD
ENDBRANCH   6  18
BRANCH  17  20
ATOM     20  O   UNL     1     -39.868   3.384  77.221  1.00  0.00    -0.507 OA
ATOM     21  H   UNL     1     -39.174   2.761  76.831  1.00  0.00     0.293 HD
ENDBRANCH  17  20
BRANCH  15  22
ATOM     22  O   UNL     1     -43.333   3.454  80.559  1.00  0.00    -0.508 OA
ATOM     23  H   UNL     1     -43.732   2.686  81.087  1.00  0.00     0.293 HD
ENDBRANCH  15  22
TORSDOF 3
ENDMDL
MODEL 5
REMARK VINA RESULT:    -6.298     12.511     14.391
REMARK INTER + INTRA:          -6.850
REMARK INTER:                  -6.850
REMARK INTRA:                   0.000
REMARK UNBOUND:                 0.000
REMARK SMILES Cc1cc(O)c2c(c1)C(=O)c1cc(O)cc(O)c1C2=O
REMARK SMILES IDX 1 1 2 2 8 3 7 4 6 5 4 6 3 7 19 8 20 9 18 10 11 11 9 12 10 13
REMARK SMILES IDX 12 14 13 15 15 16 16 17 5 18 17 20 14 22
REMARK H PARENT 5 19 17 21 14 23
REMARK Flexibility Score: inf
ROOT
ATOM      1  C   UNL     1     -48.125  -0.472  74.431  1.00  0.00     0.044 C 
ATOM      2  C   UNL     1     -47.808   0.635  73.470  1.00  0.00    -0.047 A 
ATOM      3  C   UNL     1     -47.638   1.945  73.934  1.00  0.00     0.016 A 
ATOM      4  C   UNL     1     -47.385   2.996  73.038  1.00  0.00     0.038 A 
ATOM      5  C   UNL     1     -47.327   2.739  71.649  1.00  0.00     0.076 A 
ATOM      6  C   UNL     1     -47.454   1.402  71.188  1.00  0.00     0.127 A 
ATOM      7  C   UNL     1     -47.725   0.376  72.098  1.00  0.00     0.050 A 
ATOM      8  C   UNL     1     -47.205   3.895  70.725  1.00  0.00     0.201 C 
ATOM      9  O   UNL     1     -47.703   3.830  69.569  1.00  0.00    -0.288 OA
ATOM     10  C   UNL     1     -46.667   5.186  71.225  1.00  0.00     0.076 A 
ATOM     11  C   UNL     1     -46.727   5.441  72.615  1.00  0.00     0.041 A 
ATOM     12  C   UNL     1     -47.175   4.374  73.542  1.00  0.00     0.194 C 
ATOM     13  O   UNL     1     -47.353   4.634  74.763  1.00  0.00    -0.289 OA
ATOM     14  C   UNL     1     -46.357   6.702  73.111  1.00  0.00     0.059 A 
ATOM     15  C   UNL     1     -45.915   7.703  72.247  1.00  0.00     0.120 A 
ATOM     16  C   UNL     1     -45.816   7.443  70.877  1.00  0.00     0.093 A 
ATOM     17  C   UNL     1     -46.159   6.190  70.361  1.00  0.00     0.131 A 
ENDROOT
BRANCH   6  18
ATOM     18  O   UNL     1     -47.287   1.046  69.848  1.00  0.00    -0.507 OA
ATOM     19  H   UNL     1     -48.018   1.124  69.154  1.00  0.00     0.293 HD
ENDBRANCH   6  18
BRANCH  17  20
ATOM     20  O   UNL     1     -45.947   5.976  68.996  1.00  0.00    -0.507 OA
ATOM     21  H   UNL     1     -45.392   5.214  68.630  1.00  0.00     0.293 HD
ENDBRANCH  17  20
BRANCH  15  22
ATOM     22  O   UNL     1     -45.565   8.949  72.760  1.00  0.00    -0.508 OA
ATOM     23  H   UNL     1     -45.185   9.678  72.168  1.00  0.00     0.293 HD
ENDBRANCH  15  22
TORSDOF 3
ENDMDL
MODEL 6
REMARK VINA RESULT:    -6.196      1.977      4.191
REMARK INTER + INTRA:          -6.739
REMARK INTER:                  -6.739
REMARK INTRA:                   0.000
REMARK UNBOUND:                 0.000
REMARK SMILES Cc1cc(O)c2c(c1)C(=O)c1cc(O)cc(O)c1C2=O
REMARK SMILES IDX 1 1 2 2 8 3 7 4 6 5 4 6 3 7 19 8 20 9 18 10 11 11 9 12 10 13
REMARK SMILES IDX 12 14 13 15 15 16 16 17 5 18 17 20 14 22
REMARK H PARENT 5 19 17 21 14 23
REMARK Flexibility Score: inf
ROOT
ATOM      1  C   UNL     1     -33.893   7.691  77.659  1.00  0.00     0.044 C 
ATOM      2  C   UNL     1     -35.005   6.837  78.192  1.00  0.00    -0.047 A 
ATOM      3  C   UNL     1     -34.814   6.074  79.351  1.00  0.00     0.016 A 
ATOM      4  C   UNL     1     -35.834   5.237  79.834  1.00  0.00     0.038 A 
ATOM      5  C   UNL     1     -37.056   5.140  79.132  1.00  0.00     0.076 A 
ATOM      6  C   UNL     1     -37.261   5.949  77.984  1.00  0.00     0.127 A 
ATOM      7  C   UNL     1     -36.224   6.760  77.512  1.00  0.00     0.050 A 
ATOM      8  C   UNL     1     -38.051   4.135  79.589  1.00  0.00     0.201 C 
ATOM      9  O   UNL     1     -38.833   3.602  78.757  1.00  0.00    -0.288 OA
ATOM     10  C   UNL     1     -37.996   3.625  80.983  1.00  0.00     0.076 A 
ATOM     11  C   UNL     1     -36.771   3.723  81.683  1.00  0.00     0.041 A 
ATOM     12  C   UNL     1     -35.634   4.458  81.078  1.00  0.00     0.194 C 
ATOM     13  O   UNL     1     -34.503   4.440  81.638  1.00  0.00    -0.289 OA
ATOM     14  C   UNL     1     -36.639   3.130  82.949  1.00  0.00     0.059 A 
ATOM     15  C   UNL     1     -37.712   2.455  83.531  1.00  0.00     0.120 A 
ATOM     16  C   UNL     1     -38.937   2.389  82.862  1.00  0.00     0.093 A 
ATOM     17  C   UNL     1     -39.099   2.989  81.609  1.00  0.00     0.131 A 
ENDROOT
BRANCH   6  18
ATOM     18  O   UNL     1     -38.480   6.005  77.306  1.00  0.00    -0.507 OA
ATOM     19  H   UNL     1     -39.223   6.648  77.544  1.00  0.00     0.293 HD
ENDBRANCH   6  18
BRANCH  17  20
ATOM     20  O   UNL     1     -40.377   2.962  81.043  1.00  0.00    -0.507 OA
ATOM     21  H   UNL     1     -40.788   3.745  80.553  1.00  0.00     0.293 HD
ENDBRANCH  17  20
BRANCH  15  22
ATOM     22  O   UNL     1     -37.554   1.864  84.782  1.00  0.00    -0.508 OA
ATOM     23  H   UNL     1     -38.300   1.868  85.468  1.00  0.00     0.293 HD
ENDBRANCH  15  22
TORSDOF 3
ENDMDL
MODEL 7
REMARK VINA RESULT:    -6.095      8.377      9.945
REMARK INTER + INTRA:          -6.629
REMARK INTER:                  -6.629
REMARK INTRA:                   0.000
REMARK UNBOUND:                 0.000
REMARK SMILES Cc1cc(O)c2c(c1)C(=O)c1cc(O)cc(O)c1C2=O
REMARK SMILES IDX 1 1 2 2 8 3 7 4 6 5 4 6 3 7 19 8 20 9 18 10 11 11 9 12 10 13
REMARK SMILES IDX 12 14 13 15 15 16 16 17 5 18 17 20 14 22
REMARK H PARENT 5 19 17 21 14 23
REMARK Flexibility Score: inf
ROOT
ATOM      1  C   UNL     1     -39.124  -1.029  85.125  1.00  0.00     0.044 C 
ATOM      2  C   UNL     1     -39.417  -2.169  84.195  1.00  0.00    -0.047 A 
ATOM      3  C   UNL     1     -40.739  -2.557  83.949  1.00  0.00     0.016 A 
ATOM      4  C   UNL     1     -41.022  -3.651  83.114  1.00  0.00     0.038 A 
ATOM      5  C   UNL     1     -39.964  -4.387  82.537  1.00  0.00     0.076 A 
ATOM      6  C   UNL     1     -38.627  -3.962  82.752  1.00  0.00     0.127 A 
ATOM      7  C   UNL     1     -38.370  -2.882  83.603  1.00  0.00     0.050 A 
ATOM      8  C   UNL     1     -40.298  -5.623  81.783  1.00  0.00     0.201 C 
ATOM      9  O   UNL     1     -39.478  -6.579  81.749  1.00  0.00    -0.288 OA
ATOM     10  C   UNL     1     -41.666  -5.804  81.232  1.00  0.00     0.076 A 
ATOM     11  C   UNL     1     -42.723  -5.066  81.813  1.00  0.00     0.041 A 
ATOM     12  C   UNL     1     -42.426  -4.033  82.835  1.00  0.00     0.194 C 
ATOM     13  O   UNL     1     -43.371  -3.464  83.448  1.00  0.00    -0.289 OA
ATOM     14  C   UNL     1     -44.047  -5.310  81.415  1.00  0.00     0.059 A 
ATOM     15  C   UNL     1     -44.331  -6.265  80.440  1.00  0.00     0.120 A 
ATOM     16  C   UNL     1     -43.287  -6.970  79.834  1.00  0.00     0.093 A 
ATOM     17  C   UNL     1     -41.958  -6.731  80.198  1.00  0.00     0.131 A 
ENDROOT
BRANCH   6  18
ATOM     18  O   UNL     1     -37.533  -4.558  82.121  1.00  0.00    -0.507 OA
ATOM     19  H   UNL     1     -37.248  -5.515  82.282  1.00  0.00     0.293 HD
ENDBRANCH   6  18
BRANCH  17  20
ATOM     20  O   UNL     1     -40.963  -7.405  79.485  1.00  0.00    -0.507 OA
ATOM     21  H   UNL     1     -41.153  -8.156  78.835  1.00  0.00     0.293 HD
ENDBRANCH  17  20
BRANCH  15  22
ATOM     22  O   UNL     1     -45.653  -6.499  80.070  1.00  0.00    -0.508 OA
ATOM     23  H   UNL     1     -46.121  -7.368  80.300  1.00  0.00     0.293 HD
ENDBRANCH  15  22
TORSDOF 3
ENDMDL
MODEL 8
REMARK VINA RESULT:    -6.047      3.659      5.597
REMARK INTER + INTRA:          -6.577
REMARK INTER:                  -6.577
REMARK INTRA:                   0.000
REMARK UNBOUND:                 0.000
REMARK SMILES Cc1cc(O)c2c(c1)C(=O)c1cc(O)cc(O)c1C2=O
REMARK SMILES IDX 1 1 2 2 8 3 7 4 6 5 4 6 3 7 19 8 20 9 18 10 11 11 9 12 10 13
REMARK SMILES IDX 12 14 13 15 15 16 16 17 5 18 17 20 14 22
REMARK H PARENT 5 19 17 21 14 23
REMARK Flexibility Score: inf
ROOT
ATOM      1  C   UNL     1     -33.496   9.955  76.913  1.00  0.00     0.044 C 
ATOM      2  C   UNL     1     -34.795   9.272  77.224  1.00  0.00    -0.047 A 
ATOM      3  C   UNL     1     -34.803   7.955  77.698  1.00  0.00     0.016 A 
ATOM      4  C   UNL     1     -36.015   7.291  77.951  1.00  0.00     0.038 A 
ATOM      5  C   UNL     1     -37.241   7.946  77.700  1.00  0.00     0.076 A 
ATOM      6  C   UNL     1     -37.228   9.297  77.263  1.00  0.00     0.127 A 
ATOM      7  C   UNL     1     -36.008   9.929  77.001  1.00  0.00     0.050 A 
ATOM      8  C   UNL     1     -38.497   7.164  77.837  1.00  0.00     0.201 C 
ATOM      9  O   UNL     1     -39.497   7.450  77.125  1.00  0.00    -0.288 OA
ATOM     10  C   UNL     1     -38.512   5.934  78.671  1.00  0.00     0.076 A 
ATOM     11  C   UNL     1     -37.283   5.281  78.919  1.00  0.00     0.041 A 
ATOM     12  C   UNL     1     -36.013   5.908  78.482  1.00  0.00     0.194 C 
ATOM     13  O   UNL     1     -34.928   5.272  78.585  1.00  0.00    -0.289 OA
ATOM     14  C   UNL     1     -37.271   4.044  79.585  1.00  0.00     0.059 A 
ATOM     15  C   UNL     1     -38.461   3.459  80.017  1.00  0.00     0.120 A 
ATOM     16  C   UNL     1     -39.675   4.120  79.809  1.00  0.00     0.093 A 
ATOM     17  C   UNL     1     -39.712   5.362  79.168  1.00  0.00     0.131 A 
ENDROOT
BRANCH   6  18
ATOM     18  O   UNL     1     -38.391  10.054  77.111  1.00  0.00    -0.507 OA
ATOM     19  H   UNL     1     -38.443  11.044  77.309  1.00  0.00     0.293 HD
ENDBRANCH   6  18
BRANCH  17  20
ATOM     20  O   UNL     1     -40.950   6.004  79.078  1.00  0.00    -0.507 OA
ATOM     21  H   UNL     1     -41.163   6.713  78.389  1.00  0.00     0.293 HD
ENDBRANCH  17  20
BRANCH  15  22
ATOM     22  O   UNL     1     -38.426   2.226  80.663  1.00  0.00    -0.508 OA
ATOM     23  H   UNL     1     -37.708   2.005  81.344  1.00  0.00     0.293 HD
ENDBRANCH  15  22
TORSDOF 3
ENDMDL
MODEL 9
REMARK VINA RESULT:    -6.022      2.273      4.911
REMARK INTER + INTRA:          -6.550
REMARK INTER:                  -6.550
REMARK INTRA:                   0.000
REMARK UNBOUND:                 0.000
REMARK SMILES Cc1cc(O)c2c(c1)C(=O)c1cc(O)cc(O)c1C2=O
REMARK SMILES IDX 1 1 2 2 8 3 7 4 6 5 4 6 3 7 19 8 20 9 18 10 11 11 9 12 10 13
REMARK SMILES IDX 12 14 13 15 15 16 16 17 5 18 17 20 14 22
REMARK H PARENT 5 19 17 21 14 23
REMARK Flexibility Score: inf
ROOT
ATOM      1  C   UNL     1     -38.375   1.815  84.641  1.00  0.00     0.044 C 
ATOM      2  C   UNL     1     -37.688   2.625  83.581  1.00  0.00    -0.047 A 
ATOM      3  C   UNL     1     -38.366   2.968  82.405  1.00  0.00     0.016 A 
ATOM      4  C   UNL     1     -37.718   3.688  81.388  1.00  0.00     0.038 A 
ATOM      5  C   UNL     1     -36.359   4.048  81.537  1.00  0.00     0.076 A 
ATOM      6  C   UNL     1     -35.690   3.737  82.749  1.00  0.00     0.127 A 
ATOM      7  C   UNL     1     -36.351   3.003  83.739  1.00  0.00     0.050 A 
ATOM      8  C   UNL     1     -35.669   4.677  80.381  1.00  0.00     0.201 C 
ATOM      9  O   UNL     1     -34.432   4.500  80.217  1.00  0.00    -0.288 OA
ATOM     10  C   UNL     1     -36.465   5.351  79.323  1.00  0.00     0.076 A 
ATOM     11  C   UNL     1     -37.824   4.988  79.178  1.00  0.00     0.041 A 
ATOM     12  C   UNL     1     -38.453   4.075  80.161  1.00  0.00     0.194 C 
ATOM     13  O   UNL     1     -39.624   3.647  79.965  1.00  0.00    -0.289 OA
ATOM     14  C   UNL     1     -38.572   5.500  78.105  1.00  0.00     0.059 A 
ATOM     15  C   UNL     1     -37.992   6.375  77.188  1.00  0.00     0.120 A 
ATOM     16  C   UNL     1     -36.661   6.769  77.351  1.00  0.00     0.093 A 
ATOM     17  C   UNL     1     -35.900   6.290  78.422  1.00  0.00     0.131 A 
ENDROOT
BRANCH   6  18
ATOM     18  O   UNL     1     -34.389   4.164  83.025  1.00  0.00    -0.507 OA
ATOM     19  H   UNL     1     -34.171   5.057  83.445  1.00  0.00     0.293 HD
ENDBRANCH   6  18
BRANCH  17  20
ATOM     20  O   UNL     1     -34.607   6.798  78.572  1.00  0.00    -0.507 OA
ATOM     21  H   UNL     1     -34.371   7.545  79.211  1.00  0.00     0.293 HD
ENDBRANCH  17  20
BRANCH  15  22
ATOM     22  O   UNL     1     -38.750   6.860  76.125  1.00  0.00    -0.508 OA
ATOM     23  H   UNL     1     -38.411   6.820  75.171  1.00  0.00     0.293 HD
ENDBRANCH  15  22
TORSDOF 3
ENDMDL
