MODEL 1
REMARK VINA RESULT:    -2.394      0.000      0.000
REMARK INTER + INTRA:          -2.394
REMARK INTER:                  -2.394
REMARK INTRA:                   0.000
REMARK UNBOUND:                 0.000
REMARK SMILES CC(=O)[O-]
REMARK SMILES IDX 1 1 2 2 3 3 4 4
REMARK H PARENT
REMARK Flexibility Score: inf
ROOT
ATOM      1  C   UNL     1       7.944  19.125  11.512  1.00  0.00     0.063 C 
ATOM      2  C   UNL     1       7.317  17.779  11.369  1.00  0.00     0.038 C 
ATOM      3  O   UNL     1       7.870  16.768  11.873  1.00  0.00    -0.550 OA
ATOM      4  O   UNL     1       6.149  17.631  10.632  1.00  0.00    -0.550 OA
ENDROOT
TORSDOF 0
ENDMDL
MODEL 2
REMARK VINA RESULT:    -2.358      1.411      2.138
REMARK INTER + INTRA:          -2.358
REMARK INTER:                  -2.358
REMARK INTRA:                   0.000
REMARK UNBOUND:                 0.000
REMARK SMILES CC(=O)[O-]
REMARK SMILES IDX 1 1 2 2 3 3 4 4
REMARK H PARENT
REMARK Flexibility Score: inf
ROOT
ATOM      1  C   UNL     1       6.249  17.626  10.665  1.00  0.00     0.063 C 
ATOM      2  C   UNL     1       7.509  17.931  11.401  1.00  0.00     0.038 C 
ATOM      3  O   UNL     1       7.874  19.125  11.562  1.00  0.00    -0.550 OA
ATOM      4  O   UNL     1       8.311  16.897  11.865  1.00  0.00    -0.550 OA
ENDROOT
TORSDOF 0
ENDMDL
MODEL 3
REMARK VINA RESULT:    -1.941     11.789     12.296
REMARK INTER + INTRA:          -1.941
REMARK INTER:                  -1.941
REMARK INTRA:                   0.000
REMARK UNBOUND:                 0.000
REMARK SMILES CC(=O)[O-]
REMARK SMILES IDX 1 1 2 2 3 3 4 4
REMARK H PARENT
REMARK Flexibility Score: inf
ROOT
ATOM      1  C   UNL     1       4.533   9.223   5.252  1.00  0.00     0.063 C 
ATOM      2  C   UNL     1       3.497   8.287   4.727  1.00  0.00     0.038 C 
ATOM      3  O   UNL     1       2.351   8.714   4.431  1.00  0.00    -0.550 OA
ATOM      4  O   UNL     1       3.779   6.932   4.612  1.00  0.00    -0.550 OA
ENDROOT
TORSDOF 0
ENDMDL
MODEL 4
REMARK VINA RESULT:    -1.925     11.042     11.497
REMARK INTER + INTRA:          -1.925
REMARK INTER:                  -1.925
REMARK INTRA:                   0.000
REMARK UNBOUND:                 0.000
REMARK SMILES CC(=O)[O-]
REMARK SMILES IDX 1 1 2 2 3 3 4 4
REMARK H PARENT
REMARK Flexibility Score: inf
ROOT
ATOM      1  C   UNL     1       4.436   9.895   5.894  1.00  0.00     0.063 C 
ATOM      2  C   UNL     1       4.422   8.955   4.736  1.00  0.00     0.038 C 
ATOM      3  O   UNL     1       4.947   9.291   3.643  1.00  0.00    -0.550 OA
ATOM      4  O   UNL     1       3.783   7.727   4.846  1.00  0.00    -0.550 OA
ENDROOT
TORSDOF 0
ENDMDL
MODEL 5
REMARK VINA RESULT:    -1.923     11.785     12.207
REMARK INTER + INTRA:          -1.923
REMARK INTER:                  -1.923
REMARK INTRA:                   0.000
REMARK UNBOUND:                 0.000
REMARK SMILES CC(=O)[O-]
REMARK SMILES IDX 1 1 2 2 3 3 4 4
REMARK H PARENT
REMARK Flexibility Score: inf
ROOT
ATOM      1  C   UNL     1       4.567   9.214   5.203  1.00  0.00     0.063 C 
ATOM      2  C   UNL     1       3.520   8.264   4.729  1.00  0.00     0.038 C 
ATOM      3  O   UNL     1       3.777   7.035   4.636  1.00  0.00    -0.550 OA
ATOM      4  O   UNL     1       2.275   8.739   4.340  1.00  0.00    -0.550 OA
ENDROOT
TORSDOF 0
ENDMDL
MODEL 6
REMARK VINA RESULT:    -1.854     10.599     11.099
REMARK INTER + INTRA:          -1.854
REMARK INTER:                  -1.854
REMARK INTRA:                   0.000
REMARK UNBOUND:                 0.000
REMARK SMILES CC(=O)[O-]
REMARK SMILES IDX 1 1 2 2 3 3 4 4
REMARK H PARENT
REMARK Flexibility Score: inf
ROOT
ATOM      1  C   UNL     1       3.827   8.143   4.732  1.00  0.00     0.063 C 
ATOM      2  C   UNL     1       3.586   9.351   5.572  1.00  0.00     0.038 C 
ATOM      3  O   UNL     1       4.559   9.999   6.040  1.00  0.00    -0.550 OA
ATOM      4  O   UNL     1       2.288   9.734   5.884  1.00  0.00    -0.550 OA
ENDROOT
TORSDOF 0
ENDMDL
MODEL 7
REMARK VINA RESULT:    -1.848     10.586     11.171
REMARK INTER + INTRA:          -1.848
REMARK INTER:                  -1.848
REMARK INTRA:                   0.000
REMARK UNBOUND:                 0.000
REMARK SMILES CC(=O)[O-]
REMARK SMILES IDX 1 1 2 2 3 3 4 4
REMARK H PARENT
REMARK Flexibility Score: inf
ROOT
ATOM      1  C   UNL     1       3.773   8.169   4.699  1.00  0.00     0.063 C 
ATOM      2  C   UNL     1       3.548   9.334   5.601  1.00  0.00     0.038 C 
ATOM      3  O   UNL     1       2.377   9.714   5.862  1.00  0.00    -0.550 OA
ATOM      4  O   UNL     1       4.631  10.037   6.114  1.00  0.00    -0.550 OA
ENDROOT
TORSDOF 0
ENDMDL
MODEL 8
REMARK VINA RESULT:    -1.844     10.994     11.447
REMARK INTER + INTRA:          -1.844
REMARK INTER:                  -1.844
REMARK INTRA:                   0.000
REMARK UNBOUND:                 0.000
REMARK SMILES CC(=O)[O-]
REMARK SMILES IDX 1 1 2 2 3 3 4 4
REMARK H PARENT
REMARK Flexibility Score: inf
ROOT
ATOM      1  C   UNL     1       4.829   9.419   3.483  1.00  0.00     0.063 C 
ATOM      2  C   UNL     1       4.403   8.995   4.848  1.00  0.00     0.038 C 
ATOM      3  O   UNL     1       3.787   7.909   5.009  1.00  0.00    -0.550 OA
ATOM      4  O   UNL     1       4.638   9.822   5.938  1.00  0.00    -0.550 OA
ENDROOT
TORSDOF 0
ENDMDL
MODEL 9
REMARK VINA RESULT:    -1.659     13.900     14.413
REMARK INTER + INTRA:          -1.659
REMARK INTER:                  -1.659
REMARK INTRA:                   0.000
REMARK UNBOUND:                 0.000
REMARK SMILES CC(=O)[O-]
REMARK SMILES IDX 1 1 2 2 3 3 4 4
REMARK H PARENT
REMARK Flexibility Score: inf
ROOT
ATOM      1  C   UNL     1      -7.082  15.859  10.317  1.00  0.00     0.063 C 
ATOM      2  C   UNL     1      -6.563  14.461  10.309  1.00  0.00     0.038 C 
ATOM      3  O   UNL     1      -7.122  13.583   9.602  1.00  0.00    -0.550 OA
ATOM      4  O   UNL     1      -5.493  14.112  11.123  1.00  0.00    -0.550 OA
ENDROOT
TORSDOF 0
ENDMDL
