MODEL 1
REMARK VINA RESULT:    -5.611      0.000      0.000
REMARK INTER + INTRA:          -6.738
REMARK INTER:                  -6.431
REMARK INTRA:                  -0.307
REMARK UNBOUND:                -0.307
REMARK SMILES O=C1C[C@H](c2ccc(O)cc2)Oc2cc(O)cc(O)c21
REMARK SMILES IDX 3 1 4 2 12 3 13 4 14 5 15 6 17 7 18 8 20 9 2 10 1 11 5 12
REMARK SMILES IDX 6 13 11 14 7 15 10 16 8 17 9 18 19 20 16 22
REMARK H PARENT 9 19 19 21 16 23
REMARK Flexibility Score: inf
ROOT
ATOM      1  C   UNL     1     -38.219  75.255 -27.568  1.00  0.00     0.131 C 
ATOM      2  C   UNL     1     -38.369  75.203 -26.043  1.00  0.00     0.211 C 
ATOM      3  O   UNL     1     -37.325  75.955 -25.422  1.00  0.00    -0.484 OA
ATOM      4  C   UNL     1     -35.993  75.841 -25.832  1.00  0.00     0.138 A 
ATOM      5  C   UNL     1     -34.988  76.338 -25.000  1.00  0.00     0.093 A 
ATOM      6  C   UNL     1     -33.649  76.219 -25.365  1.00  0.00     0.123 A 
ATOM      7  C   UNL     1     -33.310  75.584 -26.563  1.00  0.00     0.093 A 
ATOM      8  C   UNL     1     -34.300  75.070 -27.410  1.00  0.00     0.133 A 
ATOM      9  C   UNL     1     -35.672  75.242 -27.071  1.00  0.00     0.102 A 
ATOM     10  C   UNL     1     -36.813  74.907 -27.973  1.00  0.00     0.174 C 
ATOM     11  O   UNL     1     -36.630  74.435 -29.125  1.00  0.00    -0.294 OA
ENDROOT
BRANCH   2  12
ATOM     12  C   UNL     1     -39.716  75.735 -25.618  1.00  0.00    -0.007 A 
ATOM     13  C   UNL     1     -39.907  76.215 -24.311  1.00  0.00     0.011 A 
ATOM     14  C   UNL     1     -40.809  75.706 -26.503  1.00  0.00     0.011 A 
ATOM     15  C   UNL     1     -41.161  76.680 -23.905  1.00  0.00     0.046 A 
ATOM     16  C   UNL     1     -42.062  76.172 -26.094  1.00  0.00     0.046 A 
ATOM     17  C   UNL     1     -42.242  76.661 -24.797  1.00  0.00     0.115 A 
BRANCH  17  18
ATOM     18  O   UNL     1     -43.495  77.122 -24.403  1.00  0.00    -0.508 OA
ATOM     19  H   UNL     1     -44.174  77.453 -25.079  1.00  0.00     0.293 HD
ENDBRANCH  17  18
ENDBRANCH   2  12
BRANCH   8  20
ATOM     20  O   UNL     1     -33.864  74.395 -28.553  1.00  0.00    -0.507 OA
ATOM     21  H   UNL     1     -33.127  73.706 -28.564  1.00  0.00     0.293 HD
ENDBRANCH   8  20
BRANCH   6  22
ATOM     22  O   UNL     1     -32.660  76.726 -24.525  1.00  0.00    -0.508 OA
ATOM     23  H   UNL     1     -32.349  77.688 -24.593  1.00  0.00     0.293 HD
ENDBRANCH   6  22
TORSDOF 4
ENDMDL
MODEL 2
REMARK VINA RESULT:    -5.585      1.825      7.125
REMARK INTER + INTRA:          -6.709
REMARK INTER:                  -6.402
REMARK INTRA:                  -0.307
REMARK UNBOUND:                -0.307
REMARK SMILES O=C1C[C@H](c2ccc(O)cc2)Oc2cc(O)cc(O)c21
REMARK SMILES IDX 3 1 4 2 12 3 13 4 14 5 15 6 17 7 18 8 20 9 2 10 1 11 5 12
REMARK SMILES IDX 6 13 11 14 7 15 10 16 8 17 9 18 19 20 16 22
REMARK H PARENT 9 19 19 21 16 23
REMARK Flexibility Score: inf
ROOT
ATOM      1  C   UNL     1     -37.504  76.690 -24.817  1.00  0.00     0.131 C 
ATOM      2  C   UNL     1     -37.389  75.558 -25.844  1.00  0.00     0.211 C 
ATOM      3  O   UNL     1     -38.555  75.523 -26.667  1.00  0.00    -0.484 OA
ATOM      4  C   UNL     1     -39.841  75.624 -26.127  1.00  0.00     0.138 A 
ATOM      5  C   UNL     1     -40.934  75.265 -26.918  1.00  0.00     0.093 A 
ATOM      6  C   UNL     1     -42.227  75.330 -26.402  1.00  0.00     0.123 A 
ATOM      7  C   UNL     1     -42.428  75.739 -25.081  1.00  0.00     0.093 A 
ATOM      8  C   UNL     1     -41.347  76.096 -24.266  1.00  0.00     0.133 A 
ATOM      9  C   UNL     1     -40.029  76.090 -24.806  1.00  0.00     0.102 A 
ATOM     10  C   UNL     1     -38.825  76.621 -24.100  1.00  0.00     0.174 C 
ATOM     11  O   UNL     1     -38.900  77.123 -22.949  1.00  0.00    -0.294 OA
ENDROOT
BRANCH   2  12
ATOM     12  C   UNL     1     -36.156  75.731 -26.697  1.00  0.00    -0.007 A 
ATOM     13  C   UNL     1     -35.161  76.651 -26.323  1.00  0.00     0.011 A 
ATOM     14  C   UNL     1     -36.012  75.018 -27.901  1.00  0.00     0.011 A 
ATOM     15  C   UNL     1     -34.032  76.835 -27.126  1.00  0.00     0.046 A 
ATOM     16  C   UNL     1     -34.881  75.205 -28.702  1.00  0.00     0.046 A 
ATOM     17  C   UNL     1     -33.889  76.112 -28.317  1.00  0.00     0.115 A 
BRANCH  17  18
ATOM     18  O   UNL     1     -32.768  76.288 -29.124  1.00  0.00    -0.508 OA
ATOM     19  H   UNL     1     -31.830  76.258 -28.742  1.00  0.00     0.293 HD
ENDBRANCH  17  18
ENDBRANCH   2  12
BRANCH   8  20
ATOM     20  O   UNL     1     -41.639  76.430 -22.941  1.00  0.00    -0.507 OA
ATOM     21  H   UNL     1     -42.021  75.790 -22.261  1.00  0.00     0.293 HD
ENDBRANCH   8  20
BRANCH   6  22
ATOM     22  O   UNL     1     -43.306  74.974 -27.208  1.00  0.00    -0.508 OA
ATOM     23  H   UNL     1     -44.228  74.813 -26.819  1.00  0.00     0.293 HD
ENDBRANCH   6  22
TORSDOF 4
ENDMDL
MODEL 3
REMARK VINA RESULT:    -5.362      2.361      6.839
REMARK INTER + INTRA:          -6.453
REMARK INTER:                  -6.154
REMARK INTRA:                  -0.299
REMARK UNBOUND:                -0.307
REMARK SMILES O=C1C[C@H](c2ccc(O)cc2)Oc2cc(O)cc(O)c21
REMARK SMILES IDX 3 1 4 2 12 3 13 4 14 5 15 6 17 7 18 8 20 9 2 10 1 11 5 12
REMARK SMILES IDX 6 13 11 14 7 15 10 16 8 17 9 18 19 20 16 22
REMARK H PARENT 9 19 19 21 16 23
REMARK Flexibility Score: inf
ROOT
ATOM      1  C   UNL     1     -40.878  75.280 -26.874  1.00  0.00     0.131 C 
ATOM      2  C   UNL     1     -39.566  75.968 -26.478  1.00  0.00     0.211 C 
ATOM      3  O   UNL     1     -39.383  75.895 -25.064  1.00  0.00    -0.484 OA
ATOM      4  C   UNL     1     -40.423  76.174 -24.171  1.00  0.00     0.138 A 
ATOM      5  C   UNL     1     -40.115  76.402 -22.828  1.00  0.00     0.093 A 
ATOM      6  C   UNL     1     -41.123  76.707 -21.917  1.00  0.00     0.123 A 
ATOM      7  C   UNL     1     -42.448  76.802 -22.353  1.00  0.00     0.093 A 
ATOM      8  C   UNL     1     -42.780  76.585 -23.697  1.00  0.00     0.133 A 
ATOM      9  C   UNL     1     -41.762  76.214 -24.620  1.00  0.00     0.102 A 
ATOM     10  C   UNL     1     -42.015  75.780 -26.027  1.00  0.00     0.174 C 
ATOM     11  O   UNL     1     -43.179  75.714 -26.500  1.00  0.00    -0.294 OA
ENDROOT
BRANCH   2  12
ATOM     12  C   UNL     1     -38.394  75.337 -27.188  1.00  0.00    -0.007 A 
ATOM     13  C   UNL     1     -37.651  74.321 -26.562  1.00  0.00     0.011 A 
ATOM     14  C   UNL     1     -37.995  75.793 -28.457  1.00  0.00     0.011 A 
ATOM     15  C   UNL     1     -36.546  73.755 -27.205  1.00  0.00     0.046 A 
ATOM     16  C   UNL     1     -36.890  75.225 -29.098  1.00  0.00     0.046 A 
ATOM     17  C   UNL     1     -36.163  74.205 -28.475  1.00  0.00     0.115 A 
BRANCH  17  18
ATOM     18  O   UNL     1     -35.065  73.648 -29.124  1.00  0.00    -0.508 OA
ATOM     19  H   UNL     1     -34.271  74.214 -29.403  1.00  0.00     0.293 HD
ENDBRANCH  17  18
ENDBRANCH   2  12
BRANCH   8  20
ATOM     20  O   UNL     1     -44.119  76.766 -24.052  1.00  0.00    -0.507 OA
ATOM     21  H   UNL     1     -44.895  76.701 -23.410  1.00  0.00     0.293 HD
ENDBRANCH   8  20
BRANCH   6  22
ATOM     22  O   UNL     1     -40.798  76.925 -20.580  1.00  0.00    -0.508 OA
ATOM     23  H   UNL     1     -40.780  77.858 -20.185  1.00  0.00     0.293 HD
ENDBRANCH   6  22
TORSDOF 4
ENDMDL
MODEL 4
REMARK VINA RESULT:    -5.129      1.428      2.788
REMARK INTER + INTRA:          -6.186
REMARK INTER:                  -5.872
REMARK INTRA:                  -0.314
REMARK UNBOUND:                -0.307
REMARK SMILES O=C1C[C@H](c2ccc(O)cc2)Oc2cc(O)cc(O)c21
REMARK SMILES IDX 3 1 4 2 12 3 13 4 14 5 15 6 17 7 18 8 20 9 2 10 1 11 5 12
REMARK SMILES IDX 6 13 11 14 7 15 10 16 8 17 9 18 19 20 16 22
REMARK H PARENT 9 19 19 21 16 23
REMARK Flexibility Score: inf
ROOT
ATOM      1  C   UNL     1     -37.737  76.454 -25.033  1.00  0.00     0.131 C 
ATOM      2  C   UNL     1     -38.369  76.070 -26.376  1.00  0.00     0.211 C 
ATOM      3  O   UNL     1     -37.800  74.851 -26.854  1.00  0.00    -0.484 OA
ATOM      4  C   UNL     1     -36.421  74.622 -26.828  1.00  0.00     0.138 A 
ATOM      5  C   UNL     1     -35.898  73.574 -27.588  1.00  0.00     0.093 A 
ATOM      6  C   UNL     1     -34.526  73.334 -27.606  1.00  0.00     0.123 A 
ATOM      7  C   UNL     1     -33.667  74.157 -26.872  1.00  0.00     0.093 A 
ATOM      8  C   UNL     1     -34.168  75.219 -26.108  1.00  0.00     0.133 A 
ATOM      9  C   UNL     1     -35.574  75.432 -26.039  1.00  0.00     0.102 A 
ATOM     10  C   UNL     1     -36.236  76.406 -25.122  1.00  0.00     0.174 C 
ATOM     11  O   UNL     1     -35.574  77.124 -24.328  1.00  0.00    -0.294 OA
ENDROOT
BRANCH   2  12
ATOM     12  C   UNL     1     -39.866  75.929 -26.243  1.00  0.00    -0.007 A 
ATOM     13  C   UNL     1     -40.561  76.659 -25.264  1.00  0.00     0.011 A 
ATOM     14  C   UNL     1     -40.575  75.028 -27.057  1.00  0.00     0.011 A 
ATOM     15  C   UNL     1     -41.943  76.508 -25.119  1.00  0.00     0.046 A 
ATOM     16  C   UNL     1     -41.958  74.879 -26.910  1.00  0.00     0.046 A 
ATOM     17  C   UNL     1     -42.645  75.618 -25.942  1.00  0.00     0.115 A 
BRANCH  17  18
ATOM     18  O   UNL     1     -44.022  75.461 -25.807  1.00  0.00    -0.508 OA
ATOM     19  H   UNL     1     -44.667  76.197 -26.068  1.00  0.00     0.293 HD
ENDBRANCH  17  18
ENDBRANCH   2  12
BRANCH   8  20
ATOM     20  O   UNL     1     -33.230  76.027 -25.461  1.00  0.00    -0.507 OA
ATOM     21  H   UNL     1     -32.504  75.684 -24.850  1.00  0.00     0.293 HD
ENDBRANCH   8  20
BRANCH   6  22
ATOM     22  O   UNL     1     -34.023  72.280 -28.365  1.00  0.00    -0.508 OA
ATOM     23  H   UNL     1     -34.057  71.323 -28.033  1.00  0.00     0.293 HD
ENDBRANCH   6  22
TORSDOF 4
ENDMDL
MODEL 5
REMARK VINA RESULT:    -5.127      1.755      6.607
REMARK INTER + INTRA:          -6.184
REMARK INTER:                  -5.878
REMARK INTRA:                  -0.306
REMARK UNBOUND:                -0.307
REMARK SMILES O=C1C[C@H](c2ccc(O)cc2)Oc2cc(O)cc(O)c21
REMARK SMILES IDX 3 1 4 2 12 3 13 4 14 5 15 6 17 7 18 8 20 9 2 10 1 11 5 12
REMARK SMILES IDX 6 13 11 14 7 15 10 16 8 17 9 18 19 20 16 22
REMARK H PARENT 9 19 19 21 16 23
REMARK Flexibility Score: inf
ROOT
ATOM      1  C   UNL     1     -38.149  75.347 -27.166  1.00  0.00     0.131 C 
ATOM      2  C   UNL     1     -37.380  76.502 -26.513  1.00  0.00     0.211 C 
ATOM      3  O   UNL     1     -37.672  76.557 -25.117  1.00  0.00    -0.484 OA
ATOM      4  C   UNL     1     -38.980  76.445 -24.633  1.00  0.00     0.138 A 
ATOM      5  C   UNL     1     -39.245  76.823 -23.315  1.00  0.00     0.093 A 
ATOM      6  C   UNL     1     -40.541  76.749 -22.810  1.00  0.00     0.123 A 
ATOM      7  C   UNL     1     -41.583  76.310 -23.631  1.00  0.00     0.093 A 
ATOM      8  C   UNL     1     -41.343  75.933 -24.959  1.00  0.00     0.133 A 
ATOM      9  C   UNL     1     -40.012  75.950 -25.463  1.00  0.00     0.102 A 
ATOM     10  C   UNL     1     -39.604  75.401 -26.790  1.00  0.00     0.174 C 
ATOM     11  O   UNL     1     -40.437  74.874 -27.572  1.00  0.00    -0.294 OA
ENDROOT
BRANCH   2  12
ATOM     12  C   UNL     1     -35.895  76.346 -26.728  1.00  0.00    -0.007 A 
ATOM     13  C   UNL     1     -34.985  77.016 -25.892  1.00  0.00     0.011 A 
ATOM     14  C   UNL     1     -35.403  75.576 -27.797  1.00  0.00     0.011 A 
ATOM     15  C   UNL     1     -33.608  76.897 -26.107  1.00  0.00     0.046 A 
ATOM     16  C   UNL     1     -34.025  75.459 -28.009  1.00  0.00     0.046 A 
ATOM     17  C   UNL     1     -33.125  76.117 -27.166  1.00  0.00     0.115 A 
BRANCH  17  18
ATOM     18  O   UNL     1     -31.757  75.992 -27.388  1.00  0.00    -0.508 OA
ATOM     19  H   UNL     1     -31.086  76.578 -26.905  1.00  0.00     0.293 HD
ENDBRANCH  17  18
ENDBRANCH   2  12
BRANCH   8  20
ATOM     20  O   UNL     1     -42.455  75.570 -25.722  1.00  0.00    -0.507 OA
ATOM     21  H   UNL     1     -42.740  74.620 -25.903  1.00  0.00     0.293 HD
ENDBRANCH   8  20
BRANCH   6  22
ATOM     22  O   UNL     1     -40.786  77.124 -21.490  1.00  0.00    -0.508 OA
ATOM     23  H   UNL     1     -41.404  77.895 -21.265  1.00  0.00     0.293 HD
ENDBRANCH   6  22
TORSDOF 4
ENDMDL
MODEL 6
REMARK VINA RESULT:    -4.566      7.419      9.984
REMARK INTER + INTRA:          -5.540
REMARK INTER:                  -5.261
REMARK INTRA:                  -0.279
REMARK UNBOUND:                -0.307
REMARK SMILES O=C1C[C@H](c2ccc(O)cc2)Oc2cc(O)cc(O)c21
REMARK SMILES IDX 3 1 4 2 12 3 13 4 14 5 15 6 17 7 18 8 20 9 2 10 1 11 5 12
REMARK SMILES IDX 6 13 11 14 7 15 10 16 8 17 9 18 19 20 16 22
REMARK H PARENT 9 19 19 21 16 23
REMARK Flexibility Score: inf
ROOT
ATOM      1  C   UNL     1     -36.227  73.393 -17.911  1.00  0.00     0.131 C 
ATOM      2  C   UNL     1     -37.061  72.218 -18.437  1.00  0.00     0.211 C 
ATOM      3  O   UNL     1     -37.703  72.582 -19.659  1.00  0.00    -0.484 OA
ATOM      4  C   UNL     1     -38.355  73.810 -19.811  1.00  0.00     0.138 A 
ATOM      5  C   UNL     1     -39.227  73.980 -20.889  1.00  0.00     0.093 A 
ATOM      6  C   UNL     1     -39.913  75.181 -21.056  1.00  0.00     0.123 A 
ATOM      7  C   UNL     1     -39.740  76.214 -20.130  1.00  0.00     0.093 A 
ATOM      8  C   UNL     1     -38.876  76.064 -19.037  1.00  0.00     0.133 A 
ATOM      9  C   UNL     1     -38.128  74.861 -18.895  1.00  0.00     0.102 A 
ATOM     10  C   UNL     1     -37.047  74.654 -17.885  1.00  0.00     0.174 C 
ATOM     11  O   UNL     1     -36.721  75.555 -17.071  1.00  0.00    -0.294 OA
ENDROOT
BRANCH   2  12
ATOM     12  C   UNL     1     -36.196  70.999 -18.646  1.00  0.00    -0.007 A 
ATOM     13  C   UNL     1     -36.724  69.714 -18.438  1.00  0.00     0.011 A 
ATOM     14  C   UNL     1     -34.841  71.134 -18.997  1.00  0.00     0.011 A 
ATOM     15  C   UNL     1     -35.918  68.583 -18.602  1.00  0.00     0.046 A 
ATOM     16  C   UNL     1     -34.037  70.002 -19.160  1.00  0.00     0.046 A 
ATOM     17  C   UNL     1     -34.572  68.725 -18.964  1.00  0.00     0.115 A 
BRANCH  17  18
ATOM     18  O   UNL     1     -33.760  67.606 -19.131  1.00  0.00    -0.508 OA
ATOM     19  H   UNL     1     -34.110  66.669 -18.968  1.00  0.00     0.293 HD
ENDBRANCH  17  18
ENDBRANCH   2  12
BRANCH   8  20
ATOM     20  O   UNL     1     -38.817  77.125 -18.130  1.00  0.00    -0.507 OA
ATOM     21  H   UNL     1     -39.600  77.709 -17.881  1.00  0.00     0.293 HD
ENDBRANCH   8  20
BRANCH   6  22
ATOM     22  O   UNL     1     -40.774  75.336 -22.140  1.00  0.00    -0.508 OA
ATOM     23  H   UNL     1     -41.076  76.252 -22.450  1.00  0.00     0.293 HD
ENDBRANCH   6  22
TORSDOF 4
ENDMDL
MODEL 7
REMARK VINA RESULT:    -4.499      1.613      3.157
REMARK INTER + INTRA:          -5.464
REMARK INTER:                  -5.175
REMARK INTRA:                  -0.289
REMARK UNBOUND:                -0.307
REMARK SMILES O=C1C[C@H](c2ccc(O)cc2)Oc2cc(O)cc(O)c21
REMARK SMILES IDX 3 1 4 2 12 3 13 4 14 5 15 6 17 7 18 8 20 9 2 10 1 11 5 12
REMARK SMILES IDX 6 13 11 14 7 15 10 16 8 17 9 18 19 20 16 22
REMARK H PARENT 9 19 19 21 16 23
REMARK Flexibility Score: inf
ROOT
ATOM      1  C   UNL     1     -37.791  76.656 -24.214  1.00  0.00     0.131 C 
ATOM      2  C   UNL     1     -39.001  76.443 -25.131  1.00  0.00     0.211 C 
ATOM      3  O   UNL     1     -38.836  75.244 -25.889  1.00  0.00    -0.484 OA
ATOM      4  C   UNL     1     -37.628  74.931 -26.518  1.00  0.00     0.138 A 
ATOM      5  C   UNL     1     -37.615  73.932 -27.494  1.00  0.00     0.093 A 
ATOM      6  C   UNL     1     -36.434  73.613 -28.159  1.00  0.00     0.123 A 
ATOM      7  C   UNL     1     -35.258  74.307 -27.859  1.00  0.00     0.093 A 
ATOM      8  C   UNL     1     -35.247  75.319 -26.890  1.00  0.00     0.133 A 
ATOM      9  C   UNL     1     -36.438  75.608 -26.165  1.00  0.00     0.102 A 
ATOM     10  C   UNL     1     -36.510  76.527 -24.990  1.00  0.00     0.174 C 
ATOM     11  O   UNL     1     -35.491  77.123 -24.554  1.00  0.00    -0.294 OA
ENDROOT
BRANCH   2  12
ATOM     12  C   UNL     1     -40.278  76.380 -24.329  1.00  0.00    -0.007 A 
ATOM     13  C   UNL     1     -40.229  76.249 -22.931  1.00  0.00     0.011 A 
ATOM     14  C   UNL     1     -41.529  76.397 -24.972  1.00  0.00     0.011 A 
ATOM     15  C   UNL     1     -41.410  76.160 -22.188  1.00  0.00     0.046 A 
ATOM     16  C   UNL     1     -42.708  76.309 -24.226  1.00  0.00     0.046 A 
ATOM     17  C   UNL     1     -42.653  76.191 -22.834  1.00  0.00     0.115 A 
BRANCH  17  18
ATOM     18  O   UNL     1     -43.835  76.105 -22.103  1.00  0.00    -0.508 OA
ATOM     19  H   UNL     1     -43.917  76.512 -21.179  1.00  0.00     0.293 HD
ENDBRANCH  17  18
ENDBRANCH   2  12
BRANCH   8  20
ATOM     20  O   UNL     1     -34.043  76.002 -26.705  1.00  0.00    -0.507 OA
ATOM     21  H   UNL     1     -33.826  76.899 -27.110  1.00  0.00     0.293 HD
ENDBRANCH   8  20
BRANCH   6  22
ATOM     22  O   UNL     1     -36.439  72.609 -29.125  1.00  0.00    -0.508 OA
ATOM     23  H   UNL     1     -37.085  71.830 -29.077  1.00  0.00     0.293 HD
ENDBRANCH   6  22
TORSDOF 4
ENDMDL
MODEL 8
REMARK VINA RESULT:    -4.337      2.538      6.952
REMARK INTER + INTRA:          -5.278
REMARK INTER:                  -4.975
REMARK INTRA:                  -0.304
REMARK UNBOUND:                -0.307
REMARK SMILES O=C1C[C@H](c2ccc(O)cc2)Oc2cc(O)cc(O)c21
REMARK SMILES IDX 3 1 4 2 12 3 13 4 14 5 15 6 17 7 18 8 20 9 2 10 1 11 5 12
REMARK SMILES IDX 6 13 11 14 7 15 10 16 8 17 9 18 19 20 16 22
REMARK H PARENT 9 19 19 21 16 23
REMARK Flexibility Score: inf
ROOT
ATOM      1  C   UNL     1     -40.006  76.008 -24.990  1.00  0.00     0.131 C 
ATOM      2  C   UNL     1     -38.669  76.633 -24.573  1.00  0.00     0.211 C 
ATOM      3  O   UNL     1     -38.417  76.373 -23.192  1.00  0.00    -0.484 OA
ATOM      4  C   UNL     1     -39.408  76.536 -22.219  1.00  0.00     0.138 A 
ATOM      5  C   UNL     1     -39.032  76.583 -20.875  1.00  0.00     0.093 A 
ATOM      6  C   UNL     1     -39.990  76.770 -19.882  1.00  0.00     0.123 A 
ATOM      7  C   UNL     1     -41.334  76.927 -20.234  1.00  0.00     0.093 A 
ATOM      8  C   UNL     1     -41.735  76.891 -21.576  1.00  0.00     0.133 A 
ATOM      9  C   UNL     1     -40.768  76.641 -22.591  1.00  0.00     0.102 A 
ATOM     10  C   UNL     1     -41.094  76.397 -24.027  1.00  0.00     0.174 C 
ATOM     11  O   UNL     1     -42.281  76.398 -24.446  1.00  0.00    -0.294 OA
ENDROOT
BRANCH   2  12
ATOM     12  C   UNL     1     -37.540  76.096 -25.418  1.00  0.00    -0.007 A 
ATOM     13  C   UNL     1     -36.206  76.281 -25.016  1.00  0.00     0.011 A 
ATOM     14  C   UNL     1     -37.804  75.456 -26.642  1.00  0.00     0.011 A 
ATOM     15  C   UNL     1     -35.157  75.811 -25.812  1.00  0.00     0.046 A 
ATOM     16  C   UNL     1     -36.752  74.987 -27.436  1.00  0.00     0.046 A 
ATOM     17  C   UNL     1     -35.428  75.162 -27.024  1.00  0.00     0.115 A 
BRANCH  17  18
ATOM     18  O   UNL     1     -34.390  74.690 -27.824  1.00  0.00    -0.508 OA
ATOM     19  H   UNL     1     -34.327  73.713 -28.086  1.00  0.00     0.293 HD
ENDBRANCH  17  18
ENDBRANCH   2  12
BRANCH   8  20
ATOM     20  O   UNL     1     -43.088  77.121 -21.836  1.00  0.00    -0.507 OA
ATOM     21  H   UNL     1     -43.539  76.939 -22.719  1.00  0.00     0.293 HD
ENDBRANCH   8  20
BRANCH   6  22
ATOM     22  O   UNL     1     -39.597  76.808 -18.546  1.00  0.00    -0.508 OA
ATOM     23  H   UNL     1     -39.645  77.663 -18.004  1.00  0.00     0.293 HD
ENDBRANCH   6  22
TORSDOF 4
ENDMDL
MODEL 9
REMARK VINA RESULT:    -4.196      2.163      3.016
REMARK INTER + INTRA:          -5.116
REMARK INTER:                  -4.807
REMARK INTRA:                  -0.310
REMARK UNBOUND:                -0.307
REMARK SMILES O=C1C[C@H](c2ccc(O)cc2)Oc2cc(O)cc(O)c21
REMARK SMILES IDX 3 1 4 2 12 3 13 4 14 5 15 6 17 7 18 8 20 9 2 10 1 11 5 12
REMARK SMILES IDX 6 13 11 14 7 15 10 16 8 17 9 18 19 20 16 22
REMARK H PARENT 9 19 19 21 16 23
REMARK Flexibility Score: inf
ROOT
ATOM      1  C   UNL     1     -40.069  76.625 -25.377  1.00  0.00     0.131 C 
ATOM      2  C   UNL     1     -39.589  75.831 -24.156  1.00  0.00     0.211 C 
ATOM      3  O   UNL     1     -38.201  76.074 -23.928  1.00  0.00    -0.484 OA
ATOM      4  C   UNL     1     -37.271  76.060 -24.972  1.00  0.00     0.138 A 
ATOM      5  C   UNL     1     -35.912  75.981 -24.663  1.00  0.00     0.093 A 
ATOM      6  C   UNL     1     -34.959  75.940 -25.678  1.00  0.00     0.123 A 
ATOM      7  C   UNL     1     -35.368  75.960 -27.015  1.00  0.00     0.093 A 
ATOM      8  C   UNL     1     -36.726  76.031 -27.351  1.00  0.00     0.133 A 
ATOM      9  C   UNL     1     -37.700  76.134 -26.317  1.00  0.00     0.102 A 
ATOM     10  C   UNL     1     -39.151  76.399 -26.547  1.00  0.00     0.174 C 
ATOM     11  O   UNL     1     -39.621  76.552 -27.704  1.00  0.00    -0.294 OA
ENDROOT
BRANCH   2  12
ATOM     12  C   UNL     1     -40.389  76.199 -22.930  1.00  0.00    -0.007 A 
ATOM     13  C   UNL     1     -39.743  76.404 -21.699  1.00  0.00     0.011 A 
ATOM     14  C   UNL     1     -41.792  76.287 -22.990  1.00  0.00     0.011 A 
ATOM     15  C   UNL     1     -40.484  76.715 -20.555  1.00  0.00     0.046 A 
ATOM     16  C   UNL     1     -42.530  76.599 -21.844  1.00  0.00     0.046 A 
ATOM     17  C   UNL     1     -41.880  76.815 -20.625  1.00  0.00     0.115 A 
BRANCH  17  18
ATOM     18  O   UNL     1     -42.628  77.125 -19.492  1.00  0.00    -0.508 OA
ATOM     19  H   UNL     1     -43.635  77.015 -19.476  1.00  0.00     0.293 HD
ENDBRANCH  17  18
ENDBRANCH   2  12
BRANCH   8  20
ATOM     20  O   UNL     1     -37.043  75.981 -28.710  1.00  0.00    -0.507 OA
ATOM     21  H   UNL     1     -37.021  76.774 -29.332  1.00  0.00     0.293 HD
ENDBRANCH   8  20
BRANCH   6  22
ATOM     22  O   UNL     1     -33.607  75.867 -25.350  1.00  0.00    -0.508 OA
ATOM     23  H   UNL     1     -33.109  74.984 -25.347  1.00  0.00     0.293 HD
ENDBRANCH   6  22
TORSDOF 4
ENDMDL
