MODEL 1
REMARK VINA RESULT:    -4.118      0.000      0.000
REMARK INTER + INTRA:          -4.421
REMARK INTER:                  -5.080
REMARK INTRA:                   0.659
REMARK UNBOUND:                 0.659
REMARK SMILES C=C1[C@@H]2CC[C@H]3[C@@H]2C(C)(C)CCC[C@@]13C
REMARK SMILES IDX 14 1 6 2 7 3 3 4 2 5 1 6 4 7 5 8 15 9 8 10 9 11 10 12 11 13
REMARK SMILES IDX 13 15 12 16
REMARK H PARENT
REMARK Flexibility Score: 80.00
ROOT
ATOM      1  C   UNL     1     146.406 144.687 132.343  1.00  0.00    -0.008 C 
ATOM      2  C   UNL     1     145.645 145.268 131.095  1.00  0.00     0.003 C 
ATOM      3  C   UNL     1     144.218 145.481 131.625  1.00  0.00     0.006 C 
ATOM      4  C   UNL     1     144.063 144.027 132.076  1.00  0.00     0.019 C 
ATOM      5  C   UNL     1     145.296 143.835 132.914  1.00  0.00    -0.068 C 
ATOM      6  C   UNL     1     145.399 142.979 133.938  1.00  0.00     0.009 C 
ATOM      7  C   UNL     1     144.319 143.267 130.760  1.00  0.00     0.008 C 
ATOM      8  C   UNL     1     145.365 144.153 130.050  1.00  0.00     0.005 C 
ATOM      9  C   UNL     1     147.626 143.809 131.959  1.00  0.00     0.016 C 
ENDROOT
BRANCH   3  10
ATOM     10  C   UNL     1     143.956 146.639 132.689  1.00  0.00    -0.032 C 
ATOM     11  C   UNL     1     142.706 147.431 132.208  1.00  0.00     0.011 C 
ATOM     12  C   UNL     1     143.575 146.141 134.113  1.00  0.00     0.011 C 
BRANCH  10  13
ATOM     13  C   UNL     1     145.118 147.681 132.764  1.00  0.00     0.007 CG0
ATOM     14  G   UNL     1     146.582 147.225 132.998  1.00  0.00     0.000 G0
ENDBRANCH  10  13
ENDBRANCH   3  10
BRANCH   1  15
ATOM     15  C   UNL     1     146.854 145.778 133.376  1.00  0.00     0.011 C 
BRANCH  15  16
ATOM     16  C   UNL     1     146.580 147.242 133.005  1.00  0.00     0.001 CG0
ATOM     17  G   UNL     1     145.116 147.692 132.761  1.00  0.00     0.000 G0
ENDBRANCH  15  16
ENDBRANCH   1  15
TORSDOF 0
ENDMDL
MODEL 2
REMARK VINA RESULT:    -4.085      1.824      4.066
REMARK INTER + INTRA:          -4.381
REMARK INTER:                  -5.056
REMARK INTRA:                   0.675
REMARK UNBOUND:                 0.659
REMARK SMILES C=C1[C@@H]2CC[C@H]3[C@@H]2C(C)(C)CCC[C@@]13C
REMARK SMILES IDX 14 1 6 2 7 3 3 4 2 5 1 6 4 7 5 8 15 9 8 10 9 11 10 12 11 13
REMARK SMILES IDX 13 15 12 16
REMARK H PARENT
REMARK Flexibility Score: 80.00
ROOT
ATOM      1  C   UNL     1     144.307 146.045 132.403  1.00  0.00    -0.008 C 
ATOM      2  C   UNL     1     145.014 145.392 131.159  1.00  0.00     0.003 C 
ATOM      3  C   UNL     1     146.466 145.224 131.631  1.00  0.00     0.006 C 
ATOM      4  C   UNL     1     146.627 146.704 131.981  1.00  0.00     0.019 C 
ATOM      5  C   UNL     1     145.434 146.941 132.864  1.00  0.00    -0.068 C 
ATOM      6  C   UNL     1     145.372 147.859 133.837  1.00  0.00     0.009 C 
ATOM      7  C   UNL     1     146.301 147.378 130.634  1.00  0.00     0.008 C 
ATOM      8  C   UNL     1     145.231 146.441 130.033  1.00  0.00     0.005 C 
ATOM      9  C   UNL     1     143.060 146.888 132.024  1.00  0.00     0.016 C 
ENDROOT
BRANCH   3  10
ATOM     10  C   UNL     1     146.792 144.139 132.752  1.00  0.00    -0.032 C 
ATOM     11  C   UNL     1     148.030 143.332 132.265  1.00  0.00     0.011 C 
ATOM     12  C   UNL     1     147.228 144.729 134.123  1.00  0.00     0.011 C 
BRANCH  10  13
ATOM     13  C   UNL     1     145.650 143.090 132.943  1.00  0.00     0.007 CG0
ATOM     14  G   UNL     1     144.194 143.541 133.231  1.00  0.00     0.000 G0
ENDBRANCH  10  13
ENDBRANCH   3  10
BRANCH   1  15
ATOM     15  C   UNL     1     143.921 145.018 133.523  1.00  0.00     0.011 C 
BRANCH  15  16
ATOM     16  C   UNL     1     144.201 143.537 133.236  1.00  0.00     0.001 CG0
ATOM     17  G   UNL     1     145.656 143.094 132.935  1.00  0.00     0.000 G0
ENDBRANCH  15  16
ENDBRANCH   1  15
TORSDOF 0
ENDMDL
MODEL 3
REMARK VINA RESULT:    -3.861      1.405      2.787
REMARK INTER + INTRA:          -4.104
REMARK INTER:                  -4.768
REMARK INTRA:                   0.664
REMARK UNBOUND:                 0.659
REMARK SMILES C=C1[C@@H]2CC[C@H]3[C@@H]2C(C)(C)CCC[C@@]13C
REMARK SMILES IDX 14 1 6 2 7 3 3 4 2 5 1 6 4 7 5 8 15 9 8 10 9 11 10 12 11 13
REMARK SMILES IDX 13 15 12 16
REMARK H PARENT
REMARK Flexibility Score: 80.00
ROOT
ATOM      1  C   UNL     1     144.781 144.311 132.413  1.00  0.00    -0.008 C 
ATOM      2  C   UNL     1     145.519 144.954 131.181  1.00  0.00     0.003 C 
ATOM      3  C   UNL     1     145.599 146.441 131.560  1.00  0.00     0.006 C 
ATOM      4  C   UNL     1     144.089 146.570 131.769  1.00  0.00     0.019 C 
ATOM      5  C   UNL     1     143.813 145.433 132.713  1.00  0.00    -0.068 C 
ATOM      6  C   UNL     1     142.816 145.404 133.605  1.00  0.00     0.009 C 
ATOM      7  C   UNL     1     143.547 146.125 130.397  1.00  0.00     0.008 C 
ATOM      8  C   UNL     1     144.567 145.053 129.957  1.00  0.00     0.005 C 
ATOM      9  C   UNL     1     144.015 143.010 132.054  1.00  0.00     0.016 C 
ENDROOT
BRANCH   3  10
ATOM     10  C   UNL     1     146.570 146.884 132.743  1.00  0.00    -0.032 C 
ATOM     11  C   UNL     1     147.379 148.114 132.237  1.00  0.00     0.011 C 
ATOM     12  C   UNL     1     145.848 147.394 134.023  1.00  0.00     0.011 C 
BRANCH  10  13
ATOM     13  C   UNL     1     147.632 145.797 133.107  1.00  0.00     0.007 CG0
ATOM     14  G   UNL     1     147.201 144.353 133.471  1.00  0.00     0.000 G0
ENDBRANCH  10  13
ENDBRANCH   3  10
BRANCH   1  15
ATOM     15  C   UNL     1     145.717 144.043 133.642  1.00  0.00     0.011 C 
BRANCH  15  16
ATOM     16  C   UNL     1     147.209 144.350 133.460  1.00  0.00     0.001 CG0
ATOM     17  G   UNL     1     147.639 145.797 133.105  1.00  0.00     0.000 G0
ENDBRANCH  15  16
ENDBRANCH   1  15
TORSDOF 0
ENDMDL
MODEL 4
REMARK VINA RESULT:    -3.791      1.766      3.890
REMARK INTER + INTRA:          -4.019
REMARK INTER:                  -4.683
REMARK INTRA:                   0.664
REMARK UNBOUND:                 0.659
REMARK SMILES C=C1[C@@H]2CC[C@H]3[C@@H]2C(C)(C)CCC[C@@]13C
REMARK SMILES IDX 14 1 6 2 7 3 3 4 2 5 1 6 4 7 5 8 15 9 8 10 9 11 10 12 11 13
REMARK SMILES IDX 13 15 12 16
REMARK H PARENT
REMARK Flexibility Score: 80.00
ROOT
ATOM      1  C   UNL     1     146.035 146.415 131.408  1.00  0.00    -0.008 C 
ATOM      2  C   UNL     1     146.315 146.245 132.946  1.00  0.00     0.003 C 
ATOM      3  C   UNL     1     145.276 145.198 133.376  1.00  0.00     0.006 C 
ATOM      4  C   UNL     1     144.094 146.009 132.843  1.00  0.00     0.019 C 
ATOM      5  C   UNL     1     144.529 146.292 131.433  1.00  0.00    -0.068 C 
ATOM      6  C   UNL     1     143.699 146.487 130.401  1.00  0.00     0.009 C 
ATOM      7  C   UNL     1     144.255 147.334 133.613  1.00  0.00     0.008 C 
ATOM      8  C   UNL     1     145.787 147.471 133.742  1.00  0.00     0.005 C 
ATOM      9  C   UNL     1     146.461 147.802 130.859  1.00  0.00     0.016 C 
ENDROOT
BRANCH   3  10
ATOM     10  C   UNL     1     145.449 143.693 132.882  1.00  0.00    -0.032 C 
ATOM     11  C   UNL     1     145.250 142.776 134.125  1.00  0.00     0.011 C 
ATOM     12  C   UNL     1     144.371 143.212 131.869  1.00  0.00     0.011 C 
BRANCH  10  13
ATOM     13  C   UNL     1     146.884 143.381 132.349  1.00  0.00     0.007 CG0
ATOM     14  G   UNL     1     147.521 144.243 131.229  1.00  0.00     0.000 G0
ENDBRANCH  10  13
ENDBRANCH   3  10
BRANCH   1  15
ATOM     15  C   UNL     1     146.668 145.288 130.521  1.00  0.00     0.011 C 
BRANCH  15  16
ATOM     16  C   UNL     1     147.529 144.239 131.238  1.00  0.00     0.001 CG0
ATOM     17  G   UNL     1     146.883 143.375 132.352  1.00  0.00     0.000 G0
ENDBRANCH  15  16
ENDBRANCH   1  15
TORSDOF 0
ENDMDL
MODEL 5
REMARK VINA RESULT:    -3.780      1.454      2.916
REMARK INTER + INTRA:          -4.005
REMARK INTER:                  -4.669
REMARK INTRA:                   0.664
REMARK UNBOUND:                 0.659
REMARK SMILES C=C1[C@@H]2CC[C@H]3[C@@H]2C(C)(C)CCC[C@@]13C
REMARK SMILES IDX 14 1 6 2 7 3 3 4 2 5 1 6 4 7 5 8 15 9 8 10 9 11 10 12 11 13
REMARK SMILES IDX 13 15 12 16
REMARK H PARENT
REMARK Flexibility Score: 80.00
ROOT
ATOM      1  C   UNL     1     145.901 146.507 132.303  1.00  0.00    -0.008 C 
ATOM      2  C   UNL     1     145.162 145.830 131.091  1.00  0.00     0.003 C 
ATOM      3  C   UNL     1     145.059 144.359 131.522  1.00  0.00     0.006 C 
ATOM      4  C   UNL     1     146.566 144.217 131.746  1.00  0.00     0.019 C 
ATOM      5  C   UNL     1     146.852 145.384 132.649  1.00  0.00    -0.068 C 
ATOM      6  C   UNL     1     147.844 145.432 133.546  1.00  0.00     0.009 C 
ATOM      7  C   UNL     1     147.122 144.604 130.362  1.00  0.00     0.008 C 
ATOM      8  C   UNL     1     146.120 145.673 129.877  1.00  0.00     0.005 C 
ATOM      9  C   UNL     1     146.687 147.783 131.902  1.00  0.00     0.016 C 
ENDROOT
BRANCH   3  10
ATOM     10  C   UNL     1     144.075 143.972 132.715  1.00  0.00    -0.032 C 
ATOM     11  C   UNL     1     143.253 142.735 132.249  1.00  0.00     0.011 C 
ATOM     12  C   UNL     1     144.782 143.500 134.017  1.00  0.00     0.011 C 
BRANCH  10  13
ATOM     13  C   UNL     1     143.025 145.085 133.031  1.00  0.00     0.007 CG0
ATOM     14  G   UNL     1     143.473 146.538 133.336  1.00  0.00     0.000 G0
ENDBRANCH  10  13
ENDBRANCH   3  10
BRANCH   1  15
ATOM     15  C   UNL     1     144.962 146.832 133.515  1.00  0.00     0.011 C 
BRANCH  15  16
ATOM     16  C   UNL     1     143.467 146.536 133.336  1.00  0.00     0.001 CG0
ATOM     17  G   UNL     1     143.023 145.086 133.009  1.00  0.00     0.000 G0
ENDBRANCH  15  16
ENDBRANCH   1  15
TORSDOF 0
ENDMDL
MODEL 6
REMARK VINA RESULT:    -3.772      1.312      3.043
REMARK INTER + INTRA:          -3.994
REMARK INTER:                  -4.663
REMARK INTRA:                   0.668
REMARK UNBOUND:                 0.659
REMARK SMILES C=C1[C@@H]2CC[C@H]3[C@@H]2C(C)(C)CCC[C@@]13C
REMARK SMILES IDX 14 1 6 2 7 3 3 4 2 5 1 6 4 7 5 8 15 9 8 10 9 11 10 12 11 13
REMARK SMILES IDX 13 15 12 16
REMARK H PARENT
REMARK Flexibility Score: 80.00
ROOT
ATOM      1  C   UNL     1     144.737 144.428 131.329  1.00  0.00    -0.008 C 
ATOM      2  C   UNL     1     144.334 144.609 132.838  1.00  0.00     0.003 C 
ATOM      3  C   UNL     1     145.377 145.609 133.360  1.00  0.00     0.006 C 
ATOM      4  C   UNL     1     146.564 144.747 132.927  1.00  0.00     0.019 C 
ATOM      5  C   UNL     1     146.240 144.484 131.483  1.00  0.00    -0.068 C 
ATOM      6  C   UNL     1     147.145 144.254 130.525  1.00  0.00     0.009 C 
ATOM      7  C   UNL     1     146.280 143.430 133.675  1.00  0.00     0.008 C 
ATOM      8  C   UNL     1     144.738 143.361 133.672  1.00  0.00     0.005 C 
ATOM      9  C   UNL     1     144.299 143.060 130.740  1.00  0.00     0.016 C 
ENDROOT
BRANCH   3  10
ATOM     10  C   UNL     1     145.313 147.121 132.860  1.00  0.00    -0.032 C 
ATOM     11  C   UNL     1     145.444 148.027 134.118  1.00  0.00     0.011 C 
ATOM     12  C   UNL     1     146.493 147.555 131.945  1.00  0.00     0.011 C 
BRANCH  10  13
ATOM     13  C   UNL     1     143.944 147.495 132.207  1.00  0.00     0.007 CG0
ATOM     14  G   UNL     1     143.366 146.660 131.035  1.00  0.00     0.000 G0
ENDBRANCH  10  13
ENDBRANCH   3  10
BRANCH   1  15
ATOM     15  C   UNL     1     144.232 145.582 130.396  1.00  0.00     0.011 C 
BRANCH  15  16
ATOM     16  C   UNL     1     143.358 146.666 131.041  1.00  0.00     0.001 CG0
ATOM     17  G   UNL     1     143.939 147.497 132.215  1.00  0.00     0.000 G0
ENDBRANCH  15  16
ENDBRANCH   1  15
TORSDOF 0
ENDMDL
MODEL 7
REMARK VINA RESULT:    -3.672      1.655      3.800
REMARK INTER + INTRA:          -3.871
REMARK INTER:                  -4.532
REMARK INTRA:                   0.661
REMARK UNBOUND:                 0.659
REMARK SMILES C=C1[C@@H]2CC[C@H]3[C@@H]2C(C)(C)CCC[C@@]13C
REMARK SMILES IDX 14 1 6 2 7 3 3 4 2 5 1 6 4 7 5 8 15 9 8 10 9 11 10 12 11 13
REMARK SMILES IDX 13 15 12 16
REMARK H PARENT
REMARK Flexibility Score: 80.00
ROOT
ATOM      1  C   UNL     1     145.567 146.455 133.220  1.00  0.00    -0.008 C 
ATOM      2  C   UNL     1     144.141 145.802 133.342  1.00  0.00     0.003 C 
ATOM      3  C   UNL     1     143.959 145.105 131.985  1.00  0.00     0.006 C 
ATOM      4  C   UNL     1     144.208 146.384 131.184  1.00  0.00     0.019 C 
ATOM      5  C   UNL     1     145.510 146.859 131.764  1.00  0.00    -0.068 C 
ATOM      6  C   UNL     1     146.418 147.592 131.107  1.00  0.00     0.009 C 
ATOM      7  C   UNL     1     143.123 147.320 131.750  1.00  0.00     0.008 C 
ATOM      8  C   UNL     1     143.028 146.880 133.227  1.00  0.00     0.005 C 
ATOM      9  C   UNL     1     145.747 147.702 134.125  1.00  0.00     0.016 C 
ENDROOT
BRANCH   3  10
ATOM     10  C   UNL     1     144.840 143.818 131.655  1.00  0.00    -0.032 C 
ATOM     11  C   UNL     1     143.877 142.735 131.088  1.00  0.00     0.011 C 
ATOM     12  C   UNL     1     145.897 144.023 130.532  1.00  0.00     0.011 C 
BRANCH  10  13
ATOM     13  C   UNL     1     145.498 143.181 132.921  1.00  0.00     0.007 CG0
ATOM     14  G   UNL     1     146.369 144.035 133.879  1.00  0.00     0.000 G0
ENDBRANCH  10  13
ENDBRANCH   3  10
BRANCH   1  15
ATOM     15  C   UNL     1     146.746 145.453 133.471  1.00  0.00     0.011 C 
BRANCH  15  16
ATOM     16  C   UNL     1     146.369 144.024 133.882  1.00  0.00     0.001 CG0
ATOM     17  G   UNL     1     145.498 143.173 132.922  1.00  0.00     0.000 G0
ENDBRANCH  15  16
ENDBRANCH   1  15
TORSDOF 0
ENDMDL
MODEL 8
REMARK VINA RESULT:    -3.653      1.189      2.724
REMARK INTER + INTRA:          -3.848
REMARK INTER:                  -4.514
REMARK INTRA:                   0.666
REMARK UNBOUND:                 0.659
REMARK SMILES C=C1[C@@H]2CC[C@H]3[C@@H]2C(C)(C)CCC[C@@]13C
REMARK SMILES IDX 14 1 6 2 7 3 3 4 2 5 1 6 4 7 5 8 15 9 8 10 9 11 10 12 11 13
REMARK SMILES IDX 13 15 12 16
REMARK H PARENT
REMARK Flexibility Score: 80.00
ROOT
ATOM      1  C   UNL     1     145.114 144.158 133.268  1.00  0.00    -0.008 C 
ATOM      2  C   UNL     1     146.506 144.884 133.357  1.00  0.00     0.003 C 
ATOM      3  C   UNL     1     146.588 145.646 132.025  1.00  0.00     0.006 C 
ATOM      4  C   UNL     1     146.373 144.390 131.180  1.00  0.00     0.019 C 
ATOM      5  C   UNL     1     145.125 143.819 131.794  1.00  0.00    -0.068 C 
ATOM      6  C   UNL     1     144.229 143.064 131.146  1.00  0.00     0.009 C 
ATOM      7  C   UNL     1     147.531 143.493 131.656  1.00  0.00     0.008 C 
ATOM      8  C   UNL     1     147.670 143.876 133.145  1.00  0.00     0.005 C 
ATOM      9  C   UNL     1     145.043 142.866 134.124  1.00  0.00     0.016 C 
ENDROOT
BRANCH   3  10
ATOM     10  C   UNL     1     145.625 146.894 131.791  1.00  0.00    -0.032 C 
ATOM     11  C   UNL     1     146.500 148.050 131.225  1.00  0.00     0.011 C 
ATOM     12  C   UNL     1     144.527 146.676 130.712  1.00  0.00     0.011 C 
BRANCH  10  13
ATOM     13  C   UNL     1     144.997 147.444 133.112  1.00  0.00     0.007 CG0
ATOM     14  G   UNL     1     144.213 146.509 134.069  1.00  0.00     0.000 G0
ENDBRANCH  10  13
ENDBRANCH   3  10
BRANCH   1  15
ATOM     15  C   UNL     1     143.895 145.081 133.615  1.00  0.00     0.011 C 
BRANCH  15  16
ATOM     16  C   UNL     1     144.213 146.509 134.076  1.00  0.00     0.001 CG0
ATOM     17  G   UNL     1     145.004 147.445 133.125  1.00  0.00     0.000 G0
ENDBRANCH  15  16
ENDBRANCH   1  15
TORSDOF 0
ENDMDL
MODEL 9
REMARK VINA RESULT:    -3.210      1.254      3.422
REMARK INTER + INTRA:          -3.301
REMARK INTER:                  -3.982
REMARK INTRA:                   0.681
REMARK UNBOUND:                 0.659
REMARK SMILES C=C1[C@@H]2CC[C@H]3[C@@H]2C(C)(C)CCC[C@@]13C
REMARK SMILES IDX 14 1 6 2 7 3 3 4 2 5 1 6 4 7 5 8 15 9 8 10 9 11 10 12 11 13
REMARK SMILES IDX 13 15 12 16
REMARK H PARENT
REMARK Flexibility Score: 80.00
ROOT
ATOM      1  C   UNL     1     144.462 146.115 131.247  1.00  0.00    -0.008 C 
ATOM      2  C   UNL     1     144.592 146.442 132.780  1.00  0.00     0.003 C 
ATOM      3  C   UNL     1     145.569 145.369 133.285  1.00  0.00     0.006 C 
ATOM      4  C   UNL     1     144.718 144.209 132.764  1.00  0.00     0.019 C 
ATOM      5  C   UNL     1     144.507 144.605 131.330  1.00  0.00    -0.068 C 
ATOM      6  C   UNL     1     144.307 143.749 130.321  1.00  0.00     0.009 C 
ATOM      7  C   UNL     1     143.377 144.463 133.479  1.00  0.00     0.008 C 
ATOM      8  C   UNL     1     143.314 146.004 133.549  1.00  0.00     0.005 C 
ATOM      9  C   UNL     1     143.117 146.587 130.634  1.00  0.00     0.016 C 
ENDROOT
BRANCH   3  10
ATOM     10  C   UNL     1     147.098 145.449 132.841  1.00  0.00    -0.032 C 
ATOM     11  C   UNL     1     147.959 145.237 134.119  1.00  0.00     0.011 C 
ATOM     12  C   UNL     1     147.555 144.321 131.874  1.00  0.00     0.011 C 
BRANCH  10  13
ATOM     13  C   UNL     1     147.504 146.851 132.282  1.00  0.00     0.007 CG0
ATOM     14  G   UNL     1     146.718 147.499 131.112  1.00  0.00     0.000 G0
ENDBRANCH  10  13
ENDBRANCH   3  10
BRANCH   1  15
ATOM     15  C   UNL     1     145.650 146.658 130.381  1.00  0.00     0.011 C 
BRANCH  15  16
ATOM     16  C   UNL     1     146.711 147.498 131.104  1.00  0.00     0.001 CG0
ATOM     17  G   UNL     1     147.495 146.863 132.282  1.00  0.00     0.000 G0
ENDBRANCH  15  16
ENDBRANCH   1  15
TORSDOF 0
ENDMDL
