MODEL 1
REMARK VINA RESULT:    -7.053      0.000      0.000
REMARK INTER + INTRA:          -8.790
REMARK INTER:                  -8.496
REMARK INTRA:                  -0.294
REMARK UNBOUND:                -0.294
REMARK SMILES O=c1c(O)c(-c2ccc(O)c(O)c2)oc2cc(O)cc(O)c12
REMARK SMILES IDX 5 1 3 2 2 3 1 4 22 5 20 6 19 7 17 8 16 9 15 10 14 11 6 12
REMARK SMILES IDX 7 13 8 14 9 15 13 16 11 17 10 18 12 20 4 22 21 24 18 26
REMARK H PARENT 10 19 12 21 4 23 21 25 18 27
REMARK Flexibility Score: inf
ROOT
ATOM      1  C   UNL     1     -21.062  55.695  -1.205  1.00  0.00     0.180 A 
ATOM      2  C   UNL     1     -21.404  54.545  -0.473  1.00  0.00     0.208 A 
ATOM      3  C   UNL     1     -22.695  54.440   0.067  1.00  0.00     0.238 A 
ATOM      4  O   UNL     1     -22.977  53.432   0.767  1.00  0.00    -0.285 OA
ATOM      5  C   UNL     1     -23.636  55.477  -0.147  1.00  0.00     0.111 A 
ATOM      6  C   UNL     1     -24.984  55.457   0.320  1.00  0.00     0.134 A 
ATOM      7  C   UNL     1     -25.786  56.594   0.163  1.00  0.00     0.093 A 
ATOM      8  C   UNL     1     -25.307  57.727  -0.501  1.00  0.00     0.123 A 
ATOM      9  C   UNL     1     -24.011  57.733  -1.012  1.00  0.00     0.094 A 
ATOM     10  C   UNL     1     -23.176  56.628  -0.839  1.00  0.00     0.146 A 
ATOM     11  O   UNL     1     -21.944  56.679  -1.332  1.00  0.00    -0.452 OA
ENDROOT
BRANCH   1  12
ATOM     12  C   UNL     1     -19.730  55.867  -1.826  1.00  0.00     0.025 A 
ATOM     13  C   UNL     1     -19.557  55.566  -3.187  1.00  0.00     0.016 A 
ATOM     14  C   UNL     1     -18.304  55.701  -3.788  1.00  0.00     0.051 A 
ATOM     15  C   UNL     1     -17.202  56.126  -3.039  1.00  0.00     0.157 A 
ATOM     16  C   UNL     1     -18.616  56.274  -1.071  1.00  0.00     0.062 A 
ATOM     17  C   UNL     1     -17.356  56.410  -1.672  1.00  0.00     0.158 A 
BRANCH  15  18
ATOM     18  O   UNL     1     -15.963  56.254  -3.668  1.00  0.00    -0.504 OA
ATOM     19  H   UNL     1     -15.585  57.156  -3.931  1.00  0.00     0.293 HD
ENDBRANCH  15  18
BRANCH  17  20
ATOM     20  O   UNL     1     -16.259  56.820  -0.916  1.00  0.00    -0.504 OA
ATOM     21  H   UNL     1     -15.529  57.401  -1.311  1.00  0.00     0.293 HD
ENDBRANCH  17  20
ENDBRANCH   1  12
BRANCH   2  22
ATOM     22  O   UNL     1     -20.454  53.543  -0.256  1.00  0.00    -0.502 OA
ATOM     23  H   UNL     1     -20.675  52.557  -0.338  1.00  0.00     0.293 HD
ENDBRANCH   2  22
BRANCH   6  24
ATOM     24  O   UNL     1     -25.589  54.344   0.913  1.00  0.00    -0.507 OA
ATOM     25  H   UNL     1     -25.112  53.487   1.144  1.00  0.00     0.293 HD
ENDBRANCH   6  24
BRANCH   8  26
ATOM     26  O   UNL     1     -26.117  58.849  -0.665  1.00  0.00    -0.508 OA
ATOM     27  H   UNL     1     -26.313  59.478   0.104  1.00  0.00     0.293 HD
ENDBRANCH   8  26
TORSDOF 6
ENDMDL
MODEL 2
REMARK VINA RESULT:    -7.032      1.968      6.883
REMARK INTER + INTRA:          -8.766
REMARK INTER:                  -8.449
REMARK INTRA:                  -0.317
REMARK UNBOUND:                -0.294
REMARK SMILES O=c1c(O)c(-c2ccc(O)c(O)c2)oc2cc(O)cc(O)c12
REMARK SMILES IDX 5 1 3 2 2 3 1 4 22 5 20 6 19 7 17 8 16 9 15 10 14 11 6 12
REMARK SMILES IDX 7 13 8 14 9 15 13 16 11 17 10 18 12 20 4 22 21 24 18 26
REMARK H PARENT 10 19 12 21 4 23 21 25 18 27
REMARK Flexibility Score: inf
ROOT
ATOM      1  C   UNL     1     -20.904  55.379  -0.496  1.00  0.00     0.180 A 
ATOM      2  C   UNL     1     -20.280  54.425  -1.319  1.00  0.00     0.208 A 
ATOM      3  C   UNL     1     -18.879  54.388  -1.379  1.00  0.00     0.238 A 
ATOM      4  O   UNL     1     -18.328  53.568  -2.158  1.00  0.00    -0.285 OA
ATOM      5  C   UNL     1     -18.116  55.294  -0.602  1.00  0.00     0.111 A 
ATOM      6  C   UNL     1     -16.690  55.320  -0.555  1.00  0.00     0.134 A 
ATOM      7  C   UNL     1     -16.041  56.344   0.146  1.00  0.00     0.093 A 
ATOM      8  C   UNL     1     -16.767  57.305   0.855  1.00  0.00     0.123 A 
ATOM      9  C   UNL     1     -18.159  57.252   0.863  1.00  0.00     0.094 A 
ATOM     10  C   UNL     1     -18.835  56.265   0.143  1.00  0.00     0.146 A 
ATOM     11  O   UNL     1     -20.163  56.258   0.168  1.00  0.00    -0.452 OA
ENDROOT
BRANCH   1  12
ATOM     12  C   UNL     1     -22.376  55.463  -0.362  1.00  0.00     0.025 A 
ATOM     13  C   UNL     1     -23.017  54.750   0.664  1.00  0.00     0.016 A 
ATOM     14  C   UNL     1     -24.407  54.798   0.797  1.00  0.00     0.051 A 
ATOM     15  C   UNL     1     -25.178  55.546  -0.098  1.00  0.00     0.157 A 
ATOM     16  C   UNL     1     -23.155  56.198  -1.273  1.00  0.00     0.062 A 
ATOM     17  C   UNL     1     -24.550  56.247  -1.142  1.00  0.00     0.158 A 
BRANCH  15  18
ATOM     18  O   UNL     1     -26.563  55.578   0.061  1.00  0.00    -0.504 OA
ATOM     19  H   UNL     1     -27.132  56.323  -0.322  1.00  0.00     0.293 HD
ENDBRANCH  15  18
BRANCH  17  20
ATOM     20  O   UNL     1     -25.313  56.983  -2.047  1.00  0.00    -0.504 OA
ATOM     21  H   UNL     1     -25.814  56.537  -2.807  1.00  0.00     0.293 HD
ENDBRANCH  17  20
ENDBRANCH   1  12
BRANCH   2  22
ATOM     22  O   UNL     1     -21.053  53.554  -2.094  1.00  0.00    -0.502 OA
ATOM     23  H   UNL     1     -20.734  52.627  -2.350  1.00  0.00     0.293 HD
ENDBRANCH   2  22
BRANCH   6  24
ATOM     24  O   UNL     1     -15.872  54.355  -1.150  1.00  0.00    -0.507 OA
ATOM     25  H   UNL     1     -15.146  54.552  -1.821  1.00  0.00     0.293 HD
ENDBRANCH   6  24
BRANCH   8  26
ATOM     26  O   UNL     1     -16.113  58.311   1.562  1.00  0.00    -0.508 OA
ATOM     27  H   UNL     1     -15.268  58.743   1.208  1.00  0.00     0.293 HD
ENDBRANCH   8  26
TORSDOF 6
ENDMDL
MODEL 3
REMARK VINA RESULT:    -7.027      1.421      2.837
REMARK INTER + INTRA:          -8.759
REMARK INTER:                  -8.428
REMARK INTRA:                  -0.331
REMARK UNBOUND:                -0.294
REMARK SMILES O=c1c(O)c(-c2ccc(O)c(O)c2)oc2cc(O)cc(O)c12
REMARK SMILES IDX 5 1 3 2 2 3 1 4 22 5 20 6 19 7 17 8 16 9 15 10 14 11 6 12
REMARK SMILES IDX 7 13 8 14 9 15 13 16 11 17 10 18 12 20 4 22 21 24 18 26
REMARK H PARENT 10 19 12 21 4 23 21 25 18 27
REMARK Flexibility Score: inf
ROOT
ATOM      1  C   UNL     1     -21.219  55.559  -1.489  1.00  0.00     0.180 A 
ATOM      2  C   UNL     1     -21.890  56.604  -2.148  1.00  0.00     0.208 A 
ATOM      3  C   UNL     1     -23.243  56.834  -1.857  1.00  0.00     0.238 A 
ATOM      4  O   UNL     1     -23.852  57.736  -2.490  1.00  0.00    -0.285 OA
ATOM      5  C   UNL     1     -23.905  56.030  -0.897  1.00  0.00     0.111 A 
ATOM      6  C   UNL     1     -25.263  56.202  -0.495  1.00  0.00     0.134 A 
ATOM      7  C   UNL     1     -25.852  55.266   0.365  1.00  0.00     0.093 A 
ATOM      8  C   UNL     1     -25.111  54.203   0.888  1.00  0.00     0.123 A 
ATOM      9  C   UNL     1     -23.768  54.062   0.548  1.00  0.00     0.094 A 
ATOM     10  C   UNL     1     -23.163  54.958  -0.336  1.00  0.00     0.146 A 
ATOM     11  O   UNL     1     -21.884  54.781  -0.643  1.00  0.00    -0.452 OA
ENDROOT
BRANCH   1  12
ATOM     12  C   UNL     1     -19.786  55.271  -1.724  1.00  0.00     0.025 A 
ATOM     13  C   UNL     1     -19.424  54.271  -2.641  1.00  0.00     0.016 A 
ATOM     14  C   UNL     1     -18.078  53.968  -2.863  1.00  0.00     0.051 A 
ATOM     15  C   UNL     1     -17.075  54.647  -2.164  1.00  0.00     0.157 A 
ATOM     16  C   UNL     1     -18.776  55.938  -1.007  1.00  0.00     0.062 A 
ATOM     17  C   UNL     1     -17.425  55.634  -1.227  1.00  0.00     0.158 A 
BRANCH  15  18
ATOM     18  O   UNL     1     -15.741  54.325  -2.408  1.00  0.00    -0.504 OA
ATOM     19  H   UNL     1     -15.222  54.730  -3.177  1.00  0.00     0.293 HD
ENDBRANCH  15  18
BRANCH  17  20
ATOM     20  O   UNL     1     -16.431  56.305  -0.516  1.00  0.00    -0.504 OA
ATOM     21  H   UNL     1     -16.145  57.246  -0.763  1.00  0.00     0.293 HD
ENDBRANCH  17  20
ENDBRANCH   1  12
BRANCH   2  22
ATOM     22  O   UNL     1     -21.223  57.371  -3.108  1.00  0.00    -0.502 OA
ATOM     23  H   UNL     1     -21.644  58.185  -3.541  1.00  0.00     0.293 HD
ENDBRANCH   2  22
BRANCH   6  24
ATOM     24  O   UNL     1     -26.064  57.280  -0.886  1.00  0.00    -0.507 OA
ATOM     25  H   UNL     1     -26.543  57.899  -0.250  1.00  0.00     0.293 HD
ENDBRANCH   6  24
BRANCH   8  26
ATOM     26  O   UNL     1     -25.701  53.285   1.756  1.00  0.00    -0.508 OA
ATOM     27  H   UNL     1     -25.191  52.481   2.101  1.00  0.00     0.293 HD
ENDBRANCH   8  26
TORSDOF 6
ENDMDL
MODEL 4
REMARK VINA RESULT:    -6.954      1.987      7.009
REMARK INTER + INTRA:          -8.671
REMARK INTER:                  -8.350
REMARK INTRA:                  -0.322
REMARK UNBOUND:                -0.294
REMARK SMILES O=c1c(O)c(-c2ccc(O)c(O)c2)oc2cc(O)cc(O)c12
REMARK SMILES IDX 5 1 3 2 2 3 1 4 22 5 20 6 19 7 17 8 16 9 15 10 14 11 6 12
REMARK SMILES IDX 7 13 8 14 9 15 13 16 11 17 10 18 12 20 4 22 21 24 18 26
REMARK H PARENT 10 19 12 21 4 23 21 25 18 27
REMARK Flexibility Score: inf
ROOT
ATOM      1  C   UNL     1     -21.348  55.956  -1.985  1.00  0.00     0.180 A 
ATOM      2  C   UNL     1     -20.585  56.391  -3.083  1.00  0.00     0.208 A 
ATOM      3  C   UNL     1     -19.189  56.253  -3.040  1.00  0.00     0.238 A 
ATOM      4  O   UNL     1     -18.508  56.693  -4.003  1.00  0.00    -0.285 OA
ATOM      5  C   UNL     1     -18.573  55.666  -1.908  1.00  0.00     0.111 A 
ATOM      6  C   UNL     1     -17.170  55.440  -1.775  1.00  0.00     0.134 A 
ATOM      7  C   UNL     1     -16.659  54.973  -0.558  1.00  0.00     0.093 A 
ATOM      8  C   UNL     1     -17.507  54.662   0.508  1.00  0.00     0.123 A 
ATOM      9  C   UNL     1     -18.884  54.823   0.366  1.00  0.00     0.094 A 
ATOM     10  C   UNL     1     -19.420  55.322  -0.822  1.00  0.00     0.146 A 
ATOM     11  O   UNL     1     -20.736  55.471  -0.911  1.00  0.00    -0.452 OA
ENDROOT
BRANCH   1  12
ATOM     12  C   UNL     1     -22.825  56.045  -1.967  1.00  0.00     0.025 A 
ATOM     13  C   UNL     1     -23.588  54.971  -2.451  1.00  0.00     0.016 A 
ATOM     14  C   UNL     1     -24.983  55.041  -2.463  1.00  0.00     0.051 A 
ATOM     15  C   UNL     1     -25.637  56.190  -2.005  1.00  0.00     0.157 A 
ATOM     16  C   UNL     1     -23.484  57.207  -1.527  1.00  0.00     0.062 A 
ATOM     17  C   UNL     1     -24.885  57.281  -1.538  1.00  0.00     0.158 A 
BRANCH  15  18
ATOM     18  O   UNL     1     -27.031  56.231  -2.026  1.00  0.00    -0.504 OA
ATOM     19  H   UNL     1     -27.543  56.790  -2.697  1.00  0.00     0.293 HD
ENDBRANCH  15  18
BRANCH  17  20
ATOM     20  O   UNL     1     -25.529  58.434  -1.093  1.00  0.00    -0.504 OA
ATOM     21  H   UNL     1     -26.167  58.416  -0.306  1.00  0.00     0.293 HD
ENDBRANCH  17  20
ENDBRANCH   1  12
BRANCH   2  22
ATOM     22  O   UNL     1     -21.212  56.988  -4.181  1.00  0.00    -0.502 OA
ATOM     23  H   UNL     1     -21.064  56.667  -5.132  1.00  0.00     0.293 HD
ENDBRANCH   2  22
BRANCH   6  24
ATOM     24  O   UNL     1     -16.247  55.629  -2.808  1.00  0.00    -0.507 OA
ATOM     25  H   UNL     1     -16.074  54.970  -3.551  1.00  0.00     0.293 HD
ENDBRANCH   6  24
BRANCH   8  26
ATOM     26  O   UNL     1     -16.991  54.183   1.711  1.00  0.00    -0.508 OA
ATOM     27  H   UNL     1     -17.500  54.280   2.581  1.00  0.00     0.293 HD
ENDBRANCH   8  26
TORSDOF 6
ENDMDL
MODEL 5
REMARK VINA RESULT:    -6.820      1.988      2.794
REMARK INTER + INTRA:          -8.510
REMARK INTER:                  -8.187
REMARK INTRA:                  -0.322
REMARK UNBOUND:                -0.294
REMARK SMILES O=c1c(O)c(-c2ccc(O)c(O)c2)oc2cc(O)cc(O)c12
REMARK SMILES IDX 5 1 3 2 2 3 1 4 22 5 20 6 19 7 17 8 16 9 15 10 14 11 6 12
REMARK SMILES IDX 7 13 8 14 9 15 13 16 11 17 10 18 12 20 4 22 21 24 18 26
REMARK H PARENT 10 19 12 21 4 23 21 25 18 27
REMARK Flexibility Score: inf
ROOT
ATOM      1  C   UNL     1     -20.662  56.012  -0.329  1.00  0.00     0.180 A 
ATOM      2  C   UNL     1     -20.855  57.092   0.550  1.00  0.00     0.208 A 
ATOM      3  C   UNL     1     -22.164  57.505   0.844  1.00  0.00     0.238 A 
ATOM      4  O   UNL     1     -22.328  58.506   1.589  1.00  0.00    -0.285 OA
ATOM      5  C   UNL     1     -23.264  56.822   0.271  1.00  0.00     0.111 A 
ATOM      6  C   UNL     1     -24.633  57.131   0.531  1.00  0.00     0.134 A 
ATOM      7  C   UNL     1     -25.638  56.476  -0.193  1.00  0.00     0.093 A 
ATOM      8  C   UNL     1     -25.324  55.479  -1.120  1.00  0.00     0.123 A 
ATOM      9  C   UNL     1     -23.993  55.130  -1.337  1.00  0.00     0.094 A 
ATOM     10  C   UNL     1     -22.968  55.791  -0.657  1.00  0.00     0.146 A 
ATOM     11  O   UNL     1     -21.712  55.435  -0.902  1.00  0.00    -0.452 OA
ENDROOT
BRANCH   1  12
ATOM     12  C   UNL     1     -19.314  55.502  -0.668  1.00  0.00     0.025 A 
ATOM     13  C   UNL     1     -18.736  54.498   0.124  1.00  0.00     0.016 A 
ATOM     14  C   UNL     1     -17.457  54.016  -0.165  1.00  0.00     0.051 A 
ATOM     15  C   UNL     1     -16.730  54.540  -1.239  1.00  0.00     0.157 A 
ATOM     16  C   UNL     1     -18.573  56.041  -1.735  1.00  0.00     0.062 A 
ATOM     17  C   UNL     1     -17.289  55.561  -2.027  1.00  0.00     0.158 A 
BRANCH  15  18
ATOM     18  O   UNL     1     -15.457  54.038  -1.506  1.00  0.00    -0.504 OA
ATOM     19  H   UNL     1     -15.314  53.190  -2.040  1.00  0.00     0.293 HD
ENDBRANCH  15  18
BRANCH  17  20
ATOM     20  O   UNL     1     -16.565  56.097  -3.090  1.00  0.00    -0.504 OA
ATOM     21  H   UNL     1     -15.558  55.997  -3.152  1.00  0.00     0.293 HD
ENDBRANCH  17  20
ENDBRANCH   1  12
BRANCH   2  22
ATOM     22  O   UNL     1     -19.754  57.764   1.088  1.00  0.00    -0.502 OA
ATOM     23  H   UNL     1     -19.836  58.402   1.871  1.00  0.00     0.293 HD
ENDBRANCH   2  22
BRANCH   6  24
ATOM     24  O   UNL     1     -25.057  58.043   1.502  1.00  0.00    -0.507 OA
ATOM     25  H   UNL     1     -24.745  58.048   2.461  1.00  0.00     0.293 HD
ENDBRANCH   6  24
BRANCH   8  26
ATOM     26  O   UNL     1     -26.331  54.822  -1.825  1.00  0.00    -0.508 OA
ATOM     27  H   UNL     1     -26.615  53.879  -1.587  1.00  0.00     0.293 HD
ENDBRANCH   8  26
TORSDOF 6
ENDMDL
MODEL 6
REMARK VINA RESULT:    -6.726      2.647      3.004
REMARK INTER + INTRA:          -8.397
REMARK INTER:                  -8.066
REMARK INTRA:                  -0.331
REMARK UNBOUND:                -0.294
REMARK SMILES O=c1c(O)c(-c2ccc(O)c(O)c2)oc2cc(O)cc(O)c12
REMARK SMILES IDX 5 1 3 2 2 3 1 4 22 5 20 6 19 7 17 8 16 9 15 10 14 11 6 12
REMARK SMILES IDX 7 13 8 14 9 15 13 16 11 17 10 18 12 20 4 22 21 24 18 26
REMARK H PARENT 10 19 12 21 4 23 21 25 18 27
REMARK Flexibility Score: inf
ROOT
ATOM      1  C   UNL     1     -20.481  56.073  -0.122  1.00  0.00     0.180 A 
ATOM      2  C   UNL     1     -21.707  55.638  -0.654  1.00  0.00     0.208 A 
ATOM      3  C   UNL     1     -22.899  56.187  -0.155  1.00  0.00     0.238 A 
ATOM      4  O   UNL     1     -23.995  55.755  -0.599  1.00  0.00    -0.285 OA
ATOM      5  C   UNL     1     -22.850  57.177   0.856  1.00  0.00     0.111 A 
ATOM      6  C   UNL     1     -23.994  57.830   1.406  1.00  0.00     0.134 A 
ATOM      7  C   UNL     1     -23.837  58.697   2.495  1.00  0.00     0.093 A 
ATOM      8  C   UNL     1     -22.570  58.984   3.010  1.00  0.00     0.123 A 
ATOM      9  C   UNL     1     -21.442  58.397   2.440  1.00  0.00     0.094 A 
ATOM     10  C   UNL     1     -21.570  57.500   1.378  1.00  0.00     0.146 A 
ATOM     11  O   UNL     1     -20.471  56.954   0.873  1.00  0.00    -0.452 OA
ENDROOT
BRANCH   1  12
ATOM     12  C   UNL     1     -19.182  55.560  -0.613  1.00  0.00     0.025 A 
ATOM     13  C   UNL     1     -18.594  54.452   0.018  1.00  0.00     0.016 A 
ATOM     14  C   UNL     1     -17.359  53.964  -0.416  1.00  0.00     0.051 A 
ATOM     15  C   UNL     1     -16.686  54.582  -1.474  1.00  0.00     0.157 A 
ATOM     16  C   UNL     1     -18.493  56.193  -1.663  1.00  0.00     0.062 A 
ATOM     17  C   UNL     1     -17.253  55.706  -2.099  1.00  0.00     0.158 A 
BRANCH  15  18
ATOM     18  O   UNL     1     -15.456  54.071  -1.887  1.00  0.00    -0.504 OA
ATOM     19  H   UNL     1     -14.703  53.887  -1.235  1.00  0.00     0.293 HD
ENDBRANCH  15  18
BRANCH  17  20
ATOM     20  O   UNL     1     -16.581  56.336  -3.146  1.00  0.00    -0.504 OA
ATOM     21  H   UNL     1     -16.764  57.302  -3.389  1.00  0.00     0.293 HD
ENDBRANCH  17  20
ENDBRANCH   1  12
BRANCH   2  22
ATOM     22  O   UNL     1     -21.733  54.645  -1.637  1.00  0.00    -0.502 OA
ATOM     23  H   UNL     1     -21.620  54.853  -2.623  1.00  0.00     0.293 HD
ENDBRANCH   2  22
BRANCH   6  24
ATOM     24  O   UNL     1     -25.291  57.685   0.906  1.00  0.00    -0.507 OA
ATOM     25  H   UNL     1     -26.133  57.876   1.428  1.00  0.00     0.293 HD
ENDBRANCH   6  24
BRANCH   8  26
ATOM     26  O   UNL     1     -22.421  59.860   4.083  1.00  0.00    -0.508 OA
ATOM     27  H   UNL     1     -22.716  60.828   4.022  1.00  0.00     0.293 HD
ENDBRANCH   8  26
TORSDOF 6
ENDMDL
MODEL 7
REMARK VINA RESULT:    -6.421      1.950      2.319
REMARK INTER + INTRA:          -8.029
REMARK INTER:                  -7.712
REMARK INTRA:                  -0.317
REMARK UNBOUND:                -0.294
REMARK SMILES O=c1c(O)c(-c2ccc(O)c(O)c2)oc2cc(O)cc(O)c12
REMARK SMILES IDX 5 1 3 2 2 3 1 4 22 5 20 6 19 7 17 8 16 9 15 10 14 11 6 12
REMARK SMILES IDX 7 13 8 14 9 15 13 16 11 17 10 18 12 20 4 22 21 24 18 26
REMARK H PARENT 10 19 12 21 4 23 21 25 18 27
REMARK Flexibility Score: inf
ROOT
ATOM      1  C   UNL     1     -21.610  55.793  -1.845  1.00  0.00     0.180 A 
ATOM      2  C   UNL     1     -22.639  54.839  -1.751  1.00  0.00     0.208 A 
ATOM      3  C   UNL     1     -23.973  55.263  -1.860  1.00  0.00     0.238 A 
ATOM      4  O   UNL     1     -24.890  54.413  -1.721  1.00  0.00    -0.285 OA
ATOM      5  C   UNL     1     -24.261  56.632  -2.080  1.00  0.00     0.111 A 
ATOM      6  C   UNL     1     -25.574  57.166  -2.247  1.00  0.00     0.134 A 
ATOM      7  C   UNL     1     -25.750  58.553  -2.327  1.00  0.00     0.093 A 
ATOM      8  C   UNL     1     -24.654  59.420  -2.313  1.00  0.00     0.123 A 
ATOM      9  C   UNL     1     -23.364  58.903  -2.210  1.00  0.00     0.094 A 
ATOM     10  C   UNL     1     -23.160  57.527  -2.092  1.00  0.00     0.146 A 
ATOM     11  O   UNL     1     -21.915  57.077  -1.985  1.00  0.00    -0.452 OA
ENDROOT
BRANCH   1  12
ATOM     12  C   UNL     1     -20.180  55.419  -1.764  1.00  0.00     0.025 A 
ATOM     13  C   UNL     1     -19.473  55.135  -2.943  1.00  0.00     0.016 A 
ATOM     14  C   UNL     1     -18.128  54.761  -2.890  1.00  0.00     0.051 A 
ATOM     15  C   UNL     1     -17.473  54.651  -1.659  1.00  0.00     0.157 A 
ATOM     16  C   UNL     1     -19.525  55.289  -0.527  1.00  0.00     0.062 A 
ATOM     17  C   UNL     1     -18.175  54.912  -0.470  1.00  0.00     0.158 A 
BRANCH  15  18
ATOM     18  O   UNL     1     -16.129  54.278  -1.637  1.00  0.00    -0.504 OA
ATOM     19  H   UNL     1     -15.704  53.753  -2.390  1.00  0.00     0.293 HD
ENDBRANCH  15  18
BRANCH  17  20
ATOM     20  O   UNL     1     -17.532  54.792   0.761  1.00  0.00    -0.504 OA
ATOM     21  H   UNL     1     -17.760  54.046   1.409  1.00  0.00     0.293 HD
ENDBRANCH  17  20
ENDBRANCH   1  12
BRANCH   2  22
ATOM     22  O   UNL     1     -22.332  53.496  -1.512  1.00  0.00    -0.502 OA
ATOM     23  H   UNL     1     -21.939  53.176  -0.635  1.00  0.00     0.293 HD
ENDBRANCH   2  22
BRANCH   6  24
ATOM     24  O   UNL     1     -26.726  56.384  -2.367  1.00  0.00    -0.507 OA
ATOM     25  H   UNL     1     -27.667  56.746  -2.393  1.00  0.00     0.293 HD
ENDBRANCH   6  24
BRANCH   8  26
ATOM     26  O   UNL     1     -24.837  60.798  -2.409  1.00  0.00    -0.508 OA
ATOM     27  H   UNL     1     -24.051  61.438  -2.409  1.00  0.00     0.293 HD
ENDBRANCH   8  26
TORSDOF 6
ENDMDL
MODEL 8
REMARK VINA RESULT:    -6.345      1.653      6.604
REMARK INTER + INTRA:          -7.938
REMARK INTER:                  -7.783
REMARK INTRA:                  -0.155
REMARK UNBOUND:                -0.294
REMARK SMILES O=c1c(O)c(-c2ccc(O)c(O)c2)oc2cc(O)cc(O)c12
REMARK SMILES IDX 5 1 3 2 2 3 1 4 22 5 20 6 19 7 17 8 16 9 15 10 14 11 6 12
REMARK SMILES IDX 7 13 8 14 9 15 13 16 11 17 10 18 12 20 4 22 21 24 18 26
REMARK H PARENT 10 19 12 21 4 23 21 25 18 27
REMARK Flexibility Score: inf
ROOT
ATOM      1  C   UNL     1     -21.602  55.340  -1.581  1.00  0.00     0.180 A 
ATOM      2  C   UNL     1     -21.287  54.274  -0.720  1.00  0.00     0.208 A 
ATOM      3  C   UNL     1     -19.948  53.873  -0.594  1.00  0.00     0.238 A 
ATOM      4  O   UNL     1     -19.681  52.884   0.137  1.00  0.00    -0.285 OA
ATOM      5  C   UNL     1     -18.937  54.554  -1.315  1.00  0.00     0.111 A 
ATOM      6  C   UNL     1     -17.544  54.257  -1.232  1.00  0.00     0.134 A 
ATOM      7  C   UNL     1     -16.647  54.907  -2.090  1.00  0.00     0.093 A 
ATOM      8  C   UNL     1     -17.087  55.889  -2.982  1.00  0.00     0.123 A 
ATOM      9  C   UNL     1     -18.438  56.226  -3.028  1.00  0.00     0.094 A 
ATOM     10  C   UNL     1     -19.361  55.570  -2.211  1.00  0.00     0.146 A 
ATOM     11  O   UNL     1     -20.640  55.914  -2.294  1.00  0.00    -0.452 OA
ENDROOT
BRANCH   1  12
ATOM     12  C   UNL     1     -22.986  55.837  -1.748  1.00  0.00     0.025 A 
ATOM     13  C   UNL     1     -23.949  55.010  -2.348  1.00  0.00     0.016 A 
ATOM     14  C   UNL     1     -25.257  55.466  -2.534  1.00  0.00     0.051 A 
ATOM     15  C   UNL     1     -25.619  56.757  -2.138  1.00  0.00     0.157 A 
ATOM     16  C   UNL     1     -23.348  57.142  -1.369  1.00  0.00     0.062 A 
ATOM     17  C   UNL     1     -24.659  57.602  -1.556  1.00  0.00     0.158 A 
BRANCH  15  18
ATOM     18  O   UNL     1     -26.932  57.183  -2.334  1.00  0.00    -0.504 OA
ATOM     19  H   UNL     1     -27.723  56.563  -2.210  1.00  0.00     0.293 HD
ENDBRANCH  15  18
BRANCH  17  20
ATOM     20  O   UNL     1     -25.010  58.896  -1.171  1.00  0.00    -0.504 OA
ATOM     21  H   UNL     1     -24.753  59.268  -0.264  1.00  0.00     0.293 HD
ENDBRANCH  17  20
ENDBRANCH   1  12
BRANCH   2  22
ATOM     22  O   UNL     1     -22.304  53.603  -0.033  1.00  0.00    -0.502 OA
ATOM     23  H   UNL     1     -22.944  52.968  -0.495  1.00  0.00     0.293 HD
ENDBRANCH   2  22
BRANCH   6  24
ATOM     24  O   UNL     1     -16.990  53.362  -0.312  1.00  0.00    -0.507 OA
ATOM     25  H   UNL     1     -16.086  53.470   0.122  1.00  0.00     0.293 HD
ENDBRANCH   6  24
BRANCH   8  26
ATOM     26  O   UNL     1     -16.186  56.541  -3.821  1.00  0.00    -0.508 OA
ATOM     27  H   UNL     1     -16.019  56.223  -4.768  1.00  0.00     0.293 HD
ENDBRANCH   8  26
TORSDOF 6
ENDMDL
MODEL 9
REMARK VINA RESULT:    -6.330      2.563      2.637
REMARK INTER + INTRA:          -7.920
REMARK INTER:                  -7.735
REMARK INTRA:                  -0.185
REMARK UNBOUND:                -0.294
REMARK SMILES O=c1c(O)c(-c2ccc(O)c(O)c2)oc2cc(O)cc(O)c12
REMARK SMILES IDX 5 1 3 2 2 3 1 4 22 5 20 6 19 7 17 8 16 9 15 10 14 11 6 12
REMARK SMILES IDX 7 13 8 14 9 15 13 16 11 17 10 18 12 20 4 22 21 24 18 26
REMARK H PARENT 10 19 12 21 4 23 21 25 18 27
REMARK Flexibility Score: inf
ROOT
ATOM      1  C   UNL     1     -20.189  55.609  -0.347  1.00  0.00     0.180 A 
ATOM      2  C   UNL     1     -21.372  54.942  -0.711  1.00  0.00     0.208 A 
ATOM      3  C   UNL     1     -22.596  55.396  -0.194  1.00  0.00     0.238 A 
ATOM      4  O   UNL     1     -23.644  54.762  -0.480  1.00  0.00    -0.285 OA
ATOM      5  C   UNL     1     -22.624  56.522   0.664  1.00  0.00     0.111 A 
ATOM      6  C   UNL     1     -23.812  57.092   1.213  1.00  0.00     0.134 A 
ATOM      7  C   UNL     1     -23.711  58.124   2.155  1.00  0.00     0.093 A 
ATOM      8  C   UNL     1     -22.468  58.649   2.518  1.00  0.00     0.123 A 
ATOM      9  C   UNL     1     -21.307  58.138   1.942  1.00  0.00     0.094 A 
ATOM     10  C   UNL     1     -21.373  57.085   1.028  1.00  0.00     0.146 A 
ATOM     11  O   UNL     1     -20.242  56.620   0.512  1.00  0.00    -0.452 OA
ENDROOT
BRANCH   1  12
ATOM     12  C   UNL     1     -18.864  55.205  -0.870  1.00  0.00     0.025 A 
ATOM     13  C   UNL     1     -18.590  55.347  -2.240  1.00  0.00     0.016 A 
ATOM     14  C   UNL     1     -17.353  54.953  -2.759  1.00  0.00     0.051 A 
ATOM     15  C   UNL     1     -16.379  54.400  -1.922  1.00  0.00     0.157 A 
ATOM     16  C   UNL     1     -17.890  54.630  -0.035  1.00  0.00     0.062 A 
ATOM     17  C   UNL     1     -16.649  54.233  -0.553  1.00  0.00     0.158 A 
BRANCH  15  18
ATOM     18  O   UNL     1     -15.154  54.019  -2.467  1.00  0.00    -0.504 OA
ATOM     19  H   UNL     1     -14.373  53.732  -1.889  1.00  0.00     0.293 HD
ENDBRANCH  15  18
BRANCH  17  20
ATOM     20  O   UNL     1     -15.687  53.670   0.284  1.00  0.00    -0.504 OA
ATOM     21  H   UNL     1     -15.839  52.779   0.744  1.00  0.00     0.293 HD
ENDBRANCH  17  20
ENDBRANCH   1  12
BRANCH   2  22
ATOM     22  O   UNL     1     -21.318  53.820  -1.542  1.00  0.00    -0.502 OA
ATOM     23  H   UNL     1     -20.759  53.796  -2.387  1.00  0.00     0.293 HD
ENDBRANCH   2  22
BRANCH   6  24
ATOM     24  O   UNL     1     -25.105  56.704   0.848  1.00  0.00    -0.507 OA
ATOM     25  H   UNL     1     -25.819  56.407   1.495  1.00  0.00     0.293 HD
ENDBRANCH   6  24
BRANCH   8  26
ATOM     26  O   UNL     1     -22.378  59.686   3.444  1.00  0.00    -0.508 OA
ATOM     27  H   UNL     1     -22.409  59.509   4.441  1.00  0.00     0.293 HD
ENDBRANCH   8  26
TORSDOF 6
ENDMDL
