MODEL 1
REMARK VINA RESULT:    -7.638      0.000      0.000
REMARK INTER + INTRA:          -9.496
REMARK INTER:                  -9.201
REMARK INTRA:                  -0.296
REMARK UNBOUND:                -0.296
REMARK SMILES O=c1c(O)c(-c2ccc(O)c(O)c2)oc2cc(O)cc(O)c12
REMARK SMILES IDX 5 1 3 2 2 3 1 4 22 5 20 6 19 7 17 8 16 9 15 10 14 11 6 12
REMARK SMILES IDX 7 13 8 14 9 15 13 16 11 17 10 18 12 20 4 22 21 24 18 26
REMARK H PARENT 10 19 12 21 4 23 21 25 18 27
REMARK Flexibility Score: inf
ROOT
ATOM      1  C   UNL     1       4.924 -36.030  43.874  1.00  0.00     0.180 A 
ATOM      2  C   UNL     1       5.958 -36.948  44.130  1.00  0.00     0.208 A 
ATOM      3  C   UNL     1       7.138 -36.491  44.737  1.00  0.00     0.238 A 
ATOM      4  O   UNL     1       8.029 -37.331  45.031  1.00  0.00    -0.285 OA
ATOM      5  C   UNL     1       7.293 -35.115  45.031  1.00  0.00     0.111 A 
ATOM      6  C   UNL     1       8.465 -34.534  45.606  1.00  0.00     0.134 A 
ATOM      7  C   UNL     1       8.465 -33.176  45.951  1.00  0.00     0.093 A 
ATOM      8  C   UNL     1       7.359 -32.365  45.683  1.00  0.00     0.123 A 
ATOM      9  C   UNL     1       6.233 -32.911  45.073  1.00  0.00     0.094 A 
ATOM     10  C   UNL     1       6.188 -34.269  44.752  1.00  0.00     0.146 A 
ATOM     11  O   UNL     1       5.085 -34.751  44.191  1.00  0.00    -0.452 OA
ENDROOT
BRANCH   1  12
ATOM     12  C   UNL     1       3.645 -36.438  43.251  1.00  0.00     0.025 A 
ATOM     13  C   UNL     1       3.574 -36.591  41.858  1.00  0.00     0.016 A 
ATOM     14  C   UNL     1       2.372 -36.954  41.244  1.00  0.00     0.051 A 
ATOM     15  C   UNL     1       1.220 -37.156  42.014  1.00  0.00     0.157 A 
ATOM     16  C   UNL     1       2.480 -36.621  44.018  1.00  0.00     0.062 A 
ATOM     17  C   UNL     1       1.274 -36.983  43.407  1.00  0.00     0.158 A 
BRANCH  15  18
ATOM     18  O   UNL     1       0.023 -37.521  41.400  1.00  0.00    -0.504 OA
ATOM     19  H   UNL     1      -0.748 -36.869  41.310  1.00  0.00     0.293 HD
ENDBRANCH  15  18
BRANCH  17  20
ATOM     20  O   UNL     1       0.140 -37.162  44.200  1.00  0.00    -0.504 OA
ATOM     21  H   UNL     1       0.201 -37.430  45.174  1.00  0.00     0.293 HD
ENDBRANCH  17  20
ENDBRANCH   1  12
BRANCH   2  22
ATOM     22  O   UNL     1       5.816 -38.289  43.763  1.00  0.00    -0.502 OA
ATOM     23  H   UNL     1       4.928 -38.682  43.474  1.00  0.00     0.293 HD
ENDBRANCH   2  22
BRANCH   6  24
ATOM     24  O   UNL     1       9.655 -35.232  45.835  1.00  0.00    -0.507 OA
ATOM     25  H   UNL     1      10.512 -35.096  45.320  1.00  0.00     0.293 HD
ENDBRANCH   6  24
BRANCH   8  26
ATOM     26  O   UNL     1       7.374 -31.012  46.014  1.00  0.00    -0.508 OA
ATOM     27  H   UNL     1       7.223 -30.697  46.965  1.00  0.00     0.293 HD
ENDBRANCH   8  26
TORSDOF 6
ENDMDL
MODEL 2
REMARK VINA RESULT:    -7.314      1.618      7.360
REMARK INTER + INTRA:          -9.106
REMARK INTER:                  -8.775
REMARK INTRA:                  -0.331
REMARK UNBOUND:                -0.296
REMARK SMILES O=c1c(O)c(-c2ccc(O)c(O)c2)oc2cc(O)cc(O)c12
REMARK SMILES IDX 5 1 3 2 2 3 1 4 22 5 20 6 19 7 17 8 16 9 15 10 14 11 6 12
REMARK SMILES IDX 7 13 8 14 9 15 13 16 11 17 10 18 12 20 4 22 21 24 18 26
REMARK H PARENT 10 19 12 21 4 23 21 25 18 27
REMARK Flexibility Score: inf
ROOT
ATOM      1  C   UNL     1       3.636 -36.404  43.146  1.00  0.00     0.180 A 
ATOM      2  C   UNL     1       2.478 -36.712  43.881  1.00  0.00     0.208 A 
ATOM      3  C   UNL     1       1.304 -37.051  43.190  1.00  0.00     0.238 A 
ATOM      4  O   UNL     1       0.292 -37.398  43.854  1.00  0.00    -0.285 OA
ATOM      5  C   UNL     1       1.285 -37.023  41.774  1.00  0.00     0.111 A 
ATOM      6  C   UNL     1       0.139 -37.305  40.970  1.00  0.00     0.134 A 
ATOM      7  C   UNL     1       0.266 -37.350  39.577  1.00  0.00     0.093 A 
ATOM      8  C   UNL     1       1.484 -37.062  38.954  1.00  0.00     0.123 A 
ATOM      9  C   UNL     1       2.593 -36.733  39.727  1.00  0.00     0.094 A 
ATOM     10  C   UNL     1       2.508 -36.716  41.121  1.00  0.00     0.146 A 
ATOM     11  O   UNL     1       3.598 -36.418  41.819  1.00  0.00    -0.452 OA
ENDROOT
BRANCH   1  12
ATOM     12  C   UNL     1       4.915 -36.052  43.803  1.00  0.00     0.025 A 
ATOM     13  C   UNL     1       5.216 -34.704  44.050  1.00  0.00     0.016 A 
ATOM     14  C   UNL     1       6.426 -34.346  44.650  1.00  0.00     0.051 A 
ATOM     15  C   UNL     1       7.360 -35.330  44.997  1.00  0.00     0.157 A 
ATOM     16  C   UNL     1       5.865 -37.036  44.134  1.00  0.00     0.062 A 
ATOM     17  C   UNL     1       7.079 -36.680  44.732  1.00  0.00     0.158 A 
BRANCH  15  18
ATOM     18  O   UNL     1       8.566 -34.971  45.597  1.00  0.00    -0.504 OA
ATOM     19  H   UNL     1       8.675 -34.087  46.081  1.00  0.00     0.293 HD
ENDBRANCH  15  18
BRANCH  17  20
ATOM     20  O   UNL     1       7.995 -37.683  45.052  1.00  0.00    -0.504 OA
ATOM     21  H   UNL     1       7.880 -38.277  45.863  1.00  0.00     0.293 HD
ENDBRANCH  17  20
ENDBRANCH   1  12
BRANCH   2  22
ATOM     22  O   UNL     1       2.495 -36.659  45.277  1.00  0.00    -0.502 OA
ATOM     23  H   UNL     1       3.355 -36.674  45.811  1.00  0.00     0.293 HD
ENDBRANCH   2  22
BRANCH   6  24
ATOM     24  O   UNL     1      -1.144 -37.520  41.483  1.00  0.00    -0.507 OA
ATOM     25  H   UNL     1      -1.352 -38.044  42.321  1.00  0.00     0.293 HD
ENDBRANCH   6  24
BRANCH   8  26
ATOM     26  O   UNL     1       1.597 -37.093  37.566  1.00  0.00    -0.508 OA
ATOM     27  H   UNL     1       2.499 -37.046  37.107  1.00  0.00     0.293 HD
ENDBRANCH   8  26
TORSDOF 6
ENDMDL
MODEL 3
REMARK VINA RESULT:    -7.298      1.871      6.688
REMARK INTER + INTRA:          -9.087
REMARK INTER:                  -8.976
REMARK INTRA:                  -0.111
REMARK UNBOUND:                -0.296
REMARK SMILES O=c1c(O)c(-c2ccc(O)c(O)c2)oc2cc(O)cc(O)c12
REMARK SMILES IDX 5 1 3 2 2 3 1 4 22 5 20 6 19 7 17 8 16 9 15 10 14 11 6 12
REMARK SMILES IDX 7 13 8 14 9 15 13 16 11 17 10 18 12 20 4 22 21 24 18 26
REMARK H PARENT 10 19 12 21 4 23 21 25 18 27
REMARK Flexibility Score: inf
ROOT
ATOM      1  C   UNL     1       7.191 -34.089  44.840  1.00  0.00     0.180 A 
ATOM      2  C   UNL     1       7.986 -35.244  44.948  1.00  0.00     0.208 A 
ATOM      3  C   UNL     1       7.360 -36.500  44.979  1.00  0.00     0.238 A 
ATOM      4  O   UNL     1       8.081 -37.532  45.000  1.00  0.00    -0.285 OA
ATOM      5  C   UNL     1       5.947 -36.585  44.958  1.00  0.00     0.111 A 
ATOM      6  C   UNL     1       5.205 -37.803  45.029  1.00  0.00     0.134 A 
ATOM      7  C   UNL     1       3.811 -37.773  44.894  1.00  0.00     0.093 A 
ATOM      8  C   UNL     1       3.127 -36.562  44.752  1.00  0.00     0.123 A 
ATOM      9  C   UNL     1       3.838 -35.365  44.736  1.00  0.00     0.094 A 
ATOM     10  C   UNL     1       5.231 -35.365  44.832  1.00  0.00     0.146 A 
ATOM     11  O   UNL     1       5.869 -34.201  44.789  1.00  0.00    -0.452 OA
ENDROOT
BRANCH   1  12
ATOM     12  C   UNL     1       7.777 -32.731  44.787  1.00  0.00     0.025 A 
ATOM     13  C   UNL     1       8.657 -32.400  43.745  1.00  0.00     0.016 A 
ATOM     14  C   UNL     1       9.239 -31.130  43.686  1.00  0.00     0.051 A 
ATOM     15  C   UNL     1       8.962 -30.179  44.676  1.00  0.00     0.157 A 
ATOM     16  C   UNL     1       7.518 -31.780  45.791  1.00  0.00     0.062 A 
ATOM     17  C   UNL     1       8.102 -30.509  45.736  1.00  0.00     0.158 A 
BRANCH  15  18
ATOM     18  O   UNL     1       9.542 -28.914  44.613  1.00  0.00    -0.504 OA
ATOM     19  H   UNL     1      10.158 -28.575  45.344  1.00  0.00     0.293 HD
ENDBRANCH  15  18
BRANCH  17  20
ATOM     20  O   UNL     1       7.817 -29.589  46.746  1.00  0.00    -0.504 OA
ATOM     21  H   UNL     1       7.916 -28.591  46.608  1.00  0.00     0.293 HD
ENDBRANCH  17  20
ENDBRANCH   1  12
BRANCH   2  22
ATOM     22  O   UNL     1       9.376 -35.135  45.044  1.00  0.00    -0.502 OA
ATOM     23  H   UNL     1       9.867 -34.269  44.860  1.00  0.00     0.293 HD
ENDBRANCH   2  22
BRANCH   6  24
ATOM     24  O   UNL     1       5.778 -39.058  45.257  1.00  0.00    -0.507 OA
ATOM     25  H   UNL     1       5.659 -39.605  46.097  1.00  0.00     0.293 HD
ENDBRANCH   6  24
BRANCH   8  26
ATOM     26  O   UNL     1       1.740 -36.540  44.634  1.00  0.00    -0.508 OA
ATOM     27  H   UNL     1       1.248 -35.713  44.316  1.00  0.00     0.293 HD
ENDBRANCH   8  26
TORSDOF 6
ENDMDL
MODEL 4
REMARK VINA RESULT:    -6.785      1.593      2.588
REMARK INTER + INTRA:          -8.469
REMARK INTER:                  -8.147
REMARK INTRA:                  -0.322
REMARK UNBOUND:                -0.296
REMARK SMILES O=c1c(O)c(-c2ccc(O)c(O)c2)oc2cc(O)cc(O)c12
REMARK SMILES IDX 5 1 3 2 2 3 1 4 22 5 20 6 19 7 17 8 16 9 15 10 14 11 6 12
REMARK SMILES IDX 7 13 8 14 9 15 13 16 11 17 10 18 12 20 4 22 21 24 18 26
REMARK H PARENT 10 19 12 21 4 23 21 25 18 27
REMARK Flexibility Score: inf
ROOT
ATOM      1  C   UNL     1       3.369 -37.267  43.277  1.00  0.00     0.180 A 
ATOM      2  C   UNL     1       4.174 -38.357  43.653  1.00  0.00     0.208 A 
ATOM      3  C   UNL     1       5.445 -38.110  44.194  1.00  0.00     0.238 A 
ATOM      4  O   UNL     1       6.130 -39.087  44.597  1.00  0.00    -0.285 OA
ATOM      5  C   UNL     1       5.921 -36.781  44.300  1.00  0.00     0.111 A 
ATOM      6  C   UNL     1       7.211 -36.415  44.792  1.00  0.00     0.134 A 
ATOM      7  C   UNL     1       7.533 -35.062  44.950  1.00  0.00     0.093 A 
ATOM      8  C   UNL     1       6.634 -34.059  44.576  1.00  0.00     0.123 A 
ATOM      9  C   UNL     1       5.394 -34.405  44.046  1.00  0.00     0.094 A 
ATOM     10  C   UNL     1       5.030 -35.746  43.909  1.00  0.00     0.146 A 
ATOM     11  O   UNL     1       3.829 -36.030  43.419  1.00  0.00    -0.452 OA
ENDROOT
BRANCH   1  12
ATOM     12  C   UNL     1       2.013 -37.446  42.714  1.00  0.00     0.025 A 
ATOM     13  C   UNL     1       0.915 -37.556  43.581  1.00  0.00     0.016 A 
ATOM     14  C   UNL     1      -0.373 -37.747  43.073  1.00  0.00     0.051 A 
ATOM     15  C   UNL     1      -0.580 -37.845  41.692  1.00  0.00     0.157 A 
ATOM     16  C   UNL     1       1.803 -37.567  41.327  1.00  0.00     0.062 A 
ATOM     17  C   UNL     1       0.515 -37.760  40.816  1.00  0.00     0.158 A 
BRANCH  15  18
ATOM     18  O   UNL     1      -1.866 -38.033  41.188  1.00  0.00    -0.504 OA
ATOM     19  H   UNL     1      -2.267 -38.959  41.089  1.00  0.00     0.293 HD
ENDBRANCH  15  18
BRANCH  17  20
ATOM     20  O   UNL     1       0.344 -37.869  39.436  1.00  0.00    -0.504 OA
ATOM     21  H   UNL     1       1.122 -38.026  38.808  1.00  0.00     0.293 HD
ENDBRANCH  17  20
ENDBRANCH   1  12
BRANCH   2  22
ATOM     22  O   UNL     1       3.717 -39.665  43.469  1.00  0.00    -0.502 OA
ATOM     23  H   UNL     1       4.064 -40.263  42.730  1.00  0.00     0.293 HD
ENDBRANCH   2  22
BRANCH   6  24
ATOM     24  O   UNL     1       8.217 -37.333  45.111  1.00  0.00    -0.507 OA
ATOM     25  H   UNL     1       8.796 -37.292  45.936  1.00  0.00     0.293 HD
ENDBRANCH   6  24
BRANCH   8  26
ATOM     26  O   UNL     1       6.969 -32.715  44.723  1.00  0.00    -0.508 OA
ATOM     27  H   UNL     1       6.287 -31.979  44.575  1.00  0.00     0.293 HD
ENDBRANCH   8  26
TORSDOF 6
ENDMDL
MODEL 5
REMARK VINA RESULT:    -6.708      1.671      6.631
REMARK INTER + INTRA:          -8.377
REMARK INTER:                  -8.085
REMARK INTRA:                  -0.292
REMARK UNBOUND:                -0.296
REMARK SMILES O=c1c(O)c(-c2ccc(O)c(O)c2)oc2cc(O)cc(O)c12
REMARK SMILES IDX 5 1 3 2 2 3 1 4 22 5 20 6 19 7 17 8 16 9 15 10 14 11 6 12
REMARK SMILES IDX 7 13 8 14 9 15 13 16 11 17 10 18 12 20 4 22 21 24 18 26
REMARK H PARENT 10 19 12 21 4 23 21 25 18 27
REMARK Flexibility Score: inf
ROOT
ATOM      1  C   UNL     1       5.638 -35.463  43.614  1.00  0.00     0.180 A 
ATOM      2  C   UNL     1       6.174 -36.507  42.840  1.00  0.00     0.208 A 
ATOM      3  C   UNL     1       5.334 -37.558  42.439  1.00  0.00     0.238 A 
ATOM      4  O   UNL     1       5.802 -38.451  41.685  1.00  0.00    -0.285 OA
ATOM      5  C   UNL     1       3.983 -37.582  42.863  1.00  0.00     0.111 A 
ATOM      6  C   UNL     1       3.052 -38.621  42.554  1.00  0.00     0.134 A 
ATOM      7  C   UNL     1       1.712 -38.485  42.939  1.00  0.00     0.093 A 
ATOM      8  C   UNL     1       1.283 -37.378  43.676  1.00  0.00     0.123 A 
ATOM      9  C   UNL     1       2.194 -36.387  44.029  1.00  0.00     0.094 A 
ATOM     10  C   UNL     1       3.529 -36.475  43.628  1.00  0.00     0.146 A 
ATOM     11  O   UNL     1       4.359 -35.496  43.968  1.00  0.00    -0.452 OA
ENDROOT
BRANCH   1  12
ATOM     12  C   UNL     1       6.456 -34.314  44.062  1.00  0.00     0.025 A 
ATOM     13  C   UNL     1       6.732 -33.272  43.164  1.00  0.00     0.016 A 
ATOM     14  C   UNL     1       7.520 -32.187  43.558  1.00  0.00     0.051 A 
ATOM     15  C   UNL     1       8.055 -32.136  44.851  1.00  0.00     0.157 A 
ATOM     16  C   UNL     1       7.013 -34.269  45.353  1.00  0.00     0.062 A 
ATOM     17  C   UNL     1       7.805 -33.186  45.750  1.00  0.00     0.158 A 
BRANCH  15  18
ATOM     18  O   UNL     1       8.839 -31.051  45.242  1.00  0.00    -0.504 OA
ATOM     19  H   UNL     1       9.370 -31.064  46.105  1.00  0.00     0.293 HD
ENDBRANCH  15  18
BRANCH  17  20
ATOM     20  O   UNL     1       8.336 -33.171  47.040  1.00  0.00    -0.504 OA
ATOM     21  H   UNL     1       9.287 -32.881  47.227  1.00  0.00     0.293 HD
ENDBRANCH  17  20
ENDBRANCH   1  12
BRANCH   2  22
ATOM     22  O   UNL     1       7.528 -36.505  42.496  1.00  0.00    -0.502 OA
ATOM     23  H   UNL     1       8.258 -36.287  43.163  1.00  0.00     0.293 HD
ENDBRANCH   2  22
BRANCH   6  24
ATOM     24  O   UNL     1       3.392 -39.809  41.899  1.00  0.00    -0.507 OA
ATOM     25  H   UNL     1       3.861 -40.592  42.330  1.00  0.00     0.293 HD
ENDBRANCH   6  24
BRANCH   8  26
ATOM     26  O   UNL     1      -0.049 -37.260  44.068  1.00  0.00    -0.508 OA
ATOM     27  H   UNL     1      -0.305 -37.125  45.039  1.00  0.00     0.293 HD
ENDBRANCH   8  26
TORSDOF 6
ENDMDL
MODEL 6
REMARK VINA RESULT:    -6.690      2.298      6.781
REMARK INTER + INTRA:          -8.354
REMARK INTER:                  -8.023
REMARK INTRA:                  -0.331
REMARK UNBOUND:                -0.296
REMARK SMILES O=c1c(O)c(-c2ccc(O)c(O)c2)oc2cc(O)cc(O)c12
REMARK SMILES IDX 5 1 3 2 2 3 1 4 22 5 20 6 19 7 17 8 16 9 15 10 14 11 6 12
REMARK SMILES IDX 7 13 8 14 9 15 13 16 11 17 10 18 12 20 4 22 21 24 18 26
REMARK H PARENT 10 19 12 21 4 23 21 25 18 27
REMARK Flexibility Score: inf
ROOT
ATOM      1  C   UNL     1       6.091 -35.099  43.660  1.00  0.00     0.180 A 
ATOM      2  C   UNL     1       5.119 -35.084  42.645  1.00  0.00     0.208 A 
ATOM      3  C   UNL     1       4.421 -36.266  42.354  1.00  0.00     0.238 A 
ATOM      4  O   UNL     1       3.501 -36.228  41.496  1.00  0.00    -0.285 OA
ATOM      5  C   UNL     1       4.739 -37.462  43.043  1.00  0.00     0.111 A 
ATOM      6  C   UNL     1       4.126 -38.728  42.799  1.00  0.00     0.134 A 
ATOM      7  C   UNL     1       4.447 -39.820  43.615  1.00  0.00     0.093 A 
ATOM      8  C   UNL     1       5.406 -39.707  44.626  1.00  0.00     0.123 A 
ATOM      9  C   UNL     1       6.048 -38.490  44.836  1.00  0.00     0.094 A 
ATOM     10  C   UNL     1       5.724 -37.373  44.063  1.00  0.00     0.146 A 
ATOM     11  O   UNL     1       6.346 -36.227  44.312  1.00  0.00    -0.452 OA
ENDROOT
BRANCH   1  12
ATOM     12  C   UNL     1       6.859 -33.890  44.034  1.00  0.00     0.025 A 
ATOM     13  C   UNL     1       8.101 -33.646  43.428  1.00  0.00     0.016 A 
ATOM     14  C   UNL     1       8.853 -32.523  43.781  1.00  0.00     0.051 A 
ATOM     15  C   UNL     1       8.381 -31.634  44.755  1.00  0.00     0.157 A 
ATOM     16  C   UNL     1       6.398 -33.006  45.028  1.00  0.00     0.062 A 
ATOM     17  C   UNL     1       7.150 -31.881  45.384  1.00  0.00     0.158 A 
BRANCH  15  18
ATOM     18  O   UNL     1       9.133 -30.513  45.103  1.00  0.00    -0.504 OA
ATOM     19  H   UNL     1       8.699 -29.609  45.253  1.00  0.00     0.293 HD
ENDBRANCH  15  18
BRANCH  17  20
ATOM     20  O   UNL     1       6.660 -31.023  46.369  1.00  0.00    -0.504 OA
ATOM     21  H   UNL     1       6.952 -31.089  47.335  1.00  0.00     0.293 HD
ENDBRANCH  17  20
ENDBRANCH   1  12
BRANCH   2  22
ATOM     22  O   UNL     1       4.873 -33.913  41.924  1.00  0.00    -0.502 OA
ATOM     23  H   UNL     1       4.621 -33.041  42.373  1.00  0.00     0.293 HD
ENDBRANCH   2  22
BRANCH   6  24
ATOM     24  O   UNL     1       3.222 -38.975  41.761  1.00  0.00    -0.507 OA
ATOM     25  H   UNL     1       3.176 -39.829  41.226  1.00  0.00     0.293 HD
ENDBRANCH   6  24
BRANCH   8  26
ATOM     26  O   UNL     1       5.731 -40.803  45.422  1.00  0.00    -0.508 OA
ATOM     27  H   UNL     1       6.639 -41.249  45.366  1.00  0.00     0.293 HD
ENDBRANCH   8  26
TORSDOF 6
ENDMDL
MODEL 7
REMARK VINA RESULT:    -6.542      2.377      3.843
REMARK INTER + INTRA:          -8.177
REMARK INTER:                  -7.854
REMARK INTRA:                  -0.322
REMARK UNBOUND:                -0.296
REMARK SMILES O=c1c(O)c(-c2ccc(O)c(O)c2)oc2cc(O)cc(O)c12
REMARK SMILES IDX 5 1 3 2 2 3 1 4 22 5 20 6 19 7 17 8 16 9 15 10 14 11 6 12
REMARK SMILES IDX 7 13 8 14 9 15 13 16 11 17 10 18 12 20 4 22 21 24 18 26
REMARK H PARENT 10 19 12 21 4 23 21 25 18 27
REMARK Flexibility Score: inf
ROOT
ATOM      1  C   UNL     1       7.081 -34.590  43.738  1.00  0.00     0.180 A 
ATOM      2  C   UNL     1       8.048 -34.408  42.733  1.00  0.00     0.208 A 
ATOM      3  C   UNL     1       8.811 -33.231  42.728  1.00  0.00     0.238 A 
ATOM      4  O   UNL     1       9.725 -33.108  41.871  1.00  0.00    -0.285 OA
ATOM      5  C   UNL     1       8.562 -32.224  43.692  1.00  0.00     0.111 A 
ATOM      6  C   UNL     1       9.245 -30.971  43.755  1.00  0.00     0.134 A 
ATOM      7  C   UNL     1       8.987 -30.095  44.817  1.00  0.00     0.093 A 
ATOM      8  C   UNL     1       8.027 -30.400  45.785  1.00  0.00     0.123 A 
ATOM      9  C   UNL     1       7.318 -31.595  45.703  1.00  0.00     0.094 A 
ATOM     10  C   UNL     1       7.577 -32.506  44.676  1.00  0.00     0.146 A 
ATOM     11  O   UNL     1       6.892 -33.643  44.649  1.00  0.00    -0.452 OA
ENDROOT
BRANCH   1  12
ATOM     12  C   UNL     1       6.248 -35.810  43.819  1.00  0.00     0.025 A 
ATOM     13  C   UNL     1       4.939 -35.786  43.315  1.00  0.00     0.016 A 
ATOM     14  C   UNL     1       4.126 -36.920  43.399  1.00  0.00     0.051 A 
ATOM     15  C   UNL     1       4.606 -38.090  44.001  1.00  0.00     0.157 A 
ATOM     16  C   UNL     1       6.719 -36.981  44.442  1.00  0.00     0.062 A 
ATOM     17  C   UNL     1       5.907 -38.117  44.530  1.00  0.00     0.158 A 
BRANCH  15  18
ATOM     18  O   UNL     1       3.795 -39.220  44.082  1.00  0.00    -0.504 OA
ATOM     19  H   UNL     1       4.093 -40.054  44.576  1.00  0.00     0.293 HD
ENDBRANCH  15  18
BRANCH  17  20
ATOM     20  O   UNL     1       6.409 -39.262  45.150  1.00  0.00    -0.504 OA
ATOM     21  H   UNL     1       7.392 -39.504  45.118  1.00  0.00     0.293 HD
ENDBRANCH  17  20
ENDBRANCH   1  12
BRANCH   2  22
ATOM     22  O   UNL     1       8.226 -35.380  41.745  1.00  0.00    -0.502 OA
ATOM     23  H   UNL     1       8.953 -36.083  41.798  1.00  0.00     0.293 HD
ENDBRANCH   2  22
BRANCH   6  24
ATOM     24  O   UNL     1      10.158 -30.527  42.793  1.00  0.00    -0.507 OA
ATOM     25  H   UNL     1      10.776 -29.738  42.904  1.00  0.00     0.293 HD
ENDBRANCH   6  24
BRANCH   8  26
ATOM     26  O   UNL     1       7.766 -29.516  46.830  1.00  0.00    -0.508 OA
ATOM     27  H   UNL     1       6.819 -29.301  47.118  1.00  0.00     0.293 HD
ENDBRANCH   8  26
TORSDOF 6
ENDMDL
MODEL 8
REMARK VINA RESULT:    -6.502      1.996      7.463
REMARK INTER + INTRA:          -8.128
REMARK INTER:                  -7.842
REMARK INTRA:                  -0.286
REMARK UNBOUND:                -0.296
REMARK SMILES O=c1c(O)c(-c2ccc(O)c(O)c2)oc2cc(O)cc(O)c12
REMARK SMILES IDX 5 1 3 2 2 3 1 4 22 5 20 6 19 7 17 8 16 9 15 10 14 11 6 12
REMARK SMILES IDX 7 13 8 14 9 15 13 16 11 17 10 18 12 20 4 22 21 24 18 26
REMARK H PARENT 10 19 12 21 4 23 21 25 18 27
REMARK Flexibility Score: inf
ROOT
ATOM      1  C   UNL     1       4.001 -36.317  42.135  1.00  0.00     0.180 A 
ATOM      2  C   UNL     1       4.146 -36.129  40.749  1.00  0.00     0.208 A 
ATOM      3  C   UNL     1       3.070 -36.443  39.903  1.00  0.00     0.238 A 
ATOM      4  O   UNL     1       3.181 -36.203  38.672  1.00  0.00    -0.285 OA
ATOM      5  C   UNL     1       1.883 -36.992  40.446  1.00  0.00     0.111 A 
ATOM      6  C   UNL     1       0.746 -37.388  39.678  1.00  0.00     0.134 A 
ATOM      7  C   UNL     1      -0.414 -37.821  40.333  1.00  0.00     0.093 A 
ATOM      8  C   UNL     1      -0.457 -37.931  41.726  1.00  0.00     0.123 A 
ATOM      9  C   UNL     1       0.665 -37.598  42.479  1.00  0.00     0.094 A 
ATOM     10  C   UNL     1       1.825 -37.128  41.858  1.00  0.00     0.146 A 
ATOM     11  O   UNL     1       2.863 -36.802  42.618  1.00  0.00    -0.452 OA
ENDROOT
BRANCH   1  12
ATOM     12  C   UNL     1       5.083 -35.995  43.091  1.00  0.00     0.025 A 
ATOM     13  C   UNL     1       5.310 -34.659  43.453  1.00  0.00     0.016 A 
ATOM     14  C   UNL     1       6.340 -34.329  44.338  1.00  0.00     0.051 A 
ATOM     15  C   UNL     1       7.168 -35.330  44.863  1.00  0.00     0.157 A 
ATOM     16  C   UNL     1       5.930 -36.996  43.604  1.00  0.00     0.062 A 
ATOM     17  C   UNL     1       6.964 -36.668  44.488  1.00  0.00     0.158 A 
BRANCH  15  18
ATOM     18  O   UNL     1       8.193 -34.999  45.747  1.00  0.00    -0.504 OA
ATOM     19  H   UNL     1       7.999 -34.670  46.686  1.00  0.00     0.293 HD
ENDBRANCH  15  18
BRANCH  17  20
ATOM     20  O   UNL     1       7.780 -37.687  44.982  1.00  0.00    -0.504 OA
ATOM     21  H   UNL     1       8.136 -37.680  45.930  1.00  0.00     0.293 HD
ENDBRANCH  17  20
ENDBRANCH   1  12
BRANCH   2  22
ATOM     22  O   UNL     1       5.353 -35.659  40.226  1.00  0.00    -0.502 OA
ATOM     23  H   UNL     1       6.029 -36.269  39.784  1.00  0.00     0.293 HD
ENDBRANCH   2  22
BRANCH   6  24
ATOM     24  O   UNL     1       0.710 -37.402  38.280  1.00  0.00    -0.507 OA
ATOM     25  H   UNL     1       0.278 -36.694  37.705  1.00  0.00     0.293 HD
ENDBRANCH   6  24
BRANCH   8  26
ATOM     26  O   UNL     1      -1.609 -38.378  42.368  1.00  0.00    -0.508 OA
ATOM     27  H   UNL     1      -1.722 -39.347  42.640  1.00  0.00     0.293 HD
ENDBRANCH   8  26
TORSDOF 6
ENDMDL
MODEL 9
REMARK VINA RESULT:    -6.266      1.730      6.702
REMARK INTER + INTRA:          -7.844
REMARK INTER:                  -7.558
REMARK INTRA:                  -0.286
REMARK UNBOUND:                -0.296
REMARK SMILES O=c1c(O)c(-c2ccc(O)c(O)c2)oc2cc(O)cc(O)c12
REMARK SMILES IDX 5 1 3 2 2 3 1 4 22 5 20 6 19 7 17 8 16 9 15 10 14 11 6 12
REMARK SMILES IDX 7 13 8 14 9 15 13 16 11 17 10 18 12 20 4 22 21 24 18 26
REMARK H PARENT 10 19 12 21 4 23 21 25 18 27
REMARK Flexibility Score: inf
ROOT
ATOM      1  C   UNL     1       6.483 -35.027  44.294  1.00  0.00     0.180 A 
ATOM      2  C   UNL     1       7.047 -36.239  44.730  1.00  0.00     0.208 A 
ATOM      3  C   UNL     1       6.320 -37.427  44.562  1.00  0.00     0.238 A 
ATOM      4  O   UNL     1       6.861 -38.517  44.886  1.00  0.00    -0.285 OA
ATOM      5  C   UNL     1       5.015 -37.385  44.013  1.00  0.00     0.111 A 
ATOM      6  C   UNL     1       4.169 -38.522  43.838  1.00  0.00     0.134 A 
ATOM      7  C   UNL     1       2.939 -38.374  43.186  1.00  0.00     0.093 A 
ATOM      8  C   UNL     1       2.495 -37.119  42.759  1.00  0.00     0.123 A 
ATOM      9  C   UNL     1       3.289 -35.996  42.974  1.00  0.00     0.094 A 
ATOM     10  C   UNL     1       4.538 -36.116  43.588  1.00  0.00     0.146 A 
ATOM     11  O   UNL     1       5.271 -35.022  43.752  1.00  0.00    -0.452 OA
ENDROOT
BRANCH   1  12
ATOM     12  C   UNL     1       7.194 -33.735  44.423  1.00  0.00     0.025 A 
ATOM     13  C   UNL     1       6.778 -32.813  45.396  1.00  0.00     0.016 A 
ATOM     14  C   UNL     1       7.421 -31.579  45.522  1.00  0.00     0.051 A 
ATOM     15  C   UNL     1       8.479 -31.242  44.668  1.00  0.00     0.157 A 
ATOM     16  C   UNL     1       8.244 -33.385  43.554  1.00  0.00     0.062 A 
ATOM     17  C   UNL     1       8.887 -32.149  43.676  1.00  0.00     0.158 A 
BRANCH  15  18
ATOM     18  O   UNL     1       9.120 -30.011  44.798  1.00  0.00    -0.504 OA
ATOM     19  H   UNL     1      10.104 -29.947  45.033  1.00  0.00     0.293 HD
ENDBRANCH  15  18
BRANCH  17  20
ATOM     20  O   UNL     1       9.928 -31.838  42.800  1.00  0.00    -0.504 OA
ATOM     21  H   UNL     1      10.593 -32.533  42.486  1.00  0.00     0.293 HD
ENDBRANCH  17  20
ENDBRANCH   1  12
BRANCH   2  22
ATOM     22  O   UNL     1       8.305 -36.250  45.339  1.00  0.00    -0.502 OA
ATOM     23  H   UNL     1       8.455 -35.911  46.281  1.00  0.00     0.293 HD
ENDBRANCH   2  22
BRANCH   6  24
ATOM     24  O   UNL     1       4.474 -39.804  44.304  1.00  0.00    -0.507 OA
ATOM     25  H   UNL     1       4.318 -40.659  43.790  1.00  0.00     0.293 HD
ENDBRANCH   6  24
BRANCH   8  26
ATOM     26  O   UNL     1       1.262 -36.979  42.126  1.00  0.00    -0.508 OA
ATOM     27  H   UNL     1       1.074 -37.414  41.230  1.00  0.00     0.293 HD
ENDBRANCH   8  26
TORSDOF 6
ENDMDL
