MODEL 1
REMARK VINA RESULT:    -4.376      0.000      0.000
REMARK INTER + INTRA:          -5.356
REMARK INTER:                  -5.144
REMARK INTRA:                  -0.212
REMARK UNBOUND:                -0.212
REMARK SMILES [NH3+][C@H](CO)C(=O)[O-]
REMARK SMILES IDX 3 1 2 2 1 3 5 7 6 8 7 9 4 10
REMARK H PARENT 1 4 1 5 1 6 4 11
REMARK Flexibility Score: inf
ROOT
ATOM      1  C   UNL     1       1.940   0.142 -38.554  1.00  0.00     0.227 C 
ENDROOT
BRANCH   1   2
ATOM      2  C   UNL     1       2.323   1.451 -39.270  1.00  0.00     0.253 C 
BRANCH   2   3
ATOM      3  N   UNL     1       1.733   1.511 -40.613  1.00  0.00    -0.348 N 
ATOM      4  H   UNL     1       1.856   2.464 -41.029  1.00  0.00     0.345 HD
ATOM      5  H   UNL     1       0.713   1.288 -40.565  1.00  0.00     0.345 HD
ATOM      6  H   UNL     1       2.192   0.805 -41.233  1.00  0.00     0.345 HD
ENDBRANCH   2   3
BRANCH   2   7
ATOM      7  C   UNL     1       1.889   2.635 -38.450  1.00  0.00     0.102 C 
ATOM      8  O   UNL     1       0.855   2.572 -37.733  1.00  0.00    -0.544 OA
ATOM      9  O   UNL     1       2.641   3.803 -38.466  1.00  0.00    -0.544 OA
ENDBRANCH   2   7
ENDBRANCH   1   2
BRANCH   1  10
ATOM     10  O   UNL     1       2.598   0.038 -37.320  1.00  0.00    -0.390 OA
ATOM     11  H   UNL     1       3.571   0.043 -37.516  1.00  0.00     0.210 HD
ENDBRANCH   1  10
TORSDOF 4
ENDMDL
MODEL 2
REMARK VINA RESULT:    -4.371      1.111      2.801
REMARK INTER + INTRA:          -5.349
REMARK INTER:                  -5.203
REMARK INTRA:                  -0.146
REMARK UNBOUND:                -0.212
REMARK SMILES [NH3+][C@H](CO)C(=O)[O-]
REMARK SMILES IDX 3 1 2 2 1 3 5 7 6 8 7 9 4 10
REMARK H PARENT 1 4 1 5 1 6 4 11
REMARK Flexibility Score: inf
ROOT
ATOM      1  C   UNL     1       2.977   3.062 -39.120  1.00  0.00     0.227 C 
ENDROOT
BRANCH   1   2
ATOM      2  C   UNL     1       1.865   2.009 -39.283  1.00  0.00     0.253 C 
BRANCH   2   3
ATOM      3  N   UNL     1       1.834   1.479 -40.651  1.00  0.00    -0.348 N 
ATOM      4  H   UNL     1       0.979   1.809 -41.158  1.00  0.00     0.345 HD
ATOM      5  H   UNL     1       1.837   0.434 -40.629  1.00  0.00     0.345 HD
ATOM      6  H   UNL     1       2.684   1.795 -41.173  1.00  0.00     0.345 HD
ENDBRANCH   2   3
BRANCH   2   7
ATOM      7  C   UNL     1       2.057   0.895 -38.290  1.00  0.00     0.102 C 
ATOM      8  O   UNL     1       2.441   1.144 -37.116  1.00  0.00    -0.544 OA
ATOM      9  O   UNL     1       1.794  -0.417 -38.660  1.00  0.00    -0.544 OA
ENDBRANCH   2   7
ENDBRANCH   1   2
BRANCH   1  10
ATOM     10  O   UNL     1       2.532   4.142 -38.345  1.00  0.00    -0.390 OA
ATOM     11  H   UNL     1       1.579   4.290 -38.586  1.00  0.00     0.210 HD
ENDBRANCH   1  10
TORSDOF 4
ENDMDL
MODEL 3
REMARK VINA RESULT:    -4.353      1.966      2.954
REMARK INTER + INTRA:          -5.329
REMARK INTER:                  -5.084
REMARK INTRA:                  -0.245
REMARK UNBOUND:                -0.212
REMARK SMILES [NH3+][C@H](CO)C(=O)[O-]
REMARK SMILES IDX 3 1 2 2 1 3 5 7 6 8 7 9 4 10
REMARK H PARENT 1 4 1 5 1 6 4 11
REMARK Flexibility Score: inf
ROOT
ATOM      1  C   UNL     1       2.624   3.684 -38.381  1.00  0.00     0.227 C 
ENDROOT
BRANCH   1   2
ATOM      2  C   UNL     1       1.819   2.470 -37.882  1.00  0.00     0.253 C 
BRANCH   2   3
ATOM      3  N   UNL     1       0.426   2.839 -37.598  1.00  0.00    -0.348 N 
ATOM      4  H   UNL     1      -0.232   2.304 -38.211  1.00  0.00     0.345 HD
ATOM      5  H   UNL     1       0.289   3.863 -37.760  1.00  0.00     0.345 HD
ATOM      6  H   UNL     1       0.203   2.636 -36.597  1.00  0.00     0.345 HD
ENDBRANCH   2   3
BRANCH   2   7
ATOM      7  C   UNL     1       1.873   1.360 -38.897  1.00  0.00     0.102 C 
ATOM      8  O   UNL     1       1.904   0.156 -38.527  1.00  0.00    -0.544 OA
ATOM      9  O   UNL     1       1.871   1.660 -40.253  1.00  0.00    -0.544 OA
ENDBRANCH   2   7
ENDBRANCH   1   2
BRANCH   1  10
ATOM     10  O   UNL     1       3.908   3.295 -38.790  1.00  0.00    -0.390 OA
ATOM     11  H   UNL     1       4.487   4.098 -38.706  1.00  0.00     0.210 HD
ENDBRANCH   1  10
TORSDOF 4
ENDMDL
MODEL 4
REMARK VINA RESULT:    -4.279      1.997      2.239
REMARK INTER + INTRA:          -5.242
REMARK INTER:                  -5.208
REMARK INTRA:                  -0.034
REMARK UNBOUND:                -0.212
REMARK SMILES [NH3+][C@H](CO)C(=O)[O-]
REMARK SMILES IDX 3 1 2 2 1 3 5 7 6 8 7 9 4 10
REMARK H PARENT 1 4 1 5 1 6 4 11
REMARK Flexibility Score: inf
ROOT
ATOM      1  C   UNL     1       2.406   0.842 -37.513  1.00  0.00     0.227 C 
ENDROOT
BRANCH   1   2
ATOM      2  C   UNL     1       1.387   1.631 -38.356  1.00  0.00     0.253 C 
BRANCH   2   3
ATOM      3  N   UNL     1       0.720   2.662 -37.551  1.00  0.00    -0.348 N 
ATOM      4  H   UNL     1       0.873   2.492 -36.529  1.00  0.00     0.345 HD
ATOM      5  H   UNL     1      -0.307   2.661 -37.749  1.00  0.00     0.345 HD
ATOM      6  H   UNL     1       1.097   3.605 -37.802  1.00  0.00     0.345 HD
ENDBRANCH   2   3
BRANCH   2   7
ATOM      7  C   UNL     1       2.068   2.249 -39.546  1.00  0.00     0.102 C 
ATOM      8  O   UNL     1       2.978   3.106 -39.388  1.00  0.00    -0.544 OA
ATOM      9  O   UNL     1       1.706   1.864 -40.830  1.00  0.00    -0.544 OA
ENDBRANCH   2   7
ENDBRANCH   1   2
BRANCH   1  10
ATOM     10  O   UNL     1       2.498  -0.485 -37.955  1.00  0.00    -0.390 OA
ATOM     11  H   UNL     1       2.645  -1.043 -37.147  1.00  0.00     0.210 HD
ENDBRANCH   1  10
TORSDOF 4
ENDMDL
MODEL 5
REMARK VINA RESULT:    -4.221      1.967      2.538
REMARK INTER + INTRA:          -5.174
REMARK INTER:                  -4.807
REMARK INTRA:                  -0.367
REMARK UNBOUND:                -0.212
REMARK SMILES [NH3+][C@H](CO)C(=O)[O-]
REMARK SMILES IDX 3 1 2 2 1 3 5 7 6 8 7 9 4 10
REMARK H PARENT 1 4 1 5 1 6 4 11
REMARK Flexibility Score: inf
ROOT
ATOM      1  C   UNL     1       2.336   2.339 -40.178  1.00  0.00     0.227 C 
ENDROOT
BRANCH   1   2
ATOM      2  C   UNL     1       2.720   2.711 -38.734  1.00  0.00     0.253 C 
BRANCH   2   3
ATOM      3  N   UNL     1       2.670   4.164 -38.530  1.00  0.00    -0.348 N 
ATOM      4  H   UNL     1       1.685   4.483 -38.375  1.00  0.00     0.345 HD
ATOM      5  H   UNL     1       3.061   4.655 -39.365  1.00  0.00     0.345 HD
ATOM      6  H   UNL     1       3.249   4.425 -37.699  1.00  0.00     0.345 HD
ENDBRANCH   2   3
BRANCH   2   7
ATOM      7  C   UNL     1       1.812   2.011 -37.760  1.00  0.00     0.102 C 
ATOM      8  O   UNL     1       2.214   0.999 -37.125  1.00  0.00    -0.544 OA
ATOM      9  O   UNL     1       0.527   2.489 -37.542  1.00  0.00    -0.544 OA
ENDBRANCH   2   7
ENDBRANCH   1   2
BRANCH   1  10
ATOM     10  O   UNL     1       1.590   1.152 -40.205  1.00  0.00    -0.390 OA
ATOM     11  H   UNL     1       1.004   1.205 -41.005  1.00  0.00     0.210 HD
ENDBRANCH   1  10
TORSDOF 4
ENDMDL
MODEL 6
REMARK VINA RESULT:    -4.219      1.102      2.457
REMARK INTER + INTRA:          -5.171
REMARK INTER:                  -5.120
REMARK INTRA:                  -0.052
REMARK UNBOUND:                -0.212
REMARK SMILES [NH3+][C@H](CO)C(=O)[O-]
REMARK SMILES IDX 3 1 2 2 1 3 5 7 6 8 7 9 4 10
REMARK H PARENT 1 4 1 5 1 6 4 11
REMARK Flexibility Score: inf
ROOT
ATOM      1  C   UNL     1       3.319   2.896 -38.984  1.00  0.00     0.227 C 
ENDROOT
BRANCH   1   2
ATOM      2  C   UNL     1       1.914   2.449 -39.427  1.00  0.00     0.253 C 
BRANCH   2   3
ATOM      3  N   UNL     1       1.986   1.534 -40.573  1.00  0.00    -0.348 N 
ATOM      4  H   UNL     1       1.204   0.839 -40.542  1.00  0.00     0.345 HD
ATOM      5  H   UNL     1       2.898   1.024 -40.565  1.00  0.00     0.345 HD
ATOM      6  H   UNL     1       1.926   2.078 -41.465  1.00  0.00     0.345 HD
ENDBRANCH   2   3
BRANCH   2   7
ATOM      7  C   UNL     1       1.191   1.800 -38.279  1.00  0.00     0.102 C 
ATOM      8  O   UNL     1       1.508   0.642 -37.897  1.00  0.00    -0.544 OA
ATOM      9  O   UNL     1       0.178   2.484 -37.621  1.00  0.00    -0.544 OA
ENDBRANCH   2   7
ENDBRANCH   1   2
BRANCH   1  10
ATOM     10  O   UNL     1       3.250   4.062 -38.208  1.00  0.00    -0.390 OA
ATOM     11  H   UNL     1       2.286   4.252 -38.068  1.00  0.00     0.210 HD
ENDBRANCH   1  10
TORSDOF 4
ENDMDL
MODEL 7
REMARK VINA RESULT:    -4.167      1.827      1.828
REMARK INTER + INTRA:          -5.111
REMARK INTER:                  -4.730
REMARK INTRA:                  -0.380
REMARK UNBOUND:                -0.212
REMARK SMILES [NH3+][C@H](CO)C(=O)[O-]
REMARK SMILES IDX 3 1 2 2 1 3 5 7 6 8 7 9 4 10
REMARK H PARENT 1 4 1 5 1 6 4 11
REMARK Flexibility Score: inf
ROOT
ATOM      1  C   UNL     1       2.715   0.401 -37.813  1.00  0.00     0.227 C 
ENDROOT
BRANCH   1   2
ATOM      2  C   UNL     1       2.479   1.915 -37.967  1.00  0.00     0.253 C 
BRANCH   2   3
ATOM      3  N   UNL     1       3.639   2.573 -38.580  1.00  0.00    -0.348 N 
ATOM      4  H   UNL     1       3.775   2.243 -39.565  1.00  0.00     0.345 HD
ATOM      5  H   UNL     1       4.501   2.364 -38.027  1.00  0.00     0.345 HD
ATOM      6  H   UNL     1       3.498   3.609 -38.583  1.00  0.00     0.345 HD
ENDBRANCH   2   3
BRANCH   2   7
ATOM      7  C   UNL     1       1.239   2.165 -38.783  1.00  0.00     0.102 C 
ATOM      8  O   UNL     1       0.142   2.416 -38.218  1.00  0.00    -0.544 OA
ATOM      9  O   UNL     1       1.305   2.137 -40.170  1.00  0.00    -0.544 OA
ENDBRANCH   2   7
ENDBRANCH   1   2
BRANCH   1  10
ATOM     10  O   UNL     1       1.783  -0.328 -38.564  1.00  0.00    -0.390 OA
ATOM     11  H   UNL     1       1.081   0.315 -38.847  1.00  0.00     0.210 HD
ENDBRANCH   1  10
TORSDOF 4
ENDMDL
MODEL 8
REMARK VINA RESULT:    -4.083      1.891      2.412
REMARK INTER + INTRA:          -5.012
REMARK INTER:                  -4.798
REMARK INTRA:                  -0.214
REMARK UNBOUND:                -0.212
REMARK SMILES [NH3+][C@H](CO)C(=O)[O-]
REMARK SMILES IDX 3 1 2 2 1 3 5 7 6 8 7 9 4 10
REMARK H PARENT 1 4 1 5 1 6 4 11
REMARK Flexibility Score: inf
ROOT
ATOM      1  C   UNL     1       0.304   1.842 -37.839  1.00  0.00     0.227 C 
ENDROOT
BRANCH   1   2
ATOM      2  C   UNL     1       1.720   1.353 -38.197  1.00  0.00     0.253 C 
BRANCH   2   3
ATOM      3  N   UNL     1       1.708  -0.062 -38.588  1.00  0.00    -0.348 N 
ATOM      4  H   UNL     1       1.898  -0.677 -37.762  1.00  0.00     0.345 HD
ATOM      5  H   UNL     1       2.436  -0.236 -39.318  1.00  0.00     0.345 HD
ATOM      6  H   UNL     1       0.776  -0.310 -38.993  1.00  0.00     0.345 HD
ENDBRANCH   2   3
BRANCH   2   7
ATOM      7  C   UNL     1       2.297   2.200 -39.298  1.00  0.00     0.102 C 
ATOM      8  O   UNL     1       2.081   1.912 -40.506  1.00  0.00    -0.544 OA
ATOM      9  O   UNL     1       3.060   3.318 -38.987  1.00  0.00    -0.544 OA
ENDBRANCH   2   7
ENDBRANCH   1   2
BRANCH   1  10
ATOM     10  O   UNL     1       0.322   3.194 -37.468  1.00  0.00    -0.390 OA
ATOM     11  H   UNL     1      -0.049   3.240 -36.548  1.00  0.00     0.210 HD
ENDBRANCH   1  10
TORSDOF 4
ENDMDL
MODEL 9
REMARK VINA RESULT:    -3.811      2.228      2.866
REMARK INTER + INTRA:          -4.692
REMARK INTER:                  -4.481
REMARK INTRA:                  -0.211
REMARK UNBOUND:                -0.212
REMARK SMILES [NH3+][C@H](CO)C(=O)[O-]
REMARK SMILES IDX 3 1 2 2 1 3 5 7 6 8 7 9 4 10
REMARK H PARENT 1 4 1 5 1 6 4 11
REMARK Flexibility Score: inf
ROOT
ATOM      1  C   UNL     1       1.249   2.196 -40.029  1.00  0.00     0.227 C 
ENDROOT
BRANCH   1   2
ATOM      2  C   UNL     1       1.748   2.257 -38.573  1.00  0.00     0.253 C 
BRANCH   2   3
ATOM      3  N   UNL     1       0.709   2.781 -37.679  1.00  0.00    -0.348 N 
ATOM      4  H   UNL     1      -0.164   3.002 -38.213  1.00  0.00     0.345 HD
ATOM      5  H   UNL     1       1.049   3.649 -37.206  1.00  0.00     0.345 HD
ATOM      6  H   UNL     1       0.489   2.075 -36.939  1.00  0.00     0.345 HD
ENDBRANCH   2   3
BRANCH   2   7
ATOM      7  C   UNL     1       2.195   0.893 -38.121  1.00  0.00     0.102 C 
ATOM      8  O   UNL     1       1.699  -0.145 -38.636  1.00  0.00    -0.544 OA
ATOM      9  O   UNL     1       3.171   0.772 -37.142  1.00  0.00    -0.544 OA
ENDBRANCH   2   7
ENDBRANCH   1   2
BRANCH   1  10
ATOM     10  O   UNL     1       2.130   1.454 -40.828  1.00  0.00    -0.390 OA
ATOM     11  H   UNL     1       1.861   1.614 -41.770  1.00  0.00     0.210 HD
ENDBRANCH   1  10
TORSDOF 4
ENDMDL
