MODEL 1
REMARK VINA RESULT:    -6.276      0.000      0.000
REMARK INTER + INTRA:         -10.532
REMARK INTER:                  -9.578
REMARK INTRA:                  -0.955
REMARK UNBOUND:                -0.955
REMARK SMILES CC(=O)CCC=C(C)CCC=C(C)CCC=C(C)C
REMARK SMILES IDX 10 1 11 2 12 3 13 4 14 5 15 6 16 7 18 8 17 9 19 10 9 11 7 12
REMARK SMILES IDX 6 13 8 14 5 15 4 16 2 17 3 18 1 19
REMARK H PARENT
REMARK Flexibility Score: inf
ROOT
ATOM      1  C   UNL     1      -8.459   2.361 -18.393  1.00  0.00     0.032 C 
ENDROOT
BRANCH   1   2
ATOM      2  C   UNL     1      -9.189   1.518 -19.413  1.00  0.00    -0.028 C 
ATOM      3  C   UNL     1     -10.444   1.037 -19.264  1.00  0.00    -0.077 C 
ATOM      4  C   UNL     1     -11.231   1.229 -17.991  1.00  0.00     0.039 C 
BRANCH   3   5
ATOM      5  C   UNL     1     -11.070   0.243 -20.392  1.00  0.00     0.034 C 
BRANCH   5   6
ATOM      6  C   UNL     1     -12.477  -0.250 -20.026  1.00  0.00     0.032 C 
BRANCH   6   7
ATOM      7  C   UNL     1     -12.920  -1.398 -20.902  1.00  0.00    -0.028 C 
ATOM      8  C   UNL     1     -14.434  -3.119 -21.788  1.00  0.00     0.039 C 
ATOM      9  C   UNL     1     -14.116  -2.020 -20.807  1.00  0.00    -0.080 C 
ATOM     10  C   UNL     1     -15.124  -1.659 -19.741  1.00  0.00     0.039 C 
ENDBRANCH   6   7
ENDBRANCH   5   6
ENDBRANCH   3   5
ENDBRANCH   1   2
BRANCH   1  11
ATOM     11  C   UNL     1      -8.459   3.839 -18.797  1.00  0.00     0.034 C 
BRANCH  11  12
ATOM     12  C   UNL     1      -9.866   4.393 -18.896  1.00  0.00    -0.077 C 
ATOM     13  C   UNL     1     -10.360   4.715 -20.113  1.00  0.00    -0.028 C 
ATOM     14  C   UNL     1     -10.660   4.605 -17.629  1.00  0.00     0.039 C 
BRANCH  13  15
ATOM     15  C   UNL     1     -11.744   5.265 -20.358  1.00  0.00     0.035 C 
BRANCH  15  16
ATOM     16  C   UNL     1     -12.305   4.838 -21.720  1.00  0.00     0.079 C 
BRANCH  16  17
ATOM     17  C   UNL     1     -12.935   5.996 -22.452  1.00  0.00     0.130 C 
ATOM     18  O   UNL     1     -12.242   6.712 -23.159  1.00  0.00    -0.300 OA
ATOM     19  C   UNL     1     -14.403   6.283 -22.343  1.00  0.00     0.087 C 
ENDBRANCH  16  17
ENDBRANCH  15  16
ENDBRANCH  13  15
ENDBRANCH  11  12
ENDBRANCH   1  11
TORSDOF 9
ENDMDL
MODEL 2
REMARK VINA RESULT:    -5.953      0.917      1.404
REMARK INTER + INTRA:         -10.040
REMARK INTER:                  -8.829
REMARK INTRA:                  -1.211
REMARK UNBOUND:                -0.955
REMARK SMILES CC(=O)CCC=C(C)CCC=C(C)CCC=C(C)C
REMARK SMILES IDX 10 1 11 2 12 3 13 4 14 5 15 6 16 7 18 8 17 9 19 10 9 11 7 12
REMARK SMILES IDX 6 13 8 14 5 15 4 16 2 17 3 18 1 19
REMARK H PARENT
REMARK Flexibility Score: inf
ROOT
ATOM      1  C   UNL     1      -9.477   2.927 -17.183  1.00  0.00     0.032 C 
ENDROOT
BRANCH   1   2
ATOM      2  C   UNL     1     -10.647   2.015 -17.475  1.00  0.00    -0.028 C 
ATOM      3  C   UNL     1     -10.698   1.122 -18.490  1.00  0.00    -0.077 C 
ATOM      4  C   UNL     1      -9.593   1.003 -19.511  1.00  0.00     0.039 C 
BRANCH   3   5
ATOM      5  C   UNL     1     -11.920   0.239 -18.636  1.00  0.00     0.034 C 
BRANCH   5   6
ATOM      6  C   UNL     1     -12.610   0.445 -19.992  1.00  0.00     0.032 C 
BRANCH   6   7
ATOM      7  C   UNL     1     -12.857  -0.863 -20.706  1.00  0.00    -0.028 C 
ATOM      8  C   UNL     1     -14.084  -2.886 -21.369  1.00  0.00     0.039 C 
ATOM      9  C   UNL     1     -13.958  -1.630 -20.547  1.00  0.00    -0.080 C 
ATOM     10  C   UNL     1     -15.046  -1.274 -19.560  1.00  0.00     0.039 C 
ENDBRANCH   6   7
ENDBRANCH   5   6
ENDBRANCH   3   5
ENDBRANCH   1   2
BRANCH   1  11
ATOM     11  C   UNL     1      -9.839   4.392 -17.453  1.00  0.00     0.034 C 
BRANCH  11  12
ATOM     12  C   UNL     1     -10.098   4.643 -18.924  1.00  0.00    -0.077 C 
ATOM     13  C   UNL     1     -11.376   4.732 -19.360  1.00  0.00    -0.028 C 
ATOM     14  C   UNL     1      -8.923   4.748 -19.867  1.00  0.00     0.039 C 
BRANCH  13  15
ATOM     15  C   UNL     1     -11.776   4.988 -20.792  1.00  0.00     0.035 C 
BRANCH  15  16
ATOM     16  C   UNL     1     -12.834   6.093 -20.909  1.00  0.00     0.079 C 
BRANCH  16  17
ATOM     17  C   UNL     1     -13.348   6.227 -22.321  1.00  0.00     0.130 C 
ATOM     18  O   UNL     1     -12.600   6.626 -23.200  1.00  0.00    -0.300 OA
ATOM     19  C   UNL     1     -14.760   5.867 -22.674  1.00  0.00     0.087 C 
ENDBRANCH  16  17
ENDBRANCH  15  16
ENDBRANCH  13  15
ENDBRANCH  11  12
ENDBRANCH   1  11
TORSDOF 9
ENDMDL
MODEL 3
REMARK VINA RESULT:    -5.783      2.440      5.840
REMARK INTER + INTRA:          -9.780
REMARK INTER:                  -8.435
REMARK INTRA:                  -1.345
REMARK UNBOUND:                -0.955
REMARK SMILES CC(=O)CCC=C(C)CCC=C(C)CCC=C(C)C
REMARK SMILES IDX 10 1 11 2 12 3 13 4 14 5 15 6 16 7 18 8 17 9 19 10 9 11 7 12
REMARK SMILES IDX 6 13 8 14 5 15 4 16 2 17 3 18 1 19
REMARK H PARENT
REMARK Flexibility Score: inf
ROOT
ATOM      1  C   UNL     1      -9.110   3.584 -16.671  1.00  0.00     0.032 C 
ENDROOT
BRANCH   1   2
ATOM      2  C   UNL     1     -10.007   4.560 -17.396  1.00  0.00    -0.028 C 
ATOM      3  C   UNL     1     -11.314   4.351 -17.675  1.00  0.00    -0.077 C 
ATOM      4  C   UNL     1     -12.004   3.048 -17.354  1.00  0.00     0.039 C 
BRANCH   3   5
ATOM      5  C   UNL     1     -12.105   5.440 -18.369  1.00  0.00     0.034 C 
BRANCH   5   6
ATOM      6  C   UNL     1     -11.995   5.335 -19.897  1.00  0.00     0.032 C 
BRANCH   6   7
ATOM      7  C   UNL     1     -13.186   5.948 -20.594  1.00  0.00    -0.028 C 
ATOM      8  C   UNL     1     -14.614   6.609 -22.481  1.00  0.00     0.039 C 
ATOM      9  C   UNL     1     -13.344   6.011 -21.934  1.00  0.00    -0.080 C 
ATOM     10  C   UNL     1     -12.280   5.520 -22.890  1.00  0.00     0.039 C 
ENDBRANCH   6   7
ENDBRANCH   5   6
ENDBRANCH   3   5
ENDBRANCH   1   2
BRANCH   1  11
ATOM     11  C   UNL     1      -8.008   3.056 -17.596  1.00  0.00     0.034 C 
BRANCH  11  12
ATOM     12  C   UNL     1      -8.575   2.528 -18.898  1.00  0.00    -0.077 C 
ATOM     13  C   UNL     1      -9.156   1.306 -18.912  1.00  0.00    -0.028 C 
ATOM     14  C   UNL     1      -8.439   3.364 -20.149  1.00  0.00     0.039 C 
BRANCH  13  15
ATOM     15  C   UNL     1      -9.769   0.664 -20.134  1.00  0.00     0.035 C 
BRANCH  15  16
ATOM     16  C   UNL     1     -11.288   0.866 -20.194  1.00  0.00     0.079 C 
BRANCH  16  17
ATOM     17  C   UNL     1     -12.028  -0.252 -19.503  1.00  0.00     0.130 C 
ATOM     18  O   UNL     1     -11.578  -0.725 -18.471  1.00  0.00    -0.300 OA
ATOM     19  C   UNL     1     -13.317  -0.789 -20.050  1.00  0.00     0.087 C 
ENDBRANCH  16  17
ENDBRANCH  15  16
ENDBRANCH  13  15
ENDBRANCH  11  12
ENDBRANCH   1  11
TORSDOF 9
ENDMDL
MODEL 4
REMARK VINA RESULT:    -5.479      2.787      6.634
REMARK INTER + INTRA:          -9.316
REMARK INTER:                  -8.636
REMARK INTRA:                  -0.680
REMARK UNBOUND:                -0.955
REMARK SMILES CC(=O)CCC=C(C)CCC=C(C)CCC=C(C)C
REMARK SMILES IDX 10 1 11 2 12 3 13 4 14 5 15 6 16 7 18 8 17 9 19 10 9 11 7 12
REMARK SMILES IDX 6 13 8 14 5 15 4 16 2 17 3 18 1 19
REMARK H PARENT
REMARK Flexibility Score: inf
ROOT
ATOM      1  C   UNL     1      -9.476   1.139 -19.394  1.00  0.00     0.032 C 
ENDROOT
BRANCH   1   2
ATOM      2  C   UNL     1      -9.926   2.578 -19.496  1.00  0.00    -0.028 C 
ATOM      3  C   UNL     1      -9.705   3.527 -18.557  1.00  0.00    -0.077 C 
ATOM      4  C   UNL     1      -9.041   3.212 -17.239  1.00  0.00     0.039 C 
BRANCH   3   5
ATOM      5  C   UNL     1     -10.174   4.944 -18.813  1.00  0.00     0.034 C 
BRANCH   5   6
ATOM      6  C   UNL     1     -11.637   4.982 -19.277  1.00  0.00     0.032 C 
BRANCH   6   7
ATOM      7  C   UNL     1     -11.757   4.926 -20.781  1.00  0.00    -0.028 C 
ATOM      8  C   UNL     1     -12.487   5.616 -23.023  1.00  0.00     0.039 C 
ATOM      9  C   UNL     1     -12.510   5.766 -21.524  1.00  0.00    -0.080 C 
ATOM     10  C   UNL     1     -13.382   6.828 -20.896  1.00  0.00     0.039 C 
ENDBRANCH   6   7
ENDBRANCH   5   6
ENDBRANCH   3   5
ENDBRANCH   1   2
BRANCH   1  11
ATOM     11  C   UNL     1     -10.360   0.224 -20.248  1.00  0.00     0.034 C 
BRANCH  11  12
ATOM     12  C   UNL     1     -11.645  -0.140 -19.533  1.00  0.00    -0.077 C 
ATOM     13  C   UNL     1     -12.674  -0.649 -20.251  1.00  0.00    -0.028 C 
ATOM     14  C   UNL     1     -11.754   0.113 -18.048  1.00  0.00     0.039 C 
BRANCH  13  15
ATOM     15  C   UNL     1     -14.003  -1.061 -19.667  1.00  0.00     0.035 C 
BRANCH  15  16
ATOM     16  C   UNL     1     -15.000  -1.499 -20.749  1.00  0.00     0.079 C 
BRANCH  16  17
ATOM     17  C   UNL     1     -14.811  -2.946 -21.129  1.00  0.00     0.130 C 
ATOM     18  O   UNL     1     -15.074  -3.821 -20.319  1.00  0.00    -0.300 OA
ATOM     19  C   UNL     1     -14.320  -3.337 -22.491  1.00  0.00     0.087 C 
ENDBRANCH  16  17
ENDBRANCH  15  16
ENDBRANCH  13  15
ENDBRANCH  11  12
ENDBRANCH   1  11
TORSDOF 9
ENDMDL
MODEL 5
REMARK VINA RESULT:    -5.409      1.534      2.734
REMARK INTER + INTRA:          -9.209
REMARK INTER:                  -7.449
REMARK INTRA:                  -1.760
REMARK UNBOUND:                -0.955
REMARK SMILES CC(=O)CCC=C(C)CCC=C(C)CCC=C(C)C
REMARK SMILES IDX 10 1 11 2 12 3 13 4 14 5 15 6 16 7 18 8 17 9 19 10 9 11 7 12
REMARK SMILES IDX 6 13 8 14 5 15 4 16 2 17 3 18 1 19
REMARK H PARENT
REMARK Flexibility Score: inf
ROOT
ATOM      1  C   UNL     1      -9.072   4.306 -17.020  1.00  0.00     0.032 C 
ENDROOT
BRANCH   1   2
ATOM      2  C   UNL     1      -8.880   3.091 -17.898  1.00  0.00    -0.028 C 
ATOM      3  C   UNL     1      -8.530   3.126 -19.204  1.00  0.00    -0.077 C 
ATOM      4  C   UNL     1      -8.373   4.425 -19.958  1.00  0.00     0.039 C 
BRANCH   3   5
ATOM      5  C   UNL     1      -8.328   1.825 -19.951  1.00  0.00     0.034 C 
BRANCH   5   6
ATOM      6  C   UNL     1      -9.133   0.679 -19.323  1.00  0.00     0.032 C 
BRANCH   6   7
ATOM      7  C   UNL     1     -10.390   0.376 -20.104  1.00  0.00    -0.028 C 
ATOM      8  C   UNL     1     -12.743  -0.236 -20.464  1.00  0.00     0.039 C 
ATOM      9  C   UNL     1     -11.559  -0.020 -19.556  1.00  0.00    -0.080 C 
ATOM     10  C   UNL     1     -11.704  -0.270 -18.072  1.00  0.00     0.039 C 
ENDBRANCH   6   7
ENDBRANCH   5   6
ENDBRANCH   3   5
ENDBRANCH   1   2
BRANCH   1  11
ATOM     11  C   UNL     1     -10.523   4.415 -16.540  1.00  0.00     0.034 C 
BRANCH  11  12
ATOM     12  C   UNL     1     -11.504   4.287 -17.687  1.00  0.00    -0.077 C 
ATOM     13  C   UNL     1     -11.584   5.285 -18.597  1.00  0.00    -0.028 C 
ATOM     14  C   UNL     1     -12.391   3.066 -17.760  1.00  0.00     0.039 C 
BRANCH  13  15
ATOM     15  C   UNL     1     -12.507   5.284 -19.791  1.00  0.00     0.035 C 
BRANCH  15  16
ATOM     16  C   UNL     1     -11.749   5.080 -21.109  1.00  0.00     0.079 C 
BRANCH  16  17
ATOM     17  C   UNL     1     -12.509   5.645 -22.283  1.00  0.00     0.130 C 
ATOM     18  O   UNL     1     -11.913   5.911 -23.316  1.00  0.00    -0.300 OA
ATOM     19  C   UNL     1     -13.989   5.877 -22.215  1.00  0.00     0.087 C 
ENDBRANCH  16  17
ENDBRANCH  15  16
ENDBRANCH  13  15
ENDBRANCH  11  12
ENDBRANCH   1  11
TORSDOF 9
ENDMDL
MODEL 6
REMARK VINA RESULT:    -5.143      2.176      6.067
REMARK INTER + INTRA:          -8.804
REMARK INTER:                  -8.243
REMARK INTRA:                  -0.561
REMARK UNBOUND:                -0.955
REMARK SMILES CC(=O)CCC=C(C)CCC=C(C)CCC=C(C)C
REMARK SMILES IDX 10 1 11 2 12 3 13 4 14 5 15 6 16 7 18 8 17 9 19 10 9 11 7 12
REMARK SMILES IDX 6 13 8 14 5 15 4 16 2 17 3 18 1 19
REMARK H PARENT
REMARK Flexibility Score: inf
ROOT
ATOM      1  C   UNL     1      -8.184   2.637 -18.782  1.00  0.00     0.032 C 
ENDROOT
BRANCH   1   2
ATOM      2  C   UNL     1      -9.284   3.608 -19.145  1.00  0.00    -0.028 C 
ATOM      3  C   UNL     1      -9.880   4.460 -18.281  1.00  0.00    -0.077 C 
ATOM      4  C   UNL     1      -9.556   4.466 -16.807  1.00  0.00     0.039 C 
BRANCH   3   5
ATOM      5  C   UNL     1     -10.940   5.413 -18.794  1.00  0.00     0.034 C 
BRANCH   5   6
ATOM      6  C   UNL     1     -11.543   4.930 -20.121  1.00  0.00     0.032 C 
BRANCH   6   7
ATOM      7  C   UNL     1     -12.768   5.723 -20.508  1.00  0.00    -0.028 C 
ATOM      8  C   UNL     1     -14.414   6.762 -22.007  1.00  0.00     0.039 C 
ATOM      9  C   UNL     1     -13.134   6.001 -21.778  1.00  0.00    -0.080 C 
ATOM     10  C   UNL     1     -12.290   5.590 -22.963  1.00  0.00     0.039 C 
ENDBRANCH   6   7
ENDBRANCH   5   6
ENDBRANCH   3   5
ENDBRANCH   1   2
BRANCH   1  11
ATOM     11  C   UNL     1      -8.582   1.198 -19.133  1.00  0.00     0.034 C 
BRANCH  11  12
ATOM     12  C   UNL     1     -10.084   1.007 -19.092  1.00  0.00    -0.077 C 
ATOM     13  C   UNL     1     -10.725   0.609 -20.216  1.00  0.00    -0.028 C 
ATOM     14  C   UNL     1     -10.826   1.304 -17.811  1.00  0.00     0.039 C 
BRANCH  13  15
ATOM     15  C   UNL     1     -12.212   0.371 -20.314  1.00  0.00     0.035 C 
BRANCH  15  16
ATOM     16  C   UNL     1     -12.542  -1.071 -20.721  1.00  0.00     0.079 C 
BRANCH  16  17
ATOM     17  C   UNL     1     -13.943  -1.458 -20.318  1.00  0.00     0.130 C 
ATOM     18  O   UNL     1     -14.468  -0.913 -19.359  1.00  0.00    -0.300 OA
ATOM     19  C   UNL     1     -14.717  -2.492 -21.081  1.00  0.00     0.087 C 
ENDBRANCH  16  17
ENDBRANCH  15  16
ENDBRANCH  13  15
ENDBRANCH  11  12
ENDBRANCH   1  11
TORSDOF 9
ENDMDL
MODEL 7
REMARK VINA RESULT:    -4.848      1.876      4.519
REMARK INTER + INTRA:          -8.353
REMARK INTER:                  -7.096
REMARK INTRA:                  -1.257
REMARK UNBOUND:                -0.955
REMARK SMILES CC(=O)CCC=C(C)CCC=C(C)CCC=C(C)C
REMARK SMILES IDX 10 1 11 2 12 3 13 4 14 5 15 6 16 7 18 8 17 9 19 10 9 11 7 12
REMARK SMILES IDX 6 13 8 14 5 15 4 16 2 17 3 18 1 19
REMARK H PARENT
REMARK Flexibility Score: inf
ROOT
ATOM      1  C   UNL     1     -12.296   2.442 -17.760  1.00  0.00     0.032 C 
ENDROOT
BRANCH   1   2
ATOM      2  C   UNL     1     -10.980   1.840 -18.196  1.00  0.00    -0.028 C 
ATOM      3  C   UNL     1     -10.821   1.009 -19.251  1.00  0.00    -0.077 C 
ATOM      4  C   UNL     1     -11.990   0.520 -20.071  1.00  0.00     0.039 C 
BRANCH   3   5
ATOM      5  C   UNL     1      -9.432   0.516 -19.601  1.00  0.00     0.034 C 
BRANCH   5   6
ATOM      6  C   UNL     1      -8.342   1.389 -18.962  1.00  0.00     0.032 C 
BRANCH   6   7
ATOM      7  C   UNL     1      -8.218   2.730 -19.644  1.00  0.00    -0.028 C 
ATOM      8  C   UNL     1      -8.075   5.177 -19.823  1.00  0.00     0.039 C 
ATOM      9  C   UNL     1      -8.265   3.922 -19.010  1.00  0.00    -0.080 C 
ATOM     10  C   UNL     1      -8.521   4.030 -17.525  1.00  0.00     0.039 C 
ENDBRANCH   6   7
ENDBRANCH   5   6
ENDBRANCH   3   5
ENDBRANCH   1   2
BRANCH   1  11
ATOM     11  C   UNL     1     -12.137   3.929 -17.423  1.00  0.00     0.034 C 
BRANCH  11  12
ATOM     12  C   UNL     1     -12.081   4.783 -18.672  1.00  0.00    -0.077 C 
ATOM     13  C   UNL     1     -11.568   4.254 -19.807  1.00  0.00    -0.028 C 
ATOM     14  C   UNL     1     -12.564   6.213 -18.605  1.00  0.00     0.039 C 
BRANCH  13  15
ATOM     15  C   UNL     1     -11.461   4.987 -21.122  1.00  0.00     0.035 C 
BRANCH  15  16
ATOM     16  C   UNL     1     -12.711   4.802 -21.992  1.00  0.00     0.079 C 
BRANCH  16  17
ATOM     17  C   UNL     1     -13.204   6.115 -22.546  1.00  0.00     0.130 C 
ATOM     18  O   UNL     1     -12.445   6.822 -23.190  1.00  0.00    -0.300 OA
ATOM     19  C   UNL     1     -14.618   6.568 -22.335  1.00  0.00     0.087 C 
ENDBRANCH  16  17
ENDBRANCH  15  16
ENDBRANCH  13  15
ENDBRANCH  11  12
ENDBRANCH   1  11
TORSDOF 9
ENDMDL
MODEL 8
REMARK VINA RESULT:    -4.702      2.332      5.733
REMARK INTER + INTRA:          -8.131
REMARK INTER:                  -6.938
REMARK INTRA:                  -1.193
REMARK UNBOUND:                -0.955
REMARK SMILES CC(=O)CCC=C(C)CCC=C(C)CCC=C(C)C
REMARK SMILES IDX 10 1 11 2 12 3 13 4 14 5 15 6 16 7 18 8 17 9 19 10 9 11 7 12
REMARK SMILES IDX 6 13 8 14 5 15 4 16 2 17 3 18 1 19
REMARK H PARENT
REMARK Flexibility Score: inf
ROOT
ATOM      1  C   UNL     1      -9.000   4.659 -17.349  1.00  0.00     0.032 C 
ENDROOT
BRANCH   1   2
ATOM      2  C   UNL     1      -9.944   4.952 -18.493  1.00  0.00    -0.028 C 
ATOM      3  C   UNL     1      -9.675   4.718 -19.797  1.00  0.00    -0.077 C 
ATOM      4  C   UNL     1      -8.333   4.205 -20.260  1.00  0.00     0.039 C 
BRANCH   3   5
ATOM      5  C   UNL     1     -10.734   5.018 -20.836  1.00  0.00     0.034 C 
BRANCH   5   6
ATOM      6  C   UNL     1     -12.147   4.976 -20.236  1.00  0.00     0.032 C 
BRANCH   6   7
ATOM      7  C   UNL     1     -13.017   6.096 -20.755  1.00  0.00    -0.028 C 
ATOM      8  C   UNL     1     -14.657   7.201 -22.213  1.00  0.00     0.039 C 
ATOM      9  C   UNL     1     -13.806   6.013 -21.849  1.00  0.00    -0.080 C 
ATOM     10  C   UNL     1     -13.842   4.777 -22.718  1.00  0.00     0.039 C 
ENDBRANCH   6   7
ENDBRANCH   5   6
ENDBRANCH   3   5
ENDBRANCH   1   2
BRANCH   1  11
ATOM     11  C   UNL     1      -9.517   3.498 -16.492  1.00  0.00     0.034 C 
BRANCH  11  12
ATOM     12  C   UNL     1     -10.807   2.927 -17.042  1.00  0.00    -0.077 C 
ATOM     13  C   UNL     1     -10.757   1.815 -17.812  1.00  0.00    -0.028 C 
ATOM     14  C   UNL     1     -12.107   3.637 -16.748  1.00  0.00     0.039 C 
BRANCH  13  15
ATOM     15  C   UNL     1     -11.962   1.136 -18.416  1.00  0.00     0.035 C 
BRANCH  15  16
ATOM     16  C   UNL     1     -11.915   1.129 -19.949  1.00  0.00     0.079 C 
BRANCH  16  17
ATOM     17  C   UNL     1     -11.716  -0.263 -20.495  1.00  0.00     0.130 C 
ATOM     18  O   UNL     1     -10.589  -0.651 -20.763  1.00  0.00    -0.300 OA
ATOM     19  C   UNL     1     -12.875  -1.192 -20.704  1.00  0.00     0.087 C 
ENDBRANCH  16  17
ENDBRANCH  15  16
ENDBRANCH  13  15
ENDBRANCH  11  12
ENDBRANCH   1  11
TORSDOF 9
ENDMDL
MODEL 9
REMARK VINA RESULT:    -4.547      3.215      6.980
REMARK INTER + INTRA:          -7.894
REMARK INTER:                  -7.075
REMARK INTRA:                  -0.819
REMARK UNBOUND:                -0.955
REMARK SMILES CC(=O)CCC=C(C)CCC=C(C)CCC=C(C)C
REMARK SMILES IDX 10 1 11 2 12 3 13 4 14 5 15 6 16 7 18 8 17 9 19 10 9 11 7 12
REMARK SMILES IDX 6 13 8 14 5 15 4 16 2 17 3 18 1 19
REMARK H PARENT
REMARK Flexibility Score: inf
ROOT
ATOM      1  C   UNL     1     -12.557   1.914 -17.851  1.00  0.00     0.032 C 
ENDROOT
BRANCH   1   2
ATOM      2  C   UNL     1     -11.649   3.081 -17.538  1.00  0.00    -0.028 C 
ATOM      3  C   UNL     1     -11.167   3.954 -18.452  1.00  0.00    -0.077 C 
ATOM      4  C   UNL     1     -11.428   3.794 -19.930  1.00  0.00     0.039 C 
BRANCH   3   5
ATOM      5  C   UNL     1     -10.302   5.107 -17.989  1.00  0.00     0.034 C 
BRANCH   5   6
ATOM      6  C   UNL     1      -8.998   4.615 -17.345  1.00  0.00     0.032 C 
BRANCH   6   7
ATOM      7  C   UNL     1      -8.751   3.150 -17.614  1.00  0.00    -0.028 C 
ATOM      8  C   UNL     1      -7.973   1.172 -18.846  1.00  0.00     0.039 C 
ATOM      9  C   UNL     1      -8.203   2.657 -18.747  1.00  0.00    -0.080 C 
ATOM     10  C   UNL     1      -7.839   3.547 -19.912  1.00  0.00     0.039 C 
ENDBRANCH   6   7
ENDBRANCH   5   6
ENDBRANCH   3   5
ENDBRANCH   1   2
BRANCH   1  11
ATOM     11  C   UNL     1     -11.754   0.617 -18.007  1.00  0.00     0.034 C 
BRANCH  11  12
ATOM     12  C   UNL     1     -12.041  -0.064 -19.329  1.00  0.00    -0.077 C 
ATOM     13  C   UNL     1     -13.248  -0.647 -19.518  1.00  0.00    -0.028 C 
ATOM     14  C   UNL     1     -10.959  -0.106 -20.382  1.00  0.00     0.039 C 
BRANCH  13  15
ATOM     15  C   UNL     1     -13.670  -1.350 -20.786  1.00  0.00     0.035 C 
BRANCH  15  16
ATOM     16  C   UNL     1     -14.782  -2.376 -20.535  1.00  0.00     0.079 C 
BRANCH  16  17
ATOM     17  C   UNL     1     -14.786  -3.461 -21.582  1.00  0.00     0.130 C 
ATOM     18  O   UNL     1     -15.125  -4.594 -21.276  1.00  0.00    -0.300 OA
ATOM     19  C   UNL     1     -14.394  -3.177 -23.002  1.00  0.00     0.087 C 
ENDBRANCH  16  17
ENDBRANCH  15  16
ENDBRANCH  13  15
ENDBRANCH  11  12
ENDBRANCH   1  11
TORSDOF 9
ENDMDL
