MODEL 1
REMARK VINA RESULT:    -0.130      0.000      0.000
REMARK INTER + INTRA:           1.615
REMARK INTER:                  -0.198
REMARK INTRA:                   1.814
REMARK UNBOUND:                 1.814
REMARK SMILES CC1=CCC[C@H](C)C(=O)C[C@H](C(C)C)C(=O)C1
REMARK SMILES IDX 8 1 9 2 6 3 7 4 5 5 4 6 3 7 2 8 1 9 10 11 11 12 15 13 16 14
REMARK SMILES IDX 17 15 12 17 13 18 14 19
REMARK H PARENT
REMARK Flexibility Score: 70.00
ROOT
ATOM      1  C   UNL     1      26.332  -9.366   6.022  1.00  0.00     0.136 C 
ATOM      2  O   UNL     1      27.066  -9.596   5.071  1.00  0.00    -0.299 OA
ENDROOT
BRANCH   1   3
ATOM      3  C   UNL     1      26.781  -8.395   7.096  1.00  0.00     0.053 C 
ATOM      4  C   UNL     1      26.203  -7.008   6.798  1.00  0.00     0.016 C 
BRANCH   3   5
ATOM      5  C   UNL     1      26.362  -8.853   8.514  1.00  0.00     0.015 C 
BRANCH   5   6
ATOM      6  C   UNL     1      26.810 -10.279   8.876  1.00  0.00     0.028 C 
BRANCH   6   7
ATOM      7  C   UNL     1      25.639 -11.232   8.924  1.00  0.00    -0.028 C 
ATOM      8  C   UNL     1      25.439 -12.264   8.073  1.00  0.00    -0.070 CG0
ATOM      9  C   UNL     1      24.217 -13.125   8.277  1.00  0.00     0.039 C 
ATOM     10  G   UNL     1      26.392 -12.597   6.937  1.00  0.00     0.000 G0
ENDBRANCH   6   7
ENDBRANCH   5   6
ENDBRANCH   3   5
ENDBRANCH   1   3
BRANCH   1  11
ATOM     11  C   UNL     1      25.013 -10.099   6.123  1.00  0.00     0.087 C 
BRANCH  11  12
ATOM     12  C   UNL     1      24.918 -11.313   5.163  1.00  0.00     0.066 C 
BRANCH  12  13
ATOM     13  C   UNL     1      25.917 -12.399   5.536  1.00  0.00     0.140 C 
ATOM     14  O   UNL     1      26.374 -13.121   4.660  1.00  0.00    -0.299 OA
BRANCH  13  15
ATOM     15  C   UNL     1      26.429 -12.582   6.948  1.00  0.00     0.106 CG0
ATOM     16  G   UNL     1      25.399 -12.274   8.021  1.00  0.00     0.000 G0
ENDBRANCH  13  15
ENDBRANCH  12  13
BRANCH  12  17
ATOM     17  C   UNL     1      23.481 -11.906   5.033  1.00  0.00    -0.006 C 
ATOM     18  C   UNL     1      22.412 -11.147   5.838  1.00  0.00     0.008 C 
ATOM     19  C   UNL     1      23.043 -12.029   3.565  1.00  0.00     0.008 C 
ENDBRANCH  12  17
ENDBRANCH  11  12
ENDBRANCH   1  11
TORSDOF 1
ENDMDL
MODEL 2
REMARK VINA RESULT:     0.497      1.662      3.626
REMARK INTER + INTRA:           2.573
REMARK INTER:                  -0.112
REMARK INTRA:                   2.685
REMARK UNBOUND:                 1.814
REMARK SMILES CC1=CCC[C@H](C)C(=O)C[C@H](C(C)C)C(=O)C1
REMARK SMILES IDX 8 1 9 2 6 3 7 4 5 5 4 6 3 7 2 8 1 9 10 11 11 12 15 13 16 14
REMARK SMILES IDX 17 15 12 17 13 18 14 19
REMARK H PARENT
REMARK Flexibility Score: 70.00
ROOT
ATOM      1  C   UNL     1      24.920 -12.501   6.865  1.00  0.00     0.136 C 
ATOM      2  O   UNL     1      25.694 -13.124   6.151  1.00  0.00    -0.299 OA
ENDROOT
BRANCH   1   3
ATOM      3  C   UNL     1      25.280 -12.247   8.315  1.00  0.00     0.053 C 
ATOM      4  C   UNL     1      26.479 -13.121   8.700  1.00  0.00     0.016 C 
BRANCH   3   5
ATOM      5  C   UNL     1      25.597 -10.757   8.591  1.00  0.00     0.015 C 
BRANCH   5   6
ATOM      6  C   UNL     1      27.043 -10.348   8.265  1.00  0.00     0.028 C 
BRANCH   6   7
ATOM      7  C   UNL     1      27.123  -8.912   7.804  1.00  0.00    -0.028 C 
ATOM      8  C   UNL     1      26.258  -8.319   6.950  1.00  0.00    -0.070 CG0
ATOM      9  C   UNL     1      26.482  -6.867   6.607  1.00  0.00     0.039 C 
ATOM     10  G   UNL     1      25.072  -9.044   6.337  1.00  0.00     0.000 G0
ENDBRANCH   6   7
ENDBRANCH   5   6
ENDBRANCH   3   5
ENDBRANCH   1   3
BRANCH   1  11
ATOM     11  C   UNL     1      23.599 -12.043   6.289  1.00  0.00     0.087 C 
BRANCH  11  12
ATOM     12  C   UNL     1      23.759 -10.962   5.188  1.00  0.00     0.066 C 
BRANCH  12  13
ATOM     13  C   UNL     1      25.032 -10.151   5.383  1.00  0.00     0.140 C 
ATOM     14  O   UNL     1      25.998 -10.369   4.665  1.00  0.00    -0.299 OA
BRANCH  13  15
ATOM     15  C   UNL     1      25.133  -9.027   6.391  1.00  0.00     0.106 CG0
ATOM     16  G   UNL     1      26.557  -8.587   6.682  1.00  0.00     0.000 G0
ENDBRANCH  13  15
ENDBRANCH  12  13
BRANCH  12  17
ATOM     17  C   UNL     1      23.678 -11.522   3.735  1.00  0.00    -0.006 C 
ATOM     18  C   UNL     1      23.445 -10.448   2.658  1.00  0.00     0.008 C 
ATOM     19  C   UNL     1      24.912 -12.365   3.377  1.00  0.00     0.008 C 
ENDBRANCH  12  17
ENDBRANCH  11  12
ENDBRANCH   1  11
TORSDOF 1
ENDMDL
