MODEL 1
REMARK VINA RESULT:    -3.585      0.000      0.000
REMARK INTER + INTRA:          -6.399
REMARK INTER:                  -5.471
REMARK INTRA:                  -0.927
REMARK UNBOUND:                -0.927
REMARK SMILES CCCCCCCCCC=CC(=O)[O-]
REMARK SMILES IDX 7 1 8 2 9 3 10 4 11 5 12 6 13 7 14 8 6 9 5 10 4 11 3 12 2 13
REMARK SMILES IDX 1 14
REMARK H PARENT
REMARK Flexibility Score: inf
ROOT
ATOM      1  C   UNL     1      20.898  11.241  37.658  1.00  0.00     0.000 C 
ENDROOT
BRANCH   1   2
ATOM      2  C   UNL     1      22.101  12.199  37.696  1.00  0.00     0.004 C 
BRANCH   2   3
ATOM      3  C   UNL     1      21.732  13.608  37.206  1.00  0.00     0.027 C 
BRANCH   3   4
ATOM      4  C   UNL     1      21.334  13.626  35.756  1.00  0.00    -0.025 C 
ATOM      5  C   UNL     1      20.085  13.347  35.370  1.00  0.00     0.020 C 
BRANCH   5   6
ATOM      6  C   UNL     1      19.682  13.369  33.957  1.00  0.00     0.064 C 
ATOM      7  O   UNL     1      20.238  14.172  33.164  1.00  0.00    -0.545 OA
ATOM      8  O   UNL     1      18.692  12.515  33.482  1.00  0.00    -0.545 OA
ENDBRANCH   5   6
ENDBRANCH   3   4
ENDBRANCH   2   3
ENDBRANCH   1   2
BRANCH   1   9
ATOM      9  C   UNL     1      20.149  11.172  39.002  1.00  0.00     0.000 C 
BRANCH   9  10
ATOM     10  C   UNL     1      20.831  11.911  40.171  1.00  0.00     0.000 C 
BRANCH  10  11
ATOM     11  C   UNL     1      20.018  13.066  40.781  1.00  0.00    -0.000 C 
BRANCH  11  12
ATOM     12  C   UNL     1      18.679  13.300  40.061  1.00  0.00    -0.000 C 
BRANCH  12  13
ATOM     13  C   UNL     1      18.689  14.572  39.199  1.00  0.00    -0.003 C 
ATOM     14  C   UNL     1      19.820  15.531  39.570  1.00  0.00     0.004 C 
ENDBRANCH  12  13
ENDBRANCH  11  12
ENDBRANCH  10  11
ENDBRANCH   9  10
ENDBRANCH   1   9
TORSDOF 9
ENDMDL
MODEL 2
REMARK VINA RESULT:    -3.516      0.998      2.839
REMARK INTER + INTRA:          -6.293
REMARK INTER:                  -5.308
REMARK INTRA:                  -0.985
REMARK UNBOUND:                -0.927
REMARK SMILES CCCCCCCCCC=CC(=O)[O-]
REMARK SMILES IDX 7 1 8 2 9 3 10 4 11 5 12 6 13 7 14 8 6 9 5 10 4 11 3 12 2 13
REMARK SMILES IDX 1 14
REMARK H PARENT
REMARK Flexibility Score: inf
ROOT
ATOM      1  C   UNL     1      19.759  15.049  39.865  1.00  0.00     0.000 C 
ENDROOT
BRANCH   1   2
ATOM      2  C   UNL     1      19.797  14.610  38.390  1.00  0.00     0.004 C 
BRANCH   2   3
ATOM      3  C   UNL     1      20.951  15.272  37.621  1.00  0.00     0.027 C 
BRANCH   3   4
ATOM      4  C   UNL     1      21.122  14.702  36.240  1.00  0.00    -0.025 C 
ATOM      5  C   UNL     1      20.161  13.977  35.660  1.00  0.00     0.020 C 
BRANCH   5   6
ATOM      6  C   UNL     1      20.312  13.421  34.308  1.00  0.00     0.064 C 
ATOM      7  O   UNL     1      21.441  13.437  33.752  1.00  0.00    -0.545 OA
ATOM      8  O   UNL     1      19.225  12.878  33.631  1.00  0.00    -0.545 OA
ENDBRANCH   5   6
ENDBRANCH   3   4
ENDBRANCH   2   3
ENDBRANCH   1   2
BRANCH   1   9
ATOM      9  C   UNL     1      19.768  13.859  40.841  1.00  0.00     0.000 C 
BRANCH   9  10
ATOM     10  C   UNL     1      19.348  12.506  40.230  1.00  0.00     0.000 C 
BRANCH  10  11
ATOM     11  C   UNL     1      20.506  11.620  39.739  1.00  0.00    -0.000 C 
BRANCH  11  12
ATOM     12  C   UNL     1      20.177  10.875  38.434  1.00  0.00    -0.000 C 
BRANCH  12  13
ATOM     13  C   UNL     1      21.174  11.192  37.308  1.00  0.00    -0.003 C 
ATOM     14  C   UNL     1      22.435  11.894  37.812  1.00  0.00     0.004 C 
ENDBRANCH  12  13
ENDBRANCH  11  12
ENDBRANCH  10  11
ENDBRANCH   9  10
ENDBRANCH   1   9
TORSDOF 9
ENDMDL
MODEL 3
REMARK VINA RESULT:    -3.265      1.119      2.118
REMARK INTER + INTRA:          -5.910
REMARK INTER:                  -4.967
REMARK INTRA:                  -0.944
REMARK UNBOUND:                -0.927
REMARK SMILES CCCCCCCCCC=CC(=O)[O-]
REMARK SMILES IDX 7 1 8 2 9 3 10 4 11 5 12 6 13 7 14 8 6 9 5 10 4 11 3 12 2 13
REMARK SMILES IDX 1 14
REMARK H PARENT
REMARK Flexibility Score: inf
ROOT
ATOM      1  C   UNL     1      20.777  12.004  40.373  1.00  0.00     0.000 C 
ENDROOT
BRANCH   1   2
ATOM      2  C   UNL     1      20.694  11.400  38.960  1.00  0.00     0.004 C 
BRANCH   2   3
ATOM      3  C   UNL     1      21.999  11.593  38.173  1.00  0.00     0.027 C 
BRANCH   3   4
ATOM      4  C   UNL     1      21.824  12.497  36.984  1.00  0.00    -0.025 C 
ATOM      5  C   UNL     1      20.625  12.696  36.428  1.00  0.00     0.020 C 
BRANCH   5   6
ATOM      6  C   UNL     1      20.439  13.584  35.272  1.00  0.00     0.064 C 
ATOM      7  O   UNL     1      21.011  14.705  35.250  1.00  0.00    -0.545 OA
ATOM      8  O   UNL     1      19.638  13.205  34.200  1.00  0.00    -0.545 OA
ENDBRANCH   5   6
ENDBRANCH   3   4
ENDBRANCH   2   3
ENDBRANCH   1   2
BRANCH   1   9
ATOM      9  C   UNL     1      19.397  12.376  40.944  1.00  0.00     0.000 C 
BRANCH   9  10
ATOM     10  C   UNL     1      18.329  12.742  39.892  1.00  0.00     0.000 C 
BRANCH  10  11
ATOM     11  C   UNL     1      18.251  14.235  39.528  1.00  0.00    -0.000 C 
BRANCH  11  12
ATOM     12  C   UNL     1      19.618  14.830  39.150  1.00  0.00    -0.000 C 
BRANCH  12  13
ATOM     13  C   UNL     1      19.976  16.065  39.992  1.00  0.00    -0.003 C 
ATOM     14  C   UNL     1      20.551  15.704  41.361  1.00  0.00     0.004 C 
ENDBRANCH  12  13
ENDBRANCH  11  12
ENDBRANCH  10  11
ENDBRANCH   9  10
ENDBRANCH   1   9
TORSDOF 9
ENDMDL
MODEL 4
REMARK VINA RESULT:    -3.167      3.175      5.317
REMARK INTER + INTRA:          -5.760
REMARK INTER:                  -4.948
REMARK INTRA:                  -0.812
REMARK UNBOUND:                -0.927
REMARK SMILES CCCCCCCCCC=CC(=O)[O-]
REMARK SMILES IDX 7 1 8 2 9 3 10 4 11 5 12 6 13 7 14 8 6 9 5 10 4 11 3 12 2 13
REMARK SMILES IDX 1 14
REMARK H PARENT
REMARK Flexibility Score: inf
ROOT
ATOM      1  C   UNL     1      22.206  11.457  37.809  1.00  0.00     0.000 C 
ENDROOT
BRANCH   1   2
ATOM      2  C   UNL     1      20.766  11.024  37.482  1.00  0.00     0.004 C 
BRANCH   2   3
ATOM      3  C   UNL     1      19.907  10.876  38.747  1.00  0.00     0.027 C 
BRANCH   3   4
ATOM      4  C   UNL     1      20.210  11.930  39.775  1.00  0.00    -0.025 C 
ATOM      5  C   UNL     1      19.596  13.118  39.760  1.00  0.00     0.020 C 
BRANCH   5   6
ATOM      6  C   UNL     1      19.877  14.154  40.763  1.00  0.00     0.064 C 
ATOM      7  O   UNL     1      19.883  15.366  40.421  1.00  0.00    -0.545 OA
ATOM      8  O   UNL     1      20.139  13.818  42.086  1.00  0.00    -0.545 OA
ENDBRANCH   5   6
ENDBRANCH   3   4
ENDBRANCH   2   3
ENDBRANCH   1   2
BRANCH   1   9
ATOM      9  C   UNL     1      22.609  12.765  37.105  1.00  0.00     0.000 C 
BRANCH   9  10
ATOM     10  C   UNL     1      21.515  13.851  37.060  1.00  0.00     0.000 C 
BRANCH  10  11
ATOM     11  C   UNL     1      21.544  14.763  35.821  1.00  0.00    -0.000 C 
BRANCH  11  12
ATOM     12  C   UNL     1      21.022  14.065  34.553  1.00  0.00    -0.000 C 
BRANCH  12  13
ATOM     13  C   UNL     1      19.756  13.235  34.817  1.00  0.00    -0.003 C 
ATOM     14  C   UNL     1      19.024  12.845  33.533  1.00  0.00     0.004 C 
ENDBRANCH  12  13
ENDBRANCH  11  12
ENDBRANCH  10  11
ENDBRANCH   9  10
ENDBRANCH   1   9
TORSDOF 9
ENDMDL
MODEL 5
REMARK VINA RESULT:    -2.099      3.052      4.971
REMARK INTER + INTRA:          -4.131
REMARK INTER:                  -3.332
REMARK INTRA:                  -0.799
REMARK UNBOUND:                -0.927
REMARK SMILES CCCCCCCCCC=CC(=O)[O-]
REMARK SMILES IDX 7 1 8 2 9 3 10 4 11 5 12 6 13 7 14 8 6 9 5 10 4 11 3 12 2 13
REMARK SMILES IDX 1 14
REMARK H PARENT
REMARK Flexibility Score: inf
ROOT
ATOM      1  C   UNL     1      21.194  11.807  39.715  1.00  0.00     0.000 C 
ENDROOT
BRANCH   1   2
ATOM      2  C   UNL     1      19.782  11.208  39.584  1.00  0.00     0.004 C 
BRANCH   2   3
ATOM      3  C   UNL     1      18.697  12.172  40.090  1.00  0.00     0.027 C 
BRANCH   3   4
ATOM      4  C   UNL     1      19.267  13.477  40.571  1.00  0.00    -0.025 C 
ATOM      5  C   UNL     1      19.344  14.543  39.768  1.00  0.00     0.020 C 
BRANCH   5   6
ATOM      6  C   UNL     1      19.891  15.828  40.228  1.00  0.00     0.064 C 
ATOM      7  O   UNL     1      19.606  16.884  39.604  1.00  0.00    -0.545 OA
ATOM      8  O   UNL     1      20.721  15.896  41.341  1.00  0.00    -0.545 OA
ENDBRANCH   5   6
ENDBRANCH   3   4
ENDBRANCH   2   3
ENDBRANCH   1   2
BRANCH   1   9
ATOM      9  C   UNL     1      21.903  11.965  38.358  1.00  0.00     0.000 C 
BRANCH   9  10
ATOM     10  C   UNL     1      21.043  11.620  37.125  1.00  0.00     0.000 C 
BRANCH  10  11
ATOM     11  C   UNL     1      20.174  12.771  36.587  1.00  0.00    -0.000 C 
BRANCH  11  12
ATOM     12  C   UNL     1      20.658  13.301  35.227  1.00  0.00    -0.000 C 
BRANCH  12  13
ATOM     13  C   UNL     1      21.380  14.653  35.345  1.00  0.00    -0.003 C 
ATOM     14  C   UNL     1      21.421  15.180  36.779  1.00  0.00     0.004 C 
ENDBRANCH  12  13
ENDBRANCH  11  12
ENDBRANCH  10  11
ENDBRANCH   9  10
ENDBRANCH   1   9
TORSDOF 9
ENDMDL
