MODEL 1
REMARK VINA RESULT:    -4.328      0.000      0.000
REMARK INTER + INTRA:          -6.957
REMARK INTER:                  -6.605
REMARK INTRA:                  -0.353
REMARK UNBOUND:                -0.353
REMARK SMILES CC1=CCC[C@@H](C)C(=O)C[C@@H](C(C)C)C(=O)C1
REMARK SMILES IDX 8 1 9 2 6 3 7 4 5 5 4 6 3 7 2 8 1 9 10 11 11 12 15 13 16 14
REMARK SMILES IDX 17 15 12 17 13 18 14 19
REMARK H PARENT
REMARK Flexibility Score: 70.00
ROOT
ATOM      1  C   UNL     1      16.107 -30.373  22.689  1.00  0.00     0.136 C 
ATOM      2  O   UNL     1      17.022 -29.865  22.058  1.00  0.00    -0.299 OA
ENDROOT
BRANCH   1   3
ATOM      3  C   UNL     1      14.680 -29.935  22.434  1.00  0.00     0.053 C 
ATOM      4  C   UNL     1      13.791 -30.391  23.595  1.00  0.00     0.016 C 
BRANCH   3   5
ATOM      5  C   UNL     1      14.127 -30.479  21.094  1.00  0.00     0.015 C 
BRANCH   5   6
ATOM      6  C   UNL     1      13.422 -31.837  21.220  1.00  0.00     0.028 C 
BRANCH   6   7
ATOM      7  C   UNL     1      14.156 -32.911  20.454  1.00  0.00    -0.028 C 
ATOM      8  C   UNL     1      14.930 -33.869  21.012  1.00  0.00    -0.070 CG0
ATOM      9  C   UNL     1      15.590 -34.870  20.098  1.00  0.00     0.039 C 
ATOM     10  G   UNL     1      15.150 -33.982  22.509  1.00  0.00     0.000 G0
ENDBRANCH   6   7
ENDBRANCH   5   6
ENDBRANCH   3   5
ENDBRANCH   1   3
BRANCH   1  11
ATOM     11  C   UNL     1      16.414 -31.477  23.673  1.00  0.00     0.087 C 
BRANCH  11  12
ATOM     12  C   UNL     1      17.343 -32.583  23.106  1.00  0.00     0.066 C 
BRANCH  12  13
ATOM     13  C   UNL     1      16.585 -33.902  22.985  1.00  0.00     0.140 C 
ATOM     14  O   UNL     1      17.185 -34.945  23.200  1.00  0.00    -0.299 OA
BRANCH  13  15
ATOM     15  C   UNL     1      15.146 -33.994  22.518  1.00  0.00     0.106 CG0
ATOM     16  G   UNL     1      14.967 -33.872  21.016  1.00  0.00     0.000 G0
ENDBRANCH  13  15
ENDBRANCH  12  13
BRANCH  12  17
ATOM     17  C   UNL     1      18.616 -32.769  23.993  1.00  0.00    -0.006 C 
ATOM     18  C   UNL     1      18.312 -32.591  25.492  1.00  0.00     0.008 C 
ATOM     19  C   UNL     1      19.732 -31.784  23.596  1.00  0.00     0.008 C 
ENDBRANCH  12  17
ENDBRANCH  11  12
ENDBRANCH   1  11
TORSDOF 1
ENDMDL
MODEL 2
REMARK VINA RESULT:    -4.142      2.128      3.958
REMARK INTER + INTRA:          -6.673
REMARK INTER:                  -6.609
REMARK INTRA:                  -0.064
REMARK UNBOUND:                -0.353
REMARK SMILES CC1=CCC[C@@H](C)C(=O)C[C@@H](C(C)C)C(=O)C1
REMARK SMILES IDX 8 1 9 2 6 3 7 4 5 5 4 6 3 7 2 8 1 9 10 11 11 12 15 13 16 14
REMARK SMILES IDX 17 15 12 17 13 18 14 19
REMARK H PARENT
REMARK Flexibility Score: 70.00
ROOT
ATOM      1  C   UNL     1      17.328 -30.912  22.466  1.00  0.00     0.136 C 
ATOM      2  O   UNL     1      17.128 -30.767  23.663  1.00  0.00    -0.299 OA
ENDROOT
BRANCH   1   3
ATOM      3  C   UNL     1      18.731 -30.780  21.914  1.00  0.00     0.053 C 
ATOM      4  C   UNL     1      18.866 -29.443  21.178  1.00  0.00     0.016 C 
BRANCH   3   5
ATOM      5  C   UNL     1      19.105 -31.948  20.968  1.00  0.00     0.015 C 
BRANCH   5   6
ATOM      6  C   UNL     1      18.842 -33.338  21.566  1.00  0.00     0.028 C 
BRANCH   6   7
ATOM      7  C   UNL     1      18.422 -34.323  20.502  1.00  0.00    -0.028 C 
ATOM      8  C   UNL     1      17.238 -34.977  20.475  1.00  0.00    -0.070 CG0
ATOM      9  C   UNL     1      16.979 -35.927  19.334  1.00  0.00     0.039 C 
ATOM     10  G   UNL     1      16.168 -34.785  21.533  1.00  0.00     0.000 G0
ENDBRANCH   6   7
ENDBRANCH   5   6
ENDBRANCH   3   5
ENDBRANCH   1   3
BRANCH   1  11
ATOM     11  C   UNL     1      16.172 -31.281  21.566  1.00  0.00     0.087 C 
BRANCH  11  12
ATOM     12  C   UNL     1      15.229 -32.358  22.165  1.00  0.00     0.066 C 
BRANCH  12  13
ATOM     13  C   UNL     1      15.235 -33.613  21.296  1.00  0.00     0.140 C 
ATOM     14  O   UNL     1      14.402 -33.716  20.408  1.00  0.00    -0.299 OA
BRANCH  13  15
ATOM     15  C   UNL     1      16.164 -34.786  21.539  1.00  0.00     0.106 CG0
ATOM     16  G   UNL     1      17.251 -34.950  20.493  1.00  0.00     0.000 G0
ENDBRANCH  13  15
ENDBRANCH  12  13
BRANCH  12  17
ATOM     17  C   UNL     1      13.772 -31.816  22.322  1.00  0.00    -0.006 C 
ATOM     18  C   UNL     1      13.587 -30.441  21.654  1.00  0.00     0.008 C 
ATOM     19  C   UNL     1      13.366 -31.703  23.804  1.00  0.00     0.008 C 
ENDBRANCH  12  17
ENDBRANCH  11  12
ENDBRANCH   1  11
TORSDOF 1
ENDMDL
MODEL 3
REMARK VINA RESULT:    -4.097      2.331      4.892
REMARK INTER + INTRA:          -6.606
REMARK INTER:                  -6.545
REMARK INTRA:                  -0.061
REMARK UNBOUND:                -0.353
REMARK SMILES CC1=CCC[C@@H](C)C(=O)C[C@@H](C(C)C)C(=O)C1
REMARK SMILES IDX 8 1 9 2 6 3 7 4 5 5 4 6 3 7 2 8 1 9 10 11 11 12 15 13 16 14
REMARK SMILES IDX 17 15 12 17 13 18 14 19
REMARK H PARENT
REMARK Flexibility Score: 70.00
ROOT
ATOM      1  C   UNL     1      15.565 -34.196  21.346  1.00  0.00     0.136 C 
ATOM      2  O   UNL     1      14.720 -34.103  20.467  1.00  0.00    -0.299 OA
ENDROOT
BRANCH   1   3
ATOM      3  C   UNL     1      16.607 -35.291  21.279  1.00  0.00     0.053 C 
ATOM      4  C   UNL     1      17.212 -35.507  22.670  1.00  0.00     0.016 C 
BRANCH   3   5
ATOM      5  C   UNL     1      17.725 -34.980  20.254  1.00  0.00     0.015 C 
BRANCH   5   6
ATOM      6  C   UNL     1      17.812 -33.498  19.862  1.00  0.00     0.028 C 
BRANCH   6   7
ATOM      7  C   UNL     1      18.808 -32.758  20.723  1.00  0.00    -0.028 C 
ATOM      8  C   UNL     1      18.626 -31.516  21.226  1.00  0.00    -0.070 CG0
ATOM      9  C   UNL     1      19.724 -30.926  22.073  1.00  0.00     0.039 C 
ATOM     10  G   UNL     1      17.366 -30.706  20.984  1.00  0.00     0.000 G0
ENDBRANCH   6   7
ENDBRANCH   5   6
ENDBRANCH   3   5
ENDBRANCH   1   3
BRANCH   1  11
ATOM     11  C   UNL     1      15.588 -33.172  22.457  1.00  0.00     0.087 C 
BRANCH  11  12
ATOM     12  C   UNL     1      15.144 -31.753  22.012  1.00  0.00     0.066 C 
BRANCH  12  13
ATOM     13  C   UNL     1      16.323 -30.785  22.070  1.00  0.00     0.140 C 
ATOM     14  O   UNL     1      16.389 -29.996  23.002  1.00  0.00    -0.299 OA
BRANCH  13  15
ATOM     15  C   UNL     1      17.370 -30.685  20.979  1.00  0.00     0.106 CG0
ATOM     16  G   UNL     1      18.620 -31.506  21.234  1.00  0.00     0.000 G0
ENDBRANCH  13  15
ENDBRANCH  12  13
BRANCH  12  17
ATOM     17  C   UNL     1      13.965 -31.223  22.889  1.00  0.00    -0.006 C 
ATOM     18  C   UNL     1      13.665 -32.149  24.083  1.00  0.00     0.008 C 
ATOM     19  C   UNL     1      12.676 -31.052  22.062  1.00  0.00     0.008 C 
ENDBRANCH  12  17
ENDBRANCH  11  12
ENDBRANCH   1  11
TORSDOF 1
ENDMDL
MODEL 4
REMARK VINA RESULT:    -4.091      2.285      5.033
REMARK INTER + INTRA:          -6.595
REMARK INTER:                  -6.312
REMARK INTRA:                  -0.283
REMARK UNBOUND:                -0.353
REMARK SMILES CC1=CCC[C@@H](C)C(=O)C[C@@H](C(C)C)C(=O)C1
REMARK SMILES IDX 8 1 9 2 6 3 7 4 5 5 4 6 3 7 2 8 1 9 10 11 11 12 15 13 16 14
REMARK SMILES IDX 17 15 12 17 13 18 14 19
REMARK H PARENT
REMARK Flexibility Score: 70.00
ROOT
ATOM      1  C   UNL     1      15.741 -34.378  21.181  1.00  0.00     0.136 C 
ATOM      2  O   UNL     1      15.122 -34.441  20.128  1.00  0.00    -0.299 OA
ENDROOT
BRANCH   1   3
ATOM      3  C   UNL     1      16.994 -35.205  21.370  1.00  0.00     0.053 C 
ATOM      4  C   UNL     1      17.305 -35.326  22.866  1.00  0.00     0.016 C 
BRANCH   3   5
ATOM      5  C   UNL     1      18.212 -34.611  20.620  1.00  0.00     0.015 C 
BRANCH   5   6
ATOM      6  C   UNL     1      19.225 -33.912  21.538  1.00  0.00     0.028 C 
BRANCH   6   7
ATOM      7  C   UNL     1      19.366 -32.450  21.191  1.00  0.00    -0.028 C 
ATOM      8  C   UNL     1      18.708 -31.440  21.805  1.00  0.00    -0.070 CG0
ATOM      9  C   UNL     1      18.970 -30.033  21.334  1.00  0.00     0.039 C 
ATOM     10  G   UNL     1      17.735 -31.666  22.947  1.00  0.00     0.000 G0
ENDBRANCH   6   7
ENDBRANCH   5   6
ENDBRANCH   3   5
ENDBRANCH   1   3
BRANCH   1  11
ATOM     11  C   UNL     1      15.272 -33.424  22.255  1.00  0.00     0.087 C 
BRANCH  11  12
ATOM     12  C   UNL     1      15.315 -31.932  21.831  1.00  0.00     0.066 C 
BRANCH  12  13
ATOM     13  C   UNL     1      16.317 -31.164  22.689  1.00  0.00     0.140 C 
ATOM     14  O   UNL     1      16.003 -30.062  23.114  1.00  0.00    -0.299 OA
BRANCH  13  15
ATOM     15  C   UNL     1      17.724 -31.657  22.964  1.00  0.00     0.106 CG0
ATOM     16  G   UNL     1      18.697 -31.442  21.820  1.00  0.00     0.000 G0
ENDBRANCH  13  15
ENDBRANCH  12  13
BRANCH  12  17
ATOM     17  C   UNL     1      13.902 -31.271  21.927  1.00  0.00    -0.006 C 
ATOM     18  C   UNL     1      13.143 -31.701  23.196  1.00  0.00     0.008 C 
ATOM     19  C   UNL     1      13.036 -31.604  20.698  1.00  0.00     0.008 C 
ENDBRANCH  12  17
ENDBRANCH  11  12
ENDBRANCH   1  11
TORSDOF 1
ENDMDL
MODEL 5
REMARK VINA RESULT:    -4.053      1.939      5.002
REMARK INTER + INTRA:          -6.539
REMARK INTER:                  -6.211
REMARK INTRA:                  -0.327
REMARK UNBOUND:                -0.353
REMARK SMILES CC1=CCC[C@@H](C)C(=O)C[C@@H](C(C)C)C(=O)C1
REMARK SMILES IDX 8 1 9 2 6 3 7 4 5 5 4 6 3 7 2 8 1 9 10 11 11 12 15 13 16 14
REMARK SMILES IDX 17 15 12 17 13 18 14 19
REMARK H PARENT
REMARK Flexibility Score: 70.00
ROOT
ATOM      1  C   UNL     1      16.216 -34.129  20.967  1.00  0.00     0.136 C 
ATOM      2  O   UNL     1      16.309 -35.231  21.488  1.00  0.00    -0.299 OA
ENDROOT
BRANCH   1   3
ATOM      3  C   UNL     1      17.334 -33.614  20.087  1.00  0.00     0.053 C 
ATOM      4  C   UNL     1      17.333 -34.379  18.759  1.00  0.00     0.016 C 
BRANCH   3   5
ATOM      5  C   UNL     1      18.721 -33.729  20.766  1.00  0.00     0.015 C 
BRANCH   5   6
ATOM      6  C   UNL     1      19.057 -32.553  21.694  1.00  0.00     0.028 C 
BRANCH   6   7
ATOM      7  C   UNL     1      19.074 -32.982  23.141  1.00  0.00    -0.028 C 
ATOM      8  C   UNL     1      18.194 -32.571  24.083  1.00  0.00    -0.070 CG0
ATOM      9  C   UNL     1      18.355 -33.102  25.484  1.00  0.00     0.039 C 
ATOM     10  G   UNL     1      17.055 -31.615  23.783  1.00  0.00     0.000 G0
ENDBRANCH   6   7
ENDBRANCH   5   6
ENDBRANCH   3   5
ENDBRANCH   1   3
BRANCH   1  11
ATOM     11  C   UNL     1      14.952 -33.326  21.165  1.00  0.00     0.087 C 
BRANCH  11  12
ATOM     12  C   UNL     1      15.170 -31.987  21.919  1.00  0.00     0.066 C 
BRANCH  12  13
ATOM     13  C   UNL     1      15.758 -32.247  23.303  1.00  0.00     0.140 C 
ATOM     14  O   UNL     1      15.130 -32.943  24.087  1.00  0.00    -0.299 OA
BRANCH  13  15
ATOM     15  C   UNL     1      17.042 -31.608  23.793  1.00  0.00     0.106 CG0
ATOM     16  G   UNL     1      18.166 -32.590  24.066  1.00  0.00     0.000 G0
ENDBRANCH  13  15
ENDBRANCH  12  13
BRANCH  12  17
ATOM     17  C   UNL     1      13.840 -31.177  22.040  1.00  0.00    -0.006 C 
ATOM     18  C   UNL     1      12.902 -31.415  20.841  1.00  0.00     0.008 C 
ATOM     19  C   UNL     1      14.107 -29.665  22.164  1.00  0.00     0.008 C 
ENDBRANCH  12  17
ENDBRANCH  11  12
ENDBRANCH   1  11
TORSDOF 1
ENDMDL
MODEL 6
REMARK VINA RESULT:    -4.029      1.702      4.154
REMARK INTER + INTRA:          -6.502
REMARK INTER:                  -6.231
REMARK INTRA:                  -0.271
REMARK UNBOUND:                -0.353
REMARK SMILES CC1=CCC[C@@H](C)C(=O)C[C@@H](C(C)C)C(=O)C1
REMARK SMILES IDX 8 1 9 2 6 3 7 4 5 5 4 6 3 7 2 8 1 9 10 11 11 12 15 13 16 14
REMARK SMILES IDX 17 15 12 17 13 18 14 19
REMARK H PARENT
REMARK Flexibility Score: 70.00
ROOT
ATOM      1  C   UNL     1      18.188 -31.644  23.862  1.00  0.00     0.136 C 
ATOM      2  O   UNL     1      19.183 -31.886  23.194  1.00  0.00    -0.299 OA
ENDROOT
BRANCH   1   3
ATOM      3  C   UNL     1      18.124 -32.089  25.308  1.00  0.00     0.053 C 
ATOM      4  C   UNL     1      19.128 -31.280  26.136  1.00  0.00     0.016 C 
BRANCH   3   5
ATOM      5  C   UNL     1      18.398 -33.605  25.471  1.00  0.00     0.015 C 
BRANCH   5   6
ATOM      6  C   UNL     1      17.266 -34.500  24.948  1.00  0.00     0.028 C 
BRANCH   6   7
ATOM      7  C   UNL     1      17.684 -35.244  23.703  1.00  0.00    -0.028 C 
ATOM      8  C   UNL     1      17.062 -35.161  22.504  1.00  0.00    -0.070 CG0
ATOM      9  C   UNL     1      17.616 -35.972  21.361  1.00  0.00     0.039 C 
ATOM     10  G   UNL     1      15.847 -34.284  22.266  1.00  0.00     0.000 G0
ENDBRANCH   6   7
ENDBRANCH   5   6
ENDBRANCH   3   5
ENDBRANCH   1   3
BRANCH   1  11
ATOM     11  C   UNL     1      17.062 -30.849  23.246  1.00  0.00     0.087 C 
BRANCH  11  12
ATOM     12  C   UNL     1      15.801 -31.693  22.923  1.00  0.00     0.066 C 
BRANCH  12  13
ATOM     13  C   UNL     1      16.152 -32.828  21.965  1.00  0.00     0.140 C 
ATOM     14  O   UNL     1      16.630 -32.550  20.875  1.00  0.00    -0.299 OA
BRANCH  13  15
ATOM     15  C   UNL     1      15.850 -34.285  22.256  1.00  0.00     0.106 CG0
ATOM     16  G   UNL     1      17.077 -35.141  22.506  1.00  0.00     0.000 G0
ENDBRANCH  13  15
ENDBRANCH  12  13
BRANCH  12  17
ATOM     17  C   UNL     1      14.661 -30.810  22.320  1.00  0.00    -0.006 C 
ATOM     18  C   UNL     1      14.868 -29.313  22.616  1.00  0.00     0.008 C 
ATOM     19  C   UNL     1      13.278 -31.231  22.850  1.00  0.00     0.008 C 
ENDBRANCH  12  17
ENDBRANCH  11  12
ENDBRANCH   1  11
TORSDOF 1
ENDMDL
MODEL 7
REMARK VINA RESULT:    -4.002      2.389      4.344
REMARK INTER + INTRA:          -6.461
REMARK INTER:                  -6.172
REMARK INTRA:                  -0.289
REMARK UNBOUND:                -0.353
REMARK SMILES CC1=CCC[C@@H](C)C(=O)C[C@@H](C(C)C)C(=O)C1
REMARK SMILES IDX 8 1 9 2 6 3 7 4 5 5 4 6 3 7 2 8 1 9 10 11 11 12 15 13 16 14
REMARK SMILES IDX 17 15 12 17 13 18 14 19
REMARK H PARENT
REMARK Flexibility Score: 70.00
ROOT
ATOM      1  C   UNL     1      18.081 -35.241  21.410  1.00  0.00     0.136 C 
ATOM      2  O   UNL     1      18.680 -34.377  20.787  1.00  0.00    -0.299 OA
ENDROOT
BRANCH   1   3
ATOM      3  C   UNL     1      16.873 -35.916  20.795  1.00  0.00     0.053 C 
ATOM      4  C   UNL     1      17.338 -36.993  19.809  1.00  0.00     0.016 C 
BRANCH   3   5
ATOM      5  C   UNL     1      15.935 -34.911  20.082  1.00  0.00     0.015 C 
BRANCH   5   6
ATOM      6  C   UNL     1      15.017 -34.134  21.037  1.00  0.00     0.028 C 
BRANCH   6   7
ATOM      7  C   UNL     1      15.602 -32.788  21.389  1.00  0.00    -0.028 C 
ATOM      8  C   UNL     1      16.024 -32.424  22.621  1.00  0.00    -0.070 CG0
ATOM      9  C   UNL     1      16.587 -31.037  22.797  1.00  0.00     0.039 C 
ATOM     10  G   UNL     1      15.965 -33.353  23.819  1.00  0.00     0.000 G0
ENDBRANCH   6   7
ENDBRANCH   5   6
ENDBRANCH   3   5
ENDBRANCH   1   3
BRANCH   1  11
ATOM     11  C   UNL     1      18.598 -35.664  22.765  1.00  0.00     0.087 C 
BRANCH  11  12
ATOM     12  C   UNL     1      17.562 -35.504  23.910  1.00  0.00     0.066 C 
BRANCH  12  13
ATOM     13  C   UNL     1      17.285 -34.026  24.173  1.00  0.00     0.140 C 
ATOM     14  O   UNL     1      18.127 -33.367  24.765  1.00  0.00    -0.299 OA
BRANCH  13  15
ATOM     15  C   UNL     1      15.974 -33.352  23.821  1.00  0.00     0.106 CG0
ATOM     16  G   UNL     1      16.047 -32.433  22.616  1.00  0.00     0.000 G0
ENDBRANCH  13  15
ENDBRANCH  12  13
BRANCH  12  17
ATOM     17  C   UNL     1      18.047 -36.205  25.220  1.00  0.00    -0.006 C 
ATOM     18  C   UNL     1      18.860 -37.481  24.930  1.00  0.00     0.008 C 
ATOM     19  C   UNL     1      16.865 -36.571  26.137  1.00  0.00     0.008 C 
ENDBRANCH  12  17
ENDBRANCH  11  12
ENDBRANCH   1  11
TORSDOF 1
ENDMDL
MODEL 8
REMARK VINA RESULT:    -3.972      1.992      4.806
REMARK INTER + INTRA:          -6.415
REMARK INTER:                  -6.061
REMARK INTRA:                  -0.354
REMARK UNBOUND:                -0.353
REMARK SMILES CC1=CCC[C@@H](C)C(=O)C[C@@H](C(C)C)C(=O)C1
REMARK SMILES IDX 8 1 9 2 6 3 7 4 5 5 4 6 3 7 2 8 1 9 10 11 11 12 15 13 16 14
REMARK SMILES IDX 17 15 12 17 13 18 14 19
REMARK H PARENT
REMARK Flexibility Score: 70.00
ROOT
ATOM      1  C   UNL     1      18.270 -35.294  22.900  1.00  0.00     0.136 C 
ATOM      2  O   UNL     1      19.310 -35.469  22.282  1.00  0.00    -0.299 OA
ENDROOT
BRANCH   1   3
ATOM      3  C   UNL     1      18.319 -34.872  24.354  1.00  0.00     0.053 C 
ATOM      4  C   UNL     1      16.981 -35.199  25.025  1.00  0.00     0.016 C 
BRANCH   3   5
ATOM      5  C   UNL     1      18.645 -33.368  24.521  1.00  0.00     0.015 C 
BRANCH   5   6
ATOM      6  C   UNL     1      17.411 -32.489  24.767  1.00  0.00     0.028 C 
BRANCH   6   7
ATOM      7  C   UNL     1      17.219 -31.485  23.656  1.00  0.00    -0.028 C 
ATOM      8  C   UNL     1      16.278 -31.570  22.689  1.00  0.00    -0.070 CG0
ATOM      9  C   UNL     1      16.224 -30.474  21.655  1.00  0.00     0.039 C 
ATOM     10  G   UNL     1      15.277 -32.707  22.611  1.00  0.00     0.000 G0
ENDBRANCH   6   7
ENDBRANCH   5   6
ENDBRANCH   3   5
ENDBRANCH   1   3
BRANCH   1  11
ATOM     11  C   UNL     1      16.950 -35.444  22.181  1.00  0.00     0.087 C 
BRANCH  11  12
ATOM     12  C   UNL     1      16.712 -34.379  21.078  1.00  0.00     0.066 C 
BRANCH  12  13
ATOM     13  C   UNL     1      15.441 -33.586  21.371  1.00  0.00     0.140 C 
ATOM     14  O   UNL     1      14.538 -33.599  20.547  1.00  0.00    -0.299 OA
BRANCH  13  15
ATOM     15  C   UNL     1      15.275 -32.703  22.591  1.00  0.00     0.106 CG0
ATOM     16  G   UNL     1      16.275 -31.565  22.680  1.00  0.00     0.000 G0
ENDBRANCH  13  15
ENDBRANCH  12  13
BRANCH  12  17
ATOM     17  C   UNL     1      16.627 -35.033  19.662  1.00  0.00    -0.006 C 
ATOM     18  C   UNL     1      16.895 -36.550  19.704  1.00  0.00     0.008 C 
ATOM     19  C   UNL     1      17.619 -34.385  18.678  1.00  0.00     0.008 C 
ENDBRANCH  12  17
ENDBRANCH  11  12
ENDBRANCH   1  11
TORSDOF 1
ENDMDL
MODEL 9
REMARK VINA RESULT:    -3.947      1.965      4.078
REMARK INTER + INTRA:          -6.377
REMARK INTER:                  -5.892
REMARK INTRA:                  -0.485
REMARK UNBOUND:                -0.353
REMARK SMILES CC1=CCC[C@@H](C)C(=O)C[C@@H](C(C)C)C(=O)C1
REMARK SMILES IDX 8 1 9 2 6 3 7 4 5 5 4 6 3 7 2 8 1 9 10 11 11 12 15 13 16 14
REMARK SMILES IDX 17 15 12 17 13 18 14 19
REMARK H PARENT
REMARK Flexibility Score: 70.00
ROOT
ATOM      1  C   UNL     1      16.077 -33.676  22.475  1.00  0.00     0.136 C 
ATOM      2  O   UNL     1      15.730 -34.751  22.007  1.00  0.00    -0.299 OA
ENDROOT
BRANCH   1   3
ATOM      3  C   UNL     1      15.764 -33.345  23.918  1.00  0.00     0.053 C 
ATOM      4  C   UNL     1      16.350 -34.429  24.829  1.00  0.00     0.016 C 
BRANCH   3   5
ATOM      5  C   UNL     1      14.244 -33.200  24.175  1.00  0.00     0.015 C 
BRANCH   5   6
ATOM      6  C   UNL     1      13.510 -32.377  23.106  1.00  0.00     0.028 C 
BRANCH   6   7
ATOM      7  C   UNL     1      13.504 -30.908  23.451  1.00  0.00    -0.028 C 
ATOM      8  C   UNL     1      14.163 -29.947  22.764  1.00  0.00    -0.070 CG0
ATOM      9  C   UNL     1      14.045 -28.524  23.246  1.00  0.00     0.039 C 
ATOM     10  G   UNL     1      14.999 -30.242  21.533  1.00  0.00     0.000 G0
ENDBRANCH   6   7
ENDBRANCH   5   6
ENDBRANCH   3   5
ENDBRANCH   1   3
BRANCH   1  11
ATOM     11  C   UNL     1      16.868 -32.719  21.614  1.00  0.00     0.087 C 
BRANCH  11  12
ATOM     12  C   UNL     1      17.273 -31.410  22.341  1.00  0.00     0.066 C 
BRANCH  12  13
ATOM     13  C   UNL     1      16.507 -30.222  21.764  1.00  0.00     0.140 C 
ATOM     14  O   UNL     1      17.110 -29.180  21.554  1.00  0.00    -0.299 OA
BRANCH  13  15
ATOM     15  C   UNL     1      15.010 -30.237  21.524  1.00  0.00     0.106 CG0
ATOM     16  G   UNL     1      14.176 -29.949  22.758  1.00  0.00     0.000 G0
ENDBRANCH  13  15
ENDBRANCH  12  13
BRANCH  12  17
ATOM     17  C   UNL     1      18.812 -31.158  22.247  1.00  0.00    -0.006 C 
ATOM     18  C   UNL     1      19.480 -32.033  21.170  1.00  0.00     0.008 C 
ATOM     19  C   UNL     1      19.511 -31.415  23.595  1.00  0.00     0.008 C 
ENDBRANCH  12  17
ENDBRANCH  11  12
ENDBRANCH   1  11
TORSDOF 1
ENDMDL
