MODEL 1
REMARK VINA RESULT:    -8.892      0.000      0.000
REMARK INTER + INTRA:         -11.556
REMARK INTER:                 -11.232
REMARK INTRA:                  -0.324
REMARK UNBOUND:                -0.324
REMARK SMILES CC(C)[C@@H](C)C=C[C@@H](C)[C@H]1CC[C@H]2[C@]1(C)CC[C@@H]1[C@@]23C=C[C@@]2(C[C@@H](O)CC[C@@]12C)OO3
REMARK SMILES IDX 8 1 9 2 7 3 6 4 4 5 5 6 2 7 1 8 3 9 10 10 11 11 14 12 12 13
REMARK SMILES IDX 13 14 16 15 15 16 19 17 17 18 18 19 20 20 31 21 28 22 21 23
REMARK SMILES IDX 30 24 22 25 27 26 29 27 23 28 26 29 24 30 25 31
REMARK H PARENT 25 32
REMARK Flexibility Score: inf
ROOT
ATOM      1  C   UNL     1       4.510   6.477 -22.824  1.00  0.00     0.012 C 
ATOM      2  C   UNL     1       4.213   6.413 -21.306  1.00  0.00     0.012 C 
ENDROOT
BRANCH   1   3
ATOM      3  C   UNL     1       4.561   7.945 -23.210  1.00  0.00    -0.028 C 
ATOM      4  C   UNL     1       4.661   8.926 -22.294  1.00  0.00    -0.028 C 
BRANCH   4   5
ATOM      5  C   UNL     1       4.679  10.385 -22.698  1.00  0.00     0.011 C 
ATOM      6  C   UNL     1       3.298  10.806 -23.232  1.00  0.00     0.012 C 
BRANCH   5   7
ATOM      7  C   UNL     1       5.842  10.674 -23.697  1.00  0.00    -0.011 C 
ATOM      8  C   UNL     1       7.213  10.341 -23.090  1.00  0.00     0.008 C 
ATOM      9  C   UNL     1       5.841  12.115 -24.241  1.00  0.00     0.008 C 
ENDBRANCH   5   7
ENDBRANCH   4   5
ENDBRANCH   1   3
BRANCH   1  10
ATOM     10  C   UNL     1       3.480   5.654 -23.702  1.00  0.00     0.002 C 
ATOM     11  C   UNL     1       3.625   5.953 -25.212  1.00  0.00     0.005 C 
ATOM     12  C   UNL     1       3.587   4.084 -23.658  1.00  0.00    -0.023 C 
ATOM     13  C   UNL     1       4.419   4.807 -25.829  1.00  0.00     0.008 C 
ATOM     14  C   UNL     1       4.684   3.776 -24.716  1.00  0.00     0.035 C 
ATOM     15  C   UNL     1       2.184   3.462 -24.065  1.00  0.00     0.008 C 
ATOM     16  C   UNL     1       4.007   3.545 -22.267  1.00  0.00     0.012 C 
ATOM     17  C   UNL     1       4.776   2.274 -25.192  1.00  0.00     0.128 C 
ATOM     18  C   UNL     1       2.221   2.342 -25.132  1.00  0.00     0.008 C 
ATOM     19  C   UNL     1       3.458   1.471 -24.933  1.00  0.00     0.038 C 
ATOM     20  C   UNL     1       5.226   2.138 -26.646  1.00  0.00     0.010 C 
ATOM     21  O   UNL     1       5.786   1.564 -24.471  1.00  0.00    -0.224 OA
ATOM     22  C   UNL     1       3.539   0.067 -25.658  1.00  0.00     0.010 C 
ATOM     23  C   UNL     1       5.460   0.882 -27.017  1.00  0.00     0.011 C 
ATOM     24  O   UNL     1       5.795   0.227 -24.756  1.00  0.00    -0.224 OA
ATOM     25  C   UNL     1       5.076  -0.125 -25.958  1.00  0.00     0.130 C 
ATOM     26  C   UNL     1       3.050  -1.065 -24.703  1.00  0.00     0.013 C 
ATOM     27  C   UNL     1       2.676   0.044 -26.956  1.00  0.00     0.015 C 
ATOM     28  C   UNL     1       5.442  -1.557 -26.403  1.00  0.00     0.075 C 
ATOM     29  C   UNL     1       3.399  -2.470 -25.217  1.00  0.00     0.032 C 
ATOM     30  C   UNL     1       4.912  -2.630 -25.439  1.00  0.00     0.117 C 
BRANCH  30  31
ATOM     31  O   UNL     1       5.602  -2.555 -24.217  1.00  0.00    -0.393 OA
ATOM     32  H   UNL     1       5.215  -3.253 -23.626  1.00  0.00     0.210 HD
ENDBRANCH  30  31
ENDBRANCH   1  10
TORSDOF 5
ENDMDL
MODEL 2
REMARK VINA RESULT:    -8.882      2.940      9.005
REMARK INTER + INTRA:         -11.543
REMARK INTER:                 -10.874
REMARK INTRA:                  -0.669
REMARK UNBOUND:                -0.324
REMARK SMILES CC(C)[C@@H](C)C=C[C@@H](C)[C@H]1CC[C@H]2[C@]1(C)CC[C@@H]1[C@@]23C=C[C@@]2(C[C@@H](O)CC[C@@]12C)OO3
REMARK SMILES IDX 8 1 9 2 7 3 6 4 4 5 5 6 2 7 1 8 3 9 10 10 11 11 14 12 12 13
REMARK SMILES IDX 13 14 16 15 15 16 19 17 17 18 18 19 20 20 31 21 28 22 21 23
REMARK SMILES IDX 30 24 22 25 27 26 29 27 23 28 26 29 24 30 25 31
REMARK H PARENT 25 32
REMARK Flexibility Score: inf
ROOT
ATOM      1  C   UNL     1       4.360   0.587 -23.316  1.00  0.00     0.012 C 
ATOM      2  C   UNL     1       5.782   0.356 -22.751  1.00  0.00     0.012 C 
ENDROOT
BRANCH   1   3
ATOM      3  C   UNL     1       3.719  -0.779 -23.491  1.00  0.00    -0.028 C 
ATOM      4  C   UNL     1       4.346  -1.793 -24.115  1.00  0.00    -0.028 C 
BRANCH   4   5
ATOM      5  C   UNL     1       3.677  -3.137 -24.306  1.00  0.00     0.011 C 
ATOM      6  C   UNL     1       2.185  -3.046 -23.936  1.00  0.00     0.012 C 
BRANCH   5   7
ATOM      7  C   UNL     1       4.439  -4.255 -23.529  1.00  0.00    -0.011 C 
ATOM      8  C   UNL     1       3.623  -4.782 -22.339  1.00  0.00     0.008 C 
ATOM      9  C   UNL     1       5.843  -3.830 -23.061  1.00  0.00     0.008 C 
ENDBRANCH   5   7
ENDBRANCH   4   5
ENDBRANCH   1   3
BRANCH   1  10
ATOM     10  C   UNL     1       4.345   1.441 -24.651  1.00  0.00     0.002 C 
ATOM     11  C   UNL     1       3.022   1.279 -25.437  1.00  0.00     0.005 C 
ATOM     12  C   UNL     1       4.462   3.005 -24.509  1.00  0.00    -0.023 C 
ATOM     13  C   UNL     1       2.166   2.505 -25.143  1.00  0.00     0.008 C 
ATOM     14  C   UNL     1       2.995   3.446 -24.249  1.00  0.00     0.035 C 
ATOM     15  C   UNL     1       5.026   3.602 -25.868  1.00  0.00     0.008 C 
ATOM     16  C   UNL     1       5.376   3.438 -23.336  1.00  0.00     0.012 C 
ATOM     17  C   UNL     1       2.700   4.986 -24.430  1.00  0.00     0.128 C 
ATOM     18  C   UNL     1       4.256   4.809 -26.451  1.00  0.00     0.008 C 
ATOM     19  C   UNL     1       3.763   5.710 -25.322  1.00  0.00     0.038 C 
ATOM     20  C   UNL     1       1.283   5.265 -24.929  1.00  0.00     0.010 C 
ATOM     21  O   UNL     1       2.744   5.672 -23.176  1.00  0.00    -0.224 OA
ATOM     22  C   UNL     1       3.266   7.173 -25.661  1.00  0.00     0.010 C 
ATOM     23  C   UNL     1       0.964   6.557 -24.938  1.00  0.00     0.011 C 
ATOM     24  O   UNL     1       2.636   7.027 -23.314  1.00  0.00    -0.224 OA
ATOM     25  C   UNL     1       2.133   7.453 -24.599  1.00  0.00     0.130 C 
ATOM     26  C   UNL     1       4.425   8.198 -25.466  1.00  0.00     0.013 C 
ATOM     27  C   UNL     1       2.740   7.273 -27.125  1.00  0.00     0.015 C 
ATOM     28  C   UNL     1       1.693   8.931 -24.541  1.00  0.00     0.075 C 
ATOM     29  C   UNL     1       3.938   9.655 -25.464  1.00  0.00     0.032 C 
ATOM     30  C   UNL     1       2.878   9.895 -24.376  1.00  0.00     0.117 C 
BRANCH  30  31
ATOM     31  O   UNL     1       3.441   9.743 -23.097  1.00  0.00    -0.393 OA
ATOM     32  H   UNL     1       3.804  10.629 -22.837  1.00  0.00     0.210 HD
ENDBRANCH  30  31
ENDBRANCH   1  10
TORSDOF 5
ENDMDL
MODEL 3
REMARK VINA RESULT:    -8.800      2.934      9.074
REMARK INTER + INTRA:         -11.439
REMARK INTER:                 -10.468
REMARK INTRA:                  -0.971
REMARK UNBOUND:                -0.324
REMARK SMILES CC(C)[C@@H](C)C=C[C@@H](C)[C@H]1CC[C@H]2[C@]1(C)CC[C@@H]1[C@@]23C=C[C@@]2(C[C@@H](O)CC[C@@]12C)OO3
REMARK SMILES IDX 8 1 9 2 7 3 6 4 4 5 5 6 2 7 1 8 3 9 10 10 11 11 14 12 12 13
REMARK SMILES IDX 13 14 16 15 15 16 19 17 17 18 18 19 20 20 31 21 28 22 21 23
REMARK SMILES IDX 30 24 22 25 27 26 29 27 23 28 26 29 24 30 25 31
REMARK H PARENT 25 32
REMARK Flexibility Score: inf
ROOT
ATOM      1  C   UNL     1       4.178   1.646 -22.066  1.00  0.00     0.012 C 
ATOM      2  C   UNL     1       4.341   0.855 -20.746  1.00  0.00     0.012 C 
ENDROOT
BRANCH   1   3
ATOM      3  C   UNL     1       4.213   0.637 -23.201  1.00  0.00    -0.028 C 
ATOM      4  C   UNL     1       4.658  -0.622 -23.030  1.00  0.00    -0.028 C 
BRANCH   4   5
ATOM      5  C   UNL     1       4.714  -1.603 -24.182  1.00  0.00     0.011 C 
ATOM      6  C   UNL     1       3.648  -1.248 -25.235  1.00  0.00     0.012 C 
BRANCH   5   7
ATOM      7  C   UNL     1       4.610  -3.072 -23.669  1.00  0.00    -0.011 C 
ATOM      8  C   UNL     1       4.458  -3.135 -22.141  1.00  0.00     0.008 C 
ATOM      9  C   UNL     1       5.781  -3.965 -24.121  1.00  0.00     0.008 C 
ENDBRANCH   5   7
ENDBRANCH   4   5
ENDBRANCH   1   3
BRANCH   1  10
ATOM     10  C   UNL     1       5.250   2.799 -22.245  1.00  0.00     0.002 C 
ATOM     11  C   UNL     1       5.893   2.789 -23.651  1.00  0.00     0.005 C 
ATOM     12  C   UNL     1       4.740   4.283 -22.119  1.00  0.00    -0.023 C 
ATOM     13  C   UNL     1       5.209   3.875 -24.473  1.00  0.00     0.008 C 
ATOM     14  C   UNL     1       4.213   4.597 -23.546  1.00  0.00     0.035 C 
ATOM     15  C   UNL     1       5.965   5.214 -21.725  1.00  0.00     0.008 C 
ATOM     16  C   UNL     1       3.609   4.448 -21.073  1.00  0.00     0.012 C 
ATOM     17  C   UNL     1       3.972   6.123 -23.869  1.00  0.00     0.128 C 
ATOM     18  C   UNL     1       6.139   6.500 -22.566  1.00  0.00     0.008 C 
ATOM     19  C   UNL     1       4.773   7.080 -22.924  1.00  0.00     0.038 C 
ATOM     20  C   UNL     1       4.220   6.468 -25.337  1.00  0.00     0.010 C 
ATOM     21  O   UNL     1       2.601   6.483 -23.678  1.00  0.00    -0.224 OA
ATOM     22  C   UNL     1       4.681   8.563 -23.465  1.00  0.00     0.010 C 
ATOM     23  C   UNL     1       3.873   7.710 -25.660  1.00  0.00     0.011 C 
ATOM     24  O   UNL     1       2.386   7.826 -23.809  1.00  0.00    -0.224 OA
ATOM     25  C   UNL     1       3.460   8.536 -24.464  1.00  0.00     0.130 C 
ATOM     26  C   UNL     1       4.374   9.549 -22.296  1.00  0.00     0.013 C 
ATOM     27  C   UNL     1       6.005   9.000 -24.163  1.00  0.00     0.015 C 
ATOM     28  C   UNL     1       2.989   9.939 -24.901  1.00  0.00     0.075 C 
ATOM     29  C   UNL     1       3.956  10.943 -22.786  1.00  0.00     0.032 C 
ATOM     30  C   UNL     1       2.728  10.873 -23.709  1.00  0.00     0.117 C 
BRANCH  30  31
ATOM     31  O   UNL     1       1.600  10.432 -22.997  1.00  0.00    -0.393 OA
ATOM     32  H   UNL     1       1.598   9.441 -23.047  1.00  0.00     0.210 HD
ENDBRANCH  30  31
ENDBRANCH   1  10
TORSDOF 5
ENDMDL
MODEL 4
REMARK VINA RESULT:    -8.681      3.579      9.042
REMARK INTER + INTRA:         -11.289
REMARK INTER:                  -9.790
REMARK INTRA:                  -1.499
REMARK UNBOUND:                -0.324
REMARK SMILES CC(C)[C@@H](C)C=C[C@@H](C)[C@H]1CC[C@H]2[C@]1(C)CC[C@@H]1[C@@]23C=C[C@@]2(C[C@@H](O)CC[C@@]12C)OO3
REMARK SMILES IDX 8 1 9 2 7 3 6 4 4 5 5 6 2 7 1 8 3 9 10 10 11 11 14 12 12 13
REMARK SMILES IDX 13 14 16 15 15 16 19 17 17 18 18 19 20 20 31 21 28 22 21 23
REMARK SMILES IDX 30 24 22 25 27 26 29 27 23 28 26 29 24 30 25 31
REMARK H PARENT 25 32
REMARK Flexibility Score: inf
ROOT
ATOM      1  C   UNL     1       2.990   4.467 -25.577  1.00  0.00     0.012 C 
ATOM      2  C   UNL     1       1.928   3.704 -26.404  1.00  0.00     0.012 C 
ENDROOT
BRANCH   1   3
ATOM      3  C   UNL     1       3.503   3.510 -24.515  1.00  0.00    -0.028 C 
ATOM      4  C   UNL     1       4.816   3.342 -24.272  1.00  0.00    -0.028 C 
BRANCH   4   5
ATOM      5  C   UNL     1       5.308   2.360 -23.230  1.00  0.00     0.011 C 
ATOM      6  C   UNL     1       4.385   1.129 -23.183  1.00  0.00     0.012 C 
BRANCH   5   7
ATOM      7  C   UNL     1       5.481   3.056 -21.845  1.00  0.00    -0.011 C 
ATOM      8  C   UNL     1       4.134   3.261 -21.136  1.00  0.00     0.008 C 
ATOM      9  C   UNL     1       6.248   4.390 -21.919  1.00  0.00     0.008 C 
ENDBRANCH   5   7
ENDBRANCH   4   5
ENDBRANCH   1   3
BRANCH   1  10
ATOM     10  C   UNL     1       2.452   5.825 -24.963  1.00  0.00     0.002 C 
ATOM     11  C   UNL     1       2.520   5.838 -23.418  1.00  0.00     0.005 C 
ATOM     12  C   UNL     1       3.223   7.144 -25.344  1.00  0.00    -0.023 C 
ATOM     13  C   UNL     1       3.756   6.639 -23.023  1.00  0.00     0.008 C 
ATOM     14  C   UNL     1       4.390   7.180 -24.319  1.00  0.00     0.035 C 
ATOM     15  C   UNL     1       2.242   8.380 -25.166  1.00  0.00     0.008 C 
ATOM     16  C   UNL     1       3.773   7.126 -26.793  1.00  0.00     0.012 C 
ATOM     17  C   UNL     1       5.139   8.562 -24.180  1.00  0.00     0.128 C 
ATOM     18  C   UNL     1       2.803   9.583 -24.371  1.00  0.00     0.008 C 
ATOM     19  C   UNL     1       4.284   9.772 -24.685  1.00  0.00     0.038 C 
ATOM     20  C   UNL     1       5.666   8.814 -22.768  1.00  0.00     0.010 C 
ATOM     21  O   UNL     1       6.324   8.591 -24.979  1.00  0.00    -0.224 OA
ATOM     22  C   UNL     1       4.992  11.128 -24.283  1.00  0.00     0.010 C 
ATOM     23  C   UNL     1       6.433   9.896 -22.669  1.00  0.00     0.011 C 
ATOM     24  O   UNL     1       6.919   9.821 -24.995  1.00  0.00    -0.224 OA
ATOM     25  C   UNL     1       6.475  10.706 -23.944  1.00  0.00     0.130 C 
ATOM     26  C   UNL     1       4.997  12.116 -25.489  1.00  0.00     0.013 C 
ATOM     27  C   UNL     1       4.281  11.808 -23.073  1.00  0.00     0.015 C 
ATOM     28  C   UNL     1       7.440  11.902 -23.804  1.00  0.00     0.075 C 
ATOM     29  C   UNL     1       5.938  13.312 -25.278  1.00  0.00     0.032 C 
ATOM     30  C   UNL     1       7.381  12.854 -25.009  1.00  0.00     0.117 C 
BRANCH  30  31
ATOM     31  O   UNL     1       7.918  12.220 -26.142  1.00  0.00    -0.393 OA
ATOM     32  H   UNL     1       7.573  12.709 -26.934  1.00  0.00     0.210 HD
ENDBRANCH  30  31
ENDBRANCH   1  10
TORSDOF 5
ENDMDL
MODEL 5
REMARK VINA RESULT:    -8.667      1.835      2.909
REMARK INTER + INTRA:         -11.271
REMARK INTER:                 -10.280
REMARK INTRA:                  -0.991
REMARK UNBOUND:                -0.324
REMARK SMILES CC(C)[C@@H](C)C=C[C@@H](C)[C@H]1CC[C@H]2[C@]1(C)CC[C@@H]1[C@@]23C=C[C@@]2(C[C@@H](O)CC[C@@]12C)OO3
REMARK SMILES IDX 8 1 9 2 7 3 6 4 4 5 5 6 2 7 1 8 3 9 10 10 11 11 14 12 12 13
REMARK SMILES IDX 13 14 16 15 15 16 19 17 17 18 18 19 20 20 31 21 28 22 21 23
REMARK SMILES IDX 30 24 22 25 27 26 29 27 23 28 26 29 24 30 25 31
REMARK H PARENT 25 32
REMARK Flexibility Score: inf
ROOT
ATOM      1  C   UNL     1       5.424   5.468 -22.784  1.00  0.00     0.012 C 
ATOM      2  C   UNL     1       6.224   6.417 -21.859  1.00  0.00     0.012 C 
ENDROOT
BRANCH   1   3
ATOM      3  C   UNL     1       4.489   6.332 -23.613  1.00  0.00    -0.028 C 
ATOM      4  C   UNL     1       4.186   7.597 -23.270  1.00  0.00    -0.028 C 
BRANCH   4   5
ATOM      5  C   UNL     1       3.228   8.431 -24.093  1.00  0.00     0.011 C 
ATOM      6  C   UNL     1       2.932   7.733 -25.433  1.00  0.00     0.012 C 
BRANCH   5   7
ATOM      7  C   UNL     1       3.758   9.889 -24.260  1.00  0.00    -0.011 C 
ATOM      8  C   UNL     1       4.846   9.981 -25.341  1.00  0.00     0.008 C 
ATOM      9  C   UNL     1       4.264  10.513 -22.946  1.00  0.00     0.008 C 
ENDBRANCH   5   7
ENDBRANCH   4   5
ENDBRANCH   1   3
BRANCH   1  10
ATOM     10  C   UNL     1       4.658   4.324 -22.000  1.00  0.00     0.002 C 
ATOM     11  C   UNL     1       3.168   4.231 -22.404  1.00  0.00     0.005 C 
ATOM     12  C   UNL     1       5.156   2.845 -22.214  1.00  0.00    -0.023 C 
ATOM     13  C   UNL     1       3.033   3.070 -23.382  1.00  0.00     0.008 C 
ATOM     14  C   UNL     1       4.417   2.407 -23.509  1.00  0.00     0.035 C 
ATOM     15  C   UNL     1       4.720   1.971 -20.962  1.00  0.00     0.008 C 
ATOM     16  C   UNL     1       6.691   2.745 -22.404  1.00  0.00     0.012 C 
ATOM     17  C   UNL     1       4.402   0.856 -23.799  1.00  0.00     0.128 C 
ATOM     18  C   UNL     1       4.030   0.624 -21.280  1.00  0.00     0.008 C 
ATOM     19  C   UNL     1       4.660  -0.006 -22.519  1.00  0.00     0.038 C 
ATOM     20  C   UNL     1       3.136   0.399 -24.523  1.00  0.00     0.010 C 
ATOM     21  O   UNL     1       5.445   0.489 -24.706  1.00  0.00    -0.224 OA
ATOM     22  C   UNL     1       4.380  -1.530 -22.838  1.00  0.00     0.010 C 
ATOM     23  C   UNL     1       3.173  -0.872 -24.914  1.00  0.00     0.011 C 
ATOM     24  O   UNL     1       5.550  -0.864 -24.866  1.00  0.00    -0.224 OA
ATOM     25  C   UNL     1       4.396  -1.605 -24.414  1.00  0.00     0.130 C 
ATOM     26  C   UNL     1       5.522  -2.424 -22.264  1.00  0.00     0.013 C 
ATOM     27  C   UNL     1       3.019  -1.998 -22.239  1.00  0.00     0.015 C 
ATOM     28  C   UNL     1       4.434  -3.047 -24.962  1.00  0.00     0.075 C 
ATOM     29  C   UNL     1       5.485  -3.860 -22.805  1.00  0.00     0.032 C 
ATOM     30  C   UNL     1       5.561  -3.887 -24.341  1.00  0.00     0.117 C 
BRANCH  30  31
ATOM     31  O   UNL     1       6.808  -3.410 -24.782  1.00  0.00    -0.393 OA
ATOM     32  H   UNL     1       7.501  -3.914 -24.280  1.00  0.00     0.210 HD
ENDBRANCH  30  31
ENDBRANCH   1  10
TORSDOF 5
ENDMDL
MODEL 6
REMARK VINA RESULT:    -8.600      2.446      3.319
REMARK INTER + INTRA:         -11.186
REMARK INTER:                 -11.630
REMARK INTRA:                   0.444
REMARK UNBOUND:                -0.324
REMARK SMILES CC(C)[C@@H](C)C=C[C@@H](C)[C@H]1CC[C@H]2[C@]1(C)CC[C@@H]1[C@@]23C=C[C@@]2(C[C@@H](O)CC[C@@]12C)OO3
REMARK SMILES IDX 8 1 9 2 7 3 6 4 4 5 5 6 2 7 1 8 3 9 10 10 11 11 14 12 12 13
REMARK SMILES IDX 13 14 16 15 15 16 19 17 17 18 18 19 20 20 31 21 28 22 21 23
REMARK SMILES IDX 30 24 22 25 27 26 29 27 23 28 26 29 24 30 25 31
REMARK H PARENT 25 32
REMARK Flexibility Score: inf
ROOT
ATOM      1  C   UNL     1       5.094   5.391 -21.622  1.00  0.00     0.012 C 
ATOM      2  C   UNL     1       3.572   5.473 -21.350  1.00  0.00     0.012 C 
ENDROOT
BRANCH   1   3
ATOM      3  C   UNL     1       5.576   6.804 -21.901  1.00  0.00    -0.028 C 
ATOM      4  C   UNL     1       4.739   7.857 -21.929  1.00  0.00    -0.028 C 
BRANCH   4   5
ATOM      5  C   UNL     1       5.235   9.253 -22.240  1.00  0.00     0.011 C 
ATOM      6  C   UNL     1       4.054  10.164 -22.622  1.00  0.00     0.012 C 
BRANCH   5   7
ATOM      7  C   UNL     1       6.362   9.218 -23.318  1.00  0.00    -0.011 C 
ATOM      8  C   UNL     1       7.377  10.355 -23.122  1.00  0.00     0.008 C 
ATOM      9  C   UNL     1       5.830   9.228 -24.764  1.00  0.00     0.008 C 
ENDBRANCH   5   7
ENDBRANCH   4   5
ENDBRANCH   1   3
BRANCH   1  10
ATOM     10  C   UNL     1       5.473   4.380 -22.780  1.00  0.00     0.002 C 
ATOM     11  C   UNL     1       6.912   3.833 -22.635  1.00  0.00     0.005 C 
ATOM     12  C   UNL     1       4.622   3.060 -22.893  1.00  0.00    -0.023 C 
ATOM     13  C   UNL     1       6.811   2.439 -22.026  1.00  0.00     0.008 C 
ATOM     14  C   UNL     1       5.314   2.106 -21.879  1.00  0.00     0.035 C 
ATOM     15  C   UNL     1       4.720   2.511 -24.380  1.00  0.00     0.008 C 
ATOM     16  C   UNL     1       3.133   3.266 -22.516  1.00  0.00     0.012 C 
ATOM     17  C   UNL     1       4.943   0.578 -22.011  1.00  0.00     0.128 C 
ATOM     18  C   UNL     1       5.055   1.009 -24.529  1.00  0.00     0.008 C 
ATOM     19  C   UNL     1       4.374   0.209 -23.422  1.00  0.00     0.038 C 
ATOM     20  C   UNL     1       6.095  -0.349 -21.624  1.00  0.00     0.010 C 
ATOM     21  O   UNL     1       3.911   0.214 -21.092  1.00  0.00    -0.224 OA
ATOM     22  C   UNL     1       4.269  -1.364 -23.558  1.00  0.00     0.010 C 
ATOM     23  C   UNL     1       5.755  -1.634 -21.579  1.00  0.00     0.011 C 
ATOM     24  O   UNL     1       3.466  -1.065 -21.279  1.00  0.00    -0.224 OA
ATOM     25  C   UNL     1       4.349  -1.887 -22.072  1.00  0.00     0.130 C 
ATOM     26  C   UNL     1       2.893  -1.763 -24.175  1.00  0.00     0.013 C 
ATOM     27  C   UNL     1       5.411  -1.939 -24.449  1.00  0.00     0.015 C 
ATOM     28  C   UNL     1       3.975  -3.377 -21.922  1.00  0.00     0.075 C 
ATOM     29  C   UNL     1       2.592  -3.263 -24.041  1.00  0.00     0.032 C 
ATOM     30  C   UNL     1       2.624  -3.716 -22.572  1.00  0.00     0.117 C 
BRANCH  30  31
ATOM     31  O   UNL     1       1.583  -3.114 -21.846  1.00  0.00    -0.393 OA
ATOM     32  H   UNL     1       0.734  -3.489 -22.198  1.00  0.00     0.210 HD
ENDBRANCH  30  31
ENDBRANCH   1  10
TORSDOF 5
ENDMDL
MODEL 7
REMARK VINA RESULT:    -8.564      2.961      8.647
REMARK INTER + INTRA:         -11.141
REMARK INTER:                 -10.081
REMARK INTRA:                  -1.061
REMARK UNBOUND:                -0.324
REMARK SMILES CC(C)[C@@H](C)C=C[C@@H](C)[C@H]1CC[C@H]2[C@]1(C)CC[C@@H]1[C@@]23C=C[C@@]2(C[C@@H](O)CC[C@@]12C)OO3
REMARK SMILES IDX 8 1 9 2 7 3 6 4 4 5 5 6 2 7 1 8 3 9 10 10 11 11 14 12 12 13
REMARK SMILES IDX 13 14 16 15 15 16 19 17 17 18 18 19 20 20 31 21 28 22 21 23
REMARK SMILES IDX 30 24 22 25 27 26 29 27 23 28 26 29 24 30 25 31
REMARK H PARENT 25 32
REMARK Flexibility Score: inf
ROOT
ATOM      1  C   UNL     1       4.596  -0.098 -21.676  1.00  0.00     0.012 C 
ATOM      2  C   UNL     1       5.463  -0.707 -20.548  1.00  0.00     0.012 C 
ENDROOT
BRANCH   1   3
ATOM      3  C   UNL     1       4.134  -1.247 -22.555  1.00  0.00    -0.028 C 
ATOM      4  C   UNL     1       4.537  -2.515 -22.354  1.00  0.00    -0.028 C 
BRANCH   4   5
ATOM      5  C   UNL     1       4.089  -3.641 -23.261  1.00  0.00     0.011 C 
ATOM      6  C   UNL     1       3.570  -4.824 -22.423  1.00  0.00     0.012 C 
BRANCH   5   7
ATOM      7  C   UNL     1       5.221  -4.040 -24.257  1.00  0.00    -0.011 C 
ATOM      8  C   UNL     1       6.570  -4.223 -23.545  1.00  0.00     0.008 C 
ATOM      9  C   UNL     1       5.375  -3.061 -25.437  1.00  0.00     0.008 C 
ENDBRANCH   5   7
ENDBRANCH   4   5
ENDBRANCH   1   3
BRANCH   1  10
ATOM     10  C   UNL     1       5.338   1.035 -22.497  1.00  0.00     0.002 C 
ATOM     11  C   UNL     1       5.519   0.658 -23.986  1.00  0.00     0.005 C 
ATOM     12  C   UNL     1       4.631   2.439 -22.590  1.00  0.00    -0.023 C 
ATOM     13  C   UNL     1       4.435   1.384 -24.775  1.00  0.00     0.008 C 
ATOM     14  C   UNL     1       3.650   2.263 -23.782  1.00  0.00     0.035 C 
ATOM     15  C   UNL     1       5.729   3.547 -22.888  1.00  0.00     0.008 C 
ATOM     16  C   UNL     1       3.858   2.813 -21.300  1.00  0.00     0.012 C 
ATOM     17  C   UNL     1       3.052   3.594 -24.382  1.00  0.00     0.128 C 
ATOM     18  C   UNL     1       5.406   4.531 -24.037  1.00  0.00     0.008 C 
ATOM     19  C   UNL     1       3.915   4.856 -24.044  1.00  0.00     0.038 C 
ATOM     20  C   UNL     1       2.780   3.501 -25.883  1.00  0.00     0.010 C 
ATOM     21  O   UNL     1       1.762   3.875 -23.834  1.00  0.00    -0.224 OA
ATOM     22  C   UNL     1       3.398   6.094 -24.881  1.00  0.00     0.010 C 
ATOM     23  C   UNL     1       2.134   4.554 -26.375  1.00  0.00     0.011 C 
ATOM     24  O   UNL     1       1.279   5.093 -24.223  1.00  0.00    -0.224 OA
ATOM     25  C   UNL     1       1.958   5.662 -25.363  1.00  0.00     0.130 C 
ATOM     26  C   UNL     1       3.284   7.355 -23.971  1.00  0.00     0.013 C 
ATOM     27  C   UNL     1       4.348   6.414 -26.075  1.00  0.00     0.015 C 
ATOM     28  C   UNL     1       1.133   6.823 -25.956  1.00  0.00     0.075 C 
ATOM     29  C   UNL     1       2.494   8.496 -24.629  1.00  0.00     0.032 C 
ATOM     30  C   UNL     1       1.079   8.046 -25.028  1.00  0.00     0.117 C 
BRANCH  30  31
ATOM     31  O   UNL     1       0.316   7.744 -23.887  1.00  0.00    -0.393 OA
ATOM     32  H   UNL     1       0.288   6.755 -23.814  1.00  0.00     0.210 HD
ENDBRANCH  30  31
ENDBRANCH   1  10
TORSDOF 5
ENDMDL
MODEL 8
REMARK VINA RESULT:    -8.368      2.214      3.361
REMARK INTER + INTRA:         -10.893
REMARK INTER:                  -9.607
REMARK INTRA:                  -1.286
REMARK UNBOUND:                -0.324
REMARK SMILES CC(C)[C@@H](C)C=C[C@@H](C)[C@H]1CC[C@H]2[C@]1(C)CC[C@@H]1[C@@]23C=C[C@@]2(C[C@@H](O)CC[C@@]12C)OO3
REMARK SMILES IDX 8 1 9 2 7 3 6 4 4 5 5 6 2 7 1 8 3 9 10 10 11 11 14 12 12 13
REMARK SMILES IDX 13 14 16 15 15 16 19 17 17 18 18 19 20 20 31 21 28 22 21 23
REMARK SMILES IDX 30 24 22 25 27 26 29 27 23 28 26 29 24 30 25 31
REMARK H PARENT 25 32
REMARK Flexibility Score: inf
ROOT
ATOM      1  C   UNL     1       2.593   6.374 -25.111  1.00  0.00     0.012 C 
ATOM      2  C   UNL     1       2.688   7.784 -25.742  1.00  0.00     0.012 C 
ENDROOT
BRANCH   1   3
ATOM      3  C   UNL     1       3.709   6.266 -24.086  1.00  0.00    -0.028 C 
ATOM      4  C   UNL     1       3.468   6.197 -22.764  1.00  0.00    -0.028 C 
BRANCH   4   5
ATOM      5  C   UNL     1       4.596   6.121 -21.758  1.00  0.00     0.011 C 
ATOM      6  C   UNL     1       5.814   6.916 -22.263  1.00  0.00     0.012 C 
BRANCH   5   7
ATOM      7  C   UNL     1       4.930   4.639 -21.404  1.00  0.00    -0.011 C 
ATOM      8  C   UNL     1       5.990   4.051 -22.347  1.00  0.00     0.008 C 
ATOM      9  C   UNL     1       3.692   3.723 -21.363  1.00  0.00     0.008 C 
ENDBRANCH   5   7
ENDBRANCH   4   5
ENDBRANCH   1   3
BRANCH   1  10
ATOM     10  C   UNL     1       2.631   5.203 -26.177  1.00  0.00     0.002 C 
ATOM     11  C   UNL     1       4.007   5.090 -26.875  1.00  0.00     0.005 C 
ATOM     12  C   UNL     1       2.401   3.738 -25.648  1.00  0.00    -0.023 C 
ATOM     13  C   UNL     1       4.760   3.942 -26.212  1.00  0.00     0.008 C 
ATOM     14  C   UNL     1       3.816   3.307 -25.173  1.00  0.00     0.035 C 
ATOM     15  C   UNL     1       1.881   2.836 -26.847  1.00  0.00     0.008 C 
ATOM     16  C   UNL     1       1.390   3.670 -24.476  1.00  0.00     0.012 C 
ATOM     17  C   UNL     1       4.018   1.761 -24.930  1.00  0.00     0.128 C 
ATOM     18  C   UNL     1       2.603   1.482 -27.041  1.00  0.00     0.008 C 
ATOM     19  C   UNL     1       2.965   0.883 -25.684  1.00  0.00     0.038 C 
ATOM     20  C   UNL     1       5.441   1.292 -25.232  1.00  0.00     0.010 C 
ATOM     21  O   UNL     1       3.852   1.428 -23.549  1.00  0.00    -0.224 OA
ATOM     22  C   UNL     1       3.382  -0.640 -25.598  1.00  0.00     0.010 C 
ATOM     23  C   UNL     1       5.671   0.029 -24.885  1.00  0.00     0.011 C 
ATOM     24  O   UNL     1       3.877   0.080 -23.326  1.00  0.00    -0.224 OA
ATOM     25  C   UNL     1       4.427  -0.689 -24.417  1.00  0.00     0.130 C 
ATOM     26  C   UNL     1       2.147  -1.521 -25.236  1.00  0.00     0.013 C 
ATOM     27  C   UNL     1       3.987  -1.144 -26.944  1.00  0.00     0.015 C 
ATOM     28  C   UNL     1       4.762  -2.122 -23.950  1.00  0.00     0.075 C 
ATOM     29  C   UNL     1       2.534  -2.949 -24.824  1.00  0.00     0.032 C 
ATOM     30  C   UNL     1       3.507  -2.950 -23.633  1.00  0.00     0.117 C 
BRANCH  30  31
ATOM     31  O   UNL     1       2.880  -2.442 -22.482  1.00  0.00    -0.393 OA
ATOM     32  H   UNL     1       3.471  -2.658 -21.715  1.00  0.00     0.210 HD
ENDBRANCH  30  31
ENDBRANCH   1  10
TORSDOF 5
ENDMDL
MODEL 9
REMARK VINA RESULT:    -8.266      2.496      8.503
REMARK INTER + INTRA:         -10.765
REMARK INTER:                  -9.776
REMARK INTRA:                  -0.989
REMARK UNBOUND:                -0.324
REMARK SMILES CC(C)[C@@H](C)C=C[C@@H](C)[C@H]1CC[C@H]2[C@]1(C)CC[C@@H]1[C@@]23C=C[C@@]2(C[C@@H](O)CC[C@@]12C)OO3
REMARK SMILES IDX 8 1 9 2 7 3 6 4 4 5 5 6 2 7 1 8 3 9 10 10 11 11 14 12 12 13
REMARK SMILES IDX 13 14 16 15 15 16 19 17 17 18 18 19 20 20 31 21 28 22 21 23
REMARK SMILES IDX 30 24 22 25 27 26 29 27 23 28 26 29 24 30 25 31
REMARK H PARENT 25 32
REMARK Flexibility Score: inf
ROOT
ATOM      1  C   UNL     1       4.292   0.707 -25.992  1.00  0.00     0.012 C 
ATOM      2  C   UNL     1       4.075  -0.393 -27.060  1.00  0.00     0.012 C 
ENDROOT
BRANCH   1   3
ATOM      3  C   UNL     1       3.980   0.087 -24.641  1.00  0.00    -0.028 C 
ATOM      4  C   UNL     1       4.870   0.074 -23.632  1.00  0.00    -0.028 C 
BRANCH   4   5
ATOM      5  C   UNL     1       4.549  -0.576 -22.303  1.00  0.00     0.011 C 
ATOM      6  C   UNL     1       5.701  -0.347 -21.308  1.00  0.00     0.012 C 
BRANCH   5   7
ATOM      7  C   UNL     1       4.186  -2.082 -22.491  1.00  0.00    -0.011 C 
ATOM      8  C   UNL     1       3.164  -2.558 -21.448  1.00  0.00     0.008 C 
ATOM      9  C   UNL     1       5.412  -3.014 -22.494  1.00  0.00     0.008 C 
ENDBRANCH   5   7
ENDBRANCH   4   5
ENDBRANCH   1   3
BRANCH   1  10
ATOM     10  C   UNL     1       3.455   2.023 -26.265  1.00  0.00     0.002 C 
ATOM     11  C   UNL     1       2.167   2.088 -25.410  1.00  0.00     0.005 C 
ATOM     12  C   UNL     1       4.146   3.399 -25.937  1.00  0.00    -0.023 C 
ATOM     13  C   UNL     1       2.448   3.017 -24.235  1.00  0.00     0.008 C 
ATOM     14  C   UNL     1       3.870   3.579 -24.418  1.00  0.00     0.035 C 
ATOM     15  C   UNL     1       3.455   4.539 -26.800  1.00  0.00     0.008 C 
ATOM     16  C   UNL     1       5.670   3.392 -26.216  1.00  0.00     0.012 C 
ATOM     17  C   UNL     1       4.104   5.031 -23.845  1.00  0.00     0.128 C 
ATOM     18  C   UNL     1       3.034   5.813 -26.031  1.00  0.00     0.008 C 
ATOM     19  C   UNL     1       4.064   6.136 -24.952  1.00  0.00     0.038 C 
ATOM     20  C   UNL     1       3.162   5.373 -22.692  1.00  0.00     0.010 C 
ATOM     21  O   UNL     1       5.400   5.151 -23.253  1.00  0.00    -0.224 OA
ATOM     22  C   UNL     1       4.051   7.566 -24.275  1.00  0.00     0.010 C 
ATOM     23  C   UNL     1       3.446   6.528 -22.095  1.00  0.00     0.011 C 
ATOM     24  O   UNL     1       5.689   6.432 -22.876  1.00  0.00    -0.224 OA
ATOM     25  C   UNL     1       4.538   7.300 -22.798  1.00  0.00     0.130 C 
ATOM     26  C   UNL     1       5.061   8.514 -24.992  1.00  0.00     0.013 C 
ATOM     27  C   UNL     1       2.631   8.208 -24.322  1.00  0.00     0.015 C 
ATOM     28  C   UNL     1       4.887   8.588 -22.023  1.00  0.00     0.075 C 
ATOM     29  C   UNL     1       5.336   9.801 -24.200  1.00  0.00     0.032 C 
ATOM     30  C   UNL     1       5.863   9.494 -22.789  1.00  0.00     0.117 C 
BRANCH  30  31
ATOM     31  O   UNL     1       7.127   8.883 -22.856  1.00  0.00    -0.393 OA
ATOM     32  H   UNL     1       7.222   8.331 -22.036  1.00  0.00     0.210 HD
ENDBRANCH  30  31
ENDBRANCH   1  10
TORSDOF 5
ENDMDL
