MODEL 1
REMARK VINA RESULT:    -5.926      0.000      0.000
REMARK INTER + INTRA:          -6.099
REMARK INTER:                  -6.099
REMARK INTRA:                   0.000
REMARK UNBOUND:                 0.000
REMARK SMILES Oc1ccc2[nH]ccc2c1
REMARK SMILES IDX 3 1 4 2 5 3 9 4 8 5 7 6 6 7 10 8 2 9 1 11
REMARK H PARENT 6 10 1 12
REMARK Flexibility Score: inf
ROOT
ATOM      1  C   UNL     1      32.449   5.292 108.141  1.00  0.00     0.048 A 
ATOM      2  C   UNL     1      31.687   5.039 106.985  1.00  0.00     0.030 A 
ATOM      3  C   UNL     1      31.287   6.130 106.217  1.00  0.00     0.046 A 
ATOM      4  C   UNL     1      31.617   7.414 106.564  1.00  0.00     0.003 A 
ATOM      5  C   UNL     1      31.077   8.249 105.611  1.00  0.00     0.028 A 
ATOM      6  C   UNL     1      30.431   7.406 104.712  1.00  0.00     0.083 A 
ATOM      7  N   UNL     1      30.563   6.113 105.087  1.00  0.00    -0.361 N 
ATOM      8  C   UNL     1      32.368   7.699 107.702  1.00  0.00     0.056 A 
ATOM      9  C   UNL     1      32.790   6.615 108.502  1.00  0.00     0.116 A 
ATOM     10  H   UNL     1      30.178   5.276 104.595  1.00  0.00     0.166 HD
ENDROOT
BRANCH   9  11
ATOM     11  O   UNL     1      33.544   6.839 109.652  1.00  0.00    -0.508 OA
ATOM     12  H   UNL     1      34.294   6.215 109.922  1.00  0.00     0.293 HD
ENDBRANCH   9  11
TORSDOF 1
ENDMDL
MODEL 2
REMARK VINA RESULT:    -5.624      2.105      3.411
REMARK INTER + INTRA:          -5.788
REMARK INTER:                  -5.788
REMARK INTRA:                   0.000
REMARK UNBOUND:                 0.000
REMARK SMILES Oc1ccc2[nH]ccc2c1
REMARK SMILES IDX 3 1 4 2 5 3 9 4 8 5 7 6 6 7 10 8 2 9 1 11
REMARK H PARENT 6 10 1 12
REMARK Flexibility Score: inf
ROOT
ATOM      1  C   UNL     1      30.644   7.807 104.777  1.00  0.00     0.048 A 
ATOM      2  C   UNL     1      30.612   6.444 105.125  1.00  0.00     0.030 A 
ATOM      3  C   UNL     1      31.223   6.062 106.318  1.00  0.00     0.046 A 
ATOM      4  C   UNL     1      31.838   6.972 107.135  1.00  0.00     0.003 A 
ATOM      5  C   UNL     1      32.335   6.282 108.219  1.00  0.00     0.028 A 
ATOM      6  C   UNL     1      31.985   4.954 107.996  1.00  0.00     0.083 A 
ATOM      7  N   UNL     1      31.305   4.825 106.833  1.00  0.00    -0.361 N 
ATOM      8  C   UNL     1      31.889   8.328 106.821  1.00  0.00     0.056 A 
ATOM      9  C   UNL     1      31.279   8.749 105.619  1.00  0.00     0.116 A 
ATOM     10  H   UNL     1      30.926   3.942 106.424  1.00  0.00     0.166 HD
ENDROOT
BRANCH   9  11
ATOM     11  O   UNL     1      31.299  10.092 105.252  1.00  0.00    -0.508 OA
ATOM     12  H   UNL     1      30.765  10.432 104.460  1.00  0.00     0.293 HD
ENDBRANCH   9  11
TORSDOF 1
ENDMDL
MODEL 3
REMARK VINA RESULT:    -5.432      1.658      2.297
REMARK INTER + INTRA:          -5.591
REMARK INTER:                  -5.591
REMARK INTRA:                   0.000
REMARK UNBOUND:                 0.000
REMARK SMILES Oc1ccc2[nH]ccc2c1
REMARK SMILES IDX 3 1 4 2 5 3 9 4 8 5 7 6 6 7 10 8 2 9 1 11
REMARK H PARENT 6 10 1 12
REMARK Flexibility Score: inf
ROOT
ATOM      1  C   UNL     1      32.615   5.998 108.183  1.00  0.00     0.048 A 
ATOM      2  C   UNL     1      32.386   7.347 107.855  1.00  0.00     0.030 A 
ATOM      3  C   UNL     1      31.645   7.621 106.707  1.00  0.00     0.046 A 
ATOM      4  C   UNL     1      31.150   6.619 105.914  1.00  0.00     0.003 A 
ATOM      5  C   UNL     1      30.473   7.216 104.873  1.00  0.00     0.028 A 
ATOM      6  C   UNL     1      30.596   8.584 105.095  1.00  0.00     0.083 A 
ATOM      7  N   UNL     1      31.312   8.826 106.217  1.00  0.00    -0.361 N 
ATOM      8  C   UNL     1      31.359   5.275 106.209  1.00  0.00     0.056 A 
ATOM      9  C   UNL     1      32.105   4.962 107.366  1.00  0.00     0.116 A 
ATOM     10  H   UNL     1      31.555   9.760 106.616  1.00  0.00     0.166 HD
ENDROOT
BRANCH   9  11
ATOM     11  O   UNL     1      32.347   3.635 107.712  1.00  0.00    -0.508 OA
ATOM     12  H   UNL     1      32.946   3.393 108.493  1.00  0.00     0.293 HD
ENDBRANCH   9  11
TORSDOF 1
ENDMDL
MODEL 4
REMARK VINA RESULT:    -5.368      2.666      4.119
REMARK INTER + INTRA:          -5.525
REMARK INTER:                  -5.525
REMARK INTRA:                   0.000
REMARK UNBOUND:                 0.000
REMARK SMILES Oc1ccc2[nH]ccc2c1
REMARK SMILES IDX 3 1 4 2 5 3 9 4 8 5 7 6 6 7 10 8 2 9 1 11
REMARK H PARENT 6 10 1 12
REMARK Flexibility Score: inf
ROOT
ATOM      1  C   UNL     1      31.006   8.419 105.121  1.00  0.00     0.048 A 
ATOM      2  C   UNL     1      31.745   8.842 106.241  1.00  0.00     0.030 A 
ATOM      3  C   UNL     1      32.075   7.887 107.201  1.00  0.00     0.046 A 
ATOM      4  C   UNL     1      31.698   6.577 107.072  1.00  0.00     0.003 A 
ATOM      5  C   UNL     1      32.174   5.902 108.175  1.00  0.00     0.028 A 
ATOM      6  C   UNL     1      32.832   6.864 108.935  1.00  0.00     0.083 A 
ATOM      7  N   UNL     1      32.769   8.076 108.335  1.00  0.00    -0.361 N 
ATOM      8  C   UNL     1      30.966   6.125 105.978  1.00  0.00     0.056 A 
ATOM      9  C   UNL     1      30.615   7.066 104.985  1.00  0.00     0.116 A 
ATOM     10  H   UNL     1      33.176   8.970 108.687  1.00  0.00     0.166 HD
ENDROOT
BRANCH   9  11
ATOM     11  O   UNL     1      29.883   6.673 103.868  1.00  0.00    -0.508 OA
ATOM     12  H   UNL     1      29.941   5.730 103.502  1.00  0.00     0.293 HD
ENDBRANCH   9  11
TORSDOF 1
ENDMDL
MODEL 5
REMARK VINA RESULT:    -5.341      2.581      3.565
REMARK INTER + INTRA:          -5.497
REMARK INTER:                  -5.497
REMARK INTRA:                   0.000
REMARK UNBOUND:                 0.000
REMARK SMILES Oc1ccc2[nH]ccc2c1
REMARK SMILES IDX 3 1 4 2 5 3 9 4 8 5 7 6 6 7 10 8 2 9 1 11
REMARK H PARENT 6 10 1 12
REMARK Flexibility Score: inf
ROOT
ATOM      1  C   UNL     1      31.018   5.191 105.845  1.00  0.00     0.048 A 
ATOM      2  C   UNL     1      31.758   4.894 107.004  1.00  0.00     0.030 A 
ATOM      3  C   UNL     1      32.267   5.960 107.743  1.00  0.00     0.046 A 
ATOM      4  C   UNL     1      32.059   7.260 107.367  1.00  0.00     0.003 A 
ATOM      5  C   UNL     1      32.683   8.063 108.297  1.00  0.00     0.028 A 
ATOM      6  C   UNL     1      33.251   7.183 109.214  1.00  0.00     0.083 A 
ATOM      7  N   UNL     1      32.993   5.900 108.871  1.00  0.00    -0.361 N 
ATOM      8  C   UNL     1      31.332   7.589 106.226  1.00  0.00     0.056 A 
ATOM      9  C   UNL     1      30.803   6.533 105.454  1.00  0.00     0.116 A 
ATOM     10  H   UNL     1      33.299   5.042 109.382  1.00  0.00     0.166 HD
ENDROOT
BRANCH   9  11
ATOM     11  O   UNL     1      30.067   6.801 104.302  1.00  0.00    -0.508 OA
ATOM     12  H   UNL     1      29.067   6.640 104.264  1.00  0.00     0.293 HD
ENDBRANCH   9  11
TORSDOF 1
ENDMDL
MODEL 6
REMARK VINA RESULT:    -5.144      2.249      3.195
REMARK INTER + INTRA:          -5.294
REMARK INTER:                  -5.294
REMARK INTRA:                   0.000
REMARK UNBOUND:                 0.000
REMARK SMILES Oc1ccc2[nH]ccc2c1
REMARK SMILES IDX 3 1 4 2 5 3 9 4 8 5 7 6 6 7 10 8 2 9 1 11
REMARK H PARENT 6 10 1 12
REMARK Flexibility Score: inf
ROOT
ATOM      1  C   UNL     1      31.645   4.888 106.108  1.00  0.00     0.048 A 
ATOM      2  C   UNL     1      30.963   6.066 106.464  1.00  0.00     0.030 A 
ATOM      3  C   UNL     1      31.438   6.788 107.558  1.00  0.00     0.046 A 
ATOM      4  C   UNL     1      32.532   6.376 108.272  1.00  0.00     0.003 A 
ATOM      5  C   UNL     1      32.739   7.297 109.276  1.00  0.00     0.028 A 
ATOM      6  C   UNL     1      31.732   8.244 109.113  1.00  0.00     0.083 A 
ATOM      7  N   UNL     1      30.940   7.929 108.062  1.00  0.00    -0.361 N 
ATOM      8  C   UNL     1      33.229   5.216 107.946  1.00  0.00     0.056 A 
ATOM      9  C   UNL     1      32.775   4.461 106.843  1.00  0.00     0.116 A 
ATOM     10  H   UNL     1      30.113   8.465 107.718  1.00  0.00     0.166 HD
ENDROOT
BRANCH   9  11
ATOM     11  O   UNL     1      33.432   3.291 106.471  1.00  0.00    -0.508 OA
ATOM     12  H   UNL     1      34.232   2.946 106.988  1.00  0.00     0.293 HD
ENDBRANCH   9  11
TORSDOF 1
ENDMDL
MODEL 7
REMARK VINA RESULT:    -5.045      2.384      3.613
REMARK INTER + INTRA:          -5.192
REMARK INTER:                  -5.192
REMARK INTRA:                   0.000
REMARK UNBOUND:                 0.000
REMARK SMILES Oc1ccc2[nH]ccc2c1
REMARK SMILES IDX 3 1 4 2 5 3 9 4 8 5 7 6 6 7 10 8 2 9 1 11
REMARK H PARENT 6 10 1 12
REMARK Flexibility Score: inf
ROOT
ATOM      1  C   UNL     1      32.150   8.865 106.937  1.00  0.00     0.048 A 
ATOM      2  C   UNL     1      32.564   7.873 107.846  1.00  0.00     0.030 A 
ATOM      3  C   UNL     1      32.149   6.563 107.613  1.00  0.00     0.046 A 
ATOM      4  C   UNL     1      31.365   6.237 106.539  1.00  0.00     0.003 A 
ATOM      5  C   UNL     1      31.134   4.880 106.595  1.00  0.00     0.028 A 
ATOM      6  C   UNL     1      31.810   4.442 107.730  1.00  0.00     0.083 A 
ATOM      7  N   UNL     1      32.429   5.475 108.348  1.00  0.00    -0.361 N 
ATOM      8  C   UNL     1      30.937   7.194 105.622  1.00  0.00     0.056 A 
ATOM      9  C   UNL     1      31.340   8.531 105.828  1.00  0.00     0.116 A 
ATOM     10  H   UNL     1      33.004   5.429 109.218  1.00  0.00     0.166 HD
ENDROOT
BRANCH   9  11
ATOM     11  O   UNL     1      30.943   9.531 104.944  1.00  0.00    -0.508 OA
ATOM     12  H   UNL     1      31.351  10.458 104.976  1.00  0.00     0.293 HD
ENDBRANCH   9  11
TORSDOF 1
ENDMDL
MODEL 8
REMARK VINA RESULT:    -5.028      1.688      3.059
REMARK INTER + INTRA:          -5.175
REMARK INTER:                  -5.175
REMARK INTRA:                   0.000
REMARK UNBOUND:                 0.000
REMARK SMILES Oc1ccc2[nH]ccc2c1
REMARK SMILES IDX 3 1 4 2 5 3 9 4 8 5 7 6 6 7 10 8 2 9 1 11
REMARK H PARENT 6 10 1 12
REMARK Flexibility Score: inf
ROOT
ATOM      1  C   UNL     1      30.728   7.045 107.124  1.00  0.00     0.048 A 
ATOM      2  C   UNL     1      31.012   5.989 106.239  1.00  0.00     0.030 A 
ATOM      3  C   UNL     1      32.075   5.144 106.553  1.00  0.00     0.046 A 
ATOM      4  C   UNL     1      32.826   5.323 107.684  1.00  0.00     0.003 A 
ATOM      5  C   UNL     1      33.784   4.333 107.702  1.00  0.00     0.028 A 
ATOM      6  C   UNL     1      33.557   3.586 106.550  1.00  0.00     0.083 A 
ATOM      7  N   UNL     1      32.511   4.085 105.852  1.00  0.00    -0.361 N 
ATOM      8  C   UNL     1      32.573   6.358 108.580  1.00  0.00     0.056 A 
ATOM      9  C   UNL     1      31.503   7.232 108.292  1.00  0.00     0.116 A 
ATOM     10  H   UNL     1      32.126   3.719 104.953  1.00  0.00     0.166 HD
ENDROOT
BRANCH   9  11
ATOM     11  O   UNL     1      31.202   8.286 109.152  1.00  0.00    -0.508 OA
ATOM     12  H   UNL     1      31.585   8.330 110.089  1.00  0.00     0.293 HD
ENDBRANCH   9  11
TORSDOF 1
ENDMDL
MODEL 9
REMARK VINA RESULT:    -4.824      1.276      2.126
REMARK INTER + INTRA:          -4.965
REMARK INTER:                  -4.965
REMARK INTRA:                   0.000
REMARK UNBOUND:                 0.000
REMARK SMILES Oc1ccc2[nH]ccc2c1
REMARK SMILES IDX 3 1 4 2 5 3 9 4 8 5 7 6 6 7 10 8 2 9 1 11
REMARK H PARENT 6 10 1 12
REMARK Flexibility Score: inf
ROOT
ATOM      1  C   UNL     1      33.467   8.319 107.996  1.00  0.00     0.048 A 
ATOM      2  C   UNL     1      32.929   8.971 106.870  1.00  0.00     0.030 A 
ATOM      3  C   UNL     1      31.937   8.310 106.148  1.00  0.00     0.046 A 
ATOM      4  C   UNL     1      31.491   7.067 106.510  1.00  0.00     0.003 A 
ATOM      5  C   UNL     1      30.522   6.698 105.603  1.00  0.00     0.028 A 
ATOM      6  C   UNL     1      30.429   7.765 104.716  1.00  0.00     0.083 A 
ATOM      7  N   UNL     1      31.295   8.748 105.053  1.00  0.00    -0.361 N 
ATOM      8  C   UNL     1      32.002   6.394 107.617  1.00  0.00     0.056 A 
ATOM      9  C   UNL     1      33.008   7.036 108.371  1.00  0.00     0.116 A 
ATOM     10  H   UNL     1      31.433   9.658 104.560  1.00  0.00     0.166 HD
ENDROOT
BRANCH   9  11
ATOM     11  O   UNL     1      33.558   6.412 109.489  1.00  0.00    -0.508 OA
ATOM     12  H   UNL     1      34.176   6.907 110.121  1.00  0.00     0.293 HD
ENDBRANCH   9  11
TORSDOF 1
ENDMDL
