MODEL 1
REMARK VINA RESULT:    -4.119      0.000      0.000
REMARK INTER + INTRA:          -5.184
REMARK INTER:                  -4.961
REMARK INTRA:                  -0.223
REMARK UNBOUND:                -0.223
REMARK SMILES C=CCc1ccc(O)c(OC)c1
REMARK SMILES IDX 9 1 7 2 6 3 5 4 4 5 12 6 10 7 11 8 8 9 3 11 2 12 1 13
REMARK H PARENT 8 10
REMARK Flexibility Score: inf
ROOT
ATOM      1  C   UNL     1     161.796 164.502 168.233  1.00  0.00     0.160 A 
ATOM      2  C   UNL     1     161.810 164.930 166.897  1.00  0.00     0.157 A 
ATOM      3  C   UNL     1     162.891 165.672 166.407  1.00  0.00     0.050 A 
ATOM      4  C   UNL     1     163.964 165.989 167.242  1.00  0.00     0.008 A 
ATOM      5  C   UNL     1     163.972 165.560 168.577  1.00  0.00    -0.040 A 
ATOM      6  C   UNL     1     162.883 164.824 169.071  1.00  0.00     0.054 A 
ENDROOT
BRANCH   1   7
ATOM      7  O   UNL     1     160.691 163.766 168.689  1.00  0.00    -0.493 OA
ATOM      8  C   UNL     1     160.687 162.355 168.880  1.00  0.00     0.278 C 
ENDBRANCH   1   7
BRANCH   2   9
ATOM      9  O   UNL     1     160.739 164.613 166.062  1.00  0.00    -0.504 OA
ATOM     10  H   UNL     1     160.368 163.672 166.009  1.00  0.00     0.293 HD
ENDBRANCH   2   9
BRANCH   5  11
ATOM     11  C   UNL     1     165.117 165.930 169.483  1.00  0.00     0.062 C 
BRANCH  11  12
ATOM     12  C   UNL     1     166.414 165.396 168.947  1.00  0.00    -0.030 C 
ATOM     13  C   UNL     1     167.561 166.071 169.079  1.00  0.00     0.004 C 
ENDBRANCH  11  12
ENDBRANCH   5  11
TORSDOF 4
ENDMDL
MODEL 2
REMARK VINA RESULT:    -4.036      4.682      6.848
REMARK INTER + INTRA:          -5.085
REMARK INTER:                  -4.983
REMARK INTRA:                  -0.102
REMARK UNBOUND:                -0.223
REMARK SMILES C=CCc1ccc(O)c(OC)c1
REMARK SMILES IDX 9 1 7 2 6 3 5 4 4 5 12 6 10 7 11 8 8 9 3 11 2 12 1 13
REMARK H PARENT 8 10
REMARK Flexibility Score: inf
ROOT
ATOM      1  C   UNL     1     169.385 166.688 168.168  1.00  0.00     0.160 A 
ATOM      2  C   UNL     1     169.456 166.290 166.824  1.00  0.00     0.157 A 
ATOM      3  C   UNL     1     168.420 165.537 166.258  1.00  0.00     0.050 A 
ATOM      4  C   UNL     1     167.309 165.180 167.023  1.00  0.00     0.008 A 
ATOM      5  C   UNL     1     167.216 165.580 168.365  1.00  0.00    -0.040 A 
ATOM      6  C   UNL     1     168.259 166.326 168.935  1.00  0.00     0.054 A 
ENDROOT
BRANCH   1   7
ATOM      7  O   UNL     1     170.446 167.436 168.702  1.00  0.00    -0.493 OA
ATOM      8  C   UNL     1     170.359 168.227 169.883  1.00  0.00     0.278 C 
ENDBRANCH   1   7
BRANCH   2   9
ATOM      9  O   UNL     1     170.566 166.646 166.059  1.00  0.00    -0.504 OA
ATOM     10  H   UNL     1     170.472 166.940 165.094  1.00  0.00     0.293 HD
ENDBRANCH   2   9
BRANCH   5  11
ATOM     11  C   UNL     1     166.030 165.166 169.195  1.00  0.00     0.062 C 
BRANCH  11  12
ATOM     12  C   UNL     1     164.877 166.106 168.982  1.00  0.00    -0.030 C 
ATOM     13  C   UNL     1     164.147 166.082 167.863  1.00  0.00     0.004 C 
ENDBRANCH  11  12
ENDBRANCH   5  11
TORSDOF 4
ENDMDL
MODEL 3
REMARK VINA RESULT:    -4.026      4.496      6.907
REMARK INTER + INTRA:          -5.073
REMARK INTER:                  -4.872
REMARK INTRA:                  -0.201
REMARK UNBOUND:                -0.223
REMARK SMILES C=CCc1ccc(O)c(OC)c1
REMARK SMILES IDX 9 1 7 2 6 3 5 4 4 5 12 6 10 7 11 8 8 9 3 11 2 12 1 13
REMARK H PARENT 8 10
REMARK Flexibility Score: inf
ROOT
ATOM      1  C   UNL     1     169.143 166.261 167.482  1.00  0.00     0.160 A 
ATOM      2  C   UNL     1     169.819 166.953 168.498  1.00  0.00     0.157 A 
ATOM      3  C   UNL     1     169.239 167.084 169.766  1.00  0.00     0.050 A 
ATOM      4  C   UNL     1     167.987 166.525 170.028  1.00  0.00     0.008 A 
ATOM      5  C   UNL     1     167.302 165.821 169.026  1.00  0.00    -0.040 A 
ATOM      6  C   UNL     1     167.880 165.698 167.753  1.00  0.00     0.054 A 
ENDROOT
BRANCH   1   7
ATOM      7  O   UNL     1     169.755 166.157 166.223  1.00  0.00    -0.493 OA
ATOM      8  C   UNL     1     169.176 165.503 165.097  1.00  0.00     0.278 C 
ENDBRANCH   1   7
BRANCH   2   9
ATOM      9  O   UNL     1     171.070 167.510 168.237  1.00  0.00    -0.504 OA
ATOM     10  H   UNL     1     171.626 167.934 168.971  1.00  0.00     0.293 HD
ENDBRANCH   2   9
BRANCH   5  11
ATOM     11  C   UNL     1     165.938 165.247 169.305  1.00  0.00     0.062 C 
BRANCH  11  12
ATOM     12  C   UNL     1     164.861 166.198 168.869  1.00  0.00    -0.030 C 
ATOM     13  C   UNL     1     164.214 166.045 167.709  1.00  0.00     0.004 C 
ENDBRANCH  11  12
ENDBRANCH   5  11
TORSDOF 4
ENDMDL
MODEL 4
REMARK VINA RESULT:    -3.899      1.157      2.678
REMARK INTER + INTRA:          -4.920
REMARK INTER:                  -4.723
REMARK INTRA:                  -0.197
REMARK UNBOUND:                -0.223
REMARK SMILES C=CCc1ccc(O)c(OC)c1
REMARK SMILES IDX 9 1 7 2 6 3 5 4 4 5 12 6 10 7 11 8 8 9 3 11 2 12 1 13
REMARK H PARENT 8 10
REMARK Flexibility Score: inf
ROOT
ATOM      1  C   UNL     1     161.590 164.540 167.984  1.00  0.00     0.160 A 
ATOM      2  C   UNL     1     160.774 163.905 168.933  1.00  0.00     0.157 A 
ATOM      3  C   UNL     1     161.241 163.701 170.237  1.00  0.00     0.050 A 
ATOM      4  C   UNL     1     162.518 164.131 170.603  1.00  0.00     0.008 A 
ATOM      5  C   UNL     1     163.342 164.777 169.670  1.00  0.00    -0.040 A 
ATOM      6  C   UNL     1     162.877 164.973 168.360  1.00  0.00     0.054 A 
ENDROOT
BRANCH   1   7
ATOM      7  O   UNL     1     161.088 164.720 166.685  1.00  0.00    -0.493 OA
ATOM      8  C   UNL     1     161.796 165.365 165.630  1.00  0.00     0.278 C 
ENDBRANCH   1   7
BRANCH   2   9
ATOM      9  O   UNL     1     159.499 163.477 168.568  1.00  0.00    -0.504 OA
ATOM     10  H   UNL     1     159.355 162.842 167.791  1.00  0.00     0.293 HD
ENDBRANCH   2   9
BRANCH   5  11
ATOM     11  C   UNL     1     164.730 165.211 170.060  1.00  0.00     0.062 C 
BRANCH  11  12
ATOM     12  C   UNL     1     165.480 165.733 168.868  1.00  0.00    -0.030 C 
ATOM     13  C   UNL     1     166.667 165.233 168.510  1.00  0.00     0.004 C 
ENDBRANCH  11  12
ENDBRANCH   5  11
TORSDOF 4
ENDMDL
MODEL 5
REMARK VINA RESULT:    -3.895      8.281      9.545
REMARK INTER + INTRA:          -4.914
REMARK INTER:                  -4.640
REMARK INTRA:                  -0.274
REMARK UNBOUND:                -0.223
REMARK SMILES C=CCc1ccc(O)c(OC)c1
REMARK SMILES IDX 9 1 7 2 6 3 5 4 4 5 12 6 10 7 11 8 8 9 3 11 2 12 1 13
REMARK H PARENT 8 10
REMARK Flexibility Score: inf
ROOT
ATOM      1  C   UNL     1     162.627 174.209 167.101  1.00  0.00     0.160 A 
ATOM      2  C   UNL     1     163.593 173.198 166.981  1.00  0.00     0.157 A 
ATOM      3  C   UNL     1     163.546 172.076 167.816  1.00  0.00     0.050 A 
ATOM      4  C   UNL     1     162.537 171.953 168.773  1.00  0.00     0.008 A 
ATOM      5  C   UNL     1     161.556 172.948 168.899  1.00  0.00    -0.040 A 
ATOM      6  C   UNL     1     161.610 174.077 168.067  1.00  0.00     0.054 A 
ENDROOT
BRANCH   1   7
ATOM      7  O   UNL     1     162.712 175.321 166.249  1.00  0.00    -0.493 OA
ATOM      8  C   UNL     1     161.724 175.676 165.287  1.00  0.00     0.278 C 
ENDBRANCH   1   7
BRANCH   2   9
ATOM      9  O   UNL     1     164.601 173.321 166.025  1.00  0.00    -0.504 OA
ATOM     10  H   UNL     1     164.818 172.567 165.383  1.00  0.00     0.293 HD
ENDBRANCH   2   9
BRANCH   5  11
ATOM     11  C   UNL     1     160.487 172.826 169.953  1.00  0.00     0.062 C 
BRANCH  11  12
ATOM     12  C   UNL     1     159.522 171.727 169.608  1.00  0.00    -0.030 C 
ATOM     13  C   UNL     1     158.760 171.781 168.511  1.00  0.00     0.004 C 
ENDBRANCH  11  12
ENDBRANCH   5  11
TORSDOF 4
ENDMDL
MODEL 6
REMARK VINA RESULT:    -3.834      1.502      2.029
REMARK INTER + INTRA:          -4.841
REMARK INTER:                  -4.624
REMARK INTRA:                  -0.217
REMARK UNBOUND:                -0.223
REMARK SMILES C=CCc1ccc(O)c(OC)c1
REMARK SMILES IDX 9 1 7 2 6 3 5 4 4 5 12 6 10 7 11 8 8 9 3 11 2 12 1 13
REMARK H PARENT 8 10
REMARK Flexibility Score: inf
ROOT
ATOM      1  C   UNL     1     161.855 163.885 169.651  1.00  0.00     0.160 A 
ATOM      2  C   UNL     1     160.956 163.798 168.578  1.00  0.00     0.157 A 
ATOM      3  C   UNL     1     161.228 164.463 167.376  1.00  0.00     0.050 A 
ATOM      4  C   UNL     1     162.397 165.213 167.235  1.00  0.00     0.008 A 
ATOM      5  C   UNL     1     163.312 165.301 168.295  1.00  0.00    -0.040 A 
ATOM      6  C   UNL     1     163.034 164.642 169.502  1.00  0.00     0.054 A 
ENDROOT
BRANCH   1   7
ATOM      7  O   UNL     1     161.544 163.210 170.841  1.00  0.00    -0.493 OA
ATOM      8  C   UNL     1     160.940 163.819 171.979  1.00  0.00     0.278 C 
ENDBRANCH   1   7
BRANCH   2   9
ATOM      9  O   UNL     1     159.789 163.049 168.717  1.00  0.00    -0.504 OA
ATOM     10  H   UNL     1     159.787 162.042 168.600  1.00  0.00     0.293 HD
ENDBRANCH   2   9
BRANCH   5  11
ATOM     11  C   UNL     1     164.557 166.137 168.149  1.00  0.00     0.062 C 
BRANCH  11  12
ATOM     12  C   UNL     1     165.749 165.421 168.717  1.00  0.00    -0.030 C 
ATOM     13  C   UNL     1     166.830 165.156 167.976  1.00  0.00     0.004 C 
ENDBRANCH  11  12
ENDBRANCH   5  11
TORSDOF 4
ENDMDL
MODEL 7
REMARK VINA RESULT:    -3.715      5.295      7.769
REMARK INTER + INTRA:          -4.697
REMARK INTER:                  -4.468
REMARK INTRA:                  -0.229
REMARK UNBOUND:                -0.223
REMARK SMILES C=CCc1ccc(O)c(OC)c1
REMARK SMILES IDX 9 1 7 2 6 3 5 4 4 5 12 6 10 7 11 8 8 9 3 11 2 12 1 13
REMARK H PARENT 8 10
REMARK Flexibility Score: inf
ROOT
ATOM      1  C   UNL     1     170.039 167.499 170.209  1.00  0.00     0.160 A 
ATOM      2  C   UNL     1     170.559 167.369 168.913  1.00  0.00     0.157 A 
ATOM      3  C   UNL     1     169.801 166.753 167.909  1.00  0.00     0.050 A 
ATOM      4  C   UNL     1     168.522 166.268 168.191  1.00  0.00     0.008 A 
ATOM      5  C   UNL     1     167.983 166.400 169.479  1.00  0.00    -0.040 A 
ATOM      6  C   UNL     1     168.747 167.009 170.487  1.00  0.00     0.054 A 
ENDROOT
BRANCH   1   7
ATOM      7  O   UNL     1     170.832 168.117 171.189  1.00  0.00    -0.493 OA
ATOM      8  C   UNL     1     170.335 168.639 172.417  1.00  0.00     0.278 C 
ENDBRANCH   1   7
BRANCH   2   9
ATOM      9  O   UNL     1     171.835 167.853 168.631  1.00  0.00    -0.504 OA
ATOM     10  H   UNL     1     172.027 168.385 167.789  1.00  0.00     0.293 HD
ENDBRANCH   2   9
BRANCH   5  11
ATOM     11  C   UNL     1     166.616 165.847 169.786  1.00  0.00     0.062 C 
BRANCH  11  12
ATOM     12  C   UNL     1     165.882 165.510 168.520  1.00  0.00    -0.030 C 
ATOM     13  C   UNL     1     164.671 166.010 168.254  1.00  0.00     0.004 C 
ENDBRANCH  11  12
ENDBRANCH   5  11
TORSDOF 4
ENDMDL
MODEL 8
REMARK VINA RESULT:    -3.637      9.579     10.841
REMARK INTER + INTRA:          -4.604
REMARK INTER:                  -4.405
REMARK INTRA:                  -0.199
REMARK UNBOUND:                -0.223
REMARK SMILES C=CCc1ccc(O)c(OC)c1
REMARK SMILES IDX 9 1 7 2 6 3 5 4 4 5 12 6 10 7 11 8 8 9 3 11 2 12 1 13
REMARK H PARENT 8 10
REMARK Flexibility Score: inf
ROOT
ATOM      1  C   UNL     1     162.850 174.223 167.049  1.00  0.00     0.160 A 
ATOM      2  C   UNL     1     163.700 174.596 165.997  1.00  0.00     0.157 A 
ATOM      3  C   UNL     1     163.213 175.378 164.942  1.00  0.00     0.050 A 
ATOM      4  C   UNL     1     161.881 175.794 164.931  1.00  0.00     0.008 A 
ATOM      5  C   UNL     1     161.020 175.440 165.980  1.00  0.00    -0.040 A 
ATOM      6  C   UNL     1     161.506 174.648 167.033  1.00  0.00     0.054 A 
ENDROOT
BRANCH   1   7
ATOM      7  O   UNL     1     163.373 173.434 168.084  1.00  0.00    -0.493 OA
ATOM      8  C   UNL     1     162.922 172.121 168.404  1.00  0.00     0.278 C 
ENDBRANCH   1   7
BRANCH   2   9
ATOM      9  O   UNL     1     165.031 174.181 166.008  1.00  0.00    -0.504 OA
ATOM     10  H   UNL     1     165.372 173.474 165.367  1.00  0.00     0.293 HD
ENDBRANCH   2   9
BRANCH   5  11
ATOM     11  C   UNL     1     159.576 175.865 165.948  1.00  0.00     0.062 C 
BRANCH  11  12
ATOM     12  C   UNL     1     158.744 174.996 166.849  1.00  0.00    -0.030 C 
ATOM     13  C   UNL     1     157.409 175.052 166.844  1.00  0.00     0.004 C 
ENDBRANCH  11  12
ENDBRANCH   5  11
TORSDOF 4
ENDMDL
MODEL 9
REMARK VINA RESULT:    -3.597      8.601      9.731
REMARK INTER + INTRA:          -4.556
REMARK INTER:                  -4.348
REMARK INTRA:                  -0.208
REMARK UNBOUND:                -0.223
REMARK SMILES C=CCc1ccc(O)c(OC)c1
REMARK SMILES IDX 9 1 7 2 6 3 5 4 4 5 12 6 10 7 11 8 8 9 3 11 2 12 1 13
REMARK H PARENT 8 10
REMARK Flexibility Score: inf
ROOT
ATOM      1  C   UNL     1     169.383 157.327 168.035  1.00  0.00     0.160 A 
ATOM      2  C   UNL     1     168.130 157.936 167.870  1.00  0.00     0.157 A 
ATOM      3  C   UNL     1     167.854 159.159 168.493  1.00  0.00     0.050 A 
ATOM      4  C   UNL     1     168.823 159.782 169.280  1.00  0.00     0.008 A 
ATOM      5  C   UNL     1     170.085 159.192 169.447  1.00  0.00    -0.040 A 
ATOM      6  C   UNL     1     170.358 157.962 168.830  1.00  0.00     0.054 A 
ENDROOT
BRANCH   1   7
ATOM      7  O   UNL     1     169.619 156.098 167.400  1.00  0.00    -0.493 OA
ATOM      8  C   UNL     1     170.623 155.881 166.413  1.00  0.00     0.278 C 
ENDBRANCH   1   7
BRANCH   2   9
ATOM      9  O   UNL     1     167.161 157.314 167.083  1.00  0.00    -0.504 OA
ATOM     10  H   UNL     1     166.364 157.825 166.720  1.00  0.00     0.293 HD
ENDBRANCH   2   9
BRANCH   5  11
ATOM     11  C   UNL     1     171.117 159.853 170.323  1.00  0.00     0.062 C 
BRANCH  11  12
ATOM     12  C   UNL     1     172.486 159.301 170.042  1.00  0.00    -0.030 C 
ATOM     13  C   UNL     1     173.352 159.034 171.025  1.00  0.00     0.004 C 
ENDBRANCH  11  12
ENDBRANCH   5  11
TORSDOF 4
ENDMDL
