MODEL 1
REMARK VINA RESULT:    79.153      0.000      0.000
REMARK INTER + INTRA:          90.321
REMARK INTER:                  90.721
REMARK INTRA:                  -0.400
REMARK UNBOUND:                -0.400
REMARK SMILES C=C(C)[C@H]1CC[C@]2(C(=O)[O-])CC[C@]3(C)[C@@H](CC[C@@H]4[C@@]5(C)CC[C@H](O)C(C)(C)[C@@H]5CC[C@]43C)[C@H]12
REMARK SMILES IDX 7 1 6 2 33 3 11 4 5 5 15 6 4 7 12 8 16 9 13 10 17 11 31 12
REMARK SMILES IDX 14 13 18 14 30 15 32 16 19 17 29 18 21 19 20 20 28 21 22 22
REMARK SMILES IDX 25 23 23 24 26 25 27 26 8 27 9 28 10 29 2 30 3 31 1 32 24 33
REMARK H PARENT 24 34
REMARK Flexibility Score: inf
ROOT
ATOM      1  C   UNL     1      -3.665  42.001  -0.449  1.00  0.00     0.014 C 
ATOM      2  C   UNL     1      -3.383  40.993  -1.578  1.00  0.00     0.014 C 
ATOM      3  C   UNL     1      -3.104  43.363  -0.956  1.00  0.00     0.012 C 
ATOM      4  C   UNL     1      -5.178  42.036  -0.109  1.00  0.00     0.014 C 
ATOM      5  C   UNL     1      -2.178  41.537  -2.328  1.00  0.00     0.009 C 
ATOM      6  C   UNL     1      -4.190  44.487  -1.159  1.00  0.00     0.000 C 
ATOM      7  C   UNL     1      -2.209  43.071  -2.200  1.00  0.00     0.018 C 
ATOM      8  C   UNL     1      -6.115  42.807  -1.071  1.00  0.00     0.008 C 
ATOM      9  C   UNL     1      -4.444  45.165   0.233  1.00  0.00     0.005 C 
ATOM     10  C   UNL     1      -5.538  44.054  -1.871  1.00  0.00    -0.024 C 
ATOM     11  C   UNL     1      -5.801  45.873   0.369  1.00  0.00     0.005 C 
ATOM     12  C   UNL     1      -6.586  45.336  -1.999  1.00  0.00    -0.024 C 
ATOM     13  C   UNL     1      -5.245  43.535  -3.313  1.00  0.00     0.012 C 
ATOM     14  C   UNL     1      -6.175  46.486  -0.986  1.00  0.00     0.002 C 
ATOM     15  C   UNL     1      -6.564  46.038  -3.408  1.00  0.00     0.008 C 
ATOM     16  C   UNL     1      -8.052  44.820  -1.805  1.00  0.00     0.012 C 
ATOM     17  C   UNL     1      -7.041  47.819  -0.981  1.00  0.00    -0.026 C 
ATOM     18  C   UNL     1      -7.399  47.339  -3.513  1.00  0.00     0.005 C 
ATOM     19  C   UNL     1      -6.369  48.883  -0.048  1.00  0.00     0.010 C 
ATOM     20  C   UNL     1      -8.477  47.545  -0.448  1.00  0.00     0.012 C 
ATOM     21  C   UNL     1      -6.983  48.390  -2.456  1.00  0.00     0.003 C 
ATOM     22  C   UNL     1      -6.931  50.306  -0.201  1.00  0.00     0.033 C 
ATOM     23  C   UNL     1      -7.582  49.838  -2.668  1.00  0.00    -0.006 C 
ATOM     24  C   UNL     1      -6.879  50.802  -1.657  1.00  0.00     0.120 C 
ATOM     25  C   UNL     1      -9.125  49.889  -2.527  1.00  0.00     0.014 C 
ATOM     26  C   UNL     1      -7.241  50.346  -4.098  1.00  0.00     0.014 C 
ENDROOT
BRANCH   1  27
ATOM     27  C   UNL     1      -2.902  41.586   0.818  1.00  0.00     0.048 C 
ATOM     28  O   UNL     1      -3.365  41.877   1.955  1.00  0.00    -0.550 OA
ATOM     29  O   UNL     1      -1.672  40.933   0.749  1.00  0.00    -0.550 OA
ENDBRANCH   1  27
BRANCH   7  30
ATOM     30  C   UNL     1      -0.808  43.706  -2.138  1.00  0.00    -0.077 C 
ATOM     31  C   UNL     1       0.352  43.150  -2.936  1.00  0.00     0.039 C 
ATOM     32  C   UNL     1      -0.603  44.854  -1.465  1.00  0.00     0.008 C 
ENDBRANCH   7  30
BRANCH  24  33
ATOM     33  O   UNL     1      -7.373  52.118  -1.752  1.00  0.00    -0.393 OA
ATOM     34  H   UNL     1      -7.921  52.188  -2.576  1.00  0.00     0.210 HD
ENDBRANCH  24  33
TORSDOF 3
ENDMDL
