MODEL 1
REMARK VINA RESULT:    -3.625      0.000      0.000
REMARK INTER + INTRA:          -5.717
REMARK INTER:                  -5.109
REMARK INTRA:                  -0.609
REMARK UNBOUND:                -0.609
REMARK SMILES CCCCCCCCC(=O)[O-]
REMARK SMILES IDX 6 1 7 2 8 3 9 4 10 5 11 6 5 7 4 8 3 9 2 10 1 11
REMARK H PARENT
REMARK Flexibility Score: inf
ROOT
ATOM      1  C   UNL     1      65.632 -14.377  12.561  1.00  0.00     0.000 C 
ENDROOT
BRANCH   1   2
ATOM      2  C   UNL     1      65.979 -14.591  11.080  1.00  0.00     0.006 C 
BRANCH   2   3
ATOM      3  C   UNL     1      66.712 -15.918  10.841  1.00  0.00     0.053 C 
BRANCH   3   4
ATOM      4  C   UNL     1      68.188 -15.784  11.054  1.00  0.00     0.041 C 
ATOM      5  O   UNL     1      68.797 -16.593  11.803  1.00  0.00    -0.550 OA
ATOM      6  O   UNL     1      68.897 -14.783  10.400  1.00  0.00    -0.550 OA
ENDBRANCH   3   4
ENDBRANCH   2   3
ENDBRANCH   1   2
BRANCH   1   7
ATOM      7  C   UNL     1      65.278 -15.709  13.240  1.00  0.00     0.000 C 
BRANCH   7   8
ATOM      8  C   UNL     1      66.038 -15.930  14.560  1.00  0.00    -0.000 C 
BRANCH   8   9
ATOM      9  C   UNL     1      67.349 -15.136  14.698  1.00  0.00    -0.000 C 
BRANCH   9  10
ATOM     10  C   UNL     1      68.468 -15.941  15.375  1.00  0.00    -0.003 C 
ATOM     11  C   UNL     1      67.959 -16.646  16.629  1.00  0.00     0.004 C 
ENDBRANCH   9  10
ENDBRANCH   8   9
ENDBRANCH   7   8
ENDBRANCH   1   7
TORSDOF 7
ENDMDL
MODEL 2
REMARK VINA RESULT:    -3.285     20.135     21.276
REMARK INTER + INTRA:          -5.238
REMARK INTER:                  -4.859
REMARK INTRA:                  -0.380
REMARK UNBOUND:                -0.609
REMARK SMILES CCCCCCCCC(=O)[O-]
REMARK SMILES IDX 6 1 7 2 8 3 9 4 10 5 11 6 5 7 4 8 3 9 2 10 1 11
REMARK H PARENT
REMARK Flexibility Score: inf
ROOT
ATOM      1  C   UNL     1      57.368  -0.066  21.328  1.00  0.00     0.000 C 
ENDROOT
BRANCH   1   2
ATOM      2  C   UNL     1      57.356  -1.481  21.928  1.00  0.00     0.006 C 
BRANCH   2   3
ATOM      3  C   UNL     1      58.676  -1.825  22.630  1.00  0.00     0.053 C 
BRANCH   3   4
ATOM      4  C   UNL     1      58.538  -1.788  24.121  1.00  0.00     0.041 C 
ATOM      5  O   UNL     1      59.479  -2.188  24.855  1.00  0.00    -0.550 OA
ATOM      6  O   UNL     1      57.381  -1.280  24.700  1.00  0.00    -0.550 OA
ENDBRANCH   3   4
ENDBRANCH   2   3
ENDBRANCH   1   2
BRANCH   1   7
ATOM      7  C   UNL     1      56.460   0.878  22.129  1.00  0.00     0.000 C 
BRANCH   7   8
ATOM      8  C   UNL     1      55.063   0.288  22.391  1.00  0.00    -0.000 C 
BRANCH   8   9
ATOM      9  C   UNL     1      54.003   0.627  21.328  1.00  0.00    -0.000 C 
BRANCH   9  10
ATOM     10  C   UNL     1      52.740  -0.240  21.443  1.00  0.00    -0.003 C 
ATOM     11  C   UNL     1      51.911  -0.175  20.164  1.00  0.00     0.004 C 
ENDBRANCH   9  10
ENDBRANCH   8   9
ENDBRANCH   7   8
ENDBRANCH   1   7
TORSDOF 7
ENDMDL
MODEL 3
REMARK VINA RESULT:    -3.261      1.706      4.154
REMARK INTER + INTRA:          -5.204
REMARK INTER:                  -4.540
REMARK INTRA:                  -0.664
REMARK UNBOUND:                -0.609
REMARK SMILES CCCCCCCCC(=O)[O-]
REMARK SMILES IDX 6 1 7 2 8 3 9 4 10 5 11 6 5 7 4 8 3 9 2 10 1 11
REMARK H PARENT
REMARK Flexibility Score: inf
ROOT
ATOM      1  C   UNL     1      65.528 -14.135  12.422  1.00  0.00     0.000 C 
ENDROOT
BRANCH   1   2
ATOM      2  C   UNL     1      66.048 -15.197  13.403  1.00  0.00     0.006 C 
BRANCH   2   3
ATOM      3  C   UNL     1      67.235 -14.689  14.232  1.00  0.00     0.053 C 
BRANCH   3   4
ATOM      4  C   UNL     1      68.148 -15.804  14.636  1.00  0.00     0.041 C 
ATOM      5  O   UNL     1      68.654 -16.558  13.764  1.00  0.00    -0.550 OA
ATOM      6  O   UNL     1      68.466 -15.991  15.976  1.00  0.00    -0.550 OA
ENDBRANCH   3   4
ENDBRANCH   2   3
ENDBRANCH   1   2
BRANCH   1   7
ATOM      7  C   UNL     1      66.041 -14.403  11.000  1.00  0.00     0.000 C 
BRANCH   7   8
ATOM      8  C   UNL     1      66.453 -15.869  10.776  1.00  0.00    -0.000 C 
BRANCH   8   9
ATOM      9  C   UNL     1      67.907 -16.073  10.315  1.00  0.00    -0.000 C 
BRANCH   9  10
ATOM     10  C   UNL     1      68.845 -14.946  10.771  1.00  0.00    -0.003 C 
ATOM     11  C   UNL     1      69.774 -14.512   9.641  1.00  0.00     0.004 C 
ENDBRANCH   9  10
ENDBRANCH   8   9
ENDBRANCH   7   8
ENDBRANCH   1   7
TORSDOF 7
ENDMDL
MODEL 4
REMARK VINA RESULT:    -3.164     13.863     15.203
REMARK INTER + INTRA:          -5.067
REMARK INTER:                  -4.481
REMARK INTRA:                  -0.587
REMARK UNBOUND:                -0.609
REMARK SMILES CCCCCCCCC(=O)[O-]
REMARK SMILES IDX 6 1 7 2 8 3 9 4 10 5 11 6 5 7 4 8 3 9 2 10 1 11
REMARK H PARENT
REMARK Flexibility Score: inf
ROOT
ATOM      1  C   UNL     1      69.139  -1.864  11.647  1.00  0.00     0.000 C 
ENDROOT
BRANCH   1   2
ATOM      2  C   UNL     1      68.833  -2.342  10.219  1.00  0.00     0.006 C 
BRANCH   2   3
ATOM      3  C   UNL     1      70.100  -2.444   9.358  1.00  0.00     0.053 C 
BRANCH   3   4
ATOM      4  C   UNL     1      69.782  -2.835   7.947  1.00  0.00     0.041 C 
ATOM      5  O   UNL     1      69.759  -4.049   7.615  1.00  0.00    -0.550 OA
ATOM      6  O   UNL     1      69.479  -1.857   7.007  1.00  0.00    -0.550 OA
ENDBRANCH   3   4
ENDBRANCH   2   3
ENDBRANCH   1   2
BRANCH   1   7
ATOM      7  C   UNL     1      69.485  -0.368  11.662  1.00  0.00     0.000 C 
BRANCH   7   8
ATOM      8  C   UNL     1      68.250   0.533  11.841  1.00  0.00    -0.000 C 
BRANCH   8   9
ATOM      9  C   UNL     1      67.766   1.236  10.561  1.00  0.00    -0.000 C 
BRANCH   9  10
ATOM     10  C   UNL     1      66.657   0.460   9.835  1.00  0.00    -0.003 C 
ATOM     11  C   UNL     1      66.976   0.306   8.350  1.00  0.00     0.004 C 
ENDBRANCH   9  10
ENDBRANCH   8   9
ENDBRANCH   7   8
ENDBRANCH   1   7
TORSDOF 7
ENDMDL
MODEL 5
REMARK VINA RESULT:    -3.103      9.891     11.630
REMARK INTER + INTRA:          -4.982
REMARK INTER:                  -4.397
REMARK INTRA:                  -0.585
REMARK UNBOUND:                -0.609
REMARK SMILES CCCCCCCCC(=O)[O-]
REMARK SMILES IDX 6 1 7 2 8 3 9 4 10 5 11 6 5 7 4 8 3 9 2 10 1 11
REMARK H PARENT
REMARK Flexibility Score: inf
ROOT
ATOM      1  C   UNL     1      56.240 -14.494   9.170  1.00  0.00     0.000 C 
ENDROOT
BRANCH   1   2
ATOM      2  C   UNL     1      56.072 -15.846   9.882  1.00  0.00     0.006 C 
BRANCH   2   3
ATOM      3  C   UNL     1      57.420 -16.472  10.263  1.00  0.00     0.053 C 
BRANCH   3   4
ATOM      4  C   UNL     1      57.518 -16.726  11.736  1.00  0.00     0.041 C 
ATOM      5  O   UNL     1      56.482 -16.980  12.406  1.00  0.00    -0.550 OA
ATOM      6  O   UNL     1      58.758 -16.715  12.363  1.00  0.00    -0.550 OA
ENDBRANCH   3   4
ENDBRANCH   2   3
ENDBRANCH   1   2
BRANCH   1   7
ATOM      7  C   UNL     1      57.724 -14.114   9.056  1.00  0.00     0.000 C 
BRANCH   7   8
ATOM      8  C   UNL     1      58.208 -14.013   7.599  1.00  0.00    -0.000 C 
BRANCH   8   9
ATOM      9  C   UNL     1      58.200 -15.338   6.816  1.00  0.00    -0.000 C 
BRANCH   9  10
ATOM     10  C   UNL     1      57.567 -15.208   5.424  1.00  0.00    -0.003 C 
ATOM     11  C   UNL     1      56.051 -15.372   5.491  1.00  0.00     0.004 C 
ENDBRANCH   9  10
ENDBRANCH   8   9
ENDBRANCH   7   8
ENDBRANCH   1   7
TORSDOF 7
ENDMDL
MODEL 6
REMARK VINA RESULT:    -3.103     15.216     16.381
REMARK INTER + INTRA:          -4.981
REMARK INTER:                  -4.338
REMARK INTRA:                  -0.642
REMARK UNBOUND:                -0.609
REMARK SMILES CCCCCCCCC(=O)[O-]
REMARK SMILES IDX 6 1 7 2 8 3 9 4 10 5 11 6 5 7 4 8 3 9 2 10 1 11
REMARK H PARENT
REMARK Flexibility Score: inf
ROOT
ATOM      1  C   UNL     1      67.700   1.315  10.440  1.00  0.00     0.000 C 
ENDROOT
BRANCH   1   2
ATOM      2  C   UNL     1      66.607   0.471   9.766  1.00  0.00     0.006 C 
BRANCH   2   3
ATOM      3  C   UNL     1      66.900   0.222   8.280  1.00  0.00     0.053 C 
BRANCH   3   4
ATOM      4  C   UNL     1      67.024   1.505   7.516  1.00  0.00     0.041 C 
ATOM      5  O   UNL     1      68.070   1.754   6.861  1.00  0.00    -0.550 OA
ATOM      6  O   UNL     1      65.970   2.410   7.502  1.00  0.00    -0.550 OA
ENDBRANCH   3   4
ENDBRANCH   2   3
ENDBRANCH   1   2
BRANCH   1   7
ATOM      7  C   UNL     1      68.014   0.784  11.846  1.00  0.00     0.000 C 
BRANCH   7   8
ATOM      8  C   UNL     1      69.354   0.030  11.918  1.00  0.00    -0.000 C 
BRANCH   8   9
ATOM      9  C   UNL     1      69.238  -1.505  11.926  1.00  0.00    -0.000 C 
BRANCH   9  10
ATOM     10  C   UNL     1      69.869  -2.160  10.689  1.00  0.00    -0.003 C 
ATOM     11  C   UNL     1      68.806  -2.525   9.657  1.00  0.00     0.004 C 
ENDBRANCH   9  10
ENDBRANCH   8   9
ENDBRANCH   7   8
ENDBRANCH   1   7
TORSDOF 7
ENDMDL
MODEL 7
REMARK VINA RESULT:    -3.074      9.633     10.713
REMARK INTER + INTRA:          -4.940
REMARK INTER:                  -4.682
REMARK INTRA:                  -0.258
REMARK UNBOUND:                -0.609
REMARK SMILES CCCCCCCCC(=O)[O-]
REMARK SMILES IDX 6 1 7 2 8 3 9 4 10 5 11 6 5 7 4 8 3 9 2 10 1 11
REMARK H PARENT
REMARK Flexibility Score: inf
ROOT
ATOM      1  C   UNL     1      57.007 -15.652   9.940  1.00  0.00     0.000 C 
ENDROOT
BRANCH   1   2
ATOM      2  C   UNL     1      56.288 -14.741   8.932  1.00  0.00     0.006 C 
BRANCH   2   3
ATOM      3  C   UNL     1      56.000 -15.456   7.606  1.00  0.00     0.053 C 
BRANCH   3   4
ATOM      4  C   UNL     1      57.142 -15.327   6.646  1.00  0.00     0.041 C 
ATOM      5  O   UNL     1      57.076 -15.858   5.506  1.00  0.00    -0.550 OA
ATOM      6  O   UNL     1      58.268 -14.592   6.999  1.00  0.00    -0.550 OA
ENDBRANCH   3   4
ENDBRANCH   2   3
ENDBRANCH   1   2
BRANCH   1   7
ATOM      7  C   UNL     1      56.052 -16.096  11.057  1.00  0.00     0.000 C 
BRANCH   7   8
ATOM      8  C   UNL     1      56.730 -16.997  12.104  1.00  0.00    -0.000 C 
BRANCH   8   9
ATOM      9  C   UNL     1      56.475 -16.600  13.569  1.00  0.00    -0.000 C 
BRANCH   9  10
ATOM     10  C   UNL     1      57.769 -16.411  14.373  1.00  0.00    -0.003 C 
ATOM     11  C   UNL     1      58.991 -16.424  13.459  1.00  0.00     0.004 C 
ENDBRANCH   9  10
ENDBRANCH   8   9
ENDBRANCH   7   8
ENDBRANCH   1   7
TORSDOF 7
ENDMDL
MODEL 8
REMARK VINA RESULT:    -3.033     20.520     21.415
REMARK INTER + INTRA:          -4.883
REMARK INTER:                  -4.638
REMARK INTRA:                  -0.245
REMARK UNBOUND:                -0.609
REMARK SMILES CCCCCCCCC(=O)[O-]
REMARK SMILES IDX 6 1 7 2 8 3 9 4 10 5 11 6 5 7 4 8 3 9 2 10 1 11
REMARK H PARENT
REMARK Flexibility Score: inf
ROOT
ATOM      1  C   UNL     1      55.578   0.519  22.110  1.00  0.00     0.000 C 
ENDROOT
BRANCH   1   2
ATOM      2  C   UNL     1      54.191  -0.142  22.078  1.00  0.00     0.006 C 
BRANCH   2   3
ATOM      3  C   UNL     1      53.259   0.514  21.051  1.00  0.00     0.053 C 
BRANCH   3   4
ATOM      4  C   UNL     1      52.053  -0.330  20.776  1.00  0.00     0.041 C 
ATOM      5  O   UNL     1      51.515  -0.989  21.705  1.00  0.00    -0.550 OA
ATOM      6  O   UNL     1      51.503  -0.363  19.500  1.00  0.00    -0.550 OA
ENDBRANCH   3   4
ENDBRANCH   2   3
ENDBRANCH   1   2
BRANCH   1   7
ATOM      7  C   UNL     1      56.593  -0.371  22.841  1.00  0.00     0.000 C 
BRANCH   7   8
ATOM      8  C   UNL     1      57.608  -1.030  21.890  1.00  0.00    -0.000 C 
BRANCH   8   9
ATOM      9  C   UNL     1      58.506  -2.100  22.536  1.00  0.00    -0.000 C 
BRANCH   9  10
ATOM     10  C   UNL     1      58.478  -2.059  24.071  1.00  0.00    -0.003 C 
ATOM     11  C   UNL     1      59.858  -1.735  24.638  1.00  0.00     0.004 C 
ENDBRANCH   9  10
ENDBRANCH   8   9
ENDBRANCH   7   8
ENDBRANCH   1   7
TORSDOF 7
ENDMDL
