MODEL 1
REMARK VINA RESULT:    -4.514      0.000      0.000
REMARK INTER + INTRA:         -10.772
REMARK INTER:                  -8.472
REMARK INTRA:                  -2.300
REMARK UNBOUND:                -2.300
REMARK SMILES O=C([O-])CCCCCCCCCCCCCCC(=O)[O-]
REMARK SMILES IDX 10 1 9 2 8 3 7 4 6 5 5 6 4 7 2 8 1 9 3 10 11 11 12 12 13 13
REMARK SMILES IDX 14 14 15 15 16 16 17 17 18 18 19 19 20 20
REMARK H PARENT
REMARK Flexibility Score: inf
ROOT
ATOM      1  C   UNL     1     -16.297  -3.243  21.435  1.00  0.00     0.000 C 
ENDROOT
BRANCH   1   2
ATOM      2  C   UNL     1     -17.199  -3.277  20.196  1.00  0.00     0.000 C 
BRANCH   2   3
ATOM      3  C   UNL     1     -16.403  -2.943  18.925  1.00  0.00     0.000 C 
BRANCH   3   4
ATOM      4  C   UNL     1     -14.910  -2.692  19.201  1.00  0.00     0.000 C 
BRANCH   4   5
ATOM      5  C   UNL     1     -14.074  -2.324  17.961  1.00  0.00     0.000 C 
BRANCH   5   6
ATOM      6  C   UNL     1     -14.932  -1.834  16.782  1.00  0.00     0.006 C 
BRANCH   6   7
ATOM      7  C   UNL     1     -14.761  -0.331  16.524  1.00  0.00     0.053 C 
BRANCH   7   8
ATOM      8  C   UNL     1     -15.978   0.443  16.932  1.00  0.00     0.041 C 
ATOM      9  O   UNL     1     -16.337   0.469  18.138  1.00  0.00    -0.550 OA
ATOM     10  O   UNL     1     -16.695   1.162  15.985  1.00  0.00    -0.550 OA
ENDBRANCH   7   8
ENDBRANCH   6   7
ENDBRANCH   5   6
ENDBRANCH   4   5
ENDBRANCH   3   4
ENDBRANCH   2   3
ENDBRANCH   1   2
BRANCH   1  11
ATOM     11  C   UNL     1     -16.902  -4.064  22.580  1.00  0.00     0.000 C 
BRANCH  11  12
ATOM     12  C   UNL     1     -17.046  -5.537  22.185  1.00  0.00     0.000 C 
BRANCH  12  13
ATOM     13  C   UNL     1     -15.812  -6.344  22.606  1.00  0.00     0.000 C 
BRANCH  13  14
ATOM     14  C   UNL     1     -14.940  -6.693  21.394  1.00  0.00     0.000 C 
BRANCH  14  15
ATOM     15  C   UNL     1     -15.783  -6.762  20.112  1.00  0.00     0.000 C 
BRANCH  15  16
ATOM     16  C   UNL     1     -15.000  -6.330  18.863  1.00  0.00     0.006 C 
BRANCH  16  17
ATOM     17  C   UNL     1     -15.843  -6.400  17.583  1.00  0.00     0.053 C 
BRANCH  17  18
ATOM     18  C   UNL     1     -15.179  -5.639  16.480  1.00  0.00     0.041 C 
ATOM     19  O   UNL     1     -15.872  -5.077  15.592  1.00  0.00    -0.550 OA
ATOM     20  O   UNL     1     -13.793  -5.597  16.400  1.00  0.00    -0.550 OA
ENDBRANCH  17  18
ENDBRANCH  16  17
ENDBRANCH  15  16
ENDBRANCH  14  15
ENDBRANCH  13  14
ENDBRANCH  12  13
ENDBRANCH  11  12
ENDBRANCH   1  11
TORSDOF 15
ENDMDL
MODEL 2
REMARK VINA RESULT:    -4.380      5.863      8.465
REMARK INTER + INTRA:         -10.521
REMARK INTER:                  -9.379
REMARK INTRA:                  -1.142
REMARK UNBOUND:                -2.300
REMARK SMILES O=C([O-])CCCCCCCCCCCCCCC(=O)[O-]
REMARK SMILES IDX 10 1 9 2 8 3 7 4 6 5 5 6 4 7 2 8 1 9 3 10 11 11 12 12 13 13
REMARK SMILES IDX 14 14 15 15 16 16 17 17 18 18 19 19 20 20
REMARK H PARENT
REMARK Flexibility Score: inf
ROOT
ATOM      1  C   UNL     1     -18.856  -5.348  22.450  1.00  0.00     0.000 C 
ENDROOT
BRANCH   1   2
ATOM      2  C   UNL     1     -17.937  -4.128  22.326  1.00  0.00     0.000 C 
BRANCH   2   3
ATOM      3  C   UNL     1     -16.460  -4.538  22.422  1.00  0.00     0.000 C 
BRANCH   3   4
ATOM      4  C   UNL     1     -16.261  -6.064  22.457  1.00  0.00     0.000 C 
BRANCH   4   5
ATOM      5  C   UNL     1     -15.227  -6.607  21.453  1.00  0.00     0.000 C 
BRANCH   5   6
ATOM      6  C   UNL     1     -15.131  -5.759  20.174  1.00  0.00     0.006 C 
BRANCH   6   7
ATOM      7  C   UNL     1     -15.364  -6.591  18.906  1.00  0.00     0.053 C 
BRANCH   7   8
ATOM      8  C   UNL     1     -16.721  -6.342  18.322  1.00  0.00     0.041 C 
ATOM      9  O   UNL     1     -16.846  -6.091  17.094  1.00  0.00    -0.550 OA
ATOM     10  O   UNL     1     -17.851  -6.419  19.127  1.00  0.00    -0.550 OA
ENDBRANCH   7   8
ENDBRANCH   6   7
ENDBRANCH   5   6
ENDBRANCH   4   5
ENDBRANCH   3   4
ENDBRANCH   2   3
ENDBRANCH   1   2
BRANCH   1  11
ATOM     11  C   UNL     1     -20.135  -5.000  23.220  1.00  0.00     0.000 C 
BRANCH  11  12
ATOM     12  C   UNL     1     -20.812  -6.263  23.764  1.00  0.00     0.000 C 
BRANCH  12  13
ATOM     13  C   UNL     1     -22.121  -5.920  24.485  1.00  0.00     0.000 C 
BRANCH  13  14
ATOM     14  C   UNL     1     -22.314  -6.798  25.728  1.00  0.00     0.000 C 
BRANCH  14  15
ATOM     15  C   UNL     1     -22.791  -5.961  26.923  1.00  0.00     0.000 C 
BRANCH  15  16
ATOM     16  C   UNL     1     -22.614  -4.451  26.698  1.00  0.00     0.006 C 
BRANCH  16  17
ATOM     17  C   UNL     1     -23.905  -3.660  26.947  1.00  0.00     0.053 C 
BRANCH  17  18
ATOM     18  C   UNL     1     -24.897  -3.927  25.860  1.00  0.00     0.041 C 
ATOM     19  O   UNL     1     -25.935  -4.598  26.100  1.00  0.00    -0.550 OA
ATOM     20  O   UNL     1     -24.648  -3.483  24.567  1.00  0.00    -0.550 OA
ENDBRANCH  17  18
ENDBRANCH  16  17
ENDBRANCH  15  16
ENDBRANCH  14  15
ENDBRANCH  13  14
ENDBRANCH  12  13
ENDBRANCH  11  12
ENDBRANCH   1  11
TORSDOF 15
ENDMDL
MODEL 3
REMARK VINA RESULT:    -4.303     12.386     15.571
REMARK INTER + INTRA:         -10.375
REMARK INTER:                  -8.799
REMARK INTRA:                  -1.577
REMARK UNBOUND:                -2.300
REMARK SMILES O=C([O-])CCCCCCCCCCCCCCC(=O)[O-]
REMARK SMILES IDX 10 1 9 2 8 3 7 4 6 5 5 6 4 7 2 8 1 9 3 10 11 11 12 12 13 13
REMARK SMILES IDX 14 14 15 15 16 16 17 17 18 18 19 19 20 20
REMARK H PARENT
REMARK Flexibility Score: inf
ROOT
ATOM      1  C   UNL     1     -14.200   1.254  27.997  1.00  0.00     0.000 C 
ENDROOT
BRANCH   1   2
ATOM      2  C   UNL     1     -13.586   0.010  28.651  1.00  0.00     0.000 C 
BRANCH   2   3
ATOM      3  C   UNL     1     -13.544   0.155  30.179  1.00  0.00     0.000 C 
BRANCH   3   4
ATOM      4  C   UNL     1     -14.933   0.389  30.800  1.00  0.00     0.000 C 
BRANCH   4   5
ATOM      5  C   UNL     1     -15.032   1.615  31.726  1.00  0.00     0.000 C 
BRANCH   5   6
ATOM      6  C   UNL     1     -16.264   2.490  31.434  1.00  0.00     0.006 C 
BRANCH   6   7
ATOM      7  C   UNL     1     -17.410   1.687  30.806  1.00  0.00     0.053 C 
BRANCH   7   8
ATOM      8  C   UNL     1     -18.477   1.368  31.809  1.00  0.00     0.041 C 
ATOM      9  O   UNL     1     -18.462   1.913  32.944  1.00  0.00    -0.550 OA
ATOM     10  O   UNL     1     -19.506   0.495  31.478  1.00  0.00    -0.550 OA
ENDBRANCH   7   8
ENDBRANCH   6   7
ENDBRANCH   5   6
ENDBRANCH   4   5
ENDBRANCH   3   4
ENDBRANCH   2   3
ENDBRANCH   1   2
BRANCH   1  11
ATOM     11  C   UNL     1     -13.439   2.522  28.403  1.00  0.00     0.000 C 
BRANCH  11  12
ATOM     12  C   UNL     1     -14.385   3.724  28.505  1.00  0.00     0.000 C 
BRANCH  12  13
ATOM     13  C   UNL     1     -13.666   5.025  28.133  1.00  0.00     0.000 C 
BRANCH  13  14
ATOM     14  C   UNL     1     -14.130   6.187  29.021  1.00  0.00     0.000 C 
BRANCH  14  15
ATOM     15  C   UNL     1     -14.900   5.669  30.244  1.00  0.00     0.000 C 
BRANCH  15  16
ATOM     16  C   UNL     1     -15.210   6.778  31.262  1.00  0.00     0.006 C 
BRANCH  16  17
ATOM     17  C   UNL     1     -14.133   7.871  31.291  1.00  0.00     0.053 C 
BRANCH  17  18
ATOM     18  C   UNL     1     -14.608   9.049  32.082  1.00  0.00     0.041 C 
ATOM     19  O   UNL     1     -14.889   8.921  33.302  1.00  0.00    -0.550 OA
ATOM     20  O   UNL     1     -14.794  10.276  31.458  1.00  0.00    -0.550 OA
ENDBRANCH  17  18
ENDBRANCH  16  17
ENDBRANCH  15  16
ENDBRANCH  14  15
ENDBRANCH  13  14
ENDBRANCH  12  13
ENDBRANCH  11  12
ENDBRANCH   1  11
TORSDOF 15
ENDMDL
MODEL 4
REMARK VINA RESULT:    -4.292     14.414     16.935
REMARK INTER + INTRA:         -10.356
REMARK INTER:                  -7.645
REMARK INTRA:                  -2.711
REMARK UNBOUND:                -2.300
REMARK SMILES O=C([O-])CCCCCCCCCCCCCCC(=O)[O-]
REMARK SMILES IDX 10 1 9 2 8 3 7 4 6 5 5 6 4 7 2 8 1 9 3 10 11 11 12 12 13 13
REMARK SMILES IDX 14 14 15 15 16 16 17 17 18 18 19 19 20 20
REMARK H PARENT
REMARK Flexibility Score: inf
ROOT
ATOM      1  C   UNL     1     -15.745  10.847  29.266  1.00  0.00     0.000 C 
ENDROOT
BRANCH   1   2
ATOM      2  C   UNL     1     -15.324   9.606  28.469  1.00  0.00     0.000 C 
BRANCH   2   3
ATOM      3  C   UNL     1     -13.824   9.324  28.640  1.00  0.00     0.000 C 
BRANCH   3   4
ATOM      4  C   UNL     1     -13.514   7.834  28.865  1.00  0.00     0.000 C 
BRANCH   4   5
ATOM      5  C   UNL     1     -14.749   6.938  29.076  1.00  0.00     0.000 C 
BRANCH   5   6
ATOM      6  C   UNL     1     -14.390   5.528  29.573  1.00  0.00     0.006 C 
BRANCH   6   7
ATOM      7  C   UNL     1     -15.204   5.123  30.809  1.00  0.00     0.053 C 
BRANCH   7   8
ATOM      8  C   UNL     1     -15.862   3.789  30.625  1.00  0.00     0.041 C 
ATOM      9  O   UNL     1     -16.479   3.250  31.582  1.00  0.00    -0.550 OA
ATOM     10  O   UNL     1     -15.824   3.158  29.389  1.00  0.00    -0.550 OA
ENDBRANCH   7   8
ENDBRANCH   6   7
ENDBRANCH   5   6
ENDBRANCH   4   5
ENDBRANCH   3   4
ENDBRANCH   2   3
ENDBRANCH   1   2
BRANCH   1  11
ATOM     11  C   UNL     1     -14.685  11.217  30.311  1.00  0.00     0.000 C 
BRANCH  11  12
ATOM     12  C   UNL     1     -15.173  10.895  31.728  1.00  0.00     0.000 C 
BRANCH  12  13
ATOM     13  C   UNL     1     -14.417   9.695  32.311  1.00  0.00     0.000 C 
BRANCH  13  14
ATOM     14  C   UNL     1     -15.324   8.461  32.398  1.00  0.00     0.000 C 
BRANCH  14  15
ATOM     15  C   UNL     1     -16.798   8.849  32.219  1.00  0.00     0.000 C 
BRANCH  15  16
ATOM     16  C   UNL     1     -17.536   7.933  31.230  1.00  0.00     0.006 C 
BRANCH  16  17
ATOM     17  C   UNL     1     -18.460   8.709  30.281  1.00  0.00     0.053 C 
BRANCH  17  18
ATOM     18  C   UNL     1     -18.601   7.983  28.981  1.00  0.00     0.041 C 
ATOM     19  O   UNL     1     -19.045   8.581  27.967  1.00  0.00    -0.550 OA
ATOM     20  O   UNL     1     -18.294   6.631  28.903  1.00  0.00    -0.550 OA
ENDBRANCH  17  18
ENDBRANCH  16  17
ENDBRANCH  15  16
ENDBRANCH  14  15
ENDBRANCH  13  14
ENDBRANCH  12  13
ENDBRANCH  11  12
ENDBRANCH   1  11
TORSDOF 15
ENDMDL
MODEL 5
REMARK VINA RESULT:    -4.290      5.744      8.165
REMARK INTER + INTRA:         -10.352
REMARK INTER:                  -9.007
REMARK INTRA:                  -1.345
REMARK UNBOUND:                -2.300
REMARK SMILES O=C([O-])CCCCCCCCCCCCCCC(=O)[O-]
REMARK SMILES IDX 10 1 9 2 8 3 7 4 6 5 5 6 4 7 2 8 1 9 3 10 11 11 12 12 13 13
REMARK SMILES IDX 14 14 15 15 16 16 17 17 18 18 19 19 20 20
REMARK H PARENT
REMARK Flexibility Score: inf
ROOT
ATOM      1  C   UNL     1     -19.882  -4.573  23.329  1.00  0.00     0.000 C 
ENDROOT
BRANCH   1   2
ATOM      2  C   UNL     1     -21.078  -4.517  24.287  1.00  0.00     0.000 C 
BRANCH   2   3
ATOM      3  C   UNL     1     -21.922  -5.797  24.189  1.00  0.00     0.000 C 
BRANCH   3   4
ATOM      4  C   UNL     1     -21.947  -6.602  25.500  1.00  0.00     0.000 C 
BRANCH   4   5
ATOM      5  C   UNL     1     -23.176  -6.350  26.393  1.00  0.00     0.000 C 
BRANCH   5   6
ATOM      6  C   UNL     1     -24.449  -6.039  25.589  1.00  0.00     0.006 C 
BRANCH   6   7
ATOM      7  C   UNL     1     -25.213  -4.833  26.153  1.00  0.00     0.053 C 
BRANCH   7   8
ATOM      8  C   UNL     1     -24.443  -3.560  25.980  1.00  0.00     0.041 C 
ATOM      9  O   UNL     1     -23.946  -2.980  26.981  1.00  0.00    -0.550 OA
ATOM     10  O   UNL     1     -24.246  -3.032  24.710  1.00  0.00    -0.550 OA
ENDBRANCH   7   8
ENDBRANCH   6   7
ENDBRANCH   5   6
ENDBRANCH   4   5
ENDBRANCH   3   4
ENDBRANCH   2   3
ENDBRANCH   1   2
BRANCH   1  11
ATOM     11  C   UNL     1     -19.707  -5.980  22.746  1.00  0.00     0.000 C 
BRANCH  11  12
ATOM     12  C   UNL     1     -18.524  -6.031  21.773  1.00  0.00     0.000 C 
BRANCH  12  13
ATOM     13  C   UNL     1     -17.722  -4.724  21.812  1.00  0.00     0.000 C 
BRANCH  13  14
ATOM     14  C   UNL     1     -16.367  -4.929  22.501  1.00  0.00     0.000 C 
BRANCH  14  15
ATOM     15  C   UNL     1     -15.877  -6.374  22.331  1.00  0.00     0.000 C 
BRANCH  15  16
ATOM     16  C   UNL     1     -14.797  -6.510  21.246  1.00  0.00     0.006 C 
BRANCH  16  17
ATOM     17  C   UNL     1     -15.377  -6.909  19.882  1.00  0.00     0.053 C 
BRANCH  17  18
ATOM     18  C   UNL     1     -15.068  -5.862  18.858  1.00  0.00     0.041 C 
ATOM     19  O   UNL     1     -15.380  -4.661  19.067  1.00  0.00    -0.550 OA
ATOM     20  O   UNL     1     -14.487  -6.223  17.649  1.00  0.00    -0.550 OA
ENDBRANCH  17  18
ENDBRANCH  16  17
ENDBRANCH  15  16
ENDBRANCH  14  15
ENDBRANCH  13  14
ENDBRANCH  12  13
ENDBRANCH  11  12
ENDBRANCH   1  11
TORSDOF 15
ENDMDL
MODEL 6
REMARK VINA RESULT:    -4.270      5.187      7.492
REMARK INTER + INTRA:         -10.314
REMARK INTER:                  -8.932
REMARK INTRA:                  -1.382
REMARK UNBOUND:                -2.300
REMARK SMILES O=C([O-])CCCCCCCCCCCCCCC(=O)[O-]
REMARK SMILES IDX 10 1 9 2 8 3 7 4 6 5 5 6 4 7 2 8 1 9 3 10 11 11 12 12 13 13
REMARK SMILES IDX 14 14 15 15 16 16 17 17 18 18 19 19 20 20
REMARK H PARENT
REMARK Flexibility Score: inf
ROOT
ATOM      1  C   UNL     1     -18.019  -4.529  21.971  1.00  0.00     0.000 C 
ENDROOT
BRANCH   1   2
ATOM      2  C   UNL     1     -18.629  -5.935  21.937  1.00  0.00     0.000 C 
BRANCH   2   3
ATOM      3  C   UNL     1     -19.850  -6.028  22.865  1.00  0.00     0.000 C 
BRANCH   3   4
ATOM      4  C   UNL     1     -20.140  -4.713  23.609  1.00  0.00     0.000 C 
BRANCH   4   5
ATOM      5  C   UNL     1     -21.498  -4.664  24.334  1.00  0.00     0.000 C 
BRANCH   5   6
ATOM      6  C   UNL     1     -22.122  -6.055  24.534  1.00  0.00     0.006 C 
BRANCH   6   7
ATOM      7  C   UNL     1     -22.408  -6.356  26.011  1.00  0.00     0.053 C 
BRANCH   7   8
ATOM      8  C   UNL     1     -23.282  -5.309  26.631  1.00  0.00     0.041 C 
ATOM      9  O   UNL     1     -22.796  -4.479  27.444  1.00  0.00    -0.550 OA
ATOM     10  O   UNL     1     -24.624  -5.228  26.284  1.00  0.00    -0.550 OA
ENDBRANCH   7   8
ENDBRANCH   6   7
ENDBRANCH   5   6
ENDBRANCH   4   5
ENDBRANCH   3   4
ENDBRANCH   2   3
ENDBRANCH   1   2
BRANCH   1  11
ATOM     11  C   UNL     1     -16.590  -4.561  22.526  1.00  0.00     0.000 C 
BRANCH  11  12
ATOM     12  C   UNL     1     -15.986  -5.965  22.413  1.00  0.00     0.000 C 
BRANCH  12  13
ATOM     13  C   UNL     1     -14.993  -6.045  21.247  1.00  0.00     0.000 C 
BRANCH  13  14
ATOM     14  C   UNL     1     -15.408  -7.125  20.240  1.00  0.00     0.000 C 
BRANCH  14  15
ATOM     15  C   UNL     1     -16.028  -6.496  18.984  1.00  0.00     0.000 C 
BRANCH  15  16
ATOM     16  C   UNL     1     -15.039  -5.602  18.220  1.00  0.00     0.006 C 
BRANCH  16  17
ATOM     17  C   UNL     1     -15.612  -4.211  17.916  1.00  0.00     0.053 C 
BRANCH  17  18
ATOM     18  C   UNL     1     -14.793  -3.153  18.584  1.00  0.00     0.041 C 
ATOM     19  O   UNL     1     -15.053  -2.802  19.764  1.00  0.00    -0.550 OA
ATOM     20  O   UNL     1     -13.777  -2.514  17.884  1.00  0.00    -0.550 OA
ENDBRANCH  17  18
ENDBRANCH  16  17
ENDBRANCH  15  16
ENDBRANCH  14  15
ENDBRANCH  13  14
ENDBRANCH  12  13
ENDBRANCH  11  12
ENDBRANCH   1  11
TORSDOF 15
ENDMDL
MODEL 7
REMARK VINA RESULT:    -4.258      2.409      3.988
REMARK INTER + INTRA:         -10.291
REMARK INTER:                  -8.307
REMARK INTRA:                  -1.984
REMARK UNBOUND:                -2.300
REMARK SMILES O=C([O-])CCCCCCCCCCCCCCC(=O)[O-]
REMARK SMILES IDX 10 1 9 2 8 3 7 4 6 5 5 6 4 7 2 8 1 9 3 10 11 11 12 12 13 13
REMARK SMILES IDX 14 14 15 15 16 16 17 17 18 18 19 19 20 20
REMARK H PARENT
REMARK Flexibility Score: inf
ROOT
ATOM      1  C   UNL     1     -16.494  -4.922  17.600  1.00  0.00     0.000 C 
ENDROOT
BRANCH   1   2
ATOM      2  C   UNL     1     -16.087  -4.900  16.122  1.00  0.00     0.000 C 
BRANCH   2   3
ATOM      3  C   UNL     1     -14.845  -4.023  15.904  1.00  0.00     0.000 C 
BRANCH   3   4
ATOM      4  C   UNL     1     -14.043  -3.787  17.196  1.00  0.00     0.000 C 
BRANCH   4   5
ATOM      5  C   UNL     1     -13.865  -2.309  17.589  1.00  0.00     0.000 C 
BRANCH   5   6
ATOM      6  C   UNL     1     -14.996  -1.408  17.065  1.00  0.00     0.006 C 
BRANCH   6   7
ATOM      7  C   UNL     1     -16.122  -1.233  18.092  1.00  0.00     0.053 C 
BRANCH   7   8
ATOM      8  C   UNL     1     -15.583  -1.030  19.475  1.00  0.00     0.041 C 
ATOM      9  O   UNL     1     -15.065   0.071  19.798  1.00  0.00    -0.550 OA
ATOM     10  O   UNL     1     -15.683  -2.046  20.418  1.00  0.00    -0.550 OA
ENDBRANCH   7   8
ENDBRANCH   6   7
ENDBRANCH   5   6
ENDBRANCH   4   5
ENDBRANCH   3   4
ENDBRANCH   2   3
ENDBRANCH   1   2
BRANCH   1  11
ATOM     11  C   UNL     1     -16.589  -6.359  18.125  1.00  0.00     0.000 C 
BRANCH  11  12
ATOM     12  C   UNL     1     -15.311  -6.759  18.871  1.00  0.00     0.000 C 
BRANCH  12  13
ATOM     13  C   UNL     1     -15.089  -5.868  20.099  1.00  0.00     0.000 C 
BRANCH  13  14
ATOM     14  C   UNL     1     -14.810  -6.710  21.350  1.00  0.00     0.000 C 
BRANCH  14  15
ATOM     15  C   UNL     1     -15.794  -6.363  22.477  1.00  0.00     0.000 C 
BRANCH  15  16
ATOM     16  C   UNL     1     -16.469  -4.998  22.274  1.00  0.00     0.006 C 
BRANCH  16  17
ATOM     17  C   UNL     1     -17.997  -5.070  22.403  1.00  0.00     0.053 C 
BRANCH  17  18
ATOM     18  C   UNL     1     -18.618  -5.383  21.079  1.00  0.00     0.041 C 
ATOM     19  O   UNL     1     -18.823  -6.579  20.743  1.00  0.00    -0.550 OA
ATOM     20  O   UNL     1     -18.919  -4.358  20.192  1.00  0.00    -0.550 OA
ENDBRANCH  17  18
ENDBRANCH  16  17
ENDBRANCH  15  16
ENDBRANCH  14  15
ENDBRANCH  13  14
ENDBRANCH  12  13
ENDBRANCH  11  12
ENDBRANCH   1  11
TORSDOF 15
ENDMDL
MODEL 8
REMARK VINA RESULT:    -4.257      4.778      6.708
REMARK INTER + INTRA:         -10.290
REMARK INTER:                  -9.419
REMARK INTRA:                  -0.872
REMARK UNBOUND:                -2.300
REMARK SMILES O=C([O-])CCCCCCCCCCCCCCC(=O)[O-]
REMARK SMILES IDX 10 1 9 2 8 3 7 4 6 5 5 6 4 7 2 8 1 9 3 10 11 11 12 12 13 13
REMARK SMILES IDX 14 14 15 15 16 16 17 17 18 18 19 19 20 20
REMARK H PARENT
REMARK Flexibility Score: inf
ROOT
ATOM      1  C   UNL     1     -15.469  -6.497  22.090  1.00  0.00     0.000 C 
ENDROOT
BRANCH   1   2
ATOM      2  C   UNL     1     -15.163  -7.125  20.725  1.00  0.00     0.000 C 
BRANCH   2   3
ATOM      3  C   UNL     1     -15.122  -6.056  19.623  1.00  0.00     0.000 C 
BRANCH   3   4
ATOM      4  C   UNL     1     -15.599  -6.582  18.258  1.00  0.00     0.000 C 
BRANCH   4   5
ATOM      5  C   UNL     1     -14.476  -6.854  17.240  1.00  0.00     0.000 C 
BRANCH   5   6
ATOM      6  C   UNL     1     -13.700  -5.585  16.848  1.00  0.00     0.006 C 
BRANCH   6   7
ATOM      7  C   UNL     1     -14.601  -4.535  16.186  1.00  0.00     0.053 C 
BRANCH   7   8
ATOM      8  C   UNL     1     -14.770  -3.325  17.052  1.00  0.00     0.041 C 
ATOM      9  O   UNL     1     -15.923  -2.899  17.327  1.00  0.00    -0.550 OA
ATOM     10  O   UNL     1     -13.656  -2.688  17.585  1.00  0.00    -0.550 OA
ENDBRANCH   7   8
ENDBRANCH   6   7
ENDBRANCH   5   6
ENDBRANCH   4   5
ENDBRANCH   3   4
ENDBRANCH   2   3
ENDBRANCH   1   2
BRANCH   1  11
ATOM     11  C   UNL     1     -16.876  -5.886  22.112  1.00  0.00     0.000 C 
BRANCH  11  12
ATOM     12  C   UNL     1     -16.821  -4.387  22.427  1.00  0.00     0.000 C 
BRANCH  12  13
ATOM     13  C   UNL     1     -18.187  -3.872  22.896  1.00  0.00     0.000 C 
BRANCH  13  14
ATOM     14  C   UNL     1     -19.288  -4.907  22.632  1.00  0.00     0.000 C 
BRANCH  14  15
ATOM     15  C   UNL     1     -20.454  -4.732  23.616  1.00  0.00     0.000 C 
BRANCH  15  16
ATOM     16  C   UNL     1     -21.125  -6.065  23.982  1.00  0.00     0.006 C 
BRANCH  16  17
ATOM     17  C   UNL     1     -22.576  -5.887  24.448  1.00  0.00     0.053 C 
BRANCH  17  18
ATOM     18  C   UNL     1     -22.638  -5.810  25.941  1.00  0.00     0.041 C 
ATOM     19  O   UNL     1     -22.656  -4.691  26.517  1.00  0.00    -0.550 OA
ATOM     20  O   UNL     1     -22.618  -6.974  26.699  1.00  0.00    -0.550 OA
ENDBRANCH  17  18
ENDBRANCH  16  17
ENDBRANCH  15  16
ENDBRANCH  14  15
ENDBRANCH  13  14
ENDBRANCH  12  13
ENDBRANCH  11  12
ENDBRANCH   1  11
TORSDOF 15
ENDMDL
MODEL 9
REMARK VINA RESULT:    -4.222     11.986     14.307
REMARK INTER + INTRA:         -10.224
REMARK INTER:                  -8.029
REMARK INTRA:                  -2.196
REMARK UNBOUND:                -2.300
REMARK SMILES O=C([O-])CCCCCCCCCCCCCCC(=O)[O-]
REMARK SMILES IDX 10 1 9 2 8 3 7 4 6 5 5 6 4 7 2 8 1 9 3 10 11 11 12 12 13 13
REMARK SMILES IDX 14 14 15 15 16 16 17 17 18 18 19 19 20 20
REMARK H PARENT
REMARK Flexibility Score: inf
ROOT
ATOM      1  C   UNL     1     -15.508   2.068  29.120  1.00  0.00     0.000 C 
ENDROOT
BRANCH   1   2
ATOM      2  C   UNL     1     -14.252   2.356  28.289  1.00  0.00     0.000 C 
BRANCH   2   3
ATOM      3  C   UNL     1     -13.778   3.803  28.491  1.00  0.00     0.000 C 
BRANCH   3   4
ATOM      4  C   UNL     1     -14.661   4.832  27.763  1.00  0.00     0.000 C 
BRANCH   4   5
ATOM      5  C   UNL     1     -15.261   5.927  28.665  1.00  0.00     0.000 C 
BRANCH   5   6
ATOM      6  C   UNL     1     -14.320   6.344  29.808  1.00  0.00     0.006 C 
BRANCH   6   7
ATOM      7  C   UNL     1     -15.044   6.417  31.159  1.00  0.00     0.053 C 
BRANCH   7   8
ATOM      8  C   UNL     1     -15.073   7.815  31.697  1.00  0.00     0.041 C 
ATOM      9  O   UNL     1     -16.171   8.355  31.996  1.00  0.00    -0.550 OA
ATOM     10  O   UNL     1     -13.887   8.508  31.900  1.00  0.00    -0.550 OA
ENDBRANCH   7   8
ENDBRANCH   6   7
ENDBRANCH   5   6
ENDBRANCH   4   5
ENDBRANCH   3   4
ENDBRANCH   2   3
ENDBRANCH   1   2
BRANCH   1  11
ATOM     11  C   UNL     1     -15.149   1.787  30.584  1.00  0.00     0.000 C 
BRANCH  11  12
ATOM     12  C   UNL     1     -15.857   2.769  31.524  1.00  0.00     0.000 C 
BRANCH  12  13
ATOM     13  C   UNL     1     -17.028   3.462  30.816  1.00  0.00     0.000 C 
BRANCH  13  14
ATOM     14  C   UNL     1     -18.251   3.558  31.737  1.00  0.00     0.000 C 
BRANCH  14  15
ATOM     15  C   UNL     1     -18.275   2.397  32.741  1.00  0.00     0.000 C 
BRANCH  15  16
ATOM     16  C   UNL     1     -19.224   1.266  32.315  1.00  0.00     0.006 C 
BRANCH  16  17
ATOM     17  C   UNL     1     -18.485   0.087  31.666  1.00  0.00     0.053 C 
BRANCH  17  18
ATOM     18  C   UNL     1     -18.853  -0.026  30.221  1.00  0.00     0.041 C 
ATOM     19  O   UNL     1     -18.567  -1.067  29.574  1.00  0.00    -0.550 OA
ATOM     20  O   UNL     1     -19.462   1.041  29.573  1.00  0.00    -0.550 OA
ENDBRANCH  17  18
ENDBRANCH  16  17
ENDBRANCH  15  16
ENDBRANCH  14  15
ENDBRANCH  13  14
ENDBRANCH  12  13
ENDBRANCH  11  12
ENDBRANCH   1  11
TORSDOF 15
ENDMDL
