MODEL 1
REMARK VINA RESULT:    -5.390      0.000      0.000
REMARK INTER + INTRA:          -8.749
REMARK INTER:                  -8.226
REMARK INTRA:                  -0.523
REMARK UNBOUND:                -0.523
REMARK SMILES CCCCCCCCCC=CC(=O)[O-]
REMARK SMILES IDX 7 1 8 2 9 3 10 4 11 5 12 6 13 7 14 8 6 9 5 10 4 11 3 12 2 13
REMARK SMILES IDX 1 14
REMARK H PARENT
REMARK Flexibility Score: inf
ROOT
ATOM      1  C   UNL     1      27.409   3.528 -27.608  1.00  0.00     0.000 C 
ENDROOT
BRANCH   1   2
ATOM      2  C   UNL     1      28.722   4.268 -27.905  1.00  0.00     0.004 C 
BRANCH   2   3
ATOM      3  C   UNL     1      29.959   3.484 -27.442  1.00  0.00     0.027 C 
BRANCH   3   4
ATOM      4  C   UNL     1      30.933   4.379 -26.730  1.00  0.00    -0.025 C 
ATOM      5  C   UNL     1      30.577   5.075 -25.646  1.00  0.00     0.020 C 
BRANCH   5   6
ATOM      6  C   UNL     1      31.523   5.945 -24.931  1.00  0.00     0.064 C 
ATOM      7  O   UNL     1      31.822   5.687 -23.736  1.00  0.00    -0.545 OA
ATOM      8  O   UNL     1      32.093   7.049 -25.555  1.00  0.00    -0.545 OA
ENDBRANCH   5   6
ENDBRANCH   3   4
ENDBRANCH   2   3
ENDBRANCH   1   2
BRANCH   1   9
ATOM      9  C   UNL     1      26.788   3.945 -26.263  1.00  0.00     0.000 C 
BRANCH   9  10
ATOM     10  C   UNL     1      25.407   3.311 -26.029  1.00  0.00     0.000 C 
BRANCH  10  11
ATOM     11  C   UNL     1      25.060   2.248 -27.085  1.00  0.00    -0.000 C 
BRANCH  11  12
ATOM     12  C   UNL     1      24.068   1.197 -26.562  1.00  0.00    -0.000 C 
BRANCH  12  13
ATOM     13  C   UNL     1      24.722  -0.175 -26.346  1.00  0.00    -0.003 C 
ATOM     14  C   UNL     1      23.956  -1.271 -27.083  1.00  0.00     0.004 C 
ENDBRANCH  12  13
ENDBRANCH  11  12
ENDBRANCH  10  11
ENDBRANCH   9  10
ENDBRANCH   1   9
TORSDOF 9
ENDMDL
MODEL 2
REMARK VINA RESULT:    -5.258      2.143      3.397
REMARK INTER + INTRA:          -8.548
REMARK INTER:                  -7.684
REMARK INTRA:                  -0.864
REMARK UNBOUND:                -0.523
REMARK SMILES CCCCCCCCCC=CC(=O)[O-]
REMARK SMILES IDX 7 1 8 2 9 3 10 4 11 5 12 6 13 7 14 8 6 9 5 10 4 11 3 12 2 13
REMARK SMILES IDX 1 14
REMARK H PARENT
REMARK Flexibility Score: inf
ROOT
ATOM      1  C   UNL     1      29.705   3.701 -27.454  1.00  0.00     0.000 C 
ENDROOT
BRANCH   1   2
ATOM      2  C   UNL     1      30.768   4.423 -26.611  1.00  0.00     0.004 C 
BRANCH   2   3
ATOM      3  C   UNL     1      31.091   5.827 -27.146  1.00  0.00     0.027 C 
BRANCH   3   4
ATOM      4  C   UNL     1      31.953   6.589 -26.181  1.00  0.00    -0.025 C 
ATOM      5  C   UNL     1      31.898   6.362 -24.865  1.00  0.00     0.020 C 
BRANCH   5   6
ATOM      6  C   UNL     1      32.747   7.091 -23.910  1.00  0.00     0.064 C 
ATOM      7  O   UNL     1      33.677   7.822 -24.339  1.00  0.00    -0.545 OA
ATOM      8  O   UNL     1      32.538   6.985 -22.540  1.00  0.00    -0.545 OA
ENDBRANCH   5   6
ENDBRANCH   3   4
ENDBRANCH   2   3
ENDBRANCH   1   2
BRANCH   1   9
ATOM      9  C   UNL     1      28.347   4.424 -27.438  1.00  0.00     0.000 C 
BRANCH   9  10
ATOM     10  C   UNL     1      27.180   3.494 -27.807  1.00  0.00     0.000 C 
BRANCH  10  11
ATOM     11  C   UNL     1      26.191   3.300 -26.645  1.00  0.00    -0.000 C 
BRANCH  11  12
ATOM     12  C   UNL     1      26.434   4.285 -25.491  1.00  0.00    -0.000 C 
BRANCH  12  13
ATOM     13  C   UNL     1      26.915   3.588 -24.211  1.00  0.00    -0.003 C 
ATOM     14  C   UNL     1      28.260   4.145 -23.753  1.00  0.00     0.004 C 
ENDBRANCH  12  13
ENDBRANCH  11  12
ENDBRANCH  10  11
ENDBRANCH   9  10
ENDBRANCH   1   9
TORSDOF 9
ENDMDL
MODEL 3
REMARK VINA RESULT:    -5.245      4.658      8.068
REMARK INTER + INTRA:          -8.528
REMARK INTER:                  -8.110
REMARK INTRA:                  -0.419
REMARK UNBOUND:                -0.523
REMARK SMILES CCCCCCCCCC=CC(=O)[O-]
REMARK SMILES IDX 7 1 8 2 9 3 10 4 11 5 12 6 13 7 14 8 6 9 5 10 4 11 3 12 2 13
REMARK SMILES IDX 1 14
REMARK H PARENT
REMARK Flexibility Score: inf
ROOT
ATOM      1  C   UNL     1      25.462   3.387 -26.485  1.00  0.00     0.000 C 
ENDROOT
BRANCH   1   2
ATOM      2  C   UNL     1      25.405   1.940 -26.999  1.00  0.00     0.004 C 
BRANCH   2   3
ATOM      3  C   UNL     1      23.975   1.380 -27.028  1.00  0.00     0.027 C 
BRANCH   3   4
ATOM      4  C   UNL     1      23.884   0.086 -26.272  1.00  0.00    -0.025 C 
ATOM      5  C   UNL     1      23.615  -1.067 -26.892  1.00  0.00     0.020 C 
BRANCH   5   6
ATOM      6  C   UNL     1      23.536  -2.344 -26.167  1.00  0.00     0.064 C 
ATOM      7  O   UNL     1      22.734  -3.232 -26.558  1.00  0.00    -0.545 OA
ATOM      8  O   UNL     1      24.333  -2.587 -25.054  1.00  0.00    -0.545 OA
ENDBRANCH   5   6
ENDBRANCH   3   4
ENDBRANCH   2   3
ENDBRANCH   1   2
BRANCH   1   9
ATOM      9  C   UNL     1      26.868   4.001 -26.607  1.00  0.00     0.000 C 
BRANCH   9  10
ATOM     10  C   UNL     1      27.613   3.523 -27.864  1.00  0.00     0.000 C 
BRANCH  10  11
ATOM     11  C   UNL     1      28.991   4.187 -28.021  1.00  0.00    -0.000 C 
BRANCH  11  12
ATOM     12  C   UNL     1      30.043   3.597 -27.069  1.00  0.00    -0.000 C 
BRANCH  12  13
ATOM     13  C   UNL     1      31.131   4.612 -26.689  1.00  0.00    -0.003 C 
ATOM     14  C   UNL     1      30.948   5.924 -27.447  1.00  0.00     0.004 C 
ENDBRANCH  12  13
ENDBRANCH  11  12
ENDBRANCH  10  11
ENDBRANCH   9  10
ENDBRANCH   1   9
TORSDOF 9
ENDMDL
MODEL 4
REMARK VINA RESULT:    -5.184     11.000     12.899
REMARK INTER + INTRA:          -8.435
REMARK INTER:                  -7.923
REMARK INTRA:                  -0.511
REMARK UNBOUND:                -0.523
REMARK SMILES CCCCCCCCCC=CC(=O)[O-]
REMARK SMILES IDX 7 1 8 2 9 3 10 4 11 5 12 6 13 7 14 8 6 9 5 10 4 11 3 12 2 13
REMARK SMILES IDX 1 14
REMARK H PARENT
REMARK Flexibility Score: inf
ROOT
ATOM      1  C   UNL     1      27.670  -1.326 -16.966  1.00  0.00     0.000 C 
ENDROOT
BRANCH   1   2
ATOM      2  C   UNL     1      26.738  -0.746 -15.890  1.00  0.00     0.004 C 
BRANCH   2   3
ATOM      3  C   UNL     1      25.253  -0.965 -16.216  1.00  0.00     0.027 C 
BRANCH   3   4
ATOM      4  C   UNL     1      24.561   0.339 -16.492  1.00  0.00    -0.025 C 
ATOM      5  C   UNL     1      23.234   0.462 -16.389  1.00  0.00     0.020 C 
BRANCH   5   6
ATOM      6  C   UNL     1      22.545   1.735 -16.644  1.00  0.00     0.064 C 
ATOM      7  O   UNL     1      23.119   2.628 -17.321  1.00  0.00    -0.545 OA
ATOM      8  O   UNL     1      21.268   1.971 -16.146  1.00  0.00    -0.545 OA
ENDBRANCH   5   6
ENDBRANCH   3   4
ENDBRANCH   2   3
ENDBRANCH   1   2
BRANCH   1   9
ATOM      9  C   UNL     1      29.157  -1.113 -16.636  1.00  0.00     0.000 C 
BRANCH   9  10
ATOM     10  C   UNL     1      29.382  -0.689 -15.175  1.00  0.00     0.000 C 
BRANCH  10  11
ATOM     11  C   UNL     1      30.744  -0.007 -14.961  1.00  0.00    -0.000 C 
BRANCH  11  12
ATOM     12  C   UNL     1      31.254   0.702 -16.226  1.00  0.00    -0.000 C 
BRANCH  12  13
ATOM     13  C   UNL     1      32.722   0.374 -16.534  1.00  0.00    -0.003 C 
ATOM     14  C   UNL     1      33.374  -0.373 -15.374  1.00  0.00     0.004 C 
ENDBRANCH  12  13
ENDBRANCH  11  12
ENDBRANCH  10  11
ENDBRANCH   9  10
ENDBRANCH   1   9
TORSDOF 9
ENDMDL
MODEL 5
REMARK VINA RESULT:    -5.172      8.264     12.253
REMARK INTER + INTRA:          -8.417
REMARK INTER:                  -7.992
REMARK INTRA:                  -0.425
REMARK UNBOUND:                -0.523
REMARK SMILES CCCCCCCCCC=CC(=O)[O-]
REMARK SMILES IDX 7 1 8 2 9 3 10 4 11 5 12 6 13 7 14 8 6 9 5 10 4 11 3 12 2 13
REMARK SMILES IDX 1 14
REMARK H PARENT
REMARK Flexibility Score: inf
ROOT
ATOM      1  C   UNL     1      21.377  -3.767 -26.292  1.00  0.00     0.000 C 
ENDROOT
BRANCH   1   2
ATOM      2  C   UNL     1      21.055  -3.354 -27.737  1.00  0.00     0.004 C 
BRANCH   2   3
ATOM      3  C   UNL     1      19.544  -3.260 -28.001  1.00  0.00     0.027 C 
BRANCH   3   4
ATOM      4  C   UNL     1      18.817  -4.436 -27.415  1.00  0.00    -0.025 C 
ATOM      5  C   UNL     1      17.684  -4.282 -26.723  1.00  0.00     0.020 C 
BRANCH   5   6
ATOM      6  C   UNL     1      16.954  -5.426 -26.155  1.00  0.00     0.064 C 
ATOM      7  O   UNL     1      16.479  -6.303 -26.922  1.00  0.00    -0.545 OA
ATOM      8  O   UNL     1      16.780  -5.553 -24.781  1.00  0.00    -0.545 OA
ENDBRANCH   5   6
ENDBRANCH   3   4
ENDBRANCH   2   3
ENDBRANCH   1   2
BRANCH   1   9
ATOM      9  C   UNL     1      22.503  -2.921 -25.674  1.00  0.00     0.000 C 
BRANCH   9  10
ATOM     10  C   UNL     1      23.232  -2.057 -26.717  1.00  0.00     0.000 C 
BRANCH  10  11
ATOM     11  C   UNL     1      24.309  -1.157 -26.089  1.00  0.00    -0.000 C 
BRANCH  11  12
ATOM     12  C   UNL     1      24.661   0.049 -26.974  1.00  0.00    -0.000 C 
BRANCH  12  13
ATOM     13  C   UNL     1      24.035   1.356 -26.466  1.00  0.00    -0.003 C 
ATOM     14  C   UNL     1      24.912   2.557 -26.814  1.00  0.00     0.004 C 
ENDBRANCH  12  13
ENDBRANCH  11  12
ENDBRANCH  10  11
ENDBRANCH   9  10
ENDBRANCH   1   9
TORSDOF 9
ENDMDL
MODEL 6
REMARK VINA RESULT:    -5.125     10.883     14.518
REMARK INTER + INTRA:          -8.345
REMARK INTER:                  -7.711
REMARK INTRA:                  -0.634
REMARK UNBOUND:                -0.523
REMARK SMILES CCCCCCCCCC=CC(=O)[O-]
REMARK SMILES IDX 7 1 8 2 9 3 10 4 11 5 12 6 13 7 14 8 6 9 5 10 4 11 3 12 2 13
REMARK SMILES IDX 1 14
REMARK H PARENT
REMARK Flexibility Score: inf
ROOT
ATOM      1  C   UNL     1      19.209  -3.748 -25.707  1.00  0.00     0.000 C 
ENDROOT
BRANCH   1   2
ATOM      2  C   UNL     1      17.946  -4.471 -25.212  1.00  0.00     0.004 C 
BRANCH   2   3
ATOM      3  C   UNL     1      17.192  -5.183 -26.344  1.00  0.00     0.027 C 
BRANCH   3   4
ATOM      4  C   UNL     1      16.347  -6.305 -25.812  1.00  0.00    -0.025 C 
ATOM      5  C   UNL     1      16.032  -6.387 -24.515  1.00  0.00     0.020 C 
BRANCH   5   6
ATOM      6  C   UNL     1      15.195  -7.472 -23.982  1.00  0.00     0.064 C 
ATOM      7  O   UNL     1      15.499  -8.669 -24.226  1.00  0.00    -0.545 OA
ATOM      8  O   UNL     1      14.070  -7.196 -23.212  1.00  0.00    -0.545 OA
ENDBRANCH   5   6
ENDBRANCH   3   4
ENDBRANCH   2   3
ENDBRANCH   1   2
BRANCH   1   9
ATOM      9  C   UNL     1      19.156  -3.432 -27.212  1.00  0.00     0.000 C 
BRANCH   9  10
ATOM     10  C   UNL     1      20.547  -3.445 -27.866  1.00  0.00     0.000 C 
BRANCH  10  11
ATOM     11  C   UNL     1      21.683  -3.539 -26.834  1.00  0.00    -0.000 C 
BRANCH  11  12
ATOM     12  C   UNL     1      22.689  -2.383 -26.956  1.00  0.00    -0.000 C 
BRANCH  12  13
ATOM     13  C   UNL     1      23.405  -2.082 -25.632  1.00  0.00    -0.003 C 
ATOM     14  C   UNL     1      23.079  -3.136 -24.577  1.00  0.00     0.004 C 
ENDBRANCH  12  13
ENDBRANCH  11  12
ENDBRANCH  10  11
ENDBRANCH   9  10
ENDBRANCH   1   9
TORSDOF 9
ENDMDL
MODEL 7
REMARK VINA RESULT:    -5.096      3.217      6.793
REMARK INTER + INTRA:          -8.300
REMARK INTER:                  -7.763
REMARK INTRA:                  -0.537
REMARK UNBOUND:                -0.523
REMARK SMILES CCCCCCCCCC=CC(=O)[O-]
REMARK SMILES IDX 7 1 8 2 9 3 10 4 11 5 12 6 13 7 14 8 6 9 5 10 4 11 3 12 2 13
REMARK SMILES IDX 1 14
REMARK H PARENT
REMARK Flexibility Score: inf
ROOT
ATOM      1  C   UNL     1      27.522   3.303 -27.993  1.00  0.00     0.000 C 
ENDROOT
BRANCH   1   2
ATOM      2  C   UNL     1      26.432   3.858 -27.063  1.00  0.00     0.004 C 
BRANCH   2   3
ATOM      3  C   UNL     1      25.397   2.794 -26.666  1.00  0.00     0.027 C 
BRANCH   3   4
ATOM      4  C   UNL     1      24.741   3.137 -25.360  1.00  0.00    -0.025 C 
ATOM      5  C   UNL     1      25.181   4.146 -24.601  1.00  0.00     0.020 C 
BRANCH   5   6
ATOM      6  C   UNL     1      24.539   4.502 -23.326  1.00  0.00     0.064 C 
ATOM      7  O   UNL     1      25.245   4.920 -22.371  1.00  0.00    -0.545 OA
ATOM      8  O   UNL     1      23.164   4.383 -23.158  1.00  0.00    -0.545 OA
ENDBRANCH   5   6
ENDBRANCH   3   4
ENDBRANCH   2   3
ENDBRANCH   1   2
BRANCH   1   9
ATOM      9  C   UNL     1      28.841   4.089 -27.891  1.00  0.00     0.000 C 
BRANCH   9  10
ATOM     10  C   UNL     1      29.622   3.766 -26.608  1.00  0.00     0.000 C 
BRANCH  10  11
ATOM     11  C   UNL     1      31.052   4.333 -26.629  1.00  0.00    -0.000 C 
BRANCH  11  12
ATOM     12  C   UNL     1      31.095   5.810 -27.050  1.00  0.00    -0.000 C 
BRANCH  12  13
ATOM     13  C   UNL     1      31.745   6.708 -25.987  1.00  0.00    -0.003 C 
ATOM     14  C   UNL     1      31.722   6.040 -24.614  1.00  0.00     0.004 C 
ENDBRANCH  12  13
ENDBRANCH  11  12
ENDBRANCH  10  11
ENDBRANCH   9  10
ENDBRANCH   1   9
TORSDOF 9
ENDMDL
MODEL 8
REMARK VINA RESULT:    -5.079      1.180      2.127
REMARK INTER + INTRA:          -8.274
REMARK INTER:                  -7.860
REMARK INTRA:                  -0.415
REMARK UNBOUND:                -0.523
REMARK SMILES CCCCCCCCCC=CC(=O)[O-]
REMARK SMILES IDX 7 1 8 2 9 3 10 4 11 5 12 6 13 7 14 8 6 9 5 10 4 11 3 12 2 13
REMARK SMILES IDX 1 14
REMARK H PARENT
REMARK Flexibility Score: inf
ROOT
ATOM      1  C   UNL     1      25.820   2.682 -27.100  1.00  0.00     0.000 C 
ENDROOT
BRANCH   1   2
ATOM      2  C   UNL     1      26.935   3.740 -27.091  1.00  0.00     0.004 C 
BRANCH   2   3
ATOM      3  C   UNL     1      28.015   3.467 -28.148  1.00  0.00     0.027 C 
BRANCH   3   4
ATOM      4  C   UNL     1      29.359   3.957 -27.689  1.00  0.00    -0.025 C 
ATOM      5  C   UNL     1      29.486   5.080 -26.974  1.00  0.00     0.020 C 
BRANCH   5   6
ATOM      6  C   UNL     1      30.793   5.564 -26.506  1.00  0.00     0.064 C 
ATOM      7  O   UNL     1      31.504   6.269 -27.269  1.00  0.00    -0.545 OA
ATOM      8  O   UNL     1      31.258   5.254 -25.233  1.00  0.00    -0.545 OA
ENDBRANCH   5   6
ENDBRANCH   3   4
ENDBRANCH   2   3
ENDBRANCH   1   2
BRANCH   1   9
ATOM      9  C   UNL     1      25.066   2.608 -25.761  1.00  0.00     0.000 C 
BRANCH   9  10
ATOM     10  C   UNL     1      23.994   1.507 -25.749  1.00  0.00     0.000 C 
BRANCH  10  11
ATOM     11  C   UNL     1      23.997   0.666 -27.037  1.00  0.00    -0.000 C 
BRANCH  11  12
ATOM     12  C   UNL     1      24.517  -0.761 -26.810  1.00  0.00    -0.000 C 
BRANCH  12  13
ATOM     13  C   UNL     1      23.548  -1.619 -25.983  1.00  0.00    -0.003 C 
ATOM     14  C   UNL     1      22.656  -2.466 -26.886  1.00  0.00     0.004 C 
ENDBRANCH  12  13
ENDBRANCH  11  12
ENDBRANCH  10  11
ENDBRANCH   9  10
ENDBRANCH   1   9
TORSDOF 9
ENDMDL
MODEL 9
REMARK VINA RESULT:    -5.024      2.058      3.699
REMARK INTER + INTRA:          -8.191
REMARK INTER:                  -7.403
REMARK INTRA:                  -0.788
REMARK UNBOUND:                -0.523
REMARK SMILES CCCCCCCCCC=CC(=O)[O-]
REMARK SMILES IDX 7 1 8 2 9 3 10 4 11 5 12 6 13 7 14 8 6 9 5 10 4 11 3 12 2 13
REMARK SMILES IDX 1 14
REMARK H PARENT
REMARK Flexibility Score: inf
ROOT
ATOM      1  C   UNL     1      26.953   3.995 -26.373  1.00  0.00     0.000 C 
ENDROOT
BRANCH   1   2
ATOM      2  C   UNL     1      27.377   3.476 -27.756  1.00  0.00     0.004 C 
BRANCH   2   3
ATOM      3  C   UNL     1      28.869   3.705 -28.039  1.00  0.00     0.027 C 
BRANCH   3   4
ATOM      4  C   UNL     1      29.546   4.371 -26.876  1.00  0.00    -0.025 C 
ATOM      5  C   UNL     1      30.614   5.157 -27.045  1.00  0.00     0.020 C 
BRANCH   5   6
ATOM      6  C   UNL     1      31.278   5.826 -25.917  1.00  0.00     0.064 C 
ATOM      7  O   UNL     1      32.000   6.836 -26.131  1.00  0.00    -0.545 OA
ATOM      8  O   UNL     1      31.124   5.361 -24.616  1.00  0.00    -0.545 OA
ENDBRANCH   5   6
ENDBRANCH   3   4
ENDBRANCH   2   3
ENDBRANCH   1   2
BRANCH   1   9
ATOM      9  C   UNL     1      25.473   3.707 -26.064  1.00  0.00     0.000 C 
BRANCH   9  10
ATOM     10  C   UNL     1      25.272   3.091 -24.670  1.00  0.00     0.000 C 
BRANCH  10  11
ATOM     11  C   UNL     1      24.814   4.125 -23.628  1.00  0.00    -0.000 C 
BRANCH  11  12
ATOM     12  C   UNL     1      25.698   4.128 -22.371  1.00  0.00    -0.000 C 
BRANCH  12  13
ATOM     13  C   UNL     1      26.740   5.255 -22.384  1.00  0.00    -0.003 C 
ATOM     14  C   UNL     1      28.107   4.736 -22.822  1.00  0.00     0.004 C 
ENDBRANCH  12  13
ENDBRANCH  11  12
ENDBRANCH  10  11
ENDBRANCH   9  10
ENDBRANCH   1   9
TORSDOF 9
ENDMDL
