MODEL 1
REMARK VINA RESULT:     0.000      0.000      0.000
REMARK INTER + INTRA:          -0.765
REMARK INTER:                   0.000
REMARK INTRA:                  -0.765
REMARK UNBOUND:                -0.765
REMARK SMILES O=C(C=Cc1ccc(O)cc1)c1ccc(O)cc1O
REMARK SMILES IDX 4 1 3 2 5 3 6 4 7 5 8 6 11 7 10 8 9 9 2 11 1 12 12 13 18 14
REMARK SMILES IDX 13 15 17 16 14 17 15 18 19 19 16 21
REMARK H PARENT 9 10 19 20 16 22
REMARK Flexibility Score: inf
ROOT
ATOM      1  C   UNL     1       5.740  22.893  46.934  1.00  0.00     0.012 C 
ATOM      2  C   UNL     1       6.822  22.500  46.246  1.00  0.00     0.053 C 
ENDROOT
BRANCH   1   3
ATOM      3  C   UNL     1       5.219  22.180  48.126  1.00  0.00    -0.025 A 
ATOM      4  C   UNL     1       3.995  22.520  48.738  1.00  0.00     0.012 A 
ATOM      5  C   UNL     1       3.541  21.809  49.853  1.00  0.00     0.047 A 
ATOM      6  C   UNL     1       4.294  20.746  50.367  1.00  0.00     0.115 A 
ATOM      7  C   UNL     1       5.958  21.101  48.641  1.00  0.00     0.012 A 
ATOM      8  C   UNL     1       5.500  20.393  49.756  1.00  0.00     0.047 A 
BRANCH   6   9
ATOM      9  O   UNL     1       3.850  20.033  51.478  1.00  0.00    -0.508 OA
ATOM     10  H   UNL     1       2.931  20.189  51.875  1.00  0.00     0.293 HD
ENDBRANCH   6   9
ENDBRANCH   1   3
BRANCH   2  11
ATOM     11  C   UNL     1       7.305  23.229  45.053  1.00  0.00     0.189 C 
ATOM     12  O   UNL     1       7.441  22.625  43.953  1.00  0.00    -0.289 OA
BRANCH  11  13
ATOM     13  C   UNL     1       7.602  24.677  45.129  1.00  0.00     0.064 A 
ATOM     14  C   UNL     1       6.883  25.629  44.365  1.00  0.00     0.130 A 
ATOM     15  C   UNL     1       8.600  25.124  46.014  1.00  0.00     0.020 A 
ATOM     16  C   UNL     1       7.151  26.994  44.528  1.00  0.00     0.093 A 
ATOM     17  C   UNL     1       8.867  26.487  46.154  1.00  0.00     0.047 A 
ATOM     18  C   UNL     1       8.142  27.425  45.418  1.00  0.00     0.119 A 
BRANCH  14  19
ATOM     19  O   UNL     1       5.921  25.258  43.422  1.00  0.00    -0.507 OA
ATOM     20  H   UNL     1       4.926  25.337  43.586  1.00  0.00     0.293 HD
ENDBRANCH  14  19
BRANCH  18  21
ATOM     21  O   UNL     1       8.414  28.782  45.575  1.00  0.00    -0.508 OA
ATOM     22  H   UNL     1       9.274  29.194  45.228  1.00  0.00     0.293 HD
ENDBRANCH  18  21
ENDBRANCH  11  13
ENDBRANCH   2  11
TORSDOF 6
ENDMDL
MODEL 2
REMARK VINA RESULT:     0.000      4.381      5.863
REMARK INTER + INTRA:          -0.765
REMARK INTER:                   0.000
REMARK INTRA:                  -0.765
REMARK UNBOUND:                -0.765
REMARK SMILES O=C(C=Cc1ccc(O)cc1)c1ccc(O)cc1O
REMARK SMILES IDX 4 1 3 2 5 3 6 4 7 5 8 6 11 7 10 8 9 9 2 11 1 12 12 13 18 14
REMARK SMILES IDX 13 15 17 16 14 17 15 18 19 19 16 21
REMARK H PARENT 9 10 19 20 16 22
REMARK Flexibility Score: inf
ROOT
ATOM      1  C   UNL     1       9.087  22.143  44.531  1.00  0.00     0.012 C 
ATOM      2  C   UNL     1       9.537  21.494  45.614  1.00  0.00     0.053 C 
ENDROOT
BRANCH   1   3
ATOM      3  C   UNL     1       7.649  22.346  44.231  1.00  0.00    -0.025 A 
ATOM      4  C   UNL     1       7.198  22.895  43.013  1.00  0.00     0.012 A 
ATOM      5  C   UNL     1       5.829  23.055  42.773  1.00  0.00     0.047 A 
ATOM      6  C   UNL     1       4.893  22.664  43.738  1.00  0.00     0.115 A 
ATOM      7  C   UNL     1       6.699  21.942  45.185  1.00  0.00     0.012 A 
ATOM      8  C   UNL     1       5.332  22.105  44.942  1.00  0.00     0.047 A 
BRANCH   6   9
ATOM      9  O   UNL     1       3.529  22.821  43.509  1.00  0.00    -0.508 OA
ATOM     10  H   UNL     1       2.887  23.039  44.263  1.00  0.00     0.293 HD
ENDBRANCH   6   9
ENDBRANCH   1   3
BRANCH   2  11
ATOM     11  C   UNL     1      10.980  21.298  45.873  1.00  0.00     0.189 C 
ATOM     12  O   UNL     1      11.442  20.135  46.035  1.00  0.00    -0.289 OA
BRANCH  11  13
ATOM     13  C   UNL     1      11.898  22.458  45.912  1.00  0.00     0.064 A 
ATOM     14  C   UNL     1      12.957  22.605  44.982  1.00  0.00     0.130 A 
ATOM     15  C   UNL     1      11.690  23.462  46.875  1.00  0.00     0.020 A 
ATOM     16  C   UNL     1      13.752  23.758  45.015  1.00  0.00     0.093 A 
ATOM     17  C   UNL     1      12.500  24.598  46.905  1.00  0.00     0.047 A 
ATOM     18  C   UNL     1      13.529  24.753  45.974  1.00  0.00     0.119 A 
BRANCH  14  19
ATOM     19  O   UNL     1      13.264  21.624  44.038  1.00  0.00    -0.507 OA
ATOM     20  H   UNL     1      12.898  20.681  44.079  1.00  0.00     0.293 HD
ENDBRANCH  14  19
BRANCH  18  21
ATOM     21  O   UNL     1      14.324  25.896  46.011  1.00  0.00    -0.508 OA
ATOM     22  H   UNL     1      14.849  26.203  45.199  1.00  0.00     0.293 HD
ENDBRANCH  18  21
ENDBRANCH  11  13
ENDBRANCH   2  11
TORSDOF 6
ENDMDL
MODEL 3
REMARK VINA RESULT:     0.000     10.733     14.315
REMARK INTER + INTRA:          -0.765
REMARK INTER:                   0.000
REMARK INTRA:                  -0.765
REMARK UNBOUND:                -0.765
REMARK SMILES O=C(C=Cc1ccc(O)cc1)c1ccc(O)cc1O
REMARK SMILES IDX 4 1 3 2 5 3 6 4 7 5 8 6 11 7 10 8 9 9 2 11 1 12 12 13 18 14
REMARK SMILES IDX 13 15 17 16 14 17 15 18 19 19 16 21
REMARK H PARENT 9 10 19 20 16 22
REMARK Flexibility Score: inf
ROOT
ATOM      1  C   UNL     1       9.104  13.024  57.080  1.00  0.00     0.012 C 
ATOM      2  C   UNL     1       9.588  14.263  57.248  1.00  0.00     0.053 C 
ENDROOT
BRANCH   1   3
ATOM      3  C   UNL     1       8.281  12.317  58.091  1.00  0.00    -0.025 A 
ATOM      4  C   UNL     1       7.913  10.963  57.957  1.00  0.00     0.012 A 
ATOM      5  C   UNL     1       7.145  10.338  58.945  1.00  0.00     0.047 A 
ATOM      6  C   UNL     1       6.743  11.049  60.082  1.00  0.00     0.115 A 
ATOM      7  C   UNL     1       7.886  13.016  59.245  1.00  0.00     0.012 A 
ATOM      8  C   UNL     1       7.118  12.387  60.230  1.00  0.00     0.047 A 
BRANCH   6   9
ATOM      9  O   UNL     1       5.978  10.435  61.070  1.00  0.00    -0.508 OA
ATOM     10  H   UNL     1       5.949   9.427  61.168  1.00  0.00     0.293 HD
ENDBRANCH   6   9
ENDBRANCH   1   3
BRANCH   2  11
ATOM     11  C   UNL     1      10.418  14.932  56.222  1.00  0.00     0.189 C 
ATOM     12  O   UNL     1      11.567  15.362  56.518  1.00  0.00    -0.289 OA
BRANCH  11  13
ATOM     13  C   UNL     1       9.923  15.074  54.835  1.00  0.00     0.064 A 
ATOM     14  C   UNL     1      10.580  14.460  53.740  1.00  0.00     0.130 A 
ATOM     15  C   UNL     1       8.744  15.805  54.601  1.00  0.00     0.020 A 
ATOM     16  C   UNL     1      10.030  14.563  52.456  1.00  0.00     0.093 A 
ATOM     17  C   UNL     1       8.217  15.912  53.313  1.00  0.00     0.047 A 
ATOM     18  C   UNL     1       8.853  15.288  52.239  1.00  0.00     0.119 A 
BRANCH  14  19
ATOM     19  O   UNL     1      11.786  13.770  53.884  1.00  0.00    -0.507 OA
ATOM     20  H   UNL     1      12.007  13.205  54.693  1.00  0.00     0.293 HD
ENDBRANCH  14  19
BRANCH  18  21
ATOM     21  O   UNL     1       8.310  15.396  50.961  1.00  0.00    -0.508 OA
ATOM     22  H   UNL     1       7.315  15.522  50.817  1.00  0.00     0.293 HD
ENDBRANCH  18  21
ENDBRANCH  11  13
ENDBRANCH   2  11
TORSDOF 6
ENDMDL
MODEL 4
REMARK VINA RESULT:     0.000     14.301     16.570
REMARK INTER + INTRA:          -0.765
REMARK INTER:                   0.000
REMARK INTRA:                  -0.765
REMARK UNBOUND:                -0.765
REMARK SMILES O=C(C=Cc1ccc(O)cc1)c1ccc(O)cc1O
REMARK SMILES IDX 4 1 3 2 5 3 6 4 7 5 8 6 11 7 10 8 9 9 2 11 1 12 12 13 18 14
REMARK SMILES IDX 13 15 17 16 14 17 15 18 19 19 16 21
REMARK H PARENT 9 10 19 20 16 22
REMARK Flexibility Score: inf
ROOT
ATOM      1  C   UNL     1      15.417  16.479  59.565  1.00  0.00     0.012 C 
ATOM      2  C   UNL     1      15.238  17.678  60.138  1.00  0.00     0.053 C 
ENDROOT
BRANCH   1   3
ATOM      3  C   UNL     1      14.624  15.275  59.911  1.00  0.00    -0.025 A 
ATOM      4  C   UNL     1      14.931  13.994  59.407  1.00  0.00     0.012 A 
ATOM      5  C   UNL     1      14.159  12.887  59.773  1.00  0.00     0.047 A 
ATOM      6  C   UNL     1      13.080  13.038  60.652  1.00  0.00     0.115 A 
ATOM      7  C   UNL     1      13.548  15.411  60.805  1.00  0.00     0.012 A 
ATOM      8  C   UNL     1      12.779  14.301  61.168  1.00  0.00     0.047 A 
BRANCH   6   9
ATOM      9  O   UNL     1      12.305  11.941  61.021  1.00  0.00    -0.508 OA
ATOM     10  H   UNL     1      11.891  11.328  60.328  1.00  0.00     0.293 HD
ENDBRANCH   6   9
ENDBRANCH   1   3
BRANCH   2  11
ATOM     11  C   UNL     1      16.059  18.855  59.778  1.00  0.00     0.189 C 
ATOM     12  O   UNL     1      16.704  19.474  60.668  1.00  0.00    -0.289 OA
BRANCH  11  13
ATOM     13  C   UNL     1      16.155  19.296  58.369  1.00  0.00     0.064 A 
ATOM     14  C   UNL     1      17.385  19.293  57.666  1.00  0.00     0.130 A 
ATOM     15  C   UNL     1      14.985  19.694  57.695  1.00  0.00     0.020 A 
ATOM     16  C   UNL     1      17.411  19.650  56.312  1.00  0.00     0.093 A 
ATOM     17  C   UNL     1      15.029  20.062  56.350  1.00  0.00     0.047 A 
ATOM     18  C   UNL     1      16.238  20.036  55.653  1.00  0.00     0.119 A 
BRANCH  14  19
ATOM     19  O   UNL     1      18.596  18.970  58.282  1.00  0.00    -0.507 OA
ATOM     20  H   UNL     1      19.292  19.661  58.532  1.00  0.00     0.293 HD
ENDBRANCH  14  19
BRANCH  18  21
ATOM     21  O   UNL     1      16.265  20.398  54.308  1.00  0.00    -0.508 OA
ATOM     22  H   UNL     1      16.282  21.370  54.021  1.00  0.00     0.293 HD
ENDBRANCH  18  21
ENDBRANCH  11  13
ENDBRANCH   2  11
TORSDOF 6
ENDMDL
MODEL 5
REMARK VINA RESULT:     0.000      7.085     11.760
REMARK INTER + INTRA:          -0.765
REMARK INTER:                   0.000
REMARK INTRA:                  -0.765
REMARK UNBOUND:                -0.765
REMARK SMILES O=C(C=Cc1ccc(O)cc1)c1ccc(O)cc1O
REMARK SMILES IDX 4 1 3 2 5 3 6 4 7 5 8 6 11 7 10 8 9 9 2 11 1 12 12 13 18 14
REMARK SMILES IDX 13 15 17 16 14 17 15 18 19 19 16 21
REMARK H PARENT 9 10 19 20 16 22
REMARK Flexibility Score: inf
ROOT
ATOM      1  C   UNL     1       7.031  17.333  53.933  1.00  0.00     0.012 C 
ATOM      2  C   UNL     1       7.795  17.271  55.032  1.00  0.00     0.053 C 
ENDROOT
BRANCH   1   3
ATOM      3  C   UNL     1       6.502  18.599  53.369  1.00  0.00    -0.025 A 
ATOM      4  C   UNL     1       5.576  18.626  52.305  1.00  0.00     0.012 A 
ATOM      5  C   UNL     1       5.097  19.846  51.816  1.00  0.00     0.047 A 
ATOM      6  C   UNL     1       5.525  21.051  52.386  1.00  0.00     0.115 A 
ATOM      7  C   UNL     1       6.911  19.815  53.943  1.00  0.00     0.012 A 
ATOM      8  C   UNL     1       6.430  21.032  53.451  1.00  0.00     0.047 A 
BRANCH   6   9
ATOM      9  O   UNL     1       5.055  22.271  51.905  1.00  0.00    -0.508 OA
ATOM     10  H   UNL     1       5.633  22.871  51.328  1.00  0.00     0.293 HD
ENDBRANCH   6   9
ENDBRANCH   1   3
BRANCH   2  11
ATOM     11  C   UNL     1       8.295  15.988  55.575  1.00  0.00     0.189 C 
ATOM     12  O   UNL     1       8.041  15.663  56.767  1.00  0.00    -0.289 OA
BRANCH  11  13
ATOM     13  C   UNL     1       9.066  15.062  54.716  1.00  0.00     0.064 A 
ATOM     14  C   UNL     1       8.593  13.764  54.401  1.00  0.00     0.130 A 
ATOM     15  C   UNL     1      10.285  15.497  54.164  1.00  0.00     0.020 A 
ATOM     16  C   UNL     1       9.325  12.954  53.524  1.00  0.00     0.093 A 
ATOM     17  C   UNL     1      11.011  14.672  53.304  1.00  0.00     0.047 A 
ATOM     18  C   UNL     1      10.532  13.402  52.977  1.00  0.00     0.119 A 
BRANCH  14  19
ATOM     19  O   UNL     1       7.424  13.240  54.957  1.00  0.00    -0.507 OA
ATOM     20  H   UNL     1       7.344  12.285  55.280  1.00  0.00     0.293 HD
ENDBRANCH  14  19
BRANCH  18  21
ATOM     21  O   UNL     1      11.264  12.593  52.111  1.00  0.00    -0.508 OA
ATOM     22  H   UNL     1      11.955  11.937  52.455  1.00  0.00     0.293 HD
ENDBRANCH  18  21
ENDBRANCH  11  13
ENDBRANCH   2  11
TORSDOF 6
ENDMDL
MODEL 6
REMARK VINA RESULT:     0.000      8.408      9.402
REMARK INTER + INTRA:          -0.765
REMARK INTER:                   0.000
REMARK INTRA:                  -0.765
REMARK UNBOUND:                -0.765
REMARK SMILES O=C(C=Cc1ccc(O)cc1)c1ccc(O)cc1O
REMARK SMILES IDX 4 1 3 2 5 3 6 4 7 5 8 6 11 7 10 8 9 9 2 11 1 12 12 13 18 14
REMARK SMILES IDX 13 15 17 16 14 17 15 18 19 19 16 21
REMARK H PARENT 9 10 19 20 16 22
REMARK Flexibility Score: inf
ROOT
ATOM      1  C   UNL     1      13.118  20.197  50.825  1.00  0.00     0.012 C 
ATOM      2  C   UNL     1      13.942  19.875  51.832  1.00  0.00     0.053 C 
ENDROOT
BRANCH   1   3
ATOM      3  C   UNL     1      11.806  19.543  50.593  1.00  0.00    -0.025 A 
ATOM      4  C   UNL     1      11.032  19.784  49.439  1.00  0.00     0.012 A 
ATOM      5  C   UNL     1       9.807  19.134  49.262  1.00  0.00     0.047 A 
ATOM      6  C   UNL     1       9.342  18.230  50.224  1.00  0.00     0.115 A 
ATOM      7  C   UNL     1      11.337  18.621  51.544  1.00  0.00     0.012 A 
ATOM      8  C   UNL     1      10.111  17.974  51.363  1.00  0.00     0.047 A 
BRANCH   6   9
ATOM      9  O   UNL     1       8.122  17.579  50.057  1.00  0.00    -0.508 OA
ATOM     10  H   UNL     1       8.021  16.802  49.413  1.00  0.00     0.293 HD
ENDBRANCH   6   9
ENDBRANCH   1   3
BRANCH   2  11
ATOM     11  C   UNL     1      15.250  20.539  52.024  1.00  0.00     0.189 C 
ATOM     12  O   UNL     1      16.308  19.852  52.073  1.00  0.00    -0.289 OA
BRANCH  11  13
ATOM     13  C   UNL     1      15.333  22.012  52.127  1.00  0.00     0.064 A 
ATOM     14  C   UNL     1      16.039  22.790  51.176  1.00  0.00     0.130 A 
ATOM     15  C   UNL     1      14.660  22.663  53.176  1.00  0.00     0.020 A 
ATOM     16  C   UNL     1      16.026  24.187  51.276  1.00  0.00     0.093 A 
ATOM     17  C   UNL     1      14.669  24.056  53.272  1.00  0.00     0.047 A 
ATOM     18  C   UNL     1      15.346  24.822  52.322  1.00  0.00     0.119 A 
BRANCH  14  19
ATOM     19  O   UNL     1      16.781  22.214  50.143  1.00  0.00    -0.507 OA
ATOM     20  H   UNL     1      16.492  21.378  49.652  1.00  0.00     0.293 HD
ENDBRANCH  14  19
BRANCH  18  21
ATOM     21  O   UNL     1      15.339  26.211  52.426  1.00  0.00    -0.508 OA
ATOM     22  H   UNL     1      16.140  26.767  52.150  1.00  0.00     0.293 HD
ENDBRANCH  18  21
ENDBRANCH  11  13
ENDBRANCH   2  11
TORSDOF 6
ENDMDL
MODEL 7
REMARK VINA RESULT:     0.000      9.672     12.807
REMARK INTER + INTRA:          -0.765
REMARK INTER:                   0.000
REMARK INTRA:                  -0.765
REMARK UNBOUND:                -0.765
REMARK SMILES O=C(C=Cc1ccc(O)cc1)c1ccc(O)cc1O
REMARK SMILES IDX 4 1 3 2 5 3 6 4 7 5 8 6 11 7 10 8 9 9 2 11 1 12 12 13 18 14
REMARK SMILES IDX 13 15 17 16 14 17 15 18 19 19 16 21
REMARK H PARENT 9 10 19 20 16 22
REMARK Flexibility Score: inf
ROOT
ATOM      1  C   UNL     1      11.446  19.195  54.929  1.00  0.00     0.012 C 
ATOM      2  C   UNL     1      12.508  20.008  54.839  1.00  0.00     0.053 C 
ENDROOT
BRANCH   1   3
ATOM      3  C   UNL     1      10.369  19.130  53.911  1.00  0.00    -0.025 A 
ATOM      4  C   UNL     1       9.186  18.389  54.104  1.00  0.00     0.012 A 
ATOM      5  C   UNL     1       8.195  18.369  53.118  1.00  0.00     0.047 A 
ATOM      6  C   UNL     1       8.364  19.094  51.932  1.00  0.00     0.115 A 
ATOM      7  C   UNL     1      10.521  19.867  52.724  1.00  0.00     0.012 A 
ATOM      8  C   UNL     1       9.528  19.844  51.740  1.00  0.00     0.047 A 
BRANCH   6   9
ATOM      9  O   UNL     1       7.384  19.080  50.944  1.00  0.00    -0.508 OA
ATOM     10  H   UNL     1       7.093  19.929  50.473  1.00  0.00     0.293 HD
ENDBRANCH   6   9
ENDBRANCH   1   3
BRANCH   2  11
ATOM     11  C   UNL     1      13.556  20.056  55.882  1.00  0.00     0.189 C 
ATOM     12  O   UNL     1      13.842  21.149  56.444  1.00  0.00    -0.289 OA
BRANCH  11  13
ATOM     13  C   UNL     1      14.254  18.819  56.299  1.00  0.00     0.064 A 
ATOM     14  C   UNL     1      14.161  18.317  57.620  1.00  0.00     0.130 A 
ATOM     15  C   UNL     1      14.998  18.100  55.346  1.00  0.00     0.020 A 
ATOM     16  C   UNL     1      14.780  17.103  57.946  1.00  0.00     0.093 A 
ATOM     17  C   UNL     1      15.623  16.900  55.689  1.00  0.00     0.047 A 
ATOM     18  C   UNL     1      15.512  16.395  56.985  1.00  0.00     0.119 A 
BRANCH  14  19
ATOM     19  O   UNL     1      13.492  19.004  58.636  1.00  0.00    -0.507 OA
ATOM     20  H   UNL     1      12.493  19.166  58.630  1.00  0.00     0.293 HD
ENDBRANCH  14  19
BRANCH  18  21
ATOM     21  O   UNL     1      16.133  15.191  57.310  1.00  0.00    -0.508 OA
ATOM     22  H   UNL     1      16.551  15.040  58.222  1.00  0.00     0.293 HD
ENDBRANCH  18  21
ENDBRANCH  11  13
ENDBRANCH   2  11
TORSDOF 6
ENDMDL
MODEL 8
REMARK VINA RESULT:     0.000      7.486      9.698
REMARK INTER + INTRA:          -0.765
REMARK INTER:                   0.000
REMARK INTRA:                  -0.765
REMARK UNBOUND:                -0.765
REMARK SMILES O=C(C=Cc1ccc(O)cc1)c1ccc(O)cc1O
REMARK SMILES IDX 4 1 3 2 5 3 6 4 7 5 8 6 11 7 10 8 9 9 2 11 1 12 12 13 18 14
REMARK SMILES IDX 13 15 17 16 14 17 15 18 19 19 16 21
REMARK H PARENT 9 10 19 20 16 22
REMARK Flexibility Score: inf
ROOT
ATOM      1  C   UNL     1       9.030  20.962  55.953  1.00  0.00     0.012 C 
ATOM      2  C   UNL     1       9.711  20.074  55.215  1.00  0.00     0.053 C 
ENDROOT
BRANCH   1   3
ATOM      3  C   UNL     1       9.459  21.414  57.299  1.00  0.00    -0.025 A 
ATOM      4  C   UNL     1       8.648  22.223  58.121  1.00  0.00     0.012 A 
ATOM      5  C   UNL     1       9.093  22.614  59.388  1.00  0.00     0.047 A 
ATOM      6  C   UNL     1      10.346  22.197  59.856  1.00  0.00     0.115 A 
ATOM      7  C   UNL     1      10.708  20.989  57.786  1.00  0.00     0.012 A 
ATOM      8  C   UNL     1      11.149  21.383  59.053  1.00  0.00     0.047 A 
BRANCH   6   9
ATOM      9  O   UNL     1      10.798  22.583  61.115  1.00  0.00    -0.508 OA
ATOM     10  H   UNL     1      10.404  22.190  61.963  1.00  0.00     0.293 HD
ENDBRANCH   6   9
ENDBRANCH   1   3
BRANCH   2  11
ATOM     11  C   UNL     1       9.246  19.635  53.881  1.00  0.00     0.189 C 
ATOM     12  O   UNL     1       9.066  18.408  53.645  1.00  0.00    -0.289 OA
BRANCH  11  13
ATOM     13  C   UNL     1       8.955  20.630  52.825  1.00  0.00     0.064 A 
ATOM     14  C   UNL     1       7.655  20.788  52.284  1.00  0.00     0.130 A 
ATOM     15  C   UNL     1       9.989  21.469  52.373  1.00  0.00     0.020 A 
ATOM     16  C   UNL     1       7.415  21.794  51.339  1.00  0.00     0.093 A 
ATOM     17  C   UNL     1       9.738  22.457  51.419  1.00  0.00     0.047 A 
ATOM     18  C   UNL     1       8.453  22.627  50.904  1.00  0.00     0.119 A 
BRANCH  14  19
ATOM     19  O   UNL     1       6.592  19.954  52.637  1.00  0.00    -0.507 OA
ATOM     20  H   UNL     1       5.621  20.222  52.539  1.00  0.00     0.293 HD
ENDBRANCH  14  19
BRANCH  18  21
ATOM     21  O   UNL     1       8.216  23.622  49.959  1.00  0.00    -0.508 OA
ATOM     22  H   UNL     1       8.915  24.323  49.741  1.00  0.00     0.293 HD
ENDBRANCH  18  21
ENDBRANCH  11  13
ENDBRANCH   2  11
TORSDOF 6
ENDMDL
MODEL 9
REMARK VINA RESULT:     0.000      2.760      3.222
REMARK INTER + INTRA:          -0.765
REMARK INTER:                   0.000
REMARK INTRA:                  -0.765
REMARK UNBOUND:                -0.765
REMARK SMILES O=C(C=Cc1ccc(O)cc1)c1ccc(O)cc1O
REMARK SMILES IDX 4 1 3 2 5 3 6 4 7 5 8 6 11 7 10 8 9 9 2 11 1 12 12 13 18 14
REMARK SMILES IDX 13 15 17 16 14 17 15 18 19 19 16 21
REMARK H PARENT 9 10 19 20 16 22
REMARK Flexibility Score: inf
ROOT
ATOM      1  C   UNL     1       6.894  22.852  49.154  1.00  0.00     0.012 C 
ATOM      2  C   UNL     1       6.849  21.977  48.139  1.00  0.00     0.053 C 
ENDROOT
BRANCH   1   3
ATOM      3  C   UNL     1       6.609  22.492  50.565  1.00  0.00    -0.025 A 
ATOM      4  C   UNL     1       6.509  23.457  51.588  1.00  0.00     0.012 A 
ATOM      5  C   UNL     1       6.227  23.067  52.901  1.00  0.00     0.047 A 
ATOM      6  C   UNL     1       6.032  21.716  53.210  1.00  0.00     0.115 A 
ATOM      7  C   UNL     1       6.396  21.140  50.884  1.00  0.00     0.012 A 
ATOM      8  C   UNL     1       6.114  20.755  52.198  1.00  0.00     0.047 A 
BRANCH   6   9
ATOM      9  O   UNL     1       5.752  21.318  54.515  1.00  0.00    -0.508 OA
ATOM     10  H   UNL     1       4.800  21.258  54.858  1.00  0.00     0.293 HD
ENDBRANCH   6   9
ENDBRANCH   1   3
BRANCH   2  11
ATOM     11  C   UNL     1       7.125  22.375  46.741  1.00  0.00     0.189 C 
ATOM     12  O   UNL     1       6.268  22.161  45.840  1.00  0.00    -0.289 OA
BRANCH  11  13
ATOM     13  C   UNL     1       8.392  23.056  46.394  1.00  0.00     0.064 A 
ATOM     14  C   UNL     1       8.415  24.374  45.874  1.00  0.00     0.130 A 
ATOM     15  C   UNL     1       9.611  22.391  46.623  1.00  0.00     0.020 A 
ATOM     16  C   UNL     1       9.644  25.002  45.631  1.00  0.00     0.093 A 
ATOM     17  C   UNL     1      10.827  23.024  46.361  1.00  0.00     0.047 A 
ATOM     18  C   UNL     1      10.848  24.330  45.870  1.00  0.00     0.119 A 
BRANCH  14  19
ATOM     19  O   UNL     1       7.248  25.075  45.564  1.00  0.00    -0.507 OA
ATOM     20  H   UNL     1       6.371  24.621  45.346  1.00  0.00     0.293 HD
ENDBRANCH  14  19
BRANCH  18  21
ATOM     21  O   UNL     1      12.070  24.952  45.621  1.00  0.00    -0.508 OA
ATOM     22  H   UNL     1      12.194  25.949  45.756  1.00  0.00     0.293 HD
ENDBRANCH  18  21
ENDBRANCH  11  13
ENDBRANCH   2  11
TORSDOF 6
ENDMDL
