MODEL 1
REMARK VINA RESULT:    -3.713      0.000      0.000
REMARK INTER + INTRA:          -3.822
REMARK INTER:                  -3.822
REMARK INTRA:                   0.000
REMARK UNBOUND:                 0.000
REMARK SMILES Nc1ncnc2nc[nH]c12
REMARK SMILES IDX 8 1 7 2 6 3 5 4 4 5 3 6 2 7 10 8 9 9 1 11
REMARK H PARENT 9 10 1 12 1 13
REMARK Flexibility Score: inf
ROOT
ATOM      1  C   UNL     1       2.438 -20.223  41.177  1.00  0.00     0.199 A 
ATOM      2  N   UNL     1       3.465 -20.196  42.070  1.00  0.00    -0.217 NA
ATOM      3  C   UNL     1       2.936 -19.504  43.093  1.00  0.00     0.182 A 
ATOM      4  N   UNL     1       3.550 -19.187  44.258  1.00  0.00    -0.215 NA
ATOM      5  C   UNL     1       2.844 -18.472  45.186  1.00  0.00     0.226 A 
ATOM      6  N   UNL     1       1.551 -18.091  44.934  1.00  0.00    -0.217 NA
ATOM      7  C   UNL     1       0.929 -18.410  43.759  1.00  0.00     0.152 A 
ATOM      8  C   UNL     1       1.661 -19.138  42.825  1.00  0.00     0.127 A 
ATOM      9  N   UNL     1       1.321 -19.585  41.610  1.00  0.00    -0.340 N 
ATOM     10  H   UNL     1       0.416 -19.475  41.104  1.00  0.00     0.168 HD
ENDROOT
BRANCH   7  11
ATOM     11  N   UNL     1      -0.419 -18.002  43.519  1.00  0.00    -0.382 N 
ATOM     12  H   UNL     1      -1.154 -18.095  44.254  1.00  0.00     0.158 HD
ATOM     13  H   UNL     1      -0.686 -17.603  42.593  1.00  0.00     0.158 HD
ENDBRANCH   7  11
TORSDOF 1
ENDMDL
MODEL 2
REMARK VINA RESULT:    -3.637      6.042      6.897
REMARK INTER + INTRA:          -3.744
REMARK INTER:                  -3.744
REMARK INTRA:                   0.000
REMARK UNBOUND:                 0.000
REMARK SMILES Nc1ncnc2nc[nH]c12
REMARK SMILES IDX 8 1 7 2 6 3 5 4 4 5 3 6 2 7 10 8 9 9 1 11
REMARK H PARENT 9 10 1 12 1 13
REMARK Flexibility Score: inf
ROOT
ATOM      1  C   UNL     1       7.684 -15.276  38.589  1.00  0.00     0.199 A 
ATOM      2  N   UNL     1       7.350 -14.331  39.509  1.00  0.00    -0.217 NA
ATOM      3  C   UNL     1       7.155 -15.066  40.616  1.00  0.00     0.182 A 
ATOM      4  N   UNL     1       6.800 -14.606  41.840  1.00  0.00    -0.215 NA
ATOM      5  C   UNL     1       6.648 -15.514  42.851  1.00  0.00     0.226 A 
ATOM      6  N   UNL     1       6.853 -16.851  42.623  1.00  0.00    -0.217 NA
ATOM      7  C   UNL     1       7.212 -17.317  41.390  1.00  0.00     0.152 A 
ATOM      8  C   UNL     1       7.362 -16.380  40.370  1.00  0.00     0.127 A 
ATOM      9  N   UNL     1       7.700 -16.539  39.085  1.00  0.00    -0.340 N 
ATOM     10  H   UNL     1       7.925 -17.420  38.573  1.00  0.00     0.168 HD
ENDROOT
BRANCH   7  11
ATOM     11  N   UNL     1       7.420 -18.714  41.176  1.00  0.00    -0.382 N 
ATOM     12  H   UNL     1       7.348 -19.135  40.224  1.00  0.00     0.158 HD
ATOM     13  H   UNL     1       7.649 -19.336  41.981  1.00  0.00     0.158 HD
ENDBRANCH   7  11
TORSDOF 1
ENDMDL
MODEL 3
REMARK VINA RESULT:    -3.618     14.449     16.291
REMARK INTER + INTRA:          -3.724
REMARK INTER:                  -3.724
REMARK INTRA:                   0.000
REMARK UNBOUND:                 0.000
REMARK SMILES Nc1ncnc2nc[nH]c12
REMARK SMILES IDX 8 1 7 2 6 3 5 4 4 5 3 6 2 7 10 8 9 9 1 11
REMARK H PARENT 9 10 1 12 1 13
REMARK Flexibility Score: inf
ROOT
ATOM      1  C   UNL     1      -4.707 -10.891  57.226  1.00  0.00     0.199 A 
ATOM      2  N   UNL     1      -4.402 -10.972  55.902  1.00  0.00    -0.217 NA
ATOM      3  C   UNL     1      -4.734 -12.241  55.610  1.00  0.00     0.182 A 
ATOM      4  N   UNL     1      -4.626 -12.846  54.403  1.00  0.00    -0.215 NA
ATOM      5  C   UNL     1      -5.018 -14.153  54.300  1.00  0.00     0.226 A 
ATOM      6  N   UNL     1      -5.504 -14.822  55.394  1.00  0.00    -0.217 NA
ATOM      7  C   UNL     1      -5.614 -14.212  56.612  1.00  0.00     0.152 A 
ATOM      8  C   UNL     1      -5.212 -12.882  56.700  1.00  0.00     0.127 A 
ATOM      9  N   UNL     1      -5.204 -12.043  57.743  1.00  0.00    -0.340 N 
ATOM     10  H   UNL     1      -5.506 -12.220  58.726  1.00  0.00     0.168 HD
ENDROOT
BRANCH   7  11
ATOM     11  N   UNL     1      -6.124 -14.929  57.737  1.00  0.00    -0.382 N 
ATOM     12  H   UNL     1      -5.647 -15.783  58.101  1.00  0.00     0.158 HD
ATOM     13  H   UNL     1      -6.994 -14.602  58.214  1.00  0.00     0.158 HD
ENDBRANCH   7  11
TORSDOF 1
ENDMDL
MODEL 4
REMARK VINA RESULT:    -3.610     11.248     12.649
REMARK INTER + INTRA:          -3.715
REMARK INTER:                  -3.715
REMARK INTRA:                   0.000
REMARK UNBOUND:                 0.000
REMARK SMILES Nc1ncnc2nc[nH]c12
REMARK SMILES IDX 8 1 7 2 6 3 5 4 4 5 3 6 2 7 10 8 9 9 1 11
REMARK H PARENT 9 10 1 12 1 13
REMARK Flexibility Score: inf
ROOT
ATOM      1  C   UNL     1       0.488  -6.147  48.596  1.00  0.00     0.199 A 
ATOM      2  N   UNL     1       1.568  -6.776  49.136  1.00  0.00    -0.217 NA
ATOM      3  C   UNL     1       2.112  -7.378  48.066  1.00  0.00     0.182 A 
ATOM      4  N   UNL     1       3.227  -8.149  48.053  1.00  0.00    -0.215 NA
ATOM      5  C   UNL     1       3.630  -8.679  46.858  1.00  0.00     0.226 A 
ATOM      6  N   UNL     1       2.919  -8.432  45.711  1.00  0.00    -0.217 NA
ATOM      7  C   UNL     1       1.795  -7.654  45.723  1.00  0.00     0.152 A 
ATOM      8  C   UNL     1       1.398  -7.122  46.947  1.00  0.00     0.127 A 
ATOM      9  N   UNL     1       0.358  -6.339  47.259  1.00  0.00    -0.340 N 
ATOM     10  H   UNL     1      -0.385  -5.959  46.632  1.00  0.00     0.168 HD
ENDROOT
BRANCH   7  11
ATOM     11  N   UNL     1       1.071  -7.409  44.516  1.00  0.00    -0.382 N 
ATOM     12  H   UNL     1       1.525  -6.962  43.690  1.00  0.00     0.158 HD
ATOM     13  H   UNL     1       0.065  -7.680  44.447  1.00  0.00     0.158 HD
ENDBRANCH   7  11
TORSDOF 1
ENDMDL
MODEL 5
REMARK VINA RESULT:    -3.521     11.217     12.291
REMARK INTER + INTRA:          -3.624
REMARK INTER:                  -3.624
REMARK INTRA:                   0.000
REMARK UNBOUND:                 0.000
REMARK SMILES Nc1ncnc2nc[nH]c12
REMARK SMILES IDX 8 1 7 2 6 3 5 4 4 5 3 6 2 7 10 8 9 9 1 11
REMARK H PARENT 9 10 1 12 1 13
REMARK Flexibility Score: inf
ROOT
ATOM      1  C   UNL     1       3.967  -9.348  46.806  1.00  0.00     0.199 A 
ATOM      2  N   UNL     1       4.701  -8.231  47.066  1.00  0.00    -0.217 NA
ATOM      3  C   UNL     1       4.043  -7.288  46.372  1.00  0.00     0.182 A 
ATOM      4  N   UNL     1       4.362  -5.974  46.290  1.00  0.00    -0.215 NA
ATOM      5  C   UNL     1       3.566  -5.163  45.529  1.00  0.00     0.226 A 
ATOM      6  N   UNL     1       2.477  -5.675  44.871  1.00  0.00    -0.217 NA
ATOM      7  C   UNL     1       2.153  -7.000  44.954  1.00  0.00     0.152 A 
ATOM      8  C   UNL     1       2.973  -7.813  45.732  1.00  0.00     0.127 A 
ATOM      9  N   UNL     1       2.903  -9.124  45.993  1.00  0.00    -0.340 N 
ATOM     10  H   UNL     1       2.203  -9.820  45.658  1.00  0.00     0.168 HD
ENDROOT
BRANCH   7  11
ATOM     11  N   UNL     1       1.013  -7.511  44.260  1.00  0.00    -0.382 N 
ATOM     12  H   UNL     1       1.107  -8.245  43.525  1.00  0.00     0.158 HD
ATOM     13  H   UNL     1       0.060  -7.150  44.486  1.00  0.00     0.158 HD
ENDBRANCH   7  11
TORSDOF 1
ENDMDL
MODEL 6
REMARK VINA RESULT:    -3.504      9.945     11.285
REMARK INTER + INTRA:          -3.607
REMARK INTER:                  -3.607
REMARK INTRA:                   0.000
REMARK UNBOUND:                 0.000
REMARK SMILES Nc1ncnc2nc[nH]c12
REMARK SMILES IDX 8 1 7 2 6 3 5 4 4 5 3 6 2 7 10 8 9 9 1 11
REMARK H PARENT 9 10 1 12 1 13
REMARK Flexibility Score: inf
ROOT
ATOM      1  C   UNL     1       2.109  -7.213  45.039  1.00  0.00     0.199 A 
ATOM      2  N   UNL     1       2.054  -6.746  46.317  1.00  0.00    -0.217 NA
ATOM      3  C   UNL     1       2.502  -7.797  47.024  1.00  0.00     0.182 A 
ATOM      4  N   UNL     1       2.649  -7.862  48.369  1.00  0.00    -0.215 NA
ATOM      5  C   UNL     1       3.123  -9.024  48.911  1.00  0.00     0.226 A 
ATOM      6  N   UNL     1       3.440 -10.089  48.107  1.00  0.00    -0.217 NA
ATOM      7  C   UNL     1       3.294 -10.025  46.749  1.00  0.00     0.152 A 
ATOM      8  C   UNL     1       2.810  -8.834  46.213  1.00  0.00     0.127 A 
ATOM      9  N   UNL     1       2.568  -8.487  44.943  1.00  0.00    -0.340 N 
ATOM     10  H   UNL     1       2.696  -9.052  44.076  1.00  0.00     0.168 HD
ENDROOT
BRANCH   7  11
ATOM     11  N   UNL     1       3.631 -11.146  45.931  1.00  0.00    -0.382 N 
ATOM     12  H   UNL     1       3.281 -11.230  44.952  1.00  0.00     0.158 HD
ATOM     13  H   UNL     1       4.239 -11.905  46.310  1.00  0.00     0.158 HD
ENDBRANCH   7  11
TORSDOF 1
ENDMDL
MODEL 7
REMARK VINA RESULT:    -3.504     14.077     15.687
REMARK INTER + INTRA:          -3.607
REMARK INTER:                  -3.607
REMARK INTRA:                   0.000
REMARK UNBOUND:                 0.000
REMARK SMILES Nc1ncnc2nc[nH]c12
REMARK SMILES IDX 8 1 7 2 6 3 5 4 4 5 3 6 2 7 10 8 9 9 1 11
REMARK H PARENT 9 10 1 12 1 13
REMARK Flexibility Score: inf
ROOT
ATOM      1  C   UNL     1      -4.136 -14.309  53.915  1.00  0.00     0.199 A 
ATOM      2  N   UNL     1      -3.971 -12.960  53.994  1.00  0.00    -0.217 NA
ATOM      3  C   UNL     1      -4.525 -12.675  55.184  1.00  0.00     0.182 A 
ATOM      4  N   UNL     1      -4.625 -11.451  55.756  1.00  0.00    -0.215 NA
ATOM      5  C   UNL     1      -5.225 -11.358  56.981  1.00  0.00     0.226 A 
ATOM      6  N   UNL     1      -5.709 -12.480  57.606  1.00  0.00    -0.217 NA
ATOM      7  C   UNL     1      -5.608 -13.715  57.031  1.00  0.00     0.152 A 
ATOM      8  C   UNL     1      -4.994 -13.793  55.784  1.00  0.00     0.127 A 
ATOM      9  N   UNL     1      -4.758 -14.847  54.994  1.00  0.00    -0.340 N 
ATOM     10  H   UNL     1      -4.992 -15.851  55.157  1.00  0.00     0.168 HD
ENDROOT
BRANCH   7  11
ATOM     11  N   UNL     1      -6.118 -14.870  57.701  1.00  0.00    -0.382 N 
ATOM     12  H   UNL     1      -5.994 -15.827  57.306  1.00  0.00     0.158 HD
ATOM     13  H   UNL     1      -6.629 -14.765  58.605  1.00  0.00     0.158 HD
ENDBRANCH   7  11
TORSDOF 1
ENDMDL
MODEL 8
REMARK VINA RESULT:    -3.463      1.221      3.108
REMARK INTER + INTRA:          -3.565
REMARK INTER:                  -3.565
REMARK INTRA:                   0.000
REMARK UNBOUND:                 0.000
REMARK SMILES Nc1ncnc2nc[nH]c12
REMARK SMILES IDX 8 1 7 2 6 3 5 4 4 5 3 6 2 7 10 8 9 9 1 11
REMARK H PARENT 9 10 1 12 1 13
REMARK Flexibility Score: inf
ROOT
ATOM      1  C   UNL     1       1.341 -18.324  44.587  1.00  0.00     0.199 A 
ATOM      2  N   UNL     1       2.697 -18.239  44.681  1.00  0.00    -0.217 NA
ATOM      3  C   UNL     1       3.103 -19.026  43.671  1.00  0.00     0.182 A 
ATOM      4  N   UNL     1       4.384 -19.291  43.318  1.00  0.00    -0.215 NA
ATOM      5  C   UNL     1       4.600 -20.121  42.253  1.00  0.00     0.226 A 
ATOM      6  N   UNL     1       3.544 -20.665  41.568  1.00  0.00    -0.217 NA
ATOM      7  C   UNL     1       2.251 -20.398  41.922  1.00  0.00     0.152 A 
ATOM      8  C   UNL     1       2.047 -19.551  43.008  1.00  0.00     0.127 A 
ATOM      9  N   UNL     1       0.913 -19.118  43.573  1.00  0.00    -0.340 N 
ATOM     10  H   UNL     1      -0.072 -19.333  43.308  1.00  0.00     0.168 HD
ENDROOT
BRANCH   7  11
ATOM     11  N   UNL     1       1.166 -20.975  41.193  1.00  0.00    -0.382 N 
ATOM     12  H   UNL     1       0.607 -21.764  41.585  1.00  0.00     0.158 HD
ATOM     13  H   UNL     1       0.919 -20.608  40.248  1.00  0.00     0.158 HD
ENDBRANCH   7  11
TORSDOF 1
ENDMDL
MODEL 9
REMARK VINA RESULT:    -3.358     10.449     11.660
REMARK INTER + INTRA:          -3.456
REMARK INTER:                  -3.456
REMARK INTRA:                   0.000
REMARK UNBOUND:                 0.000
REMARK SMILES Nc1ncnc2nc[nH]c12
REMARK SMILES IDX 8 1 7 2 6 3 5 4 4 5 3 6 2 7 10 8 9 9 1 11
REMARK H PARENT 9 10 1 12 1 13
REMARK Flexibility Score: inf
ROOT
ATOM      1  C   UNL     1       3.755 -10.254  46.871  1.00  0.00     0.199 A 
ATOM      2  N   UNL     1       3.659  -9.620  48.072  1.00  0.00    -0.217 NA
ATOM      3  C   UNL     1       2.934  -8.532  47.763  1.00  0.00     0.182 A 
ATOM      4  N   UNL     1       2.547  -7.551  48.614  1.00  0.00    -0.215 NA
ATOM      5  C   UNL     1       1.807  -6.516  48.111  1.00  0.00     0.226 A 
ATOM      6  N   UNL     1       1.472  -6.482  46.781  1.00  0.00    -0.217 NA
ATOM      7  C   UNL     1       1.861  -7.471  45.922  1.00  0.00     0.152 A 
ATOM      8  C   UNL     1       2.613  -8.517  46.449  1.00  0.00     0.127 A 
ATOM      9  N   UNL     1       3.125  -9.604  45.859  1.00  0.00    -0.340 N 
ATOM     10  H   UNL     1       3.062  -9.895  44.860  1.00  0.00     0.168 HD
ENDROOT
BRANCH   7  11
ATOM     11  N   UNL     1       1.499  -7.414  44.541  1.00  0.00    -0.382 N 
ATOM     12  H   UNL     1       0.566  -7.059  44.237  1.00  0.00     0.158 HD
ATOM     13  H   UNL     1       2.174  -7.733  43.812  1.00  0.00     0.158 HD
ENDBRANCH   7  11
TORSDOF 1
ENDMDL
