MODEL 1
REMARK VINA RESULT:    -6.394      0.000      0.000
REMARK INTER + INTRA:         -13.107
REMARK INTER:                 -11.626
REMARK INTRA:                  -1.481
REMARK UNBOUND:                -1.481
REMARK SMILES CCCCCC=CCC=CCCCCCCCC(=O)[O-]
REMARK SMILES IDX 11 1 12 2 13 3 14 4 15 5 16 6 17 7 18 8 19 9 20 10 10 11
REMARK SMILES IDX 9 12 8 13 7 14 6 15 5 16 4 17 3 18 2 19 1 20
REMARK H PARENT
REMARK Flexibility Score: inf
ROOT
ATOM      1  C   UNL     1       3.272 -55.189 -28.538  1.00  0.00     0.027 C 
ENDROOT
BRANCH   1   2
ATOM      2  C   UNL     1       2.842 -55.713 -27.159  1.00  0.00     0.004 C 
BRANCH   2   3
ATOM      3  C   UNL     1       4.010 -55.775 -26.161  1.00  0.00     0.000 C 
BRANCH   3   4
ATOM      4  C   UNL     1       4.203 -57.179 -25.561  1.00  0.00     0.000 C 
BRANCH   4   5
ATOM      5  C   UNL     1       5.384 -57.933 -26.192  1.00  0.00     0.000 C 
BRANCH   5   6
ATOM      6  C   UNL     1       6.605 -58.000 -25.264  1.00  0.00     0.006 C 
BRANCH   6   7
ATOM      7  C   UNL     1       6.200 -58.445 -23.856  1.00  0.00     0.053 C 
BRANCH   7   8
ATOM      8  C   UNL     1       7.278 -58.119 -22.872  1.00  0.00     0.041 C 
ATOM      9  O   UNL     1       7.055 -58.206 -21.636  1.00  0.00    -0.550 OA
ATOM     10  O   UNL     1       8.515 -57.670 -23.318  1.00  0.00    -0.550 OA
ENDBRANCH   7   8
ENDBRANCH   6   7
ENDBRANCH   5   6
ENDBRANCH   4   5
ENDBRANCH   3   4
ENDBRANCH   2   3
ENDBRANCH   1   2
BRANCH   1  11
ATOM     11  C   UNL     1       4.659 -55.653 -28.884  1.00  0.00    -0.031 C 
ATOM     12  C   UNL     1       5.133 -55.581 -30.138  1.00  0.00    -0.027 C 
BRANCH  12  13
ATOM     13  C   UNL     1       6.523 -56.036 -30.478  1.00  0.00     0.054 C 
BRANCH  13  14
ATOM     14  C   UNL     1       7.298 -56.326 -29.216  1.00  0.00    -0.027 C 
ATOM     15  C   UNL     1       8.387 -55.651 -28.802  1.00  0.00    -0.031 C 
BRANCH  15  16
ATOM     16  C   UNL     1       9.041 -54.523 -29.558  1.00  0.00     0.027 C 
BRANCH  16  17
ATOM     17  C   UNL     1      10.063 -55.057 -30.571  1.00  0.00     0.004 C 
BRANCH  17  18
ATOM     18  C   UNL     1       9.654 -54.695 -32.006  1.00  0.00     0.000 C 
BRANCH  18  19
ATOM     19  C   UNL     1      10.336 -55.584 -33.057  1.00  0.00    -0.003 C 
ATOM     20  C   UNL     1       9.347 -56.179 -34.060  1.00  0.00     0.004 C 
ENDBRANCH  18  19
ENDBRANCH  17  18
ENDBRANCH  16  17
ENDBRANCH  15  16
ENDBRANCH  13  14
ENDBRANCH  12  13
ENDBRANCH   1  11
TORSDOF 14
ENDMDL
MODEL 2
REMARK VINA RESULT:    -6.287      1.281      2.181
REMARK INTER + INTRA:         -12.914
REMARK INTER:                 -11.471
REMARK INTRA:                  -1.442
REMARK UNBOUND:                -1.481
REMARK SMILES CCCCCC=CCC=CCCCCCCCC(=O)[O-]
REMARK SMILES IDX 11 1 12 2 13 3 14 4 15 5 16 6 17 7 18 8 19 9 20 10 10 11
REMARK SMILES IDX 9 12 8 13 7 14 6 15 5 16 4 17 3 18 2 19 1 20
REMARK H PARENT
REMARK Flexibility Score: inf
ROOT
ATOM      1  C   UNL     1       2.573 -55.092 -27.286  1.00  0.00     0.027 C 
ENDROOT
BRANCH   1   2
ATOM      2  C   UNL     1       2.439 -56.054 -26.096  1.00  0.00     0.004 C 
BRANCH   2   3
ATOM      3  C   UNL     1       3.699 -56.084 -25.216  1.00  0.00     0.000 C 
BRANCH   3   4
ATOM      4  C   UNL     1       4.344 -57.480 -25.154  1.00  0.00     0.000 C 
BRANCH   4   5
ATOM      5  C   UNL     1       5.591 -57.594 -26.046  1.00  0.00     0.000 C 
BRANCH   5   6
ATOM      6  C   UNL     1       6.822 -58.098 -25.280  1.00  0.00     0.006 C 
BRANCH   6   7
ATOM      7  C   UNL     1       6.429 -58.625 -23.897  1.00  0.00     0.053 C 
BRANCH   7   8
ATOM      8  C   UNL     1       7.341 -58.075 -22.847  1.00  0.00     0.041 C 
ATOM      9  O   UNL     1       8.504 -57.701 -23.151  1.00  0.00    -0.550 OA
ATOM     10  O   UNL     1       6.924 -58.021 -21.523  1.00  0.00    -0.550 OA
ENDBRANCH   7   8
ENDBRANCH   6   7
ENDBRANCH   5   6
ENDBRANCH   4   5
ENDBRANCH   3   4
ENDBRANCH   2   3
ENDBRANCH   1   2
BRANCH   1  11
ATOM     11  C   UNL     1       3.233 -55.767 -28.455  1.00  0.00    -0.031 C 
ATOM     12  C   UNL     1       4.131 -55.129 -29.222  1.00  0.00    -0.027 C 
BRANCH  12  13
ATOM     13  C   UNL     1       4.797 -55.811 -30.383  1.00  0.00     0.054 C 
BRANCH  13  14
ATOM     14  C   UNL     1       6.064 -56.492 -29.929  1.00  0.00    -0.027 C 
ATOM     15  C   UNL     1       7.308 -56.154 -30.318  1.00  0.00    -0.031 C 
BRANCH  15  16
ATOM     16  C   UNL     1       7.635 -55.070 -31.312  1.00  0.00     0.027 C 
BRANCH  16  17
ATOM     17  C   UNL     1       8.758 -54.163 -30.790  1.00  0.00     0.004 C 
BRANCH  17  18
ATOM     18  C   UNL     1       9.982 -54.992 -30.372  1.00  0.00     0.000 C 
BRANCH  18  19
ATOM     19  C   UNL     1      10.440 -54.687 -28.937  1.00  0.00    -0.003 C 
ATOM     20  C   UNL     1      10.219 -55.862 -27.984  1.00  0.00     0.004 C 
ENDBRANCH  18  19
ENDBRANCH  17  18
ENDBRANCH  16  17
ENDBRANCH  15  16
ENDBRANCH  13  14
ENDBRANCH  12  13
ENDBRANCH   1  11
TORSDOF 14
ENDMDL
MODEL 3
REMARK VINA RESULT:    -6.251      1.726      2.580
REMARK INTER + INTRA:         -12.849
REMARK INTER:                 -11.486
REMARK INTRA:                  -1.363
REMARK UNBOUND:                -1.481
REMARK SMILES CCCCCC=CCC=CCCCCCCCC(=O)[O-]
REMARK SMILES IDX 11 1 12 2 13 3 14 4 15 5 16 6 17 7 18 8 19 9 20 10 10 11
REMARK SMILES IDX 9 12 8 13 7 14 6 15 5 16 4 17 3 18 2 19 1 20
REMARK H PARENT
REMARK Flexibility Score: inf
ROOT
ATOM      1  C   UNL     1       2.565 -54.591 -27.309  1.00  0.00     0.027 C 
ENDROOT
BRANCH   1   2
ATOM      2  C   UNL     1       2.875 -54.785 -25.817  1.00  0.00     0.004 C 
BRANCH   2   3
ATOM      3  C   UNL     1       2.101 -55.962 -25.202  1.00  0.00     0.000 C 
BRANCH   3   4
ATOM      4  C   UNL     1       3.019 -57.133 -24.808  1.00  0.00     0.000 C 
BRANCH   4   5
ATOM      5  C   UNL     1       4.491 -56.877 -25.171  1.00  0.00     0.000 C 
BRANCH   5   6
ATOM      6  C   UNL     1       5.305 -58.173 -25.287  1.00  0.00     0.006 C 
BRANCH   6   7
ATOM      7  C   UNL     1       6.176 -58.387 -24.046  1.00  0.00     0.053 C 
BRANCH   7   8
ATOM      8  C   UNL     1       7.623 -58.236 -24.389  1.00  0.00     0.041 C 
ATOM      9  O   UNL     1       8.019 -58.427 -25.568  1.00  0.00    -0.550 OA
ATOM     10  O   UNL     1       8.545 -57.931 -23.395  1.00  0.00    -0.550 OA
ENDBRANCH   7   8
ENDBRANCH   6   7
ENDBRANCH   5   6
ENDBRANCH   4   5
ENDBRANCH   3   4
ENDBRANCH   2   3
ENDBRANCH   1   2
BRANCH   1  11
ATOM     11  C   UNL     1       3.639 -55.198 -28.167  1.00  0.00    -0.031 C 
ATOM     12  C   UNL     1       3.357 -56.113 -29.108  1.00  0.00    -0.027 C 
BRANCH  12  13
ATOM     13  C   UNL     1       4.432 -56.708 -29.970  1.00  0.00     0.054 C 
BRANCH  13  14
ATOM     14  C   UNL     1       5.008 -55.656 -30.885  1.00  0.00    -0.027 C 
ATOM     15  C   UNL     1       6.321 -55.457 -31.108  1.00  0.00    -0.031 C 
BRANCH  15  16
ATOM     16  C   UNL     1       7.435 -56.222 -30.440  1.00  0.00     0.027 C 
BRANCH  16  17
ATOM     17  C   UNL     1       7.707 -55.682 -29.030  1.00  0.00     0.004 C 
BRANCH  17  18
ATOM     18  C   UNL     1       9.124 -56.051 -28.567  1.00  0.00     0.000 C 
BRANCH  18  19
ATOM     19  C   UNL     1      10.210 -55.216 -29.263  1.00  0.00    -0.003 C 
ATOM     20  C   UNL     1       9.729 -53.813 -29.635  1.00  0.00     0.004 C 
ENDBRANCH  18  19
ENDBRANCH  17  18
ENDBRANCH  16  17
ENDBRANCH  15  16
ENDBRANCH  13  14
ENDBRANCH  12  13
ENDBRANCH   1  11
TORSDOF 14
ENDMDL
MODEL 4
REMARK VINA RESULT:    -6.240      0.946      1.808
REMARK INTER + INTRA:         -12.829
REMARK INTER:                 -11.539
REMARK INTRA:                  -1.290
REMARK UNBOUND:                -1.481
REMARK SMILES CCCCCC=CCC=CCCCCCCCC(=O)[O-]
REMARK SMILES IDX 11 1 12 2 13 3 14 4 15 5 16 6 17 7 18 8 19 9 20 10 10 11
REMARK SMILES IDX 9 12 8 13 7 14 6 15 5 16 4 17 3 18 2 19 1 20
REMARK H PARENT
REMARK Flexibility Score: inf
ROOT
ATOM      1  C   UNL     1       2.703 -54.671 -27.211  1.00  0.00     0.027 C 
ENDROOT
BRANCH   1   2
ATOM      2  C   UNL     1       2.428 -55.670 -26.076  1.00  0.00     0.004 C 
BRANCH   2   3
ATOM      3  C   UNL     1       3.685 -55.981 -25.248  1.00  0.00     0.000 C 
BRANCH   3   4
ATOM      4  C   UNL     1       4.104 -57.459 -25.342  1.00  0.00     0.000 C 
BRANCH   4   5
ATOM      5  C   UNL     1       5.630 -57.645 -25.285  1.00  0.00     0.000 C 
BRANCH   5   6
ATOM      6  C   UNL     1       6.073 -58.530 -24.112  1.00  0.00     0.006 C 
BRANCH   6   7
ATOM      7  C   UNL     1       7.599 -58.536 -23.977  1.00  0.00     0.053 C 
BRANCH   7   8
ATOM      8  C   UNL     1       8.028 -57.657 -22.846  1.00  0.00     0.041 C 
ATOM      9  O   UNL     1       9.057 -56.940 -22.956  1.00  0.00    -0.550 OA
ATOM     10  O   UNL     1       7.319 -57.664 -21.651  1.00  0.00    -0.550 OA
ENDBRANCH   7   8
ENDBRANCH   6   7
ENDBRANCH   5   6
ENDBRANCH   4   5
ENDBRANCH   3   4
ENDBRANCH   2   3
ENDBRANCH   1   2
BRANCH   1  11
ATOM     11  C   UNL     1       3.685 -55.233 -28.200  1.00  0.00    -0.031 C 
ATOM     12  C   UNL     1       3.341 -56.206 -29.059  1.00  0.00    -0.027 C 
BRANCH  12  13
ATOM     13  C   UNL     1       4.322 -56.758 -30.053  1.00  0.00     0.054 C 
BRANCH  13  14
ATOM     14  C   UNL     1       5.027 -55.632 -30.767  1.00  0.00    -0.027 C 
ATOM     15  C   UNL     1       6.351 -55.389 -30.716  1.00  0.00    -0.031 C 
BRANCH  15  16
ATOM     16  C   UNL     1       7.340 -56.174 -29.893  1.00  0.00     0.027 C 
BRANCH  16  17
ATOM     17  C   UNL     1       8.741 -55.555 -29.977  1.00  0.00     0.004 C 
BRANCH  17  18
ATOM     18  C   UNL     1       8.731 -54.292 -30.850  1.00  0.00     0.000 C 
BRANCH  18  19
ATOM     19  C   UNL     1       9.684 -54.396 -32.050  1.00  0.00    -0.003 C 
ATOM     20  C   UNL     1       9.731 -55.802 -32.649  1.00  0.00     0.004 C 
ENDBRANCH  18  19
ENDBRANCH  17  18
ENDBRANCH  16  17
ENDBRANCH  15  16
ENDBRANCH  13  14
ENDBRANCH  12  13
ENDBRANCH   1  11
TORSDOF 14
ENDMDL
MODEL 5
REMARK VINA RESULT:    -6.212      2.521      6.739
REMARK INTER + INTRA:         -12.778
REMARK INTER:                 -11.437
REMARK INTRA:                  -1.341
REMARK UNBOUND:                -1.481
REMARK SMILES CCCCCC=CCC=CCCCCCCCC(=O)[O-]
REMARK SMILES IDX 11 1 12 2 13 3 14 4 15 5 16 6 17 7 18 8 19 9 20 10 10 11
REMARK SMILES IDX 9 12 8 13 7 14 6 15 5 16 4 17 3 18 2 19 1 20
REMARK H PARENT
REMARK Flexibility Score: inf
ROOT
ATOM      1  C   UNL     1       3.768 -56.613 -29.905  1.00  0.00     0.027 C 
ENDROOT
BRANCH   1   2
ATOM      2  C   UNL     1       5.159 -55.997 -30.122  1.00  0.00     0.004 C 
BRANCH   2   3
ATOM      3  C   UNL     1       5.292 -55.304 -31.487  1.00  0.00     0.000 C 
BRANCH   3   4
ATOM      4  C   UNL     1       6.739 -54.885 -31.800  1.00  0.00     0.000 C 
BRANCH   4   5
ATOM      5  C   UNL     1       7.739 -55.380 -30.742  1.00  0.00     0.000 C 
BRANCH   5   6
ATOM      6  C   UNL     1       8.889 -54.390 -30.508  1.00  0.00     0.006 C 
BRANCH   6   7
ATOM      7  C   UNL     1      10.161 -55.122 -30.070  1.00  0.00     0.053 C 
BRANCH   7   8
ATOM      8  C   UNL     1      10.273 -55.134 -28.579  1.00  0.00     0.041 C 
ATOM      9  O   UNL     1      10.356 -56.226 -27.958  1.00  0.00    -0.550 OA
ATOM     10  O   UNL     1      10.235 -53.940 -27.869  1.00  0.00    -0.550 OA
ENDBRANCH   7   8
ENDBRANCH   6   7
ENDBRANCH   5   6
ENDBRANCH   4   5
ENDBRANCH   3   4
ENDBRANCH   2   3
ENDBRANCH   1   2
BRANCH   1  11
ATOM     11  C   UNL     1       3.134 -56.087 -28.648  1.00  0.00    -0.031 C 
ATOM     12  C   UNL     1       3.724 -55.137 -27.906  1.00  0.00    -0.027 C 
BRANCH  12  13
ATOM     13  C   UNL     1       3.082 -54.606 -26.656  1.00  0.00     0.054 C 
BRANCH  13  14
ATOM     14  C   UNL     1       2.203 -55.663 -26.035  1.00  0.00    -0.027 C 
ATOM     15  C   UNL     1       2.626 -56.629 -25.197  1.00  0.00    -0.031 C 
BRANCH  15  16
ATOM     16  C   UNL     1       4.059 -56.843 -24.782  1.00  0.00     0.027 C 
BRANCH  16  17
ATOM     17  C   UNL     1       4.771 -57.812 -25.736  1.00  0.00     0.004 C 
BRANCH  17  18
ATOM     18  C   UNL     1       6.261 -57.930 -25.384  1.00  0.00     0.000 C 
BRANCH  18  19
ATOM     19  C   UNL     1       6.497 -58.175 -23.886  1.00  0.00    -0.003 C 
ATOM     20  C   UNL     1       7.978 -58.157 -23.509  1.00  0.00     0.004 C 
ENDBRANCH  18  19
ENDBRANCH  17  18
ENDBRANCH  16  17
ENDBRANCH  15  16
ENDBRANCH  13  14
ENDBRANCH  12  13
ENDBRANCH   1  11
TORSDOF 14
ENDMDL
MODEL 6
REMARK VINA RESULT:    -6.193      3.787      7.664
REMARK INTER + INTRA:         -12.742
REMARK INTER:                 -10.808
REMARK INTRA:                  -1.935
REMARK UNBOUND:                -1.481
REMARK SMILES CCCCCC=CCC=CCCCCCCCC(=O)[O-]
REMARK SMILES IDX 11 1 12 2 13 3 14 4 15 5 16 6 17 7 18 8 19 9 20 10 10 11
REMARK SMILES IDX 9 12 8 13 7 14 6 15 5 16 4 17 3 18 2 19 1 20
REMARK H PARENT
REMARK Flexibility Score: inf
ROOT
ATOM      1  C   UNL     1       4.136 -56.675 -29.723  1.00  0.00     0.027 C 
ENDROOT
BRANCH   1   2
ATOM      2  C   UNL     1       5.069 -55.586 -30.275  1.00  0.00     0.004 C 
BRANCH   2   3
ATOM      3  C   UNL     1       6.524 -56.066 -30.404  1.00  0.00     0.000 C 
BRANCH   3   4
ATOM      4  C   UNL     1       7.372 -55.721 -29.167  1.00  0.00     0.000 C 
BRANCH   4   5
ATOM      5  C   UNL     1       8.664 -54.969 -29.529  1.00  0.00     0.000 C 
BRANCH   5   6
ATOM      6  C   UNL     1       8.584 -54.282 -30.899  1.00  0.00     0.006 C 
BRANCH   6   7
ATOM      7  C   UNL     1       9.720 -54.748 -31.813  1.00  0.00     0.053 C 
BRANCH   7   8
ATOM      8  C   UNL     1       9.183 -55.577 -32.936  1.00  0.00     0.041 C 
ATOM      9  O   UNL     1       9.834 -56.568 -33.360  1.00  0.00    -0.550 OA
ATOM     10  O   UNL     1       7.986 -55.227 -33.548  1.00  0.00    -0.550 OA
ENDBRANCH   7   8
ENDBRANCH   6   7
ENDBRANCH   5   6
ENDBRANCH   4   5
ENDBRANCH   3   4
ENDBRANCH   2   3
ENDBRANCH   1   2
BRANCH   1  11
ATOM     11  C   UNL     1       3.175 -56.104 -28.718  1.00  0.00    -0.031 C 
ATOM     12  C   UNL     1       3.291 -54.844 -28.270  1.00  0.00    -0.027 C 
BRANCH  12  13
ATOM     13  C   UNL     1       2.323 -54.274 -27.274  1.00  0.00     0.054 C 
BRANCH  13  14
ATOM     14  C   UNL     1       3.031 -53.962 -25.979  1.00  0.00    -0.027 C 
ATOM     15  C   UNL     1       2.824 -54.597 -24.810  1.00  0.00    -0.031 C 
BRANCH  15  16
ATOM     16  C   UNL     1       1.812 -55.691 -24.590  1.00  0.00     0.027 C 
BRANCH  16  17
ATOM     17  C   UNL     1       2.481 -57.072 -24.597  1.00  0.00     0.004 C 
BRANCH  17  18
ATOM     18  C   UNL     1       4.001 -56.944 -24.415  1.00  0.00     0.000 C 
BRANCH  18  19
ATOM     19  C   UNL     1       4.782 -58.002 -25.210  1.00  0.00    -0.003 C 
ATOM     20  C   UNL     1       5.597 -57.399 -26.355  1.00  0.00     0.004 C 
ENDBRANCH  18  19
ENDBRANCH  17  18
ENDBRANCH  16  17
ENDBRANCH  15  16
ENDBRANCH  13  14
ENDBRANCH  12  13
ENDBRANCH   1  11
TORSDOF 14
ENDMDL
MODEL 7
REMARK VINA RESULT:    -6.154      3.348      7.305
REMARK INTER + INTRA:         -12.672
REMARK INTER:                 -11.278
REMARK INTRA:                  -1.394
REMARK UNBOUND:                -1.481
REMARK SMILES CCCCCC=CCC=CCCCCCCCC(=O)[O-]
REMARK SMILES IDX 11 1 12 2 13 3 14 4 15 5 16 6 17 7 18 8 19 9 20 10 10 11
REMARK SMILES IDX 9 12 8 13 7 14 6 15 5 16 4 17 3 18 2 19 1 20
REMARK H PARENT
REMARK Flexibility Score: inf
ROOT
ATOM      1  C   UNL     1       4.981 -55.207 -30.908  1.00  0.00     0.027 C 
ENDROOT
BRANCH   1   2
ATOM      2  C   UNL     1       6.482 -55.386 -30.636  1.00  0.00     0.004 C 
BRANCH   2   3
ATOM      3  C   UNL     1       6.757 -56.201 -29.362  1.00  0.00     0.000 C 
BRANCH   3   4
ATOM      4  C   UNL     1       8.237 -56.158 -28.940  1.00  0.00     0.000 C 
BRANCH   4   5
ATOM      5  C   UNL     1       8.884 -54.787 -29.196  1.00  0.00     0.000 C 
BRANCH   5   6
ATOM      6  C   UNL     1      10.122 -54.878 -30.100  1.00  0.00     0.006 C 
BRANCH   6   7
ATOM      7  C   UNL     1       9.794 -54.424 -31.525  1.00  0.00     0.053 C 
BRANCH   7   8
ATOM      8  C   UNL     1      10.066 -55.524 -32.501  1.00  0.00     0.041 C 
ATOM      9  O   UNL     1       9.366 -56.570 -32.488  1.00  0.00    -0.550 OA
ATOM     10  O   UNL     1      11.124 -55.414 -33.395  1.00  0.00    -0.550 OA
ENDBRANCH   7   8
ENDBRANCH   6   7
ENDBRANCH   5   6
ENDBRANCH   4   5
ENDBRANCH   3   4
ENDBRANCH   2   3
ENDBRANCH   1   2
BRANCH   1  11
ATOM     11  C   UNL     1       4.156 -55.848 -29.828  1.00  0.00    -0.031 C 
ATOM     12  C   UNL     1       3.512 -55.116 -28.905  1.00  0.00    -0.027 C 
BRANCH  12  13
ATOM     13  C   UNL     1       2.680 -55.761 -27.834  1.00  0.00     0.054 C 
BRANCH  13  14
ATOM     14  C   UNL     1       3.160 -55.328 -26.471  1.00  0.00    -0.027 C 
ATOM     15  C   UNL     1       4.102 -55.959 -25.745  1.00  0.00    -0.031 C 
BRANCH  15  16
ATOM     16  C   UNL     1       4.797 -57.233 -26.154  1.00  0.00     0.027 C 
BRANCH  16  17
ATOM     17  C   UNL     1       5.492 -57.892 -24.955  1.00  0.00     0.004 C 
BRANCH  17  18
ATOM     18  C   UNL     1       6.952 -58.233 -25.289  1.00  0.00     0.000 C 
BRANCH  18  19
ATOM     19  C   UNL     1       7.859 -58.225 -24.048  1.00  0.00    -0.003 C 
ATOM     20  C   UNL     1       7.076 -58.370 -22.742  1.00  0.00     0.004 C 
ENDBRANCH  18  19
ENDBRANCH  17  18
ENDBRANCH  16  17
ENDBRANCH  15  16
ENDBRANCH  13  14
ENDBRANCH  12  13
ENDBRANCH   1  11
TORSDOF 14
ENDMDL
MODEL 8
REMARK VINA RESULT:    -6.090      3.695      8.316
REMARK INTER + INTRA:         -12.556
REMARK INTER:                 -11.065
REMARK INTRA:                  -1.491
REMARK UNBOUND:                -1.481
REMARK SMILES CCCCCC=CCC=CCCCCCCCC(=O)[O-]
REMARK SMILES IDX 11 1 12 2 13 3 14 4 15 5 16 6 17 7 18 8 19 9 20 10 10 11
REMARK SMILES IDX 9 12 8 13 7 14 6 15 5 16 4 17 3 18 2 19 1 20
REMARK H PARENT
REMARK Flexibility Score: inf
ROOT
ATOM      1  C   UNL     1       4.843 -55.743 -30.904  1.00  0.00     0.027 C 
ENDROOT
BRANCH   1   2
ATOM      2  C   UNL     1       6.324 -55.357 -30.774  1.00  0.00     0.004 C 
BRANCH   2   3
ATOM      3  C   UNL     1       7.147 -56.415 -30.023  1.00  0.00     0.000 C 
BRANCH   3   4
ATOM      4  C   UNL     1       8.243 -55.796 -29.139  1.00  0.00     0.000 C 
BRANCH   4   5
ATOM      5  C   UNL     1       8.732 -54.438 -29.669  1.00  0.00     0.000 C 
BRANCH   5   6
ATOM      6  C   UNL     1      10.008 -54.559 -30.514  1.00  0.00     0.006 C 
BRANCH   6   7
ATOM      7  C   UNL     1       9.705 -54.336 -31.998  1.00  0.00     0.053 C 
BRANCH   7   8
ATOM      8  C   UNL     1      10.156 -55.510 -32.808  1.00  0.00     0.041 C 
ATOM      9  O   UNL     1       9.545 -56.608 -32.727  1.00  0.00    -0.550 OA
ATOM     10  O   UNL     1      11.281 -55.407 -33.616  1.00  0.00    -0.550 OA
ENDBRANCH   7   8
ENDBRANCH   6   7
ENDBRANCH   5   6
ENDBRANCH   4   5
ENDBRANCH   3   4
ENDBRANCH   2   3
ENDBRANCH   1   2
BRANCH   1  11
ATOM     11  C   UNL     1       4.257 -56.095 -29.565  1.00  0.00    -0.031 C 
ATOM     12  C   UNL     1       3.675 -55.171 -28.786  1.00  0.00    -0.027 C 
BRANCH  12  13
ATOM     13  C   UNL     1       3.081 -55.529 -27.454  1.00  0.00     0.054 C 
BRANCH  13  14
ATOM     14  C   UNL     1       4.023 -56.426 -26.689  1.00  0.00    -0.027 C 
ATOM     15  C   UNL     1       3.945 -56.688 -25.371  1.00  0.00    -0.031 C 
BRANCH  15  16
ATOM     16  C   UNL     1       2.933 -56.087 -24.431  1.00  0.00     0.027 C 
BRANCH  16  17
ATOM     17  C   UNL     1       1.667 -56.951 -24.356  1.00  0.00     0.004 C 
BRANCH  17  18
ATOM     18  C   UNL     1       0.449 -56.105 -23.955  1.00  0.00     0.000 C 
BRANCH  18  19
ATOM     19  C   UNL     1      -0.516 -55.867 -25.126  1.00  0.00    -0.003 C 
ATOM     20  C   UNL     1      -0.193 -54.594 -25.910  1.00  0.00     0.004 C 
ENDBRANCH  18  19
ENDBRANCH  17  18
ENDBRANCH  16  17
ENDBRANCH  15  16
ENDBRANCH  13  14
ENDBRANCH  12  13
ENDBRANCH   1  11
TORSDOF 14
ENDMDL
MODEL 9
REMARK VINA RESULT:    -5.943      1.517      2.187
REMARK INTER + INTRA:         -12.287
REMARK INTER:                 -10.572
REMARK INTRA:                  -1.715
REMARK UNBOUND:                -1.481
REMARK SMILES CCCCCC=CCC=CCCCCCCCC(=O)[O-]
REMARK SMILES IDX 11 1 12 2 13 3 14 4 15 5 16 6 17 7 18 8 19 9 20 10 10 11
REMARK SMILES IDX 9 12 8 13 7 14 6 15 5 16 4 17 3 18 2 19 1 20
REMARK H PARENT
REMARK Flexibility Score: inf
ROOT
ATOM      1  C   UNL     1       2.259 -55.011 -27.725  1.00  0.00     0.027 C 
ENDROOT
BRANCH   1   2
ATOM      2  C   UNL     1       2.176 -53.927 -26.639  1.00  0.00     0.004 C 
BRANCH   2   3
ATOM      3  C   UNL     1       2.123 -54.517 -25.221  1.00  0.00     0.000 C 
BRANCH   3   4
ATOM      4  C   UNL     1       1.570 -55.953 -25.197  1.00  0.00     0.000 C 
BRANCH   4   5
ATOM      5  C   UNL     1       2.471 -56.919 -24.410  1.00  0.00     0.000 C 
BRANCH   5   6
ATOM      6  C   UNL     1       3.964 -56.608 -24.583  1.00  0.00     0.006 C 
BRANCH   6   7
ATOM      7  C   UNL     1       4.612 -57.570 -25.583  1.00  0.00     0.053 C 
BRANCH   7   8
ATOM      8  C   UNL     1       5.954 -58.010 -25.093  1.00  0.00     0.041 C 
ATOM      9  O   UNL     1       6.950 -57.983 -25.862  1.00  0.00    -0.550 OA
ATOM     10  O   UNL     1       6.098 -58.498 -23.800  1.00  0.00    -0.550 OA
ENDBRANCH   7   8
ENDBRANCH   6   7
ENDBRANCH   5   6
ENDBRANCH   4   5
ENDBRANCH   3   4
ENDBRANCH   2   3
ENDBRANCH   1   2
BRANCH   1  11
ATOM     11  C   UNL     1       3.657 -55.129 -28.264  1.00  0.00    -0.031 C 
ATOM     12  C   UNL     1       3.957 -55.972 -29.265  1.00  0.00    -0.027 C 
BRANCH  12  13
ATOM     13  C   UNL     1       5.353 -56.079 -29.808  1.00  0.00     0.054 C 
BRANCH  13  14
ATOM     14  C   UNL     1       6.351 -56.089 -28.677  1.00  0.00    -0.027 C 
ATOM     15  C   UNL     1       7.686 -55.986 -28.821  1.00  0.00    -0.031 C 
BRANCH  15  16
ATOM     16  C   UNL     1       8.406 -55.894 -30.142  1.00  0.00     0.027 C 
BRANCH  16  17
ATOM     17  C   UNL     1       8.720 -54.435 -30.499  1.00  0.00     0.004 C 
BRANCH  17  18
ATOM     18  C   UNL     1       9.350 -54.337 -31.896  1.00  0.00     0.000 C 
BRANCH  18  19
ATOM     19  C   UNL     1       8.725 -55.322 -32.896  1.00  0.00    -0.003 C 
ATOM     20  C   UNL     1       9.773 -56.133 -33.659  1.00  0.00     0.004 C 
ENDBRANCH  18  19
ENDBRANCH  17  18
ENDBRANCH  16  17
ENDBRANCH  15  16
ENDBRANCH  13  14
ENDBRANCH  12  13
ENDBRANCH   1  11
TORSDOF 14
ENDMDL
