MODEL 1
REMARK VINA RESULT:    -3.974      0.000      0.000
REMARK INTER + INTRA:          -4.090
REMARK INTER:                  -4.090
REMARK INTRA:                   0.000
REMARK UNBOUND:                 0.000
REMARK SMILES C[C@@H]1CC[C@@H]2C(C)(C)[C@@H]3C[C@]12CC[C@@]3(C)O
REMARK SMILES IDX 1 1 2 2 3 3 4 4 5 5 11 6 12 7 13 8 14 9 9 10 10 11 6 12 7 13
REMARK SMILES IDX 8 14 15 15 16 16
REMARK H PARENT 16 17
REMARK Flexibility Score: inf
ROOT
ATOM      1  C   UNL     1     231.486 232.034 232.652  1.00  0.00     0.008 C 
ATOM      2  C   UNL     1     230.699 232.906 233.641  1.00  0.00    -0.008 C 
ATOM      3  C   UNL     1     231.504 233.257 234.886  1.00  0.00     0.004 C 
ATOM      4  C   UNL     1     230.469 233.665 235.926  1.00  0.00     0.005 C 
ATOM      5  C   UNL     1     229.151 232.944 235.553  1.00  0.00     0.001 C 
ATOM      6  C   UNL     1     229.395 232.280 234.179  1.00  0.00    -0.023 C 
ATOM      7  C   UNL     1     228.185 232.482 233.221  1.00  0.00     0.010 C 
ATOM      8  C   UNL     1     226.858 231.979 233.841  1.00  0.00     0.036 C 
ATOM      9  C   UNL     1     227.007 230.628 234.619  1.00  0.00     0.065 C 
ATOM     10  C   UNL     1     228.336 230.612 235.481  1.00  0.00     0.027 C 
ATOM     11  C   UNL     1     229.495 230.787 234.497  1.00  0.00     0.014 C 
ATOM     12  C   UNL     1     228.616 231.795 236.487  1.00  0.00    -0.026 C 
ATOM     13  C   UNL     1     227.393 232.274 237.301  1.00  0.00     0.012 C 
ATOM     14  C   UNL     1     229.656 231.300 237.538  1.00  0.00     0.012 C 
ATOM     15  C   UNL     1     225.750 230.338 235.475  1.00  0.00     0.042 C 
ENDROOT
BRANCH   9  16
ATOM     16  O   UNL     1     227.112 229.570 233.686  1.00  0.00    -0.390 OA
ATOM     17  H   UNL     1     227.999 229.135 233.787  1.00  0.00     0.211 HD
ENDBRANCH   9  16
TORSDOF 1
ENDMDL
MODEL 2
REMARK VINA RESULT:    -3.947      9.608     12.449
REMARK INTER + INTRA:          -4.062
REMARK INTER:                  -4.062
REMARK INTRA:                   0.000
REMARK UNBOUND:                 0.000
REMARK SMILES C[C@@H]1CC[C@@H]2C(C)(C)[C@@H]3C[C@]12CC[C@@]3(C)O
REMARK SMILES IDX 1 1 2 2 3 3 4 4 5 5 11 6 12 7 13 8 14 9 9 10 10 11 6 12 7 13
REMARK SMILES IDX 8 14 15 15 16 16
REMARK H PARENT 16 17
REMARK Flexibility Score: inf
ROOT
ATOM      1  C   UNL     1     236.920 236.408 232.630  1.00  0.00     0.008 C 
ATOM      2  C   UNL     1     237.703 235.538 233.623  1.00  0.00    -0.008 C 
ATOM      3  C   UNL     1     236.887 235.175 234.857  1.00  0.00     0.004 C 
ATOM      4  C   UNL     1     237.913 234.769 235.907  1.00  0.00     0.005 C 
ATOM      5  C   UNL     1     239.230 235.502 235.552  1.00  0.00     0.001 C 
ATOM      6  C   UNL     1     238.996 236.171 234.179  1.00  0.00    -0.023 C 
ATOM      7  C   UNL     1     240.218 235.984 233.234  1.00  0.00     0.010 C 
ATOM      8  C   UNL     1     241.534 236.494 233.870  1.00  0.00     0.036 C 
ATOM      9  C   UNL     1     241.366 237.840 234.653  1.00  0.00     0.065 C 
ATOM     10  C   UNL     1     240.027 237.841 235.500  1.00  0.00     0.027 C 
ATOM     11  C   UNL     1     238.881 237.662 234.504  1.00  0.00     0.014 C 
ATOM     12  C   UNL     1     239.745 236.651 236.498  1.00  0.00    -0.026 C 
ATOM     13  C   UNL     1     240.963 236.177 237.323  1.00  0.00     0.012 C 
ATOM     14  C   UNL     1     238.690 237.132 237.539  1.00  0.00     0.012 C 
ATOM     15  C   UNL     1     242.611 238.135 235.525  1.00  0.00     0.042 C 
ENDROOT
BRANCH   9  16
ATOM     16  O   UNL     1     241.263 238.902 233.724  1.00  0.00    -0.390 OA
ATOM     17  H   UNL     1     241.139 238.525 232.814  1.00  0.00     0.211 HD
ENDBRANCH   9  16
TORSDOF 1
ENDMDL
MODEL 3
REMARK VINA RESULT:    -3.920      7.342      8.895
REMARK INTER + INTRA:          -4.034
REMARK INTER:                  -4.034
REMARK INTRA:                   0.000
REMARK UNBOUND:                 0.000
REMARK SMILES C[C@@H]1CC[C@@H]2C(C)(C)[C@@H]3C[C@]12CC[C@@]3(C)O
REMARK SMILES IDX 1 1 2 2 3 3 4 4 5 5 11 6 12 7 13 8 14 9 9 10 10 11 6 12 7 13
REMARK SMILES IDX 8 14 15 15 16 16
REMARK H PARENT 16 17
REMARK Flexibility Score: inf
ROOT
ATOM      1  C   UNL     1     232.118 237.325 232.629  1.00  0.00     0.008 C 
ATOM      2  C   UNL     1     232.888 238.110 233.702  1.00  0.00    -0.008 C 
ATOM      3  C   UNL     1     233.257 237.252 234.906  1.00  0.00     0.004 C 
ATOM      4  C   UNL     1     233.543 238.244 236.026  1.00  0.00     0.005 C 
ATOM      5  C   UNL     1     232.732 239.524 235.709  1.00  0.00     0.001 C 
ATOM      6  C   UNL     1     232.139 239.321 234.296  1.00  0.00    -0.023 C 
ATOM      7  C   UNL     1     232.277 240.606 233.428  1.00  0.00     0.010 C 
ATOM      8  C   UNL     1     231.646 241.845 234.109  1.00  0.00     0.036 C 
ATOM      9  C   UNL     1     230.285 241.538 234.820  1.00  0.00     0.065 C 
ATOM     10  C   UNL     1     230.346 240.157 235.593  1.00  0.00     0.027 C 
ATOM     11  C   UNL     1     230.649 239.084 234.546  1.00  0.00     0.014 C 
ATOM     12  C   UNL     1     231.510 239.903 236.628  1.00  0.00    -0.026 C 
ATOM     13  C   UNL     1     231.859 241.103 237.538  1.00  0.00     0.012 C 
ATOM     14  C   UNL     1     231.064 238.760 237.588  1.00  0.00     0.012 C 
ATOM     15  C   UNL     1     229.864 242.708 235.742  1.00  0.00     0.042 C 
ENDROOT
BRANCH   9  16
ATOM     16  O   UNL     1     229.273 241.414 233.839  1.00  0.00    -0.390 OA
ATOM     17  H   UNL     1     229.161 242.286 233.378  1.00  0.00     0.211 HD
ENDBRANCH   9  16
TORSDOF 1
ENDMDL
MODEL 4
REMARK VINA RESULT:    -3.913      7.187      8.954
REMARK INTER + INTRA:          -4.028
REMARK INTER:                  -4.028
REMARK INTRA:                   0.000
REMARK UNBOUND:                 0.000
REMARK SMILES C[C@@H]1CC[C@@H]2C(C)(C)[C@@H]3C[C@]12CC[C@@]3(C)O
REMARK SMILES IDX 1 1 2 2 3 3 4 4 5 5 11 6 12 7 13 8 14 9 9 10 10 11 6 12 7 13
REMARK SMILES IDX 8 14 15 15 16 16
REMARK H PARENT 16 17
REMARK Flexibility Score: inf
ROOT
ATOM      1  C   UNL     1     236.313 231.436 232.625  1.00  0.00     0.008 C 
ATOM      2  C   UNL     1     235.520 230.651 233.680  1.00  0.00    -0.008 C 
ATOM      3  C   UNL     1     235.173 231.492 234.902  1.00  0.00     0.004 C 
ATOM      4  C   UNL     1     234.858 230.485 236.000  1.00  0.00     0.005 C 
ATOM      5  C   UNL     1     235.634 229.191 235.657  1.00  0.00     0.001 C 
ATOM      6  C   UNL     1     236.234 229.407 234.249  1.00  0.00    -0.023 C 
ATOM      7  C   UNL     1     236.062 228.145 233.353  1.00  0.00     0.010 C 
ATOM      8  C   UNL     1     236.657 226.875 234.009  1.00  0.00     0.036 C 
ATOM      9  C   UNL     1     238.025 227.129 234.727  1.00  0.00     0.065 C 
ATOM     10  C   UNL     1     238.002 228.494 235.530  1.00  0.00     0.027 C 
ATOM     11  C   UNL     1     237.730 229.597 234.505  1.00  0.00     0.014 C 
ATOM     12  C   UNL     1     236.844 228.758 236.568  1.00  0.00    -0.026 C 
ATOM     13  C   UNL     1     236.460 227.549 237.452  1.00  0.00     0.012 C 
ATOM     14  C   UNL     1     237.320 229.868 237.553  1.00  0.00     0.012 C 
ATOM     15  C   UNL     1     238.413 225.928 235.624  1.00  0.00     0.042 C 
ENDROOT
BRANCH   9  16
ATOM     16  O   UNL     1     239.042 227.246 233.750  1.00  0.00    -0.390 OA
ATOM     17  H   UNL     1     239.166 226.366 233.305  1.00  0.00     0.211 HD
ENDBRANCH   9  16
TORSDOF 1
ENDMDL
MODEL 5
REMARK VINA RESULT:    -3.838      9.197     10.945
REMARK INTER + INTRA:          -3.950
REMARK INTER:                  -3.950
REMARK INTRA:                   0.000
REMARK UNBOUND:                 0.000
REMARK SMILES C[C@@H]1CC[C@@H]2C(C)(C)[C@@H]3C[C@]12CC[C@@]3(C)O
REMARK SMILES IDX 1 1 2 2 3 3 4 4 5 5 11 6 12 7 13 8 14 9 9 10 10 11 6 12 7 13
REMARK SMILES IDX 8 14 15 15 16 16
REMARK H PARENT 16 17
REMARK Flexibility Score: inf
ROOT
ATOM      1  C   UNL     1     236.487 229.660 233.402  1.00  0.00     0.008 C 
ATOM      2  C   UNL     1     236.165 228.452 234.292  1.00  0.00    -0.008 C 
ATOM      3  C   UNL     1     235.559 228.854 235.632  1.00  0.00     0.004 C 
ATOM      4  C   UNL     1     235.765 227.647 236.538  1.00  0.00     0.005 C 
ATOM      5  C   UNL     1     236.999 226.886 235.997  1.00  0.00     0.001 C 
ATOM      6  C   UNL     1     237.371 227.562 234.658  1.00  0.00    -0.023 C 
ATOM      7  C   UNL     1     237.706 226.512 233.559  1.00  0.00     0.010 C 
ATOM      8  C   UNL     1     238.822 225.534 234.003  1.00  0.00     0.036 C 
ATOM      9  C   UNL     1     239.987 226.232 234.781  1.00  0.00     0.065 C 
ATOM     10  C   UNL     1     239.427 227.306 235.802  1.00  0.00     0.027 C 
ATOM     11  C   UNL     1     238.655 228.333 234.973  1.00  0.00     0.014 C 
ATOM     12  C   UNL     1     238.326 226.875 236.846  1.00  0.00    -0.026 C 
ATOM     13  C   UNL     1     238.544 225.494 237.505  1.00  0.00     0.012 C 
ATOM     14  C   UNL     1     238.335 227.907 238.014  1.00  0.00     0.012 C 
ATOM     15  C   UNL     1     240.899 225.187 235.470  1.00  0.00     0.042 C 
ENDROOT
BRANCH   9  16
ATOM     16  O   UNL     1     240.802 226.930 233.858  1.00  0.00    -0.390 OA
ATOM     17  H   UNL     1     241.658 226.440 233.747  1.00  0.00     0.211 HD
ENDBRANCH   9  16
TORSDOF 1
ENDMDL
MODEL 6
REMARK VINA RESULT:    -3.837      7.894      9.238
REMARK INTER + INTRA:          -3.949
REMARK INTER:                  -3.949
REMARK INTRA:                   0.000
REMARK UNBOUND:                 0.000
REMARK SMILES C[C@@H]1CC[C@@H]2C(C)(C)[C@@H]3C[C@]12CC[C@@]3(C)O
REMARK SMILES IDX 1 1 2 2 3 3 4 4 5 5 11 6 12 7 13 8 14 9 9 10 10 11 6 12 7 13
REMARK SMILES IDX 8 14 15 15 16 16
REMARK H PARENT 16 17
REMARK Flexibility Score: inf
ROOT
ATOM      1  C   UNL     1     232.007 238.260 233.011  1.00  0.00     0.008 C 
ATOM      2  C   UNL     1     232.507 239.251 234.072  1.00  0.00    -0.008 C 
ATOM      3  C   UNL     1     233.088 238.557 235.298  1.00  0.00     0.004 C 
ATOM      4  C   UNL     1     233.064 239.610 236.398  1.00  0.00     0.005 C 
ATOM      5  C   UNL     1     231.928 240.600 236.047  1.00  0.00     0.001 C 
ATOM      6  C   UNL     1     231.437 240.211 234.634  1.00  0.00    -0.023 C 
ATOM      7  C   UNL     1     231.216 241.465 233.738  1.00  0.00     0.010 C 
ATOM      8  C   UNL     1     230.250 242.486 234.388  1.00  0.00     0.036 C 
ATOM      9  C   UNL     1     229.022 241.818 235.094  1.00  0.00     0.065 C 
ATOM     10  C   UNL     1     229.462 240.527 235.898  1.00  0.00     0.027 C 
ATOM     11  C   UNL     1     230.072 239.564 234.877  1.00  0.00     0.014 C 
ATOM     12  C   UNL     1     230.636 240.633 236.947  1.00  0.00    -0.026 C 
ATOM     13  C   UNL     1     230.617 241.900 237.833  1.00  0.00     0.012 C 
ATOM     14  C   UNL     1     230.520 239.429 237.929  1.00  0.00     0.012 C 
ATOM     15  C   UNL     1     228.274 242.838 235.987  1.00  0.00     0.042 C 
ENDROOT
BRANCH   9  16
ATOM     16  O   UNL     1     228.101 241.393 234.108  1.00  0.00    -0.390 OA
ATOM     17  H   UNL     1     228.584 241.253 233.252  1.00  0.00     0.211 HD
ENDBRANCH   9  16
TORSDOF 1
ENDMDL
MODEL 7
REMARK VINA RESULT:    -3.837      1.218      1.496
REMARK INTER + INTRA:          -3.949
REMARK INTER:                  -3.949
REMARK INTRA:                   0.000
REMARK UNBOUND:                 0.000
REMARK SMILES C[C@@H]1CC[C@@H]2C(C)(C)[C@@H]3C[C@]12CC[C@@]3(C)O
REMARK SMILES IDX 1 1 2 2 3 3 4 4 5 5 11 6 12 7 13 8 14 9 9 10 10 11 6 12 7 13
REMARK SMILES IDX 8 14 15 15 16 16
REMARK H PARENT 16 17
REMARK Flexibility Score: inf
ROOT
ATOM      1  C   UNL     1     230.369 232.003 232.998  1.00  0.00     0.008 C 
ATOM      2  C   UNL     1     229.398 232.526 234.066  1.00  0.00    -0.008 C 
ATOM      3  C   UNL     1     230.116 233.106 235.279  1.00  0.00     0.004 C 
ATOM      4  C   UNL     1     229.076 233.109 236.392  1.00  0.00     0.005 C 
ATOM      5  C   UNL     1     228.065 231.984 236.061  1.00  0.00     0.001 C 
ATOM      6  C   UNL     1     228.429 231.476 234.648  1.00  0.00    -0.023 C 
ATOM      7  C   UNL     1     227.162 231.268 233.769  1.00  0.00     0.010 C 
ATOM      8  C   UNL     1     226.133 230.323 234.438  1.00  0.00     0.036 C 
ATOM      9  C   UNL     1     226.790 229.091 235.147  1.00  0.00     0.065 C 
ATOM     10  C   UNL     1     228.098 229.517 235.932  1.00  0.00     0.027 C 
ATOM     11  C   UNL     1     229.057 230.103 234.895  1.00  0.00     0.014 C 
ATOM     12  C   UNL     1     228.022 230.701 236.972  1.00  0.00    -0.026 C 
ATOM     13  C   UNL     1     226.766 230.709 237.873  1.00  0.00     0.012 C 
ATOM     14  C   UNL     1     229.236 230.574 237.941  1.00  0.00     0.012 C 
ATOM     15  C   UNL     1     225.770 228.365 236.058  1.00  0.00     0.042 C 
ENDROOT
BRANCH   9  16
ATOM     16  O   UNL     1     227.190 228.154 234.164  1.00  0.00    -0.390 OA
ATOM     17  H   UNL     1     227.653 227.397 234.608  1.00  0.00     0.211 HD
ENDBRANCH   9  16
TORSDOF 1
ENDMDL
MODEL 8
REMARK VINA RESULT:    -3.834     11.731     14.462
REMARK INTER + INTRA:          -3.946
REMARK INTER:                  -3.946
REMARK INTRA:                   0.000
REMARK UNBOUND:                 0.000
REMARK SMILES C[C@@H]1CC[C@@H]2C(C)(C)[C@@H]3C[C@]12CC[C@@]3(C)O
REMARK SMILES IDX 1 1 2 2 3 3 4 4 5 5 11 6 12 7 13 8 14 9 9 10 10 11 6 12 7 13
REMARK SMILES IDX 8 14 15 15 16 16
REMARK H PARENT 16 17
REMARK Flexibility Score: inf
ROOT
ATOM      1  C   UNL     1     238.698 236.576 233.392  1.00  0.00     0.008 C 
ATOM      2  C   UNL     1     239.911 236.184 234.248  1.00  0.00    -0.008 C 
ATOM      3  C   UNL     1     239.513 235.557 235.579  1.00  0.00     0.004 C 
ATOM      4  C   UNL     1     240.744 235.692 236.465  1.00  0.00     0.005 C 
ATOM      5  C   UNL     1     241.542 236.911 235.941  1.00  0.00     0.001 C 
ATOM      6  C   UNL     1     240.854 237.345 234.627  1.00  0.00    -0.023 C 
ATOM      7  C   UNL     1     241.894 237.669 233.515  1.00  0.00     0.010 C 
ATOM      8  C   UNL     1     242.923 238.734 233.968  1.00  0.00     0.036 C 
ATOM      9  C   UNL     1     242.286 239.904 234.791  1.00  0.00     0.065 C 
ATOM     10  C   UNL     1     241.212 239.357 235.819  1.00  0.00     0.027 C 
ATOM     11  C   UNL     1     240.139 238.648 234.992  1.00  0.00     0.014 C 
ATOM     12  C   UNL     1     241.621 238.212 236.825  1.00  0.00    -0.026 C 
ATOM     13  C   UNL     1     243.022 238.359 237.461  1.00  0.00     0.012 C 
ATOM     14  C   UNL     1     240.613 238.229 238.014  1.00  0.00     0.012 C 
ATOM     15  C   UNL     1     243.379 240.755 235.483  1.00  0.00     0.042 C 
ENDROOT
BRANCH   9  16
ATOM     16  O   UNL     1     241.602 240.769 233.906  1.00  0.00    -0.390 OA
ATOM     17  H   UNL     1     240.879 240.261 233.451  1.00  0.00     0.211 HD
ENDBRANCH   9  16
TORSDOF 1
ENDMDL
MODEL 9
REMARK VINA RESULT:    -3.831     10.168     13.035
REMARK INTER + INTRA:          -3.943
REMARK INTER:                  -3.943
REMARK INTRA:                   0.000
REMARK UNBOUND:                 0.000
REMARK SMILES C[C@@H]1CC[C@@H]2C(C)(C)[C@@H]3C[C@]12CC[C@@]3(C)O
REMARK SMILES IDX 1 1 2 2 3 3 4 4 5 5 11 6 12 7 13 8 14 9 9 10 10 11 6 12 7 13
REMARK SMILES IDX 8 14 15 15 16 16
REMARK H PARENT 16 17
REMARK Flexibility Score: inf
ROOT
ATOM      1  C   UNL     1     236.843 236.234 234.551  1.00  0.00     0.008 C 
ATOM      2  C   UNL     1     238.066 235.398 234.957  1.00  0.00    -0.008 C 
ATOM      3  C   UNL     1     237.921 234.780 236.342  1.00  0.00     0.004 C 
ATOM      4  C   UNL     1     239.340 234.433 236.772  1.00  0.00     0.005 C 
ATOM      5  C   UNL     1     240.285 235.400 236.018  1.00  0.00     0.001 C 
ATOM      6  C   UNL     1     239.403 236.166 235.007  1.00  0.00    -0.023 C 
ATOM      7  C   UNL     1     240.091 236.278 233.615  1.00  0.00     0.010 C 
ATOM      8  C   UNL     1     241.497 236.921 233.707  1.00  0.00     0.036 C 
ATOM      9  C   UNL     1     241.565 238.130 234.698  1.00  0.00     0.065 C 
ATOM     10  C   UNL     1     240.748 237.828 236.022  1.00  0.00     0.027 C 
ATOM     11  C   UNL     1     239.301 237.576 235.592  1.00  0.00     0.014 C 
ATOM     12  C   UNL     1     241.054 236.509 236.831  1.00  0.00    -0.026 C 
ATOM     13  C   UNL     1     242.551 236.149 236.969  1.00  0.00     0.012 C 
ATOM     14  C   UNL     1     240.530 236.701 238.286  1.00  0.00     0.012 C 
ATOM     15  C   UNL     1     243.032 238.525 234.993  1.00  0.00     0.042 C 
ENDROOT
BRANCH   9  16
ATOM     16  O   UNL     1     240.959 239.256 234.092  1.00  0.00    -0.390 OA
ATOM     17  H   UNL     1     240.838 239.075 233.123  1.00  0.00     0.211 HD
ENDBRANCH   9  16
TORSDOF 1
ENDMDL
