MODEL 1
REMARK VINA RESULT:    -6.573      0.000      0.000
REMARK INTER + INTRA:          -8.133
REMARK INTER:                  -7.726
REMARK INTRA:                  -0.407
REMARK UNBOUND:                -0.407
REMARK SMILES C=C[C@]1(C)CC[C@@H](C(=C)C)C[C@@H]1C(=C)C
REMARK SMILES IDX 7 1 6 2 5 3 3 4 12 5 11 6 4 7 8 8 10 9 9 10 13 11 14 12
REMARK SMILES IDX 15 13 2 14 1 15
REMARK H PARENT
REMARK Flexibility Score: inf
ROOT
ATOM      1  C   UNL     1      -4.154 -15.266   7.273  1.00  0.00     0.015 C 
ATOM      2  C   UNL     1      -4.708 -16.606   7.781  1.00  0.00     0.009 C 
ATOM      3  C   UNL     1      -3.782 -17.260   8.817  1.00  0.00     0.012 C 
ATOM      4  C   UNL     1      -3.460 -16.342  10.034  1.00  0.00    -0.008 C 
ATOM      5  C   UNL     1      -2.989 -14.907   9.564  1.00  0.00     0.024 C 
ATOM      6  C   UNL     1      -3.882 -14.304   8.450  1.00  0.00     0.017 C 
ATOM      7  C   UNL     1      -4.735 -16.190  10.910  1.00  0.00     0.016 C 
ENDROOT
BRANCH   1   8
ATOM      8  C   UNL     1      -5.106 -14.672   6.236  1.00  0.00    -0.077 C 
ATOM      9  C   UNL     1      -5.515 -15.451   5.005  1.00  0.00     0.039 C 
ATOM     10  C   UNL     1      -5.537 -13.409   6.385  1.00  0.00     0.008 C 
ENDBRANCH   1   8
BRANCH   5  11
ATOM     11  C   UNL     1      -1.492 -14.737   9.244  1.00  0.00    -0.077 C 
ATOM     12  C   UNL     1      -0.710 -13.825   9.845  1.00  0.00     0.008 C 
ATOM     13  C   UNL     1      -0.847 -15.619   8.205  1.00  0.00     0.039 C 
ENDBRANCH   5  11
BRANCH   4  14
ATOM     14  C   UNL     1      -2.388 -17.000  10.907  1.00  0.00    -0.028 C 
ATOM     15  C   UNL     1      -2.154 -16.645  12.180  1.00  0.00     0.004 C 
ENDBRANCH   4  14
TORSDOF 3
ENDMDL
MODEL 2
REMARK VINA RESULT:    -6.559      1.585      4.776
REMARK INTER + INTRA:          -8.116
REMARK INTER:                  -7.609
REMARK INTRA:                  -0.507
REMARK UNBOUND:                -0.407
REMARK SMILES C=C[C@]1(C)CC[C@@H](C(=C)C)C[C@@H]1C(=C)C
REMARK SMILES IDX 7 1 6 2 5 3 3 4 12 5 11 6 4 7 8 8 10 9 9 10 13 11 14 12
REMARK SMILES IDX 15 13 2 14 1 15
REMARK H PARENT
REMARK Flexibility Score: inf
ROOT
ATOM      1  C   UNL     1      -2.991 -15.466  11.779  1.00  0.00     0.015 C 
ATOM      2  C   UNL     1      -4.372 -16.133  11.698  1.00  0.00     0.009 C 
ATOM      3  C   UNL     1      -4.848 -16.304  10.248  1.00  0.00     0.012 C 
ATOM      4  C   UNL     1      -3.845 -17.088   9.350  1.00  0.00    -0.008 C 
ATOM      5  C   UNL     1      -2.379 -16.508   9.482  1.00  0.00     0.024 C 
ATOM      6  C   UNL     1      -1.952 -16.253  10.951  1.00  0.00     0.017 C 
ATOM      7  C   UNL     1      -3.835 -18.581   9.780  1.00  0.00     0.016 C 
ENDROOT
BRANCH   1   8
ATOM      8  C   UNL     1      -2.578 -15.308  13.241  1.00  0.00    -0.077 C 
ATOM      9  C   UNL     1      -2.005 -16.467  14.028  1.00  0.00     0.039 C 
ATOM     10  C   UNL     1      -2.787 -14.135  13.863  1.00  0.00     0.008 C 
ENDBRANCH   1   8
BRANCH   5  11
ATOM     11  C   UNL     1      -2.017 -15.319   8.573  1.00  0.00    -0.077 C 
ATOM     12  C   UNL     1      -1.069 -15.381   7.624  1.00  0.00     0.008 C 
ATOM     13  C   UNL     1      -2.741 -14.007   8.737  1.00  0.00     0.039 C 
ENDBRANCH   5  11
BRANCH   4  14
ATOM     14  C   UNL     1      -4.312 -17.040   7.892  1.00  0.00    -0.028 C 
ATOM     15  C   UNL     1      -5.341 -16.287   7.473  1.00  0.00     0.004 C 
ENDBRANCH   4  14
TORSDOF 3
ENDMDL
MODEL 3
REMARK VINA RESULT:    -6.437      1.057      2.947
REMARK INTER + INTRA:          -7.973
REMARK INTER:                  -7.483
REMARK INTRA:                  -0.490
REMARK UNBOUND:                -0.407
REMARK SMILES C=C[C@]1(C)CC[C@@H](C(=C)C)C[C@@H]1C(=C)C
REMARK SMILES IDX 7 1 6 2 5 3 3 4 12 5 11 6 4 7 8 8 10 9 9 10 13 11 14 12
REMARK SMILES IDX 15 13 2 14 1 15
REMARK H PARENT
REMARK Flexibility Score: inf
ROOT
ATOM      1  C   UNL     1      -4.443 -15.008   7.870  1.00  0.00     0.015 C 
ATOM      2  C   UNL     1      -3.547 -13.886   8.415  1.00  0.00     0.009 C 
ATOM      3  C   UNL     1      -2.992 -14.214   9.809  1.00  0.00     0.012 C 
ATOM      4  C   UNL     1      -2.219 -15.565   9.871  1.00  0.00    -0.008 C 
ATOM      5  C   UNL     1      -3.057 -16.738   9.219  1.00  0.00     0.024 C 
ATOM      6  C   UNL     1      -3.688 -16.355   7.856  1.00  0.00     0.017 C 
ATOM      7  C   UNL     1      -0.876 -15.420   9.102  1.00  0.00     0.016 C 
ENDROOT
BRANCH   1   8
ATOM      8  C   UNL     1      -4.978 -14.620   6.493  1.00  0.00    -0.077 C 
ATOM      9  C   UNL     1      -5.024 -15.619   5.355  1.00  0.00     0.039 C 
ATOM     10  C   UNL     1      -5.354 -13.351   6.264  1.00  0.00     0.008 C 
ENDBRANCH   1   8
BRANCH   5  11
ATOM     11  C   UNL     1      -4.069 -17.459  10.129  1.00  0.00    -0.077 C 
ATOM     12  C   UNL     1      -3.919 -18.731  10.533  1.00  0.00     0.008 C 
ATOM     13  C   UNL     1      -5.301 -16.728  10.600  1.00  0.00     0.039 C 
ENDBRANCH   5  11
BRANCH   4  14
ATOM     14  C   UNL     1      -1.874 -15.895  11.325  1.00  0.00    -0.028 C 
ATOM     15  C   UNL     1      -2.410 -15.251  12.374  1.00  0.00     0.004 C 
ENDBRANCH   4  14
TORSDOF 3
ENDMDL
MODEL 4
REMARK VINA RESULT:    -6.403      1.265      5.300
REMARK INTER + INTRA:          -7.932
REMARK INTER:                  -7.830
REMARK INTRA:                  -0.102
REMARK UNBOUND:                -0.407
REMARK SMILES C=C[C@]1(C)CC[C@@H](C(=C)C)C[C@@H]1C(=C)C
REMARK SMILES IDX 7 1 6 2 5 3 3 4 12 5 11 6 4 7 8 8 10 9 9 10 13 11 14 12
REMARK SMILES IDX 15 13 2 14 1 15
REMARK H PARENT
REMARK Flexibility Score: inf
ROOT
ATOM      1  C   UNL     1      -2.257 -16.363  11.318  1.00  0.00     0.015 C 
ATOM      2  C   UNL     1      -1.153 -15.580  10.594  1.00  0.00     0.009 C 
ATOM      3  C   UNL     1      -1.394 -15.505   9.079  1.00  0.00     0.012 C 
ATOM      4  C   UNL     1      -2.782 -14.910   8.696  1.00  0.00    -0.008 C 
ATOM      5  C   UNL     1      -3.950 -15.610   9.501  1.00  0.00     0.024 C 
ATOM      6  C   UNL     1      -3.647 -15.761  11.013  1.00  0.00     0.017 C 
ATOM      7  C   UNL     1      -2.791 -13.390   9.019  1.00  0.00     0.016 C 
ENDROOT
BRANCH   1   8
ATOM      8  C   UNL     1      -1.957 -16.418  12.815  1.00  0.00    -0.077 C 
ATOM      9  C   UNL     1      -1.283 -17.621  13.439  1.00  0.00     0.039 C 
ATOM     10  C   UNL     1      -2.358 -15.409  13.606  1.00  0.00     0.008 C 
ENDBRANCH   1   8
BRANCH   5  11
ATOM     11  C   UNL     1      -4.523 -16.910   8.905  1.00  0.00    -0.077 C 
ATOM     12  C   UNL     1      -5.771 -17.009   8.419  1.00  0.00     0.008 C 
ATOM     13  C   UNL     1      -3.665 -18.149   8.859  1.00  0.00     0.039 C 
ENDBRANCH   5  11
BRANCH   4  14
ATOM     14  C   UNL     1      -3.006 -15.053   7.188  1.00  0.00    -0.028 C 
ATOM     15  C   UNL     1      -4.138 -14.678   6.573  1.00  0.00     0.004 C 
ENDBRANCH   4  14
TORSDOF 3
ENDMDL
MODEL 5
REMARK VINA RESULT:    -6.118      1.653      5.183
REMARK INTER + INTRA:          -7.598
REMARK INTER:                  -7.111
REMARK INTRA:                  -0.487
REMARK UNBOUND:                -0.407
REMARK SMILES C=C[C@]1(C)CC[C@@H](C(=C)C)C[C@@H]1C(=C)C
REMARK SMILES IDX 7 1 6 2 5 3 3 4 12 5 11 6 4 7 8 8 10 9 9 10 13 11 14 12
REMARK SMILES IDX 15 13 2 14 1 15
REMARK H PARENT
REMARK Flexibility Score: inf
ROOT
ATOM      1  C   UNL     1      -2.448 -16.618  11.410  1.00  0.00     0.015 C 
ATOM      2  C   UNL     1      -3.335 -15.367  11.330  1.00  0.00     0.009 C 
ATOM      3  C   UNL     1      -3.867 -15.125   9.910  1.00  0.00     0.012 C 
ATOM      4  C   UNL     1      -4.639 -16.341   9.316  1.00  0.00    -0.008 C 
ATOM      5  C   UNL     1      -3.812 -17.680   9.474  1.00  0.00     0.024 C 
ATOM      6  C   UNL     1      -3.203 -17.861  10.888  1.00  0.00     0.017 C 
ATOM      7  C   UNL     1      -5.994 -16.497  10.060  1.00  0.00     0.016 C 
ENDROOT
BRANCH   1   8
ATOM      8  C   UNL     1      -1.936 -16.799  12.838  1.00  0.00    -0.077 C 
ATOM      9  C   UNL     1      -1.232 -18.068  13.267  1.00  0.00     0.039 C 
ATOM     10  C   UNL     1      -2.173 -15.841  13.750  1.00  0.00     0.008 C 
ENDBRANCH   1   8
BRANCH   5  11
ATOM     11  C   UNL     1      -2.785 -17.998   8.371  1.00  0.00    -0.077 C 
ATOM     12  C   UNL     1      -2.815 -19.125   7.641  1.00  0.00     0.008 C 
ATOM     13  C   UNL     1      -1.678 -17.017   8.079  1.00  0.00     0.039 C 
ENDBRANCH   5  11
BRANCH   4  14
ATOM     14  C   UNL     1      -4.960 -16.078   7.842  1.00  0.00    -0.028 C 
ATOM     15  C   UNL     1      -4.838 -14.873   7.265  1.00  0.00     0.004 C 
ENDBRANCH   4  14
TORSDOF 3
ENDMDL
MODEL 6
REMARK VINA RESULT:    -5.656      1.334      1.989
REMARK INTER + INTRA:          -7.054
REMARK INTER:                  -6.583
REMARK INTRA:                  -0.472
REMARK UNBOUND:                -0.407
REMARK SMILES C=C[C@]1(C)CC[C@@H](C(=C)C)C[C@@H]1C(=C)C
REMARK SMILES IDX 7 1 6 2 5 3 3 4 12 5 11 6 4 7 8 8 10 9 9 10 13 11 14 12
REMARK SMILES IDX 15 13 2 14 1 15
REMARK H PARENT
REMARK Flexibility Score: inf
ROOT
ATOM      1  C   UNL     1      -3.604 -15.275   8.051  1.00  0.00     0.015 C 
ATOM      2  C   UNL     1      -3.150 -16.732   7.887  1.00  0.00     0.009 C 
ATOM      3  C   UNL     1      -2.207 -17.177   9.015  1.00  0.00     0.012 C 
ATOM      4  C   UNL     1      -2.804 -16.982  10.441  1.00  0.00    -0.008 C 
ATOM      5  C   UNL     1      -3.388 -15.523  10.626  1.00  0.00     0.024 C 
ATOM      6  C   UNL     1      -4.260 -15.057   9.432  1.00  0.00     0.017 C 
ATOM      7  C   UNL     1      -3.946 -18.012  10.660  1.00  0.00     0.016 C 
ENDROOT
BRANCH   1   8
ATOM      8  C   UNL     1      -4.524 -14.885   6.896  1.00  0.00    -0.077 C 
ATOM      9  C   UNL     1      -5.101 -13.490   6.784  1.00  0.00     0.039 C 
ATOM     10  C   UNL     1      -4.883 -15.816   5.996  1.00  0.00     0.008 C 
ENDBRANCH   1   8
BRANCH   5  11
ATOM     11  C   UNL     1      -2.398 -14.428  11.065  1.00  0.00    -0.077 C 
ATOM     12  C   UNL     1      -1.570 -13.801  10.214  1.00  0.00     0.008 C 
ATOM     13  C   UNL     1      -2.328 -14.025  12.516  1.00  0.00     0.039 C 
ENDBRANCH   5  11
BRANCH   4  14
ATOM     14  C   UNL     1      -1.729 -17.268  11.493  1.00  0.00    -0.028 C 
ATOM     15  C   UNL     1      -2.007 -17.707  12.730  1.00  0.00     0.004 C 
ENDBRANCH   4  14
TORSDOF 3
ENDMDL
MODEL 7
REMARK VINA RESULT:    -5.549      1.181      4.293
REMARK INTER + INTRA:          -6.929
REMARK INTER:                  -6.391
REMARK INTRA:                  -0.539
REMARK UNBOUND:                -0.407
REMARK SMILES C=C[C@]1(C)CC[C@@H](C(=C)C)C[C@@H]1C(=C)C
REMARK SMILES IDX 7 1 6 2 5 3 3 4 12 5 11 6 4 7 8 8 10 9 9 10 13 11 14 12
REMARK SMILES IDX 15 13 2 14 1 15
REMARK H PARENT
REMARK Flexibility Score: inf
ROOT
ATOM      1  C   UNL     1      -2.091 -14.454   9.193  1.00  0.00     0.015 C 
ATOM      2  C   UNL     1      -2.549 -15.365  10.342  1.00  0.00     0.009 C 
ATOM      3  C   UNL     1      -3.954 -15.937  10.102  1.00  0.00     0.012 C 
ATOM      4  C   UNL     1      -4.095 -16.702   8.752  1.00  0.00    -0.008 C 
ATOM      5  C   UNL     1      -3.533 -15.847   7.545  1.00  0.00     0.024 C 
ATOM      6  C   UNL     1      -2.156 -15.200   7.842  1.00  0.00     0.017 C 
ATOM      7  C   UNL     1      -3.300 -18.035   8.836  1.00  0.00     0.016 C 
ENDROOT
BRANCH   1   8
ATOM      8  C   UNL     1      -0.698 -13.903   9.493  1.00  0.00    -0.077 C 
ATOM      9  C   UNL     1       0.550 -14.690   9.156  1.00  0.00     0.039 C 
ATOM     10  C   UNL     1      -0.578 -12.726  10.130  1.00  0.00     0.008 C 
ENDBRANCH   1   8
BRANCH   5  11
ATOM     11  C   UNL     1      -4.502 -14.843   6.894  1.00  0.00    -0.077 C 
ATOM     12  C   UNL     1      -4.769 -13.634   7.415  1.00  0.00     0.008 C 
ATOM     13  C   UNL     1      -5.204 -15.210   5.611  1.00  0.00     0.039 C 
ENDBRANCH   5  11
BRANCH   4  14
ATOM     14  C   UNL     1      -5.563 -17.065   8.516  1.00  0.00    -0.028 C 
ATOM     15  C   UNL     1      -6.551 -16.724   9.358  1.00  0.00     0.004 C 
ENDBRANCH   4  14
TORSDOF 3
ENDMDL
MODEL 8
REMARK VINA RESULT:    -5.369      1.407      4.907
REMARK INTER + INTRA:          -6.718
REMARK INTER:                  -7.095
REMARK INTRA:                   0.377
REMARK UNBOUND:                -0.407
REMARK SMILES C=C[C@]1(C)CC[C@@H](C(=C)C)C[C@@H]1C(=C)C
REMARK SMILES IDX 7 1 6 2 5 3 3 4 12 5 11 6 4 7 8 8 10 9 9 10 13 11 14 12
REMARK SMILES IDX 15 13 2 14 1 15
REMARK H PARENT
REMARK Flexibility Score: inf
ROOT
ATOM      1  C   UNL     1      -2.438 -14.831   9.995  1.00  0.00     0.015 C 
ATOM      2  C   UNL     1      -2.235 -13.969   8.740  1.00  0.00     0.009 C 
ATOM      3  C   UNL     1      -2.603 -14.723   7.454  1.00  0.00     0.012 C 
ATOM      4  C   UNL     1      -4.055 -15.291   7.458  1.00  0.00    -0.008 C 
ATOM      5  C   UNL     1      -4.353 -16.098   8.786  1.00  0.00     0.024 C 
ATOM      6  C   UNL     1      -3.886 -15.361  10.067  1.00  0.00     0.017 C 
ATOM      7  C   UNL     1      -5.063 -14.114   7.348  1.00  0.00     0.016 C 
ENDROOT
BRANCH   1   8
ATOM      8  C   UNL     1      -2.040 -14.037  11.238  1.00  0.00    -0.077 C 
ATOM      9  C   UNL     1      -2.405 -14.514  12.628  1.00  0.00     0.039 C 
ATOM     10  C   UNL     1      -1.412 -12.858  11.095  1.00  0.00     0.008 C 
ENDBRANCH   1   8
BRANCH   5  11
ATOM     11  C   UNL     1      -3.942 -17.582   8.804  1.00  0.00    -0.077 C 
ATOM     12  C   UNL     1      -3.519 -18.242   7.714  1.00  0.00     0.008 C 
ATOM     13  C   UNL     1      -4.016 -18.359  10.094  1.00  0.00     0.039 C 
ENDBRANCH   5  11
BRANCH   4  14
ATOM     14  C   UNL     1      -4.262 -16.181   6.229  1.00  0.00    -0.028 C 
ATOM     15  C   UNL     1      -5.057 -15.845   5.202  1.00  0.00     0.004 C 
ENDBRANCH   4  14
TORSDOF 3
ENDMDL
