MODEL 1
REMARK VINA RESULT:    -6.514      0.000      0.000
REMARK INTER + INTRA:          -7.116
REMARK INTER:                  -6.895
REMARK INTRA:                  -0.220
REMARK UNBOUND:                -0.220
REMARK SMILES O=c1cc(-c2ccccc2)oc2ccccc12
REMARK SMILES IDX 4 1 3 2 2 3 1 4 17 5 16 6 15 7 14 8 13 9 12 10 11 11 5 12
REMARK SMILES IDX 8 13 7 14 9 15 6 16 10 17
REMARK H PARENT
REMARK Flexibility Score: inf
ROOT
ATOM      1  C   UNL     1     135.042 102.046  94.297  1.00  0.00     0.138 A 
ATOM      2  C   UNL     1     135.955 103.111  94.142  1.00  0.00     0.100 A 
ATOM      3  C   UNL     1     137.321 102.878  94.319  1.00  0.00     0.193 A 
ATOM      4  O   UNL     1     138.137 103.830  94.180  1.00  0.00    -0.289 OA
ATOM      5  C   UNL     1     137.764 101.589  94.645  1.00  0.00     0.065 A 
ATOM      6  C   UNL     1     139.126 101.288  94.837  1.00  0.00     0.016 A 
ATOM      7  C   UNL     1     139.515  99.984  95.162  1.00  0.00     0.001 A 
ATOM      8  C   UNL     1     138.554  98.977  95.300  1.00  0.00     0.004 A 
ATOM      9  C   UNL     1     137.200  99.268  95.112  1.00  0.00     0.048 A 
ATOM     10  C   UNL     1     136.800 100.569  94.785  1.00  0.00     0.138 A 
ATOM     11  O   UNL     1     135.509 100.836  94.609  1.00  0.00    -0.456 OA
ENDROOT
BRANCH   1  12
ATOM     12  C   UNL     1     133.565 102.209  94.126  1.00  0.00     0.017 A 
ATOM     13  C   UNL     1     130.771 102.539  93.901  1.00  0.00     0.000 A 
ATOM     14  C   UNL     1     131.525 102.185  92.782  1.00  0.00     0.001 A 
ATOM     15  C   UNL     1     131.399 102.730  95.130  1.00  0.00     0.001 A 
ATOM     16  C   UNL     1     132.911 102.020  92.888  1.00  0.00     0.012 A 
ATOM     17  C   UNL     1     132.783 102.567  95.245  1.00  0.00     0.012 A 
ENDBRANCH   1  12
TORSDOF 1
ENDMDL
MODEL 2
REMARK VINA RESULT:    -6.481      1.396      6.123
REMARK INTER + INTRA:          -7.080
REMARK INTER:                  -6.851
REMARK INTRA:                  -0.229
REMARK UNBOUND:                -0.220
REMARK SMILES O=c1cc(-c2ccccc2)oc2ccccc12
REMARK SMILES IDX 4 1 3 2 2 3 1 4 17 5 16 6 15 7 14 8 13 9 12 10 11 11 5 12
REMARK SMILES IDX 8 13 7 14 9 15 6 16 10 17
REMARK H PARENT
REMARK Flexibility Score: inf
ROOT
ATOM      1  C   UNL     1     135.310 101.122  94.045  1.00  0.00     0.138 A 
ATOM      2  C   UNL     1     134.894 101.010  92.701  1.00  0.00     0.100 A 
ATOM      3  C   UNL     1     133.671 101.560  92.311  1.00  0.00     0.193 A 
ATOM      4  O   UNL     1     133.300 101.459  91.109  1.00  0.00    -0.289 OA
ATOM      5  C   UNL     1     132.876 102.216  93.260  1.00  0.00     0.065 A 
ATOM      6  C   UNL     1     131.633 102.791  92.931  1.00  0.00     0.016 A 
ATOM      7  C   UNL     1     130.878 103.434  93.918  1.00  0.00     0.001 A 
ATOM      8  C   UNL     1     131.352 103.507  95.232  1.00  0.00     0.004 A 
ATOM      9  C   UNL     1     132.585 102.939  95.565  1.00  0.00     0.048 A 
ATOM     10  C   UNL     1     133.349 102.292  94.586  1.00  0.00     0.138 A 
ATOM     11  O   UNL     1     134.520 101.755  94.914  1.00  0.00    -0.456 OA
ENDROOT
BRANCH   1  12
ATOM     12  C   UNL     1     136.604 100.563  94.546  1.00  0.00     0.017 A 
ATOM     13  C   UNL     1     139.009  99.416  95.475  1.00  0.00     0.000 A 
ATOM     14  C   UNL     1     138.858 100.802  95.456  1.00  0.00     0.001 A 
ATOM     15  C   UNL     1     137.971  98.598  95.035  1.00  0.00     0.001 A 
ATOM     16  C   UNL     1     137.668 101.377  94.997  1.00  0.00     0.012 A 
ATOM     17  C   UNL     1     136.778  99.163  94.574  1.00  0.00     0.012 A 
ENDBRANCH   1  12
TORSDOF 1
ENDMDL
MODEL 3
REMARK VINA RESULT:    -6.394      1.540      5.623
REMARK INTER + INTRA:          -6.988
REMARK INTER:                  -6.756
REMARK INTRA:                  -0.233
REMARK UNBOUND:                -0.220
REMARK SMILES O=c1cc(-c2ccccc2)oc2ccccc12
REMARK SMILES IDX 4 1 3 2 2 3 1 4 17 5 16 6 15 7 14 8 13 9 12 10 11 11 5 12
REMARK SMILES IDX 8 13 7 14 9 15 6 16 10 17
REMARK H PARENT
REMARK Flexibility Score: inf
ROOT
ATOM      1  C   UNL     1     135.691 101.602  94.514  1.00  0.00     0.138 A 
ATOM      2  C   UNL     1     136.331 102.860  94.511  1.00  0.00     0.100 A 
ATOM      3  C   UNL     1     135.563 104.022  94.610  1.00  0.00     0.193 A 
ATOM      4  O   UNL     1     136.135 105.146  94.608  1.00  0.00    -0.289 OA
ATOM      5  C   UNL     1     134.169 103.922  94.712  1.00  0.00     0.065 A 
ATOM      6  C   UNL     1     133.339 105.055  94.815  1.00  0.00     0.016 A 
ATOM      7  C   UNL     1     131.952 104.899  94.914  1.00  0.00     0.001 A 
ATOM      8  C   UNL     1     131.386 103.619  94.910  1.00  0.00     0.004 A 
ATOM      9  C   UNL     1     132.204 102.491  94.809  1.00  0.00     0.048 A 
ATOM     10  C   UNL     1     133.593 102.635  94.709  1.00  0.00     0.138 A 
ATOM     11  O   UNL     1     134.361 101.555  94.613  1.00  0.00    -0.456 OA
ENDROOT
BRANCH   1  12
ATOM     12  C   UNL     1     136.436 100.309  94.412  1.00  0.00     0.017 A 
ATOM     13  C   UNL     1     137.795  97.851  94.135  1.00  0.00     0.000 A 
ATOM     14  C   UNL     1     138.055  98.673  95.232  1.00  0.00     0.001 A 
ATOM     15  C   UNL     1     136.865  98.246  93.176  1.00  0.00     0.001 A 
ATOM     16  C   UNL     1     137.384  99.893  95.375  1.00  0.00     0.012 A 
ATOM     17  C   UNL     1     136.190  99.463  93.311  1.00  0.00     0.012 A 
ENDBRANCH   1  12
TORSDOF 1
ENDMDL
MODEL 4
REMARK VINA RESULT:    -5.943      1.961      2.936
REMARK INTER + INTRA:          -6.511
REMARK INTER:                  -6.283
REMARK INTRA:                  -0.228
REMARK UNBOUND:                -0.220
REMARK SMILES O=c1cc(-c2ccccc2)oc2ccccc12
REMARK SMILES IDX 4 1 3 2 2 3 1 4 17 5 16 6 15 7 14 8 13 9 12 10 11 11 5 12
REMARK SMILES IDX 8 13 7 14 9 15 6 16 10 17
REMARK H PARENT
REMARK Flexibility Score: inf
ROOT
ATOM      1  C   UNL     1     134.610 101.629  93.703  1.00  0.00     0.138 A 
ATOM      2  C   UNL     1     134.493 100.950  92.471  1.00  0.00     0.100 A 
ATOM      3  C   UNL     1     135.301  99.840  92.217  1.00  0.00     0.193 A 
ATOM      4  O   UNL     1     135.195  99.234  91.116  1.00  0.00    -0.289 OA
ATOM      5  C   UNL     1     136.215  99.415  93.190  1.00  0.00     0.065 A 
ATOM      6  C   UNL     1     137.059  98.304  92.997  1.00  0.00     0.016 A 
ATOM      7  C   UNL     1     137.954  97.924  94.001  1.00  0.00     0.001 A 
ATOM      8  C   UNL     1     138.017  98.643  95.199  1.00  0.00     0.004 A 
ATOM      9  C   UNL     1     137.183  99.747  95.398  1.00  0.00     0.048 A 
ATOM     10  C   UNL     1     136.283 100.138  94.400  1.00  0.00     0.138 A 
ATOM     11  O   UNL     1     135.495 101.190  94.600  1.00  0.00    -0.456 OA
ENDROOT
BRANCH   1  12
ATOM     12  C   UNL     1     133.784 102.825  94.056  1.00  0.00     0.017 A 
ATOM     13  C   UNL     1     132.274 105.134  94.652  1.00  0.00     0.000 A 
ATOM     14  C   UNL     1     132.041 103.948  95.347  1.00  0.00     0.001 A 
ATOM     15  C   UNL     1     133.254 105.177  93.661  1.00  0.00     0.001 A 
ATOM     16  C   UNL     1     132.786 102.800  95.056  1.00  0.00     0.012 A 
ATOM     17  C   UNL     1     134.003 104.035  93.364  1.00  0.00     0.012 A 
ENDBRANCH   1  12
TORSDOF 1
ENDMDL
MODEL 5
REMARK VINA RESULT:    -5.916      3.639      4.282
REMARK INTER + INTRA:          -6.482
REMARK INTER:                  -6.261
REMARK INTRA:                  -0.221
REMARK UNBOUND:                -0.220
REMARK SMILES O=c1cc(-c2ccccc2)oc2ccccc12
REMARK SMILES IDX 4 1 3 2 2 3 1 4 17 5 16 6 15 7 14 8 13 9 12 10 11 11 5 12
REMARK SMILES IDX 8 13 7 14 9 15 6 16 10 17
REMARK H PARENT
REMARK Flexibility Score: inf
ROOT
ATOM      1  C   UNL     1     135.762  98.857  92.007  1.00  0.00     0.138 A 
ATOM      2  C   UNL     1     136.677  99.498  91.145  1.00  0.00     0.100 A 
ATOM      3  C   UNL     1     137.810 100.114  91.679  1.00  0.00     0.193 A 
ATOM      4  O   UNL     1     138.628 100.687  90.908  1.00  0.00    -0.289 OA
ATOM      5  C   UNL     1     138.023 100.085  93.064  1.00  0.00     0.065 A 
ATOM      6  C   UNL     1     139.145 100.687  93.666  1.00  0.00     0.016 A 
ATOM      7  C   UNL     1     139.309 100.629  95.054  1.00  0.00     0.001 A 
ATOM      8  C   UNL     1     138.361  99.976  95.848  1.00  0.00     0.004 A 
ATOM      9  C   UNL     1     137.245  99.376  95.258  1.00  0.00     0.048 A 
ATOM     10  C   UNL     1     137.070  99.428  93.870  1.00  0.00     0.138 A 
ATOM     11  O   UNL     1     136.005  98.855  93.319  1.00  0.00    -0.456 OA
ENDROOT
BRANCH   1  12
ATOM     12  C   UNL     1     134.525  98.174  91.518  1.00  0.00     0.017 A 
ATOM     13  C   UNL     1     132.237  96.798  90.603  1.00  0.00     0.000 A 
ATOM     14  C   UNL     1     132.207  98.185  90.747  1.00  0.00     0.001 A 
ATOM     15  C   UNL     1     133.398  96.092  90.912  1.00  0.00     0.001 A 
ATOM     16  C   UNL     1     133.338  98.872  91.200  1.00  0.00     0.012 A 
ATOM     17  C   UNL     1     134.533  96.771  91.365  1.00  0.00     0.012 A 
ENDBRANCH   1  12
TORSDOF 1
ENDMDL
MODEL 6
REMARK VINA RESULT:    -5.773      1.607      5.847
REMARK INTER + INTRA:          -6.330
REMARK INTER:                  -6.074
REMARK INTRA:                  -0.256
REMARK UNBOUND:                -0.220
REMARK SMILES O=c1cc(-c2ccccc2)oc2ccccc12
REMARK SMILES IDX 4 1 3 2 2 3 1 4 17 5 16 6 15 7 14 8 13 9 12 10 11 11 5 12
REMARK SMILES IDX 8 13 7 14 9 15 6 16 10 17
REMARK H PARENT
REMARK Flexibility Score: inf
ROOT
ATOM      1  C   UNL     1     135.602 101.541  94.419  1.00  0.00     0.138 A 
ATOM      2  C   UNL     1     135.383 102.777  95.064  1.00  0.00     0.100 A 
ATOM      3  C   UNL     1     134.281 103.555  94.705  1.00  0.00     0.193 A 
ATOM      4  O   UNL     1     134.086 104.660  95.283  1.00  0.00    -0.289 OA
ATOM      5  C   UNL     1     133.407 103.097  93.710  1.00  0.00     0.065 A 
ATOM      6  C   UNL     1     132.278 103.833  93.303  1.00  0.00     0.016 A 
ATOM      7  C   UNL     1     131.439 103.330  92.304  1.00  0.00     0.001 A 
ATOM      8  C   UNL     1     131.717 102.096  91.706  1.00  0.00     0.004 A 
ATOM      9  C   UNL     1     132.835 101.360  92.106  1.00  0.00     0.048 A 
ATOM     10  C   UNL     1     133.683 101.853  93.105  1.00  0.00     0.138 A 
ATOM     11  O   UNL     1     134.744 101.145  93.477  1.00  0.00    -0.456 OA
ENDROOT
BRANCH   1  12
ATOM     12  C   UNL     1     136.756 100.647  94.742  1.00  0.00     0.017 A 
ATOM     13  C   UNL     1     138.987  99.039  95.377  1.00  0.00     0.000 A 
ATOM     14  C   UNL     1     137.810  98.450  94.915  1.00  0.00     0.001 A 
ATOM     15  C   UNL     1     139.060 100.423  95.525  1.00  0.00     0.001 A 
ATOM     16  C   UNL     1     136.701  99.242  94.598  1.00  0.00     0.012 A 
ATOM     17  C   UNL     1     137.956 101.222  95.211  1.00  0.00     0.012 A 
ENDBRANCH   1  12
TORSDOF 1
ENDMDL
MODEL 7
REMARK VINA RESULT:    -5.701      5.108      8.191
REMARK INTER + INTRA:          -6.255
REMARK INTER:                  -6.028
REMARK INTRA:                  -0.227
REMARK UNBOUND:                -0.220
REMARK SMILES O=c1cc(-c2ccccc2)oc2ccccc12
REMARK SMILES IDX 4 1 3 2 2 3 1 4 17 5 16 6 15 7 14 8 13 9 12 10 11 11 5 12
REMARK SMILES IDX 8 13 7 14 9 15 6 16 10 17
REMARK H PARENT
REMARK Flexibility Score: inf
ROOT
ATOM      1  C   UNL     1     133.867  97.741  91.122  1.00  0.00     0.138 A 
ATOM      2  C   UNL     1     133.592  96.357  91.088  1.00  0.00     0.100 A 
ATOM      3  C   UNL     1     132.266  95.920  91.053  1.00  0.00     0.193 A 
ATOM      4  O   UNL     1     132.021  94.683  91.022  1.00  0.00    -0.289 OA
ATOM      5  C   UNL     1     131.228  96.862  91.049  1.00  0.00     0.065 A 
ATOM      6  C   UNL     1     129.872  96.487  91.014  1.00  0.00     0.016 A 
ATOM      7  C   UNL     1     128.875  97.468  91.014  1.00  0.00     0.001 A 
ATOM      8  C   UNL     1     129.221  98.823  91.049  1.00  0.00     0.004 A 
ATOM      9  C   UNL     1     130.566  99.203  91.083  1.00  0.00     0.048 A 
ATOM     10  C   UNL     1     131.572  98.230  91.085  1.00  0.00     0.138 A 
ATOM     11  O   UNL     1     132.847  98.602  91.118  1.00  0.00    -0.456 OA
ENDROOT
BRANCH   1  12
ATOM     12  C   UNL     1     135.256  98.294  91.161  1.00  0.00     0.017 A 
ATOM     13  C   UNL     1     137.861  99.366  91.329  1.00  0.00     0.000 A 
ATOM     14  C   UNL     1     137.432  98.755  90.151  1.00  0.00     0.001 A 
ATOM     15  C   UNL     1     137.002  99.446  92.424  1.00  0.00     0.001 A 
ATOM     16  C   UNL     1     136.141  98.222  90.062  1.00  0.00     0.012 A 
ATOM     17  C   UNL     1     135.711  98.916  92.343  1.00  0.00     0.012 A 
ENDBRANCH   1  12
TORSDOF 1
ENDMDL
MODEL 8
REMARK VINA RESULT:    -5.564      1.352      2.743
REMARK INTER + INTRA:          -6.110
REMARK INTER:                  -5.889
REMARK INTRA:                  -0.221
REMARK UNBOUND:                -0.220
REMARK SMILES O=c1cc(-c2ccccc2)oc2ccccc12
REMARK SMILES IDX 4 1 3 2 2 3 1 4 17 5 16 6 15 7 14 8 13 9 12 10 11 11 5 12
REMARK SMILES IDX 8 13 7 14 9 15 6 16 10 17
REMARK H PARENT
REMARK Flexibility Score: inf
ROOT
ATOM      1  C   UNL     1     135.597 101.640  94.323  1.00  0.00     0.138 A 
ATOM      2  C   UNL     1     136.061 100.361  94.698  1.00  0.00     0.100 A 
ATOM      3  C   UNL     1     137.434 100.111  94.734  1.00  0.00     0.193 A 
ATOM      4  O   UNL     1     137.848  98.968  95.070  1.00  0.00    -0.289 OA
ATOM      5  C   UNL     1     138.331 101.133  94.397  1.00  0.00     0.065 A 
ATOM      6  C   UNL     1     139.726 100.946  94.412  1.00  0.00     0.016 A 
ATOM      7  C   UNL     1     140.577 102.001  94.066  1.00  0.00     0.001 A 
ATOM      8  C   UNL     1     140.047 103.243  93.703  1.00  0.00     0.004 A 
ATOM      9  C   UNL     1     138.663 103.437  93.686  1.00  0.00     0.048 A 
ATOM     10  C   UNL     1     137.801 102.388  94.030  1.00  0.00     0.138 A 
ATOM     11  O   UNL     1     136.487 102.583  94.009  1.00  0.00    -0.456 OA
ENDROOT
BRANCH   1  12
ATOM     12  C   UNL     1     134.144 101.993  94.259  1.00  0.00     0.017 A 
ATOM     13  C   UNL     1     131.405 102.637  94.041  1.00  0.00     0.000 A 
ATOM     14  C   UNL     1     132.050 102.737  95.274  1.00  0.00     0.001 A 
ATOM     15  C   UNL     1     132.115 102.218  92.917  1.00  0.00     0.001 A 
ATOM     16  C   UNL     1     133.408 102.419  95.388  1.00  0.00     0.012 A 
ATOM     17  C   UNL     1     133.472 101.898  93.022  1.00  0.00     0.012 A 
ENDBRANCH   1  12
TORSDOF 1
ENDMDL
MODEL 9
REMARK VINA RESULT:    -5.479      5.244      7.835
REMARK INTER + INTRA:          -6.019
REMARK INTER:                  -5.785
REMARK INTRA:                  -0.234
REMARK UNBOUND:                -0.220
REMARK SMILES O=c1cc(-c2ccccc2)oc2ccccc12
REMARK SMILES IDX 4 1 3 2 2 3 1 4 17 5 16 6 15 7 14 8 13 9 12 10 11 11 5 12
REMARK SMILES IDX 8 13 7 14 9 15 6 16 10 17
REMARK H PARENT
REMARK Flexibility Score: inf
ROOT
ATOM      1  C   UNL     1     133.574  98.370  91.098  1.00  0.00     0.138 A 
ATOM      2  C   UNL     1     132.507  99.293  91.102  1.00  0.00     0.100 A 
ATOM      3  C   UNL     1     131.192  98.825  91.078  1.00  0.00     0.193 A 
ATOM      4  O   UNL     1     130.238  99.650  91.083  1.00  0.00    -0.289 OA
ATOM      5  C   UNL     1     130.951  97.444  91.050  1.00  0.00     0.065 A 
ATOM      6  C   UNL     1     129.650  96.907  91.025  1.00  0.00     0.016 A 
ATOM      7  C   UNL     1     129.466  95.521  90.997  1.00  0.00     0.001 A 
ATOM      8  C   UNL     1     130.572  94.664  90.993  1.00  0.00     0.004 A 
ATOM      9  C   UNL     1     131.866  95.190  91.019  1.00  0.00     0.048 A 
ATOM     10  C   UNL     1     132.063  96.576  91.047  1.00  0.00     0.138 A 
ATOM     11  O   UNL     1     133.298  97.065  91.070  1.00  0.00    -0.456 OA
ENDROOT
BRANCH   1  12
ATOM     12  C   UNL     1     135.011  98.786  91.122  1.00  0.00     0.017 A 
ATOM     13  C   UNL     1     137.733  99.521  91.254  1.00  0.00     0.000 A 
ATOM     14  C   UNL     1     136.944  99.950  90.186  1.00  0.00     0.001 A 
ATOM     15  C   UNL     1     137.175  98.729  92.255  1.00  0.00     0.001 A 
ATOM     16  C   UNL     1     135.594  99.589  90.116  1.00  0.00     0.012 A 
ATOM     17  C   UNL     1     135.827  98.363  92.193  1.00  0.00     0.012 A 
ENDBRANCH   1  12
TORSDOF 1
ENDMDL
