MODEL 1
REMARK VINA RESULT:    -0.052      0.000      0.000
REMARK INTER + INTRA:           0.332
REMARK INTER:                  -0.064
REMARK INTRA:                   0.396
REMARK UNBOUND:                 0.396
REMARK SMILES O=C1c2c(O)cc(O)cc2O[C@H](c2cc(O)c(O)c(O)c2)[C@@H]1O
REMARK SMILES IDX 12 1 22 2 2 3 1 4 3 5 4 6 6 7 7 8 9 9 10 10 11 11 13 12
REMARK SMILES IDX 14 13 15 14 21 15 17 16 19 17 16 18 18 20 20 22 23 24 5 26
REMARK SMILES IDX 8 28
REMARK H PARENT 16 19 18 21 20 23 23 25 5 27 8 29
REMARK Flexibility Score: inf
ROOT
ATOM      1  C   UNL     1     -31.157 -19.423 -33.574  1.00  0.00     0.240 C 
ATOM      2  C   UNL     1     -29.870 -20.062 -33.004  1.00  0.00     0.231 C 
ATOM      3  C   UNL     1     -30.209 -20.940 -31.834  1.00  0.00     0.202 C 
ATOM      4  O   UNL     1     -29.739 -22.107 -31.761  1.00  0.00    -0.291 OA
ATOM      5  C   UNL     1     -31.149 -20.419 -30.815  1.00  0.00     0.105 A 
ATOM      6  C   UNL     1     -31.222 -20.904 -29.484  1.00  0.00     0.133 A 
ATOM      7  C   UNL     1     -32.204 -20.401 -28.621  1.00  0.00     0.093 A 
ATOM      8  C   UNL     1     -33.076 -19.394 -29.038  1.00  0.00     0.123 A 
ATOM      9  C   UNL     1     -32.977 -18.883 -30.336  1.00  0.00     0.093 A 
ATOM     10  C   UNL     1     -32.027 -19.394 -31.225  1.00  0.00     0.138 A 
ATOM     11  O   UNL     1     -31.972 -18.876 -32.529  1.00  0.00    -0.481 OA
ENDROOT
BRANCH   1  12
ATOM     12  C   UNL     1     -31.957 -20.391 -34.431  1.00  0.00     0.003 A 
ATOM     13  C   UNL     1     -32.693 -19.905 -35.523  1.00  0.00     0.058 A 
ATOM     14  C   UNL     1     -33.416 -20.768 -36.352  1.00  0.00     0.161 A 
ATOM     15  C   UNL     1     -31.939 -21.775 -34.191  1.00  0.00     0.058 A 
ATOM     16  C   UNL     1     -33.403 -22.160 -36.094  1.00  0.00     0.200 A 
ATOM     17  C   UNL     1     -32.656 -22.652 -35.009  1.00  0.00     0.161 A 
BRANCH  14  18
ATOM     18  O   UNL     1     -34.125 -20.204 -37.416  1.00  0.00    -0.504 OA
ATOM     19  H   UNL     1     -34.061 -19.234 -37.689  1.00  0.00     0.293 HD
ENDBRANCH  14  18
BRANCH  16  20
ATOM     20  O   UNL     1     -34.108 -23.072 -36.884  1.00  0.00    -0.502 OA
ATOM     21  H   UNL     1     -34.997 -22.875 -37.321  1.00  0.00     0.293 HD
ENDBRANCH  16  20
BRANCH  17  22
ATOM     22  O   UNL     1     -32.612 -24.017 -34.726  1.00  0.00    -0.504 OA
ATOM     23  H   UNL     1     -32.550 -24.373 -33.781  1.00  0.00     0.293 HD
ENDBRANCH  17  22
ENDBRANCH   1  12
BRANCH   2  24
ATOM     24  O   UNL     1     -29.187 -20.794 -33.991  1.00  0.00    -0.381 OA
ATOM     25  H   UNL     1     -29.253 -21.750 -33.733  1.00  0.00     0.211 HD
ENDBRANCH   2  24
BRANCH   6  26
ATOM     26  O   UNL     1     -30.330 -21.846 -28.967  1.00  0.00    -0.507 OA
ATOM     27  H   UNL     1     -30.517 -22.404 -28.146  1.00  0.00     0.293 HD
ENDBRANCH   6  26
BRANCH   8  28
ATOM     28  O   UNL     1     -34.033 -18.903 -28.154  1.00  0.00    -0.508 OA
ATOM     29  H   UNL     1     -33.921 -18.006 -27.697  1.00  0.00     0.293 HD
ENDBRANCH   8  28
TORSDOF 7
ENDMDL
MODEL 2
REMARK VINA RESULT:     0.847      2.173      6.581
REMARK INTER + INTRA:           1.441
REMARK INTER:                   1.523
REMARK INTRA:                  -0.082
REMARK UNBOUND:                 0.396
REMARK SMILES O=C1c2c(O)cc(O)cc2O[C@H](c2cc(O)c(O)c(O)c2)[C@@H]1O
REMARK SMILES IDX 12 1 22 2 2 3 1 4 3 5 4 6 6 7 7 8 9 9 10 10 11 11 13 12
REMARK SMILES IDX 14 13 15 14 21 15 17 16 19 17 16 18 18 20 20 22 23 24 5 26
REMARK SMILES IDX 8 28
REMARK H PARENT 16 19 18 21 20 23 23 25 5 27 8 29
REMARK Flexibility Score: inf
ROOT
ATOM      1  C   UNL     1     -32.802 -21.519 -33.713  1.00  0.00     0.240 C 
ATOM      2  C   UNL     1     -32.466 -22.912 -34.296  1.00  0.00     0.231 C 
ATOM      3  C   UNL     1     -31.826 -22.760 -35.646  1.00  0.00     0.202 C 
ATOM      4  O   UNL     1     -30.769 -23.391 -35.920  1.00  0.00    -0.291 OA
ATOM      5  C   UNL     1     -32.433 -21.813 -36.608  1.00  0.00     0.105 A 
ATOM      6  C   UNL     1     -32.241 -21.879 -38.012  1.00  0.00     0.133 A 
ATOM      7  C   UNL     1     -32.792 -20.884 -38.829  1.00  0.00     0.093 A 
ATOM      8  C   UNL     1     -33.569 -19.859 -38.286  1.00  0.00     0.123 A 
ATOM      9  C   UNL     1     -33.797 -19.818 -36.907  1.00  0.00     0.093 A 
ATOM     10  C   UNL     1     -33.228 -20.780 -36.069  1.00  0.00     0.138 A 
ATOM     11  O   UNL     1     -33.455 -20.693 -34.685  1.00  0.00    -0.481 OA
ENDROOT
BRANCH   1  12
ATOM     12  C   UNL     1     -31.580 -20.817 -33.143  1.00  0.00     0.003 A 
ATOM     13  C   UNL     1     -31.410 -20.741 -31.751  1.00  0.00     0.058 A 
ATOM     14  C   UNL     1     -30.284 -20.131 -31.190  1.00  0.00     0.161 A 
ATOM     15  C   UNL     1     -30.582 -20.283 -33.975  1.00  0.00     0.058 A 
ATOM     16  C   UNL     1     -29.290 -19.584 -32.036  1.00  0.00     0.200 A 
ATOM     17  C   UNL     1     -29.451 -19.669 -33.431  1.00  0.00     0.161 A 
BRANCH  14  18
ATOM     18  O   UNL     1     -30.193 -20.094 -29.797  1.00  0.00    -0.504 OA
ATOM     19  H   UNL     1     -29.578 -20.682 -29.253  1.00  0.00     0.293 HD
ENDBRANCH  14  18
BRANCH  16  20
ATOM     20  O   UNL     1     -28.146 -18.958 -31.535  1.00  0.00    -0.502 OA
ATOM     21  H   UNL     1     -27.327 -19.449 -31.210  1.00  0.00     0.293 HD
ENDBRANCH  16  20
BRANCH  17  22
ATOM     22  O   UNL     1     -28.490 -19.148 -34.299  1.00  0.00    -0.504 OA
ATOM     23  H   UNL     1     -28.095 -18.224 -34.178  1.00  0.00     0.293 HD
ENDBRANCH  17  22
ENDBRANCH   1  12
BRANCH   2  24
ATOM     24  O   UNL     1     -31.629 -23.636 -33.429  1.00  0.00    -0.381 OA
ATOM     25  H   UNL     1     -31.702 -24.590 -33.695  1.00  0.00     0.211 HD
ENDBRANCH   2  24
BRANCH   6  26
ATOM     26  O   UNL     1     -31.552 -22.919 -38.638  1.00  0.00    -0.507 OA
ATOM     27  H   UNL     1     -31.097 -23.670 -38.140  1.00  0.00     0.293 HD
ENDBRANCH   6  26
BRANCH   8  28
ATOM     28  O   UNL     1     -34.117 -18.892 -39.125  1.00  0.00    -0.508 OA
ATOM     29  H   UNL     1     -34.916 -18.337 -38.842  1.00  0.00     0.293 HD
ENDBRANCH   8  28
TORSDOF 7
ENDMDL
MODEL 3
REMARK VINA RESULT:     1.137      2.255      6.467
REMARK INTER + INTRA:           1.800
REMARK INTER:                   1.832
REMARK INTRA:                  -0.032
REMARK UNBOUND:                 0.396
REMARK SMILES O=C1c2c(O)cc(O)cc2O[C@H](c2cc(O)c(O)c(O)c2)[C@@H]1O
REMARK SMILES IDX 12 1 22 2 2 3 1 4 3 5 4 6 6 7 7 8 9 9 10 10 11 11 13 12
REMARK SMILES IDX 14 13 15 14 21 15 17 16 19 17 16 18 18 20 20 22 23 24 5 26
REMARK SMILES IDX 8 28
REMARK H PARENT 16 19 18 21 20 23 23 25 5 27 8 29
REMARK Flexibility Score: inf
ROOT
ATOM      1  C   UNL     1     -32.702 -21.681 -33.826  1.00  0.00     0.240 C 
ATOM      2  C   UNL     1     -32.333 -23.040 -34.465  1.00  0.00     0.231 C 
ATOM      3  C   UNL     1     -31.706 -22.820 -35.812  1.00  0.00     0.202 C 
ATOM      4  O   UNL     1     -30.635 -23.410 -36.116  1.00  0.00    -0.291 OA
ATOM      5  C   UNL     1     -32.345 -21.852 -36.733  1.00  0.00     0.105 A 
ATOM      6  C   UNL     1     -32.162 -21.859 -38.139  1.00  0.00     0.133 A 
ATOM      7  C   UNL     1     -32.745 -20.849 -38.914  1.00  0.00     0.093 A 
ATOM      8  C   UNL     1     -33.545 -19.867 -38.327  1.00  0.00     0.123 A 
ATOM      9  C   UNL     1     -33.764 -19.885 -36.946  1.00  0.00     0.093 A 
ATOM     10  C   UNL     1     -33.164 -20.863 -36.149  1.00  0.00     0.138 A 
ATOM     11  O   UNL     1     -33.384 -20.836 -34.762  1.00  0.00    -0.481 OA
ENDROOT
BRANCH   1  12
ATOM     12  C   UNL     1     -31.495 -20.968 -33.236  1.00  0.00     0.003 A 
ATOM     13  C   UNL     1     -30.608 -20.290 -34.086  1.00  0.00     0.058 A 
ATOM     14  C   UNL     1     -29.504 -19.598 -33.578  1.00  0.00     0.161 A 
ATOM     15  C   UNL     1     -31.270 -20.925 -31.851  1.00  0.00     0.058 A 
ATOM     16  C   UNL     1     -29.277 -19.571 -32.182  1.00  0.00     0.200 A 
ATOM     17  C   UNL     1     -30.172 -20.239 -31.326  1.00  0.00     0.161 A 
BRANCH  14  18
ATOM     18  O   UNL     1     -28.667 -18.952 -34.492  1.00  0.00    -0.504 OA
ATOM     19  H   UNL     1     -28.083 -18.160 -34.265  1.00  0.00     0.293 HD
ENDBRANCH  14  18
BRANCH  16  20
ATOM     20  O   UNL     1     -28.190 -18.900 -31.615  1.00  0.00    -0.502 OA
ATOM     21  H   UNL     1     -27.258 -19.282 -31.553  1.00  0.00     0.293 HD
ENDBRANCH  16  20
BRANCH  17  22
ATOM     22  O   UNL     1     -29.987 -20.230 -29.943  1.00  0.00    -0.504 OA
ATOM     23  H   UNL     1     -29.185 -20.661 -29.501  1.00  0.00     0.293 HD
ENDBRANCH  17  22
ENDBRANCH   1  12
BRANCH   2  24
ATOM     24  O   UNL     1     -31.471 -23.775 -33.632  1.00  0.00    -0.381 OA
ATOM     25  H   UNL     1     -31.937 -24.625 -33.420  1.00  0.00     0.211 HD
ENDBRANCH   2  24
BRANCH   6  26
ATOM     26  O   UNL     1     -31.449 -22.856 -38.809  1.00  0.00    -0.507 OA
ATOM     27  H   UNL     1     -31.072 -23.676 -38.357  1.00  0.00     0.293 HD
ENDBRANCH   6  26
BRANCH   8  28
ATOM     28  O   UNL     1     -34.125 -18.884 -39.125  1.00  0.00    -0.508 OA
ATOM     29  H   UNL     1     -34.928 -18.353 -38.811  1.00  0.00     0.293 HD
ENDBRANCH   8  28
TORSDOF 7
ENDMDL
