MODEL 1
REMARK VINA RESULT:    -3.662      0.000      0.000
REMARK INTER + INTRA:          -7.777
REMARK INTER:                  -6.445
REMARK INTRA:                  -1.332
REMARK UNBOUND:                -1.332
REMARK SMILES CCCCCCCCCCCCCCC(=O)[O-]
REMARK SMILES IDX 9 1 10 2 11 3 12 4 13 5 14 6 15 7 16 8 17 9 8 10 7 11 6 12
REMARK SMILES IDX 5 13 4 14 3 15 2 16 1 17
REMARK H PARENT
REMARK Flexibility Score: inf
ROOT
ATOM      1  C   UNL     1     -93.009 145.852 237.209  1.00  0.00     0.000 C 
ENDROOT
BRANCH   1   2
ATOM      2  C   UNL     1     -94.027 146.994 237.047  1.00  0.00     0.000 C 
BRANCH   2   3
ATOM      3  C   UNL     1     -94.638 147.435 238.387  1.00  0.00     0.000 C 
BRANCH   3   4
ATOM      4  C   UNL     1     -95.036 148.919 238.396  1.00  0.00     0.000 C 
BRANCH   4   5
ATOM      5  C   UNL     1     -95.388 149.401 236.981  1.00  0.00     0.006 C 
BRANCH   5   6
ATOM      6  C   UNL     1     -95.072 150.889 236.778  1.00  0.00     0.053 C 
BRANCH   6   7
ATOM      7  C   UNL     1     -96.249 151.755 237.107  1.00  0.00     0.041 C 
ATOM      8  O   UNL     1     -97.411 151.269 237.116  1.00  0.00    -0.550 OA
ATOM      9  O   UNL     1     -96.060 153.091 237.436  1.00  0.00    -0.550 OA
ENDBRANCH   6   7
ENDBRANCH   5   6
ENDBRANCH   4   5
ENDBRANCH   3   4
ENDBRANCH   2   3
ENDBRANCH   1   2
BRANCH   1  10
ATOM     10  C   UNL     1     -93.029 145.231 238.617  1.00  0.00     0.000 C 
BRANCH  10  11
ATOM     11  C   UNL     1     -91.622 144.979 239.201  1.00  0.00    -0.000 C 
BRANCH  11  12
ATOM     12  C   UNL     1     -91.555 145.297 240.706  1.00  0.00    -0.000 C 
BRANCH  12  13
ATOM     13  C   UNL     1     -92.598 146.338 241.142  1.00  0.00    -0.000 C 
BRANCH  13  14
ATOM     14  C   UNL     1     -93.496 145.833 242.284  1.00  0.00    -0.000 C 
BRANCH  14  15
ATOM     15  C   UNL     1     -94.869 146.525 242.305  1.00  0.00    -0.000 C 
BRANCH  15  16
ATOM     16  C   UNL     1     -94.771 148.043 242.095  1.00  0.00    -0.003 C 
ATOM     17  C   UNL     1     -95.951 148.763 242.740  1.00  0.00     0.004 C 
ENDBRANCH  15  16
ENDBRANCH  14  15
ENDBRANCH  13  14
ENDBRANCH  12  13
ENDBRANCH  11  12
ENDBRANCH  10  11
ENDBRANCH   1  10
TORSDOF 13
ENDMDL
MODEL 2
REMARK VINA RESULT:    -3.585      3.302      5.664
REMARK INTER + INTRA:          -7.642
REMARK INTER:                  -5.894
REMARK INTRA:                  -1.748
REMARK UNBOUND:                -1.332
REMARK SMILES CCCCCCCCCCCCCCC(=O)[O-]
REMARK SMILES IDX 9 1 10 2 11 3 12 4 13 5 14 6 15 7 16 8 17 9 8 10 7 11 6 12
REMARK SMILES IDX 5 13 4 14 3 15 2 16 1 17
REMARK H PARENT
REMARK Flexibility Score: inf
ROOT
ATOM      1  C   UNL     1     -93.208 144.908 241.707  1.00  0.00     0.000 C 
ENDROOT
BRANCH   1   2
ATOM      2  C   UNL     1     -93.701 146.015 242.654  1.00  0.00     0.000 C 
BRANCH   2   3
ATOM      3  C   UNL     1     -93.538 147.421 242.054  1.00  0.00     0.000 C 
BRANCH   3   4
ATOM      4  C   UNL     1     -94.852 148.217 242.042  1.00  0.00     0.000 C 
BRANCH   4   5
ATOM      5  C   UNL     1     -96.063 147.273 241.992  1.00  0.00     0.006 C 
BRANCH   5   6
ATOM      6  C   UNL     1     -97.209 147.750 242.894  1.00  0.00     0.053 C 
BRANCH   6   7
ATOM      7  C   UNL     1     -97.132 147.137 244.258  1.00  0.00     0.041 C 
ATOM      8  O   UNL     1     -97.390 147.828 245.279  1.00  0.00    -0.550 OA
ATOM      9  O   UNL     1     -96.807 145.794 244.401  1.00  0.00    -0.550 OA
ENDBRANCH   6   7
ENDBRANCH   5   6
ENDBRANCH   4   5
ENDBRANCH   3   4
ENDBRANCH   2   3
ENDBRANCH   1   2
BRANCH   1  10
ATOM     10  C   UNL     1     -92.009 145.346 240.850  1.00  0.00     0.000 C 
BRANCH  10  11
ATOM     11  C   UNL     1     -92.269 145.260 239.330  1.00  0.00    -0.000 C 
BRANCH  11  12
ATOM     12  C   UNL     1     -93.747 145.514 238.981  1.00  0.00    -0.000 C 
BRANCH  12  13
ATOM     13  C   UNL     1     -93.987 146.914 238.393  1.00  0.00    -0.000 C 
BRANCH  13  14
ATOM     14  C   UNL     1     -95.482 147.260 238.285  1.00  0.00    -0.000 C 
BRANCH  14  15
ATOM     15  C   UNL     1     -95.745 148.772 238.374  1.00  0.00    -0.000 C 
BRANCH  15  16
ATOM     16  C   UNL     1     -94.728 149.599 237.573  1.00  0.00    -0.003 C 
ATOM     17  C   UNL     1     -95.350 150.898 237.071  1.00  0.00     0.004 C 
ENDBRANCH  15  16
ENDBRANCH  14  15
ENDBRANCH  13  14
ENDBRANCH  12  13
ENDBRANCH  11  12
ENDBRANCH  10  11
ENDBRANCH   1  10
TORSDOF 13
ENDMDL
MODEL 3
REMARK VINA RESULT:    -3.581      3.098      6.145
REMARK INTER + INTRA:          -7.635
REMARK INTER:                  -6.221
REMARK INTRA:                  -1.414
REMARK UNBOUND:                -1.332
REMARK SMILES CCCCCCCCCCCCCCC(=O)[O-]
REMARK SMILES IDX 9 1 10 2 11 3 12 4 13 5 14 6 15 7 16 8 17 9 8 10 7 11 6 12
REMARK SMILES IDX 5 13 4 14 3 15 2 16 1 17
REMARK H PARENT
REMARK Flexibility Score: inf
ROOT
ATOM      1  C   UNL     1     -92.932 146.786 240.908  1.00  0.00     0.000 C 
ENDROOT
BRANCH   1   2
ATOM      2  C   UNL     1     -93.692 147.292 242.146  1.00  0.00     0.000 C 
BRANCH   2   3
ATOM      3  C   UNL     1     -94.847 146.363 242.551  1.00  0.00     0.000 C 
BRANCH   3   4
ATOM      4  C   UNL     1     -96.133 147.130 242.895  1.00  0.00     0.000 C 
BRANCH   4   5
ATOM      5  C   UNL     1     -95.876 148.644 242.925  1.00  0.00     0.006 C 
BRANCH   5   6
ATOM      6  C   UNL     1     -97.177 149.455 242.874  1.00  0.00     0.053 C 
BRANCH   6   7
ATOM      7  C   UNL     1     -98.058 149.162 244.050  1.00  0.00     0.041 C 
ATOM      8  O   UNL     1     -99.272 148.877 243.876  1.00  0.00    -0.550 OA
ATOM      9  O   UNL     1     -97.531 149.173 245.335  1.00  0.00    -0.550 OA
ENDBRANCH   6   7
ENDBRANCH   5   6
ENDBRANCH   4   5
ENDBRANCH   3   4
ENDBRANCH   2   3
ENDBRANCH   1   2
BRANCH   1  10
ATOM     10  C   UNL     1     -93.752 146.911 239.612  1.00  0.00     0.000 C 
BRANCH  10  11
ATOM     11  C   UNL     1     -94.412 148.294 239.429  1.00  0.00    -0.000 C 
BRANCH  11  12
ATOM     12  C   UNL     1     -95.931 148.185 239.204  1.00  0.00    -0.000 C 
BRANCH  12  13
ATOM     13  C   UNL     1     -96.438 149.120 238.094  1.00  0.00    -0.000 C 
BRANCH  13  14
ATOM     14  C   UNL     1     -95.355 149.436 237.048  1.00  0.00    -0.000 C 
BRANCH  14  15
ATOM     15  C   UNL     1     -95.056 150.940 236.945  1.00  0.00    -0.000 C 
BRANCH  15  16
ATOM     16  C   UNL     1     -96.331 151.795 236.886  1.00  0.00    -0.003 C 
ATOM     17  C   UNL     1     -96.732 152.084 235.443  1.00  0.00     0.004 C 
ENDBRANCH  15  16
ENDBRANCH  14  15
ENDBRANCH  13  14
ENDBRANCH  12  13
ENDBRANCH  11  12
ENDBRANCH  10  11
ENDBRANCH   1  10
TORSDOF 13
ENDMDL
MODEL 4
REMARK VINA RESULT:    -3.578      1.525      2.241
REMARK INTER + INTRA:          -7.630
REMARK INTER:                  -6.337
REMARK INTRA:                  -1.293
REMARK UNBOUND:                -1.332
REMARK SMILES CCCCCCCCCCCCCCC(=O)[O-]
REMARK SMILES IDX 9 1 10 2 11 3 12 4 13 5 14 6 15 7 16 8 17 9 8 10 7 11 6 12
REMARK SMILES IDX 5 13 4 14 3 15 2 16 1 17
REMARK H PARENT
REMARK Flexibility Score: inf
ROOT
ATOM      1  C   UNL     1     -95.833 147.888 238.939  1.00  0.00     0.000 C 
ENDROOT
BRANCH   1   2
ATOM      2  C   UNL     1     -96.218 148.930 237.876  1.00  0.00     0.000 C 
BRANCH   2   3
ATOM      3  C   UNL     1     -95.250 148.940 236.681  1.00  0.00     0.000 C 
BRANCH   3   4
ATOM      4  C   UNL     1     -94.898 150.361 236.215  1.00  0.00     0.000 C 
BRANCH   4   5
ATOM      5  C   UNL     1     -95.516 151.412 237.150  1.00  0.00     0.006 C 
BRANCH   5   6
ATOM      6  C   UNL     1     -96.462 152.366 236.406  1.00  0.00     0.053 C 
BRANCH   6   7
ATOM      7  C   UNL     1     -97.147 153.310 237.346  1.00  0.00     0.041 C 
ATOM      8  O   UNL     1     -98.101 152.909 238.064  1.00  0.00    -0.550 OA
ATOM      9  O   UNL     1     -96.710 154.625 237.454  1.00  0.00    -0.550 OA
ENDBRANCH   6   7
ENDBRANCH   5   6
ENDBRANCH   4   5
ENDBRANCH   3   4
ENDBRANCH   2   3
ENDBRANCH   1   2
BRANCH   1  10
ATOM     10  C   UNL     1     -94.379 148.034 239.418  1.00  0.00     0.000 C 
BRANCH  10  11
ATOM     11  C   UNL     1     -93.584 146.710 239.396  1.00  0.00    -0.000 C 
BRANCH  11  12
ATOM     12  C   UNL     1     -92.944 146.396 240.760  1.00  0.00    -0.000 C 
BRANCH  12  13
ATOM     13  C   UNL     1     -93.555 147.217 241.907  1.00  0.00    -0.000 C 
BRANCH  13  14
ATOM     14  C   UNL     1     -94.625 146.435 242.688  1.00  0.00    -0.000 C 
BRANCH  14  15
ATOM     15  C   UNL     1     -95.979 147.160 242.719  1.00  0.00    -0.000 C 
BRANCH  15  16
ATOM     16  C   UNL     1     -95.834 148.689 242.742  1.00  0.00    -0.003 C 
ATOM     17  C   UNL     1     -97.153 149.360 243.112  1.00  0.00     0.004 C 
ENDBRANCH  15  16
ENDBRANCH  14  15
ENDBRANCH  13  14
ENDBRANCH  12  13
ENDBRANCH  11  12
ENDBRANCH  10  11
ENDBRANCH   1  10
TORSDOF 13
ENDMDL
MODEL 5
REMARK VINA RESULT:    -3.575      1.742      3.714
REMARK INTER + INTRA:          -7.624
REMARK INTER:                  -6.023
REMARK INTRA:                  -1.601
REMARK UNBOUND:                -1.332
REMARK SMILES CCCCCCCCCCCCCCC(=O)[O-]
REMARK SMILES IDX 9 1 10 2 11 3 12 4 13 5 14 6 15 7 16 8 17 9 8 10 7 11 6 12
REMARK SMILES IDX 5 13 4 14 3 15 2 16 1 17
REMARK H PARENT
REMARK Flexibility Score: inf
ROOT
ATOM      1  C   UNL     1     -92.868 145.161 241.605  1.00  0.00     0.000 C 
ENDROOT
BRANCH   1   2
ATOM      2  C   UNL     1     -92.505 145.993 240.363  1.00  0.00     0.000 C 
BRANCH   2   3
ATOM      3  C   UNL     1     -93.217 145.498 239.093  1.00  0.00     0.000 C 
BRANCH   3   4
ATOM      4  C   UNL     1     -94.506 146.278 238.793  1.00  0.00     0.000 C 
BRANCH   4   5
ATOM      5  C   UNL     1     -94.320 147.775 239.084  1.00  0.00     0.006 C 
BRANCH   5   6
ATOM      6  C   UNL     1     -95.392 148.637 238.402  1.00  0.00     0.053 C 
BRANCH   6   7
ATOM      7  C   UNL     1     -94.831 149.403 237.244  1.00  0.00     0.041 C 
ATOM      8  O   UNL     1     -94.333 148.792 236.262  1.00  0.00    -0.550 OA
ATOM      9  O   UNL     1     -94.887 150.791 237.234  1.00  0.00    -0.550 OA
ENDBRANCH   6   7
ENDBRANCH   5   6
ENDBRANCH   4   5
ENDBRANCH   3   4
ENDBRANCH   2   3
ENDBRANCH   1   2
BRANCH   1  10
ATOM     10  C   UNL     1     -93.668 145.961 242.647  1.00  0.00     0.000 C 
BRANCH  10  11
ATOM     11  C   UNL     1     -95.169 145.601 242.685  1.00  0.00    -0.000 C 
BRANCH  11  12
ATOM     12  C   UNL     1     -96.059 146.788 242.274  1.00  0.00    -0.000 C 
BRANCH  12  13
ATOM     13  C   UNL     1     -95.307 148.128 242.282  1.00  0.00    -0.000 C 
BRANCH  13  14
ATOM     14  C   UNL     1     -96.036 149.210 243.096  1.00  0.00    -0.000 C 
BRANCH  14  15
ATOM     15  C   UNL     1     -97.555 149.202 242.860  1.00  0.00    -0.000 C 
BRANCH  15  16
ATOM     16  C   UNL     1     -98.359 149.214 244.168  1.00  0.00    -0.003 C 
ATOM     17  C   UNL     1     -97.529 148.675 245.328  1.00  0.00     0.004 C 
ENDBRANCH  15  16
ENDBRANCH  14  15
ENDBRANCH  13  14
ENDBRANCH  12  13
ENDBRANCH  11  12
ENDBRANCH  10  11
ENDBRANCH   1  10
TORSDOF 13
ENDMDL
MODEL 6
REMARK VINA RESULT:    -3.542      3.791      6.250
REMARK INTER + INTRA:          -7.567
REMARK INTER:                  -5.824
REMARK INTRA:                  -1.742
REMARK UNBOUND:                -1.332
REMARK SMILES CCCCCCCCCCCCCCC(=O)[O-]
REMARK SMILES IDX 9 1 10 2 11 3 12 4 13 5 14 6 15 7 16 8 17 9 8 10 7 11 6 12
REMARK SMILES IDX 5 13 4 14 3 15 2 16 1 17
REMARK H PARENT
REMARK Flexibility Score: inf
ROOT
ATOM      1  C   UNL     1     -95.062 146.656 242.385  1.00  0.00     0.000 C 
ENDROOT
BRANCH   1   2
ATOM      2  C   UNL     1     -96.344 147.352 242.873  1.00  0.00     0.000 C 
BRANCH   2   3
ATOM      3  C   UNL     1     -96.171 148.874 243.018  1.00  0.00     0.000 C 
BRANCH   3   4
ATOM      4  C   UNL     1     -97.506 149.630 242.954  1.00  0.00     0.000 C 
BRANCH   4   5
ATOM      5  C   UNL     1     -98.642 148.788 243.554  1.00  0.00     0.006 C 
BRANCH   5   6
ATOM      6  C   UNL     1     -99.040 149.266 244.958  1.00  0.00     0.053 C 
BRANCH   6   7
ATOM      7  C   UNL     1     -98.091 148.763 246.003  1.00  0.00     0.041 C 
ATOM      8  O   UNL     1     -97.622 149.553 246.865  1.00  0.00    -0.550 OA
ATOM      9  O   UNL     1     -97.750 147.417 246.045  1.00  0.00    -0.550 OA
ENDBRANCH   6   7
ENDBRANCH   5   6
ENDBRANCH   4   5
ENDBRANCH   3   4
ENDBRANCH   2   3
ENDBRANCH   1   2
BRANCH   1  10
ATOM     10  C   UNL     1     -93.952 147.650 242.003  1.00  0.00     0.000 C 
BRANCH  10  11
ATOM     11  C   UNL     1     -92.834 147.026 241.139  1.00  0.00    -0.000 C 
BRANCH  11  12
ATOM     12  C   UNL     1     -93.275 145.702 240.489  1.00  0.00    -0.000 C 
BRANCH  12  13
ATOM     13  C   UNL     1     -93.209 145.741 238.954  1.00  0.00    -0.000 C 
BRANCH  13  14
ATOM     14  C   UNL     1     -94.561 146.100 238.314  1.00  0.00    -0.000 C 
BRANCH  14  15
ATOM     15  C   UNL     1     -94.544 147.478 237.634  1.00  0.00    -0.000 C 
BRANCH  15  16
ATOM     16  C   UNL     1     -94.975 148.611 238.578  1.00  0.00    -0.003 C 
ATOM     17  C   UNL     1     -96.329 148.310 239.213  1.00  0.00     0.004 C 
ENDBRANCH  15  16
ENDBRANCH  14  15
ENDBRANCH  13  14
ENDBRANCH  12  13
ENDBRANCH  11  12
ENDBRANCH  10  11
ENDBRANCH   1  10
TORSDOF 13
ENDMDL
MODEL 7
REMARK VINA RESULT:    -3.540      1.619      2.762
REMARK INTER + INTRA:          -7.563
REMARK INTER:                  -5.580
REMARK INTRA:                  -1.982
REMARK UNBOUND:                -1.332
REMARK SMILES CCCCCCCCCCCCCCC(=O)[O-]
REMARK SMILES IDX 9 1 10 2 11 3 12 4 13 5 14 6 15 7 16 8 17 9 8 10 7 11 6 12
REMARK SMILES IDX 5 13 4 14 3 15 2 16 1 17
REMARK H PARENT
REMARK Flexibility Score: inf
ROOT
ATOM      1  C   UNL     1     -92.949 147.304 240.874  1.00  0.00     0.000 C 
ENDROOT
BRANCH   1   2
ATOM      2  C   UNL     1     -93.922 147.818 239.799  1.00  0.00     0.000 C 
BRANCH   2   3
ATOM      3  C   UNL     1     -94.672 146.680 239.088  1.00  0.00     0.000 C 
BRANCH   3   4
ATOM      4  C   UNL     1     -96.115 147.059 238.721  1.00  0.00     0.000 C 
BRANCH   4   5
ATOM      5  C   UNL     1     -96.341 148.570 238.880  1.00  0.00     0.006 C 
BRANCH   5   6
ATOM      6  C   UNL     1     -96.578 149.267 237.533  1.00  0.00     0.053 C 
BRANCH   6   7
ATOM      7  C   UNL     1     -95.341 149.952 237.040  1.00  0.00     0.041 C 
ATOM      8  O   UNL     1     -94.405 149.281 236.530  1.00  0.00    -0.550 OA
ATOM      9  O   UNL     1     -95.235 151.335 237.113  1.00  0.00    -0.550 OA
ENDBRANCH   6   7
ENDBRANCH   5   6
ENDBRANCH   4   5
ENDBRANCH   3   4
ENDBRANCH   2   3
ENDBRANCH   1   2
BRANCH   1  10
ATOM     10  C   UNL     1     -92.709 145.787 240.784  1.00  0.00     0.000 C 
BRANCH  10  11
ATOM     11  C   UNL     1     -93.284 144.998 241.980  1.00  0.00    -0.000 C 
BRANCH  11  12
ATOM     12  C   UNL     1     -94.256 145.846 242.820  1.00  0.00    -0.000 C 
BRANCH  12  13
ATOM     13  C   UNL     1     -95.724 145.427 242.637  1.00  0.00    -0.000 C 
BRANCH  13  14
ATOM     14  C   UNL     1     -96.668 146.632 242.492  1.00  0.00    -0.000 C 
BRANCH  14  15
ATOM     15  C   UNL     1     -95.957 147.972 242.742  1.00  0.00    -0.000 C 
BRANCH  15  16
ATOM     16  C   UNL     1     -96.849 148.991 243.467  1.00  0.00    -0.003 C 
ATOM     17  C   UNL     1     -97.368 148.426 244.785  1.00  0.00     0.004 C 
ENDBRANCH  15  16
ENDBRANCH  14  15
ENDBRANCH  13  14
ENDBRANCH  12  13
ENDBRANCH  11  12
ENDBRANCH  10  11
ENDBRANCH   1  10
TORSDOF 13
ENDMDL
MODEL 8
REMARK VINA RESULT:    -3.488      4.951      7.552
REMARK INTER + INTRA:          -7.471
REMARK INTER:                  -6.134
REMARK INTRA:                  -1.337
REMARK UNBOUND:                -1.332
REMARK SMILES CCCCCCCCCCCCCCC(=O)[O-]
REMARK SMILES IDX 9 1 10 2 11 3 12 4 13 5 14 6 15 7 16 8 17 9 8 10 7 11 6 12
REMARK SMILES IDX 5 13 4 14 3 15 2 16 1 17
REMARK H PARENT
REMARK Flexibility Score: inf
ROOT
ATOM      1  C   UNL     1     -95.932 148.621 242.805  1.00  0.00     0.000 C 
ENDROOT
BRANCH   1   2
ATOM      2  C   UNL     1     -97.166 149.329 243.388  1.00  0.00     0.000 C 
BRANCH   2   3
ATOM      3  C   UNL     1     -98.006 148.406 244.287  1.00  0.00     0.000 C 
BRANCH   3   4
ATOM      4  C   UNL     1     -97.629 148.522 245.772  1.00  0.00     0.000 C 
BRANCH   4   5
ATOM      5  C   UNL     1     -98.306 149.741 246.416  1.00  0.00     0.006 C 
BRANCH   5   6
ATOM      6  C   UNL     1     -97.620 150.164 247.722  1.00  0.00     0.053 C 
BRANCH   6   7
ATOM      7  C   UNL     1     -98.557 150.910 248.622  1.00  0.00     0.041 C 
ATOM      8  O   UNL     1     -99.775 150.594 248.671  1.00  0.00    -0.550 OA
ATOM      9  O   UNL     1     -98.078 151.932 249.432  1.00  0.00    -0.550 OA
ENDBRANCH   6   7
ENDBRANCH   5   6
ENDBRANCH   4   5
ENDBRANCH   3   4
ENDBRANCH   2   3
ENDBRANCH   1   2
BRANCH   1  10
ATOM     10  C   UNL     1     -96.130 147.103 242.654  1.00  0.00     0.000 C 
BRANCH  10  11
ATOM     11  C   UNL     1     -94.819 146.330 242.393  1.00  0.00    -0.000 C 
BRANCH  11  12
ATOM     12  C   UNL     1     -93.618 147.275 242.209  1.00  0.00    -0.000 C 
BRANCH  12  13
ATOM     13  C   UNL     1     -92.958 147.136 240.827  1.00  0.00    -0.000 C 
BRANCH  13  14
ATOM     14  C   UNL     1     -93.761 146.233 239.877  1.00  0.00    -0.000 C 
BRANCH  14  15
ATOM     15  C   UNL     1     -94.279 146.988 238.642  1.00  0.00    -0.000 C 
BRANCH  15  16
ATOM     16  C   UNL     1     -94.785 148.399 238.978  1.00  0.00    -0.003 C 
ATOM     17  C   UNL     1     -96.306 148.423 239.092  1.00  0.00     0.004 C 
ENDBRANCH  15  16
ENDBRANCH  14  15
ENDBRANCH  13  14
ENDBRANCH  12  13
ENDBRANCH  11  12
ENDBRANCH  10  11
ENDBRANCH   1  10
TORSDOF 13
ENDMDL
MODEL 9
REMARK VINA RESULT:    -3.482      3.766      5.897
REMARK INTER + INTRA:          -7.460
REMARK INTER:                  -5.385
REMARK INTRA:                  -2.075
REMARK UNBOUND:                -1.332
REMARK SMILES CCCCCCCCCCCCCCC(=O)[O-]
REMARK SMILES IDX 9 1 10 2 11 3 12 4 13 5 14 6 15 7 16 8 17 9 8 10 7 11 6 12
REMARK SMILES IDX 5 13 4 14 3 15 2 16 1 17
REMARK H PARENT
REMARK Flexibility Score: inf
ROOT
ATOM      1  C   UNL     1     -93.614 146.423 242.363  1.00  0.00     0.000 C 
ENDROOT
BRANCH   1   2
ATOM      2  C   UNL     1     -95.069 145.968 242.160  1.00  0.00     0.000 C 
BRANCH   2   3
ATOM      3  C   UNL     1     -96.081 146.906 242.838  1.00  0.00     0.000 C 
BRANCH   3   4
ATOM      4  C   UNL     1     -95.749 148.391 242.625  1.00  0.00     0.000 C 
BRANCH   4   5
ATOM      5  C   UNL     1     -96.745 149.288 243.374  1.00  0.00     0.006 C 
BRANCH   5   6
ATOM      6  C   UNL     1     -97.923 148.492 243.952  1.00  0.00     0.053 C 
BRANCH   6   7
ATOM      7  C   UNL     1     -97.847 148.397 245.445  1.00  0.00     0.041 C 
ATOM      8  O   UNL     1     -97.780 149.443 246.144  1.00  0.00    -0.550 OA
ATOM      9  O   UNL     1     -97.882 147.156 246.067  1.00  0.00    -0.550 OA
ENDBRANCH   6   7
ENDBRANCH   5   6
ENDBRANCH   4   5
ENDBRANCH   3   4
ENDBRANCH   2   3
ENDBRANCH   1   2
BRANCH   1  10
ATOM     10  C   UNL     1     -92.985 147.001 241.083  1.00  0.00     0.000 C 
BRANCH  10  11
ATOM     11  C   UNL     1     -93.162 146.098 239.844  1.00  0.00    -0.000 C 
BRANCH  11  12
ATOM     12  C   UNL     1     -94.081 146.737 238.787  1.00  0.00    -0.000 C 
BRANCH  12  13
ATOM     13  C   UNL     1     -94.444 148.194 239.117  1.00  0.00    -0.000 C 
BRANCH  13  14
ATOM     14  C   UNL     1     -95.944 148.484 238.938  1.00  0.00    -0.000 C 
BRANCH  14  15
ATOM     15  C   UNL     1     -96.816 147.239 239.166  1.00  0.00    -0.000 C 
BRANCH  15  16
ATOM     16  C   UNL     1     -98.199 147.581 239.740  1.00  0.00    -0.003 C 
ATOM     17  C   UNL     1     -98.325 149.076 240.015  1.00  0.00     0.004 C 
ENDBRANCH  15  16
ENDBRANCH  14  15
ENDBRANCH  13  14
ENDBRANCH  12  13
ENDBRANCH  11  12
ENDBRANCH  10  11
ENDBRANCH   1  10
TORSDOF 13
ENDMDL
