MODEL 1
REMARK VINA RESULT:    -2.508      0.000      0.000
REMARK INTER + INTRA:          -5.461
REMARK INTER:                  -3.388
REMARK INTRA:                  -2.073
REMARK UNBOUND:                -2.073
REMARK SMILES CC[C@@H](CC[C@@H](C)[C@@H]1CC[C@@H]2[C@@H]3CC(=O)C4=CC(=O)CC[C@]4(C)[C@H]3CC[C@]21C)C(C)C
REMARK SMILES IDX 4 1 3 2 2 3 1 4 29 5 30 6 31 7 5 8 6 9 7 10 8 11 9 12 27 13
REMARK SMILES IDX 10 14 11 15 26 16 28 17 12 18 25 19 24 20 13 21 22 22 14 23
REMARK SMILES IDX 16 24 21 25 23 26 15 27 17 28 20 29 18 30 19 31
REMARK H PARENT
REMARK Flexibility Score: inf
ROOT
ATOM      1  C   UNL     1      30.498  59.109  10.232  1.00  0.00     0.004 C 
ENDROOT
BRANCH   1   2
ATOM      2  C   UNL     1      31.344  57.808  10.346  1.00  0.00    -0.009 C 
BRANCH   2   3
ATOM      3  C   UNL     1      32.088  57.407   9.031  1.00  0.00     0.000 C 
ATOM      4  C   UNL     1      31.723  56.041   8.438  1.00  0.00     0.004 C 
ENDBRANCH   2   3
BRANCH   2   5
ATOM      5  C   UNL     1      30.517  56.649  10.994  1.00  0.00    -0.014 C 
ATOM      6  C   UNL     1      29.163  57.136  11.534  1.00  0.00     0.007 C 
ATOM      7  C   UNL     1      31.275  55.875  12.081  1.00  0.00     0.007 C 
ENDBRANCH   2   5
ENDBRANCH   1   2
BRANCH   1   8
ATOM      8  C   UNL     1      31.345  60.404  10.149  1.00  0.00     0.004 C 
BRANCH   8   9
ATOM      9  C   UNL     1      31.384  61.229  11.467  1.00  0.00    -0.011 C 
ATOM     10  C   UNL     1      31.316  62.739  11.151  1.00  0.00     0.008 C 
BRANCH   9  11
ATOM     11  C   UNL     1      30.277  60.716  12.460  1.00  0.00    -0.002 C 
ATOM     12  C   UNL     1      29.068  61.658  12.719  1.00  0.00     0.005 C 
ATOM     13  C   UNL     1      30.735  60.257  13.877  1.00  0.00    -0.026 C 
ATOM     14  C   UNL     1      28.542  61.312  14.127  1.00  0.00     0.005 C 
ATOM     15  C   UNL     1      29.361  60.094  14.547  1.00  0.00    -0.001 C 
ATOM     16  C   UNL     1      31.481  58.880  13.898  1.00  0.00     0.007 C 
ATOM     17  C   UNL     1      31.604  61.364  14.548  1.00  0.00     0.012 C 
ATOM     18  C   UNL     1      29.373  59.614  16.026  1.00  0.00     0.004 C 
ATOM     19  C   UNL     1      31.043  57.929  15.055  1.00  0.00     0.005 C 
ATOM     20  C   UNL     1      30.612  58.711  16.329  1.00  0.00     0.003 C 
ATOM     21  C   UNL     1      29.250  60.703  17.094  1.00  0.00     0.085 C 
ATOM     22  C   UNL     1      30.410  57.871  17.643  1.00  0.00    -0.000 C 
ATOM     23  C   UNL     1      29.230  60.082  18.467  1.00  0.00     0.159 C 
ATOM     24  C   UNL     1      29.994  58.832  18.774  1.00  0.00     0.005 C 
ATOM     25  C   UNL     1      31.757  57.177  18.028  1.00  0.00     0.020 C 
ATOM     26  C   UNL     1      29.314  56.787  17.473  1.00  0.00     0.017 C 
ATOM     27  O   UNL     1      28.603  60.683  19.383  1.00  0.00    -0.295 OA
ATOM     28  C   UNL     1      30.280  58.547  20.060  1.00  0.00     0.055 C 
ATOM     29  C   UNL     1      31.725  56.505  19.408  1.00  0.00     0.081 C 
ATOM     30  C   UNL     1      31.115  57.398  20.441  1.00  0.00     0.156 C 
ATOM     31  O   UNL     1      31.305  57.152  21.662  1.00  0.00    -0.295 OA
ENDBRANCH   9  11
ENDBRANCH   8   9
ENDBRANCH   1   8
TORSDOF 6
ENDMDL
MODEL 2
REMARK VINA RESULT:    -2.419      1.645      2.069
REMARK INTER + INTRA:          -5.340
REMARK INTER:                  -3.299
REMARK INTRA:                  -2.042
REMARK UNBOUND:                -2.073
REMARK SMILES CC[C@@H](CC[C@@H](C)[C@@H]1CC[C@@H]2[C@@H]3CC(=O)C4=CC(=O)CC[C@]4(C)[C@H]3CC[C@]21C)C(C)C
REMARK SMILES IDX 4 1 3 2 2 3 1 4 29 5 30 6 31 7 5 8 6 9 7 10 8 11 9 12 27 13
REMARK SMILES IDX 10 14 11 15 26 16 28 17 12 18 25 19 24 20 13 21 22 22 14 23
REMARK SMILES IDX 16 24 21 25 23 26 15 27 17 28 20 29 18 30 19 31
REMARK H PARENT
REMARK Flexibility Score: inf
ROOT
ATOM      1  C   UNL     1      30.627  58.218  10.213  1.00  0.00     0.004 C 
ENDROOT
BRANCH   1   2
ATOM      2  C   UNL     1      31.226  56.820  10.543  1.00  0.00    -0.009 C 
BRANCH   2   3
ATOM      3  C   UNL     1      31.404  55.887   9.301  1.00  0.00     0.000 C 
ATOM      4  C   UNL     1      30.334  56.005   8.209  1.00  0.00     0.004 C 
ENDBRANCH   2   3
BRANCH   2   5
ATOM      5  C   UNL     1      30.480  56.152  11.744  1.00  0.00    -0.014 C 
ATOM      6  C   UNL     1      29.236  56.950  12.168  1.00  0.00     0.007 C 
ATOM      7  C   UNL     1      31.375  55.879  12.960  1.00  0.00     0.007 C 
ENDBRANCH   2   5
ENDBRANCH   1   2
BRANCH   1   8
ATOM      8  C   UNL     1      31.685  59.271   9.795  1.00  0.00     0.004 C 
BRANCH   8   9
ATOM      9  C   UNL     1      31.601  60.609  10.582  1.00  0.00    -0.011 C 
ATOM     10  C   UNL     1      31.616  61.804   9.603  1.00  0.00     0.008 C 
BRANCH   9  11
ATOM     11  C   UNL     1      30.374  60.584  11.566  1.00  0.00    -0.002 C 
ATOM     12  C   UNL     1      29.218  61.584  11.281  1.00  0.00     0.005 C 
ATOM     13  C   UNL     1      30.666  60.736  13.089  1.00  0.00    -0.026 C 
ATOM     14  C   UNL     1      28.543  61.864  12.639  1.00  0.00     0.005 C 
ATOM     15  C   UNL     1      29.228  60.903  13.607  1.00  0.00    -0.001 C 
ATOM     16  C   UNL     1      31.305  59.468  13.752  1.00  0.00     0.007 C 
ATOM     17  C   UNL     1      31.549  61.994  13.346  1.00  0.00     0.012 C 
ATOM     18  C   UNL     1      29.070  61.074  15.145  1.00  0.00     0.004 C 
ATOM     19  C   UNL     1      30.694  59.091  15.137  1.00  0.00     0.005 C 
ATOM     20  C   UNL     1      30.208  60.340  15.926  1.00  0.00     0.003 C 
ATOM     21  C   UNL     1      28.930  62.509  15.657  1.00  0.00     0.085 C 
ATOM     22  C   UNL     1      29.826  60.123  17.436  1.00  0.00    -0.000 C 
ATOM     23  C   UNL     1      28.740  62.510  17.152  1.00  0.00     0.159 C 
ATOM     24  C   UNL     1      29.379  61.476  18.025  1.00  0.00     0.005 C 
ATOM     25  C   UNL     1      31.078  59.609  18.220  1.00  0.00     0.020 C 
ATOM     26  C   UNL     1      28.674  59.097  17.598  1.00  0.00     0.017 C 
ATOM     27  O   UNL     1      28.078  63.453  17.667  1.00  0.00    -0.295 OA
ATOM     28  C   UNL     1      29.526  61.737  19.338  1.00  0.00     0.055 C 
ATOM     29  C   UNL     1      30.871  59.566  19.740  1.00  0.00     0.081 C 
ATOM     30  C   UNL     1      30.236  60.823  20.245  1.00  0.00     0.156 C 
ATOM     31  O   UNL     1      30.296  61.095  21.473  1.00  0.00    -0.295 OA
ENDBRANCH   9  11
ENDBRANCH   8   9
ENDBRANCH   1   8
TORSDOF 6
ENDMDL
MODEL 3
REMARK VINA RESULT:    -2.324      2.720      5.761
REMARK INTER + INTRA:          -5.213
REMARK INTER:                  -3.505
REMARK INTRA:                  -1.708
REMARK UNBOUND:                -2.073
REMARK SMILES CC[C@@H](CC[C@@H](C)[C@@H]1CC[C@@H]2[C@@H]3CC(=O)C4=CC(=O)CC[C@]4(C)[C@H]3CC[C@]21C)C(C)C
REMARK SMILES IDX 4 1 3 2 2 3 1 4 29 5 30 6 31 7 5 8 6 9 7 10 8 11 9 12 27 13
REMARK SMILES IDX 10 14 11 15 26 16 28 17 12 18 25 19 24 20 13 21 22 22 14 23
REMARK SMILES IDX 16 24 21 25 23 26 15 27 17 28 20 29 18 30 19 31
REMARK H PARENT
REMARK Flexibility Score: inf
ROOT
ATOM      1  C   UNL     1      30.646  56.274  10.236  1.00  0.00     0.004 C 
ENDROOT
BRANCH   1   2
ATOM      2  C   UNL     1      30.241  57.733   9.873  1.00  0.00    -0.009 C 
BRANCH   2   3
ATOM      3  C   UNL     1      28.737  57.903   9.480  1.00  0.00     0.000 C 
ATOM      4  C   UNL     1      27.752  56.929  10.138  1.00  0.00     0.004 C 
ENDBRANCH   2   3
BRANCH   2   5
ATOM      5  C   UNL     1      31.246  58.363   8.854  1.00  0.00    -0.014 C 
ATOM      6  C   UNL     1      32.124  57.300   8.174  1.00  0.00     0.007 C 
ATOM      7  C   UNL     1      32.121  59.474   9.448  1.00  0.00     0.007 C 
ENDBRANCH   2   5
ENDBRANCH   1   2
BRANCH   1   8
ATOM      8  C   UNL     1      31.162  56.109  11.689  1.00  0.00     0.004 C 
BRANCH   8   9
ATOM      9  C   UNL     1      30.338  56.887  12.753  1.00  0.00    -0.011 C 
ATOM     10  C   UNL     1      29.657  55.898  13.725  1.00  0.00     0.008 C 
BRANCH   9  11
ATOM     11  C   UNL     1      31.238  57.974  13.449  1.00  0.00    -0.002 C 
ATOM     12  C   UNL     1      31.917  57.578  14.789  1.00  0.00     0.005 C 
ATOM     13  C   UNL     1      30.603  59.370  13.720  1.00  0.00    -0.026 C 
ATOM     14  C   UNL     1      32.125  58.889  15.574  1.00  0.00     0.005 C 
ATOM     15  C   UNL     1      31.707  59.985  14.597  1.00  0.00    -0.001 C 
ATOM     16  C   UNL     1      30.415  60.253  12.440  1.00  0.00     0.007 C 
ATOM     17  C   UNL     1      29.252  59.210  14.481  1.00  0.00     0.012 C 
ATOM     18  C   UNL     1      31.462  61.439  15.088  1.00  0.00     0.004 C 
ATOM     19  C   UNL     1      30.827  61.746  12.624  1.00  0.00     0.005 C 
ATOM     20  C   UNL     1      30.589  62.250  14.076  1.00  0.00     0.003 C 
ATOM     21  C   UNL     1      30.896  61.592  16.501  1.00  0.00     0.085 C 
ATOM     22  C   UNL     1      30.706  63.799  14.320  1.00  0.00    -0.000 C 
ATOM     23  C   UNL     1      30.758  63.052  16.849  1.00  0.00     0.159 C 
ATOM     24  C   UNL     1      30.431  64.078  15.811  1.00  0.00     0.005 C 
ATOM     25  C   UNL     1      29.641  64.544  13.452  1.00  0.00     0.020 C 
ATOM     26  C   UNL     1      32.117  64.334  13.958  1.00  0.00     0.017 C 
ATOM     27  O   UNL     1      30.857  63.386  18.062  1.00  0.00    -0.295 OA
ATOM     28  C   UNL     1      29.924  65.262  16.207  1.00  0.00     0.055 C 
ATOM     29  C   UNL     1      29.530  66.041  13.773  1.00  0.00     0.081 C 
ATOM     30  C   UNL     1      29.478  66.285  15.249  1.00  0.00     0.156 C 
ATOM     31  O   UNL     1      29.062  67.393  15.678  1.00  0.00    -0.295 OA
ENDBRANCH   9  11
ENDBRANCH   8   9
ENDBRANCH   1   8
TORSDOF 6
ENDMDL
MODEL 4
REMARK VINA RESULT:    -2.315      2.955      6.089
REMARK INTER + INTRA:          -5.201
REMARK INTER:                  -3.233
REMARK INTRA:                  -1.968
REMARK UNBOUND:                -2.073
REMARK SMILES CC[C@@H](CC[C@@H](C)[C@@H]1CC[C@@H]2[C@@H]3CC(=O)C4=CC(=O)CC[C@]4(C)[C@H]3CC[C@]21C)C(C)C
REMARK SMILES IDX 4 1 3 2 2 3 1 4 29 5 30 6 31 7 5 8 6 9 7 10 8 11 9 12 27 13
REMARK SMILES IDX 10 14 11 15 26 16 28 17 12 18 25 19 24 20 13 21 22 22 14 23
REMARK SMILES IDX 16 24 21 25 23 26 15 27 17 28 20 29 18 30 19 31
REMARK H PARENT
REMARK Flexibility Score: inf
ROOT
ATOM      1  C   UNL     1      31.268  57.026  11.632  1.00  0.00     0.004 C 
ENDROOT
BRANCH   1   2
ATOM      2  C   UNL     1      30.711  56.970  10.180  1.00  0.00    -0.009 C 
BRANCH   2   3
ATOM      3  C   UNL     1      31.417  55.921   9.261  1.00  0.00     0.000 C 
ATOM      4  C   UNL     1      32.097  56.475   8.002  1.00  0.00     0.004 C 
ENDBRANCH   2   3
BRANCH   2   5
ATOM      5  C   UNL     1      30.605  58.401   9.557  1.00  0.00    -0.014 C 
ATOM      6  C   UNL     1      31.390  59.444  10.368  1.00  0.00     0.007 C 
ATOM      7  C   UNL     1      29.164  58.877   9.333  1.00  0.00     0.007 C 
ENDBRANCH   2   5
ENDBRANCH   1   2
BRANCH   1   8
ATOM      8  C   UNL     1      30.419  56.237  12.661  1.00  0.00     0.004 C 
BRANCH   8   9
ATOM      9  C   UNL     1      30.293  56.925  14.049  1.00  0.00    -0.011 C 
ATOM     10  C   UNL     1      30.847  55.999  15.155  1.00  0.00     0.008 C 
BRANCH   9  11
ATOM     11  C   UNL     1      30.946  58.356  14.007  1.00  0.00    -0.002 C 
ATOM     12  C   UNL     1      32.124  58.626  14.983  1.00  0.00     0.005 C 
ATOM     13  C   UNL     1      30.002  59.584  14.171  1.00  0.00    -0.026 C 
ATOM     14  C   UNL     1      32.121  60.143  15.258  1.00  0.00     0.005 C 
ATOM     15  C   UNL     1      31.055  60.696  14.315  1.00  0.00    -0.001 C 
ATOM     16  C   UNL     1      29.110  59.884  12.918  1.00  0.00     0.007 C 
ATOM     17  C   UNL     1      29.122  59.422  15.447  1.00  0.00     0.012 C 
ATOM     18  C   UNL     1      30.507  62.140  14.490  1.00  0.00     0.004 C 
ATOM     19  C   UNL     1      29.024  61.394  12.538  1.00  0.00     0.005 C 
ATOM     20  C   UNL     1      29.126  62.323  13.781  1.00  0.00     0.003 C 
ATOM     21  C   UNL     1      30.428  62.666  15.925  1.00  0.00     0.085 C 
ATOM     22  C   UNL     1      28.783  63.842  13.564  1.00  0.00    -0.000 C 
ATOM     23  C   UNL     1      29.924  64.087  15.930  1.00  0.00     0.159 C 
ATOM     24  C   UNL     1      28.942  64.574  14.912  1.00  0.00     0.005 C 
ATOM     25  C   UNL     1      27.303  63.976  13.078  1.00  0.00     0.020 C 
ATOM     26  C   UNL     1      29.720  64.502  12.518  1.00  0.00     0.017 C 
ATOM     27  O   UNL     1      30.301  64.849  16.863  1.00  0.00    -0.295 OA
ATOM     28  C   UNL     1      28.224  65.682  15.182  1.00  0.00     0.055 C 
ATOM     29  C   UNL     1      26.802  65.426  13.038  1.00  0.00     0.081 C 
ATOM     30  C   UNL     1      27.164  66.168  14.286  1.00  0.00     0.156 C 
ATOM     31  O   UNL     1      26.564  67.239  14.565  1.00  0.00    -0.295 OA
ENDBRANCH   9  11
ENDBRANCH   8   9
ENDBRANCH   1   8
TORSDOF 6
ENDMDL
MODEL 5
REMARK VINA RESULT:    -2.269      3.759      7.801
REMARK INTER + INTRA:          -5.137
REMARK INTER:                  -3.234
REMARK INTRA:                  -1.904
REMARK UNBOUND:                -2.073
REMARK SMILES CC[C@@H](CC[C@@H](C)[C@@H]1CC[C@@H]2[C@@H]3CC(=O)C4=CC(=O)CC[C@]4(C)[C@H]3CC[C@]21C)C(C)C
REMARK SMILES IDX 4 1 3 2 2 3 1 4 29 5 30 6 31 7 5 8 6 9 7 10 8 11 9 12 27 13
REMARK SMILES IDX 10 14 11 15 26 16 28 17 12 18 25 19 24 20 13 21 22 22 14 23
REMARK SMILES IDX 16 24 21 25 23 26 15 27 17 28 20 29 18 30 19 31
REMARK H PARENT
REMARK Flexibility Score: inf
ROOT
ATOM      1  C   UNL     1      29.913  65.215  14.430  1.00  0.00     0.004 C 
ENDROOT
BRANCH   1   2
ATOM      2  C   UNL     1      28.472  65.048  14.996  1.00  0.00    -0.009 C 
BRANCH   2   3
ATOM      3  C   UNL     1      27.403  64.653  13.926  1.00  0.00     0.000 C 
ATOM      4  C   UNL     1      27.931  63.945  12.672  1.00  0.00     0.004 C 
ENDBRANCH   2   3
BRANCH   2   5
ATOM      5  C   UNL     1      28.068  66.268  15.887  1.00  0.00    -0.014 C 
ATOM      6  C   UNL     1      27.792  65.856  17.342  1.00  0.00     0.007 C 
ATOM      7  C   UNL     1      26.892  67.082  15.333  1.00  0.00     0.007 C 
ENDBRANCH   2   5
ENDBRANCH   1   2
BRANCH   1   8
ATOM      8  C   UNL     1      31.029  65.042  15.492  1.00  0.00     0.004 C 
BRANCH   8   9
ATOM      9  C   UNL     1      31.324  63.564  15.874  1.00  0.00    -0.011 C 
ATOM     10  C   UNL     1      31.358  63.409  17.411  1.00  0.00     0.008 C 
BRANCH   9  11
ATOM     11  C   UNL     1      30.317  62.602  15.141  1.00  0.00    -0.002 C 
ATOM     12  C   UNL     1      29.383  61.740  16.035  1.00  0.00     0.005 C 
ATOM     13  C   UNL     1      30.903  61.604  14.098  1.00  0.00    -0.026 C 
ATOM     14  C   UNL     1      29.041  60.480  15.217  1.00  0.00     0.005 C 
ATOM     15  C   UNL     1      29.656  60.742  13.844  1.00  0.00    -0.001 C 
ATOM     16  C   UNL     1      31.350  62.268  12.751  1.00  0.00     0.007 C 
ATOM     17  C   UNL     1      32.076  60.793  14.727  1.00  0.00     0.012 C 
ATOM     18  C   UNL     1      29.816  59.592  12.810  1.00  0.00     0.004 C 
ATOM     19  C   UNL     1      30.928  61.476  11.475  1.00  0.00     0.005 C 
ATOM     20  C   UNL     1      30.882  59.941  11.721  1.00  0.00     0.003 C 
ATOM     21  C   UNL     1      30.095  58.200  13.382  1.00  0.00     0.085 C 
ATOM     22  C   UNL     1      30.737  59.022  10.453  1.00  0.00    -0.000 C 
ATOM     23  C   UNL     1      30.180  57.189  12.267  1.00  0.00     0.159 C 
ATOM     24  C   UNL     1      30.716  57.552  10.918  1.00  0.00     0.005 C 
ATOM     25  C   UNL     1      31.961  59.245   9.507  1.00  0.00     0.020 C 
ATOM     26  C   UNL     1      29.432  59.321   9.669  1.00  0.00     0.017 C 
ATOM     27  O   UNL     1      29.848  55.997  12.517  1.00  0.00    -0.295 OA
ATOM     28  C   UNL     1      31.150  56.568  10.106  1.00  0.00     0.055 C 
ATOM     29  C   UNL     1      32.025  58.245   8.344  1.00  0.00     0.081 C 
ATOM     30  C   UNL     1      31.788  56.843   8.811  1.00  0.00     0.156 C 
ATOM     31  O   UNL     1      32.125  55.880   8.072  1.00  0.00    -0.295 OA
ENDBRANCH   9  11
ENDBRANCH   8   9
ENDBRANCH   1   8
TORSDOF 6
ENDMDL
MODEL 6
REMARK VINA RESULT:    -2.260      3.516      7.338
REMARK INTER + INTRA:          -5.126
REMARK INTER:                  -2.736
REMARK INTRA:                  -2.390
REMARK UNBOUND:                -2.073
REMARK SMILES CC[C@@H](CC[C@@H](C)[C@@H]1CC[C@@H]2[C@@H]3CC(=O)C4=CC(=O)CC[C@]4(C)[C@H]3CC[C@]21C)C(C)C
REMARK SMILES IDX 4 1 3 2 2 3 1 4 29 5 30 6 31 7 5 8 6 9 7 10 8 11 9 12 27 13
REMARK SMILES IDX 10 14 11 15 26 16 28 17 12 18 25 19 24 20 13 21 22 22 14 23
REMARK SMILES IDX 16 24 21 25 23 26 15 27 17 28 20 29 18 30 19 31
REMARK H PARENT
REMARK Flexibility Score: inf
ROOT
ATOM      1  C   UNL     1      29.028  57.904  11.553  1.00  0.00     0.004 C 
ENDROOT
BRANCH   1   2
ATOM      2  C   UNL     1      30.133  56.872  11.183  1.00  0.00    -0.009 C 
BRANCH   2   3
ATOM      3  C   UNL     1      30.495  55.877  12.332  1.00  0.00     0.000 C 
ATOM      4  C   UNL     1      31.740  56.223  13.159  1.00  0.00     0.004 C 
ENDBRANCH   2   3
BRANCH   2   5
ATOM      5  C   UNL     1      31.369  57.575  10.530  1.00  0.00    -0.014 C 
ATOM      6  C   UNL     1      31.178  59.096  10.419  1.00  0.00     0.007 C 
ATOM      7  C   UNL     1      31.772  56.990   9.170  1.00  0.00     0.007 C 
ENDBRANCH   2   5
ENDBRANCH   1   2
BRANCH   1   8
ATOM      8  C   UNL     1      28.303  57.594  12.888  1.00  0.00     0.004 C 
BRANCH   8   9
ATOM      9  C   UNL     1      28.603  58.606  14.029  1.00  0.00    -0.011 C 
ATOM     10  C   UNL     1      28.846  57.855  15.356  1.00  0.00     0.008 C 
BRANCH   9  11
ATOM     11  C   UNL     1      29.767  59.576  13.602  1.00  0.00    -0.002 C 
ATOM     12  C   UNL     1      31.057  59.556  14.468  1.00  0.00     0.005 C 
ATOM     13  C   UNL     1      29.423  61.086  13.434  1.00  0.00    -0.026 C 
ATOM     14  C   UNL     1      31.697  60.951  14.325  1.00  0.00     0.005 C 
ATOM     15  C   UNL     1      30.843  61.653  13.272  1.00  0.00    -0.001 C 
ATOM     16  C   UNL     1      28.590  61.418  12.149  1.00  0.00     0.007 C 
ATOM     17  C   UNL     1      28.704  61.621  14.709  1.00  0.00     0.012 C 
ATOM     18  C   UNL     1      30.947  63.189  13.055  1.00  0.00     0.004 C 
ATOM     19  C   UNL     1      29.076  62.683  11.378  1.00  0.00     0.005 C 
ATOM     20  C   UNL     1      29.685  63.755  12.327  1.00  0.00     0.003 C 
ATOM     21  C   UNL     1      31.251  64.030  14.297  1.00  0.00     0.085 C 
ATOM     22  C   UNL     1      29.960  65.176  11.711  1.00  0.00    -0.000 C 
ATOM     23  C   UNL     1      31.366  65.485  13.922  1.00  0.00     0.159 C 
ATOM     24  C   UNL     1      30.554  66.076  12.813  1.00  0.00     0.005 C 
ATOM     25  C   UNL     1      28.615  65.794  11.211  1.00  0.00     0.020 C 
ATOM     26  C   UNL     1      30.957  65.107  10.524  1.00  0.00     0.017 C 
ATOM     27  O   UNL     1      32.122  66.220  14.615  1.00  0.00    -0.295 OA
ATOM     28  C   UNL     1      30.379  67.411  12.778  1.00  0.00     0.055 C 
ATOM     29  C   UNL     1      28.739  67.264  10.785  1.00  0.00     0.081 C 
ATOM     30  C   UNL     1      29.510  68.064  11.788  1.00  0.00     0.156 C 
ATOM     31  O   UNL     1      29.427  69.320  11.771  1.00  0.00    -0.295 OA
ENDBRANCH   9  11
ENDBRANCH   8   9
ENDBRANCH   1   8
TORSDOF 6
ENDMDL
MODEL 7
REMARK VINA RESULT:    -2.214      1.734      4.205
REMARK INTER + INTRA:          -5.063
REMARK INTER:                  -3.544
REMARK INTRA:                  -1.519
REMARK UNBOUND:                -2.073
REMARK SMILES CC[C@@H](CC[C@@H](C)[C@@H]1CC[C@@H]2[C@@H]3CC(=O)C4=CC(=O)CC[C@]4(C)[C@H]3CC[C@]21C)C(C)C
REMARK SMILES IDX 4 1 3 2 2 3 1 4 29 5 30 6 31 7 5 8 6 9 7 10 8 11 9 12 27 13
REMARK SMILES IDX 10 14 11 15 26 16 28 17 12 18 25 19 24 20 13 21 22 22 14 23
REMARK SMILES IDX 16 24 21 25 23 26 15 27 17 28 20 29 18 30 19 31
REMARK H PARENT
REMARK Flexibility Score: inf
ROOT
ATOM      1  C   UNL     1      31.690  59.566   9.913  1.00  0.00     0.004 C 
ENDROOT
BRANCH   1   2
ATOM      2  C   UNL     1      30.588  60.277   9.074  1.00  0.00    -0.009 C 
BRANCH   2   3
ATOM      3  C   UNL     1      30.887  61.780   8.763  1.00  0.00     0.000 C 
ATOM      4  C   UNL     1      32.125  62.377   9.444  1.00  0.00     0.004 C 
ENDBRANCH   2   3
BRANCH   2   5
ATOM      5  C   UNL     1      29.166  60.015   9.667  1.00  0.00    -0.014 C 
ATOM      6  C   UNL     1      28.133  59.692   8.574  1.00  0.00     0.007 C 
ATOM      7  C   UNL     1      28.649  61.143  10.569  1.00  0.00     0.007 C 
ENDBRANCH   2   5
ENDBRANCH   1   2
BRANCH   1   8
ATOM      8  C   UNL     1      31.694  58.023   9.764  1.00  0.00     0.004 C 
BRANCH   8   9
ATOM      9  C   UNL     1      30.745  57.282  10.748  1.00  0.00    -0.011 C 
ATOM     10  C   UNL     1      30.381  55.889  10.189  1.00  0.00     0.008 C 
BRANCH   9  11
ATOM     11  C   UNL     1      31.369  57.265  12.193  1.00  0.00    -0.002 C 
ATOM     12  C   UNL     1      31.538  55.878  12.874  1.00  0.00     0.005 C 
ATOM     13  C   UNL     1      30.702  58.163  13.277  1.00  0.00    -0.026 C 
ATOM     14  C   UNL     1      31.484  56.132  14.394  1.00  0.00     0.005 C 
ATOM     15  C   UNL     1      31.446  57.653  14.522  1.00  0.00    -0.001 C 
ATOM     16  C   UNL     1      30.981  59.695  13.106  1.00  0.00     0.007 C 
ATOM     17  C   UNL     1      29.169  57.887  13.338  1.00  0.00     0.012 C 
ATOM     18  C   UNL     1      31.071  58.330  15.871  1.00  0.00     0.004 C 
ATOM     19  C   UNL     1      31.328  60.437  14.433  1.00  0.00     0.005 C 
ATOM     20  C   UNL     1      30.612  59.810  15.664  1.00  0.00     0.003 C 
ATOM     21  C   UNL     1      30.055  57.588  16.742  1.00  0.00     0.085 C 
ATOM     22  C   UNL     1      30.664  60.626  17.008  1.00  0.00    -0.000 C 
ATOM     23  C   UNL     1      29.829  58.341  18.028  1.00  0.00     0.159 C 
ATOM     24  C   UNL     1      29.897  59.834  18.086  1.00  0.00     0.005 C 
ATOM     25  C   UNL     1      29.975  62.013  16.801  1.00  0.00     0.020 C 
ATOM     26  C   UNL     1      32.121  60.852  17.490  1.00  0.00     0.017 C 
ATOM     27  O   UNL     1      29.510  57.681  19.056  1.00  0.00    -0.295 OA
ATOM     28  C   UNL     1      29.304  60.471  19.115  1.00  0.00     0.055 C 
ATOM     29  C   UNL     1      29.784  62.801  18.104  1.00  0.00     0.081 C 
ATOM     30  C   UNL     1      29.231  61.938  19.193  1.00  0.00     0.156 C 
ATOM     31  O   UNL     1      28.711  62.476  20.206  1.00  0.00    -0.295 OA
ENDBRANCH   9  11
ENDBRANCH   8   9
ENDBRANCH   1   8
TORSDOF 6
ENDMDL
MODEL 8
REMARK VINA RESULT:    -2.168      1.514      1.974
REMARK INTER + INTRA:          -5.001
REMARK INTER:                  -2.964
REMARK INTRA:                  -2.037
REMARK UNBOUND:                -2.073
REMARK SMILES CC[C@@H](CC[C@@H](C)[C@@H]1CC[C@@H]2[C@@H]3CC(=O)C4=CC(=O)CC[C@]4(C)[C@H]3CC[C@]21C)C(C)C
REMARK SMILES IDX 4 1 3 2 2 3 1 4 29 5 30 6 31 7 5 8 6 9 7 10 8 11 9 12 27 13
REMARK SMILES IDX 10 14 11 15 26 16 28 17 12 18 25 19 24 20 13 21 22 22 14 23
REMARK SMILES IDX 16 24 21 25 23 26 15 27 17 28 20 29 18 30 19 31
REMARK H PARENT
REMARK Flexibility Score: inf
ROOT
ATOM      1  C   UNL     1      29.493  58.079  11.165  1.00  0.00     0.004 C 
ENDROOT
BRANCH   1   2
ATOM      2  C   UNL     1      30.846  57.311  11.187  1.00  0.00    -0.009 C 
BRANCH   2   3
ATOM      3  C   UNL     1      31.367  56.886   9.775  1.00  0.00     0.000 C 
ATOM      4  C   UNL     1      32.125  57.960   8.984  1.00  0.00     0.004 C 
ENDBRANCH   2   3
BRANCH   2   5
ATOM      5  C   UNL     1      30.824  56.152  12.237  1.00  0.00    -0.014 C 
ATOM      6  C   UNL     1      29.406  55.875  12.764  1.00  0.00     0.007 C 
ATOM      7  C   UNL     1      31.795  56.353  13.408  1.00  0.00     0.007 C 
ENDBRANCH   2   5
ENDBRANCH   1   2
BRANCH   1   8
ATOM      8  C   UNL     1      29.644  59.612  10.996  1.00  0.00     0.004 C 
BRANCH   8   9
ATOM      9  C   UNL     1      30.822  60.232  11.797  1.00  0.00    -0.011 C 
ATOM     10  C   UNL     1      31.673  61.137  10.879  1.00  0.00     0.008 C 
BRANCH   9  11
ATOM     11  C   UNL     1      30.283  60.938  13.096  1.00  0.00    -0.002 C 
ATOM     12  C   UNL     1      30.815  62.367  13.398  1.00  0.00     0.005 C 
ATOM     13  C   UNL     1      30.418  60.169  14.444  1.00  0.00    -0.026 C 
ATOM     14  C   UNL     1      30.732  62.547  14.927  1.00  0.00     0.005 C 
ATOM     15  C   UNL     1      30.016  61.291  15.417  1.00  0.00    -0.001 C 
ATOM     16  C   UNL     1      29.421  58.971  14.605  1.00  0.00     0.007 C 
ATOM     17  C   UNL     1      31.888  59.694  14.650  1.00  0.00     0.012 C 
ATOM     18  C   UNL     1      30.004  60.917  16.926  1.00  0.00     0.004 C 
ATOM     19  C   UNL     1      28.749  58.879  16.010  1.00  0.00     0.005 C 
ATOM     20  C   UNL     1      29.676  59.405  17.143  1.00  0.00     0.003 C 
ATOM     21  C   UNL     1      31.250  61.299  17.728  1.00  0.00     0.085 C 
ATOM     22  C   UNL     1      29.225  59.116  18.622  1.00  0.00    -0.000 C 
ATOM     23  C   UNL     1      31.072  60.916  19.175  1.00  0.00     0.159 C 
ATOM     24  C   UNL     1      30.278  59.713  19.576  1.00  0.00     0.005 C 
ATOM     25  C   UNL     1      29.142  57.571  18.848  1.00  0.00     0.020 C 
ATOM     26  C   UNL     1      27.843  59.747  18.937  1.00  0.00     0.017 C 
ATOM     27  O   UNL     1      31.672  61.600  20.050  1.00  0.00    -0.295 OA
ATOM     28  C   UNL     1      30.477  59.183  20.799  1.00  0.00     0.055 C 
ATOM     29  C   UNL     1      28.916  57.180  20.314  1.00  0.00     0.081 C 
ATOM     30  C   UNL     1      29.818  57.942  21.233  1.00  0.00     0.156 C 
ATOM     31  O   UNL     1      30.002  57.523  22.407  1.00  0.00    -0.295 OA
ENDBRANCH   9  11
ENDBRANCH   8   9
ENDBRANCH   1   8
TORSDOF 6
ENDMDL
MODEL 9
REMARK VINA RESULT:    -1.716      2.600      3.298
REMARK INTER + INTRA:          -4.391
REMARK INTER:                  -2.432
REMARK INTRA:                  -1.959
REMARK UNBOUND:                -2.073
REMARK SMILES CC[C@@H](CC[C@@H](C)[C@@H]1CC[C@@H]2[C@@H]3CC(=O)C4=CC(=O)CC[C@]4(C)[C@H]3CC[C@]21C)C(C)C
REMARK SMILES IDX 4 1 3 2 2 3 1 4 29 5 30 6 31 7 5 8 6 9 7 10 8 11 9 12 27 13
REMARK SMILES IDX 10 14 11 15 26 16 28 17 12 18 25 19 24 20 13 21 22 22 14 23
REMARK SMILES IDX 16 24 21 25 23 26 15 27 17 28 20 29 18 30 19 31
REMARK H PARENT
REMARK Flexibility Score: inf
ROOT
ATOM      1  C   UNL     1      29.446  57.524   9.973  1.00  0.00     0.004 C 
ENDROOT
BRANCH   1   2
ATOM      2  C   UNL     1      30.667  56.744  10.539  1.00  0.00    -0.009 C 
BRANCH   2   3
ATOM      3  C   UNL     1      31.494  55.973   9.460  1.00  0.00     0.000 C 
ATOM      4  C   UNL     1      30.862  55.875   8.066  1.00  0.00     0.004 C 
ENDBRANCH   2   3
BRANCH   2   5
ATOM      5  C   UNL     1      30.263  55.878  11.777  1.00  0.00    -0.014 C 
ATOM      6  C   UNL     1      28.882  56.268  12.330  1.00  0.00     0.007 C 
ATOM      7  C   UNL     1      31.304  55.875  12.903  1.00  0.00     0.007 C 
ENDBRANCH   2   5
ENDBRANCH   1   2
BRANCH   1   8
ATOM      8  C   UNL     1      29.725  59.027   9.715  1.00  0.00     0.004 C 
BRANCH   8   9
ATOM      9  C   UNL     1      30.982  59.579  10.444  1.00  0.00    -0.011 C 
ATOM     10  C   UNL     1      32.090  59.907   9.420  1.00  0.00     0.008 C 
BRANCH   9  11
ATOM     11  C   UNL     1      30.582  60.777  11.382  1.00  0.00    -0.002 C 
ATOM     12  C   UNL     1      31.626  61.914  11.562  1.00  0.00     0.005 C 
ATOM     13  C   UNL     1      30.111  60.436  12.828  1.00  0.00    -0.026 C 
ATOM     14  C   UNL     1      31.351  62.542  12.943  1.00  0.00     0.005 C 
ATOM     15  C   UNL     1      30.076  61.853  13.424  1.00  0.00    -0.001 C 
ATOM     16  C   UNL     1      28.677  59.811  12.908  1.00  0.00     0.007 C 
ATOM     17  C   UNL     1      31.153  59.514  13.531  1.00  0.00     0.012 C 
ATOM     18  C   UNL     1      29.623  61.961  14.907  1.00  0.00     0.004 C 
ATOM     19  C   UNL     1      27.787  60.390  14.051  1.00  0.00     0.005 C 
ATOM     20  C   UNL     1      28.625  60.821  15.290  1.00  0.00     0.003 C 
ATOM     21  C   UNL     1      30.737  62.048  15.952  1.00  0.00     0.085 C 
ATOM     22  C   UNL     1      27.829  61.163  16.602  1.00  0.00    -0.000 C 
ATOM     23  C   UNL     1      30.145  62.194  17.331  1.00  0.00     0.159 C 
ATOM     24  C   UNL     1      28.841  61.557  17.696  1.00  0.00     0.005 C 
ATOM     25  C   UNL     1      27.031  59.902  17.069  1.00  0.00     0.020 C 
ATOM     26  C   UNL     1      26.838  62.336  16.386  1.00  0.00     0.017 C 
ATOM     27  O   UNL     1      30.813  62.816  18.203  1.00  0.00    -0.295 OA
ATOM     28  C   UNL     1      28.556  61.364  18.998  1.00  0.00     0.055 C 
ATOM     29  C   UNL     1      26.389  60.065  18.454  1.00  0.00     0.081 C 
ATOM     30  C   UNL     1      27.348  60.651  19.441  1.00  0.00     0.156 C 
ATOM     31  O   UNL     1      27.109  60.549  20.673  1.00  0.00    -0.295 OA
ENDBRANCH   9  11
ENDBRANCH   8   9
ENDBRANCH   1   8
TORSDOF 6
ENDMDL
