MODEL 1
REMARK VINA RESULT:    -3.262      0.000      0.000
REMARK INTER + INTRA:          -3.929
REMARK INTER:                  -3.834
REMARK INTRA:                  -0.095
REMARK UNBOUND:                -0.095
REMARK SMILES O=C([O-])CCC(=O)[O-]
REMARK SMILES IDX 4 1 2 2 1 3 3 4 5 5 6 6 7 7 8 8
REMARK H PARENT
REMARK Flexibility Score: inf
ROOT
ATOM      1  C   UNL     1      19.575   7.701  13.253  1.00  0.00     0.059 C 
ENDROOT
BRANCH   1   2
ATOM      2  C   UNL     1      19.738   6.229  13.044  1.00  0.00     0.042 C 
ATOM      3  O   UNL     1      20.318   5.797  12.013  1.00  0.00    -0.550 OA
ATOM      4  O   UNL     1      19.294   5.335  14.010  1.00  0.00    -0.550 OA
ENDBRANCH   1   2
BRANCH   1   5
ATOM      5  C   UNL     1      19.102   8.376  11.964  1.00  0.00     0.059 C 
BRANCH   5   6
ATOM      6  C   UNL     1      20.178   9.255  11.409  1.00  0.00     0.042 C 
ATOM      7  O   UNL     1      20.073   9.727  10.247  1.00  0.00    -0.550 OA
ATOM      8  O   UNL     1      21.321   9.512  12.155  1.00  0.00    -0.550 OA
ENDBRANCH   5   6
ENDBRANCH   1   5
TORSDOF 3
ENDMDL
MODEL 2
REMARK VINA RESULT:    -3.260      0.080      3.902
REMARK INTER + INTRA:          -3.927
REMARK INTER:                  -3.835
REMARK INTRA:                  -0.091
REMARK UNBOUND:                -0.095
REMARK SMILES O=C([O-])CCC(=O)[O-]
REMARK SMILES IDX 4 1 2 2 1 3 3 4 5 5 6 6 7 7 8 8
REMARK H PARENT
REMARK Flexibility Score: inf
ROOT
ATOM      1  C   UNL     1      19.164   8.398  12.022  1.00  0.00     0.059 C 
ENDROOT
BRANCH   1   2
ATOM      2  C   UNL     1      20.262   9.256  11.479  1.00  0.00     0.042 C 
ATOM      3  O   UNL     1      21.278   9.503  12.180  1.00  0.00    -0.550 OA
ATOM      4  O   UNL     1      20.187   9.743  10.180  1.00  0.00    -0.550 OA
ENDBRANCH   1   2
BRANCH   1   5
ATOM      5  C   UNL     1      19.622   7.686  13.297  1.00  0.00     0.059 C 
BRANCH   5   6
ATOM      6  C   UNL     1      19.768   6.218  13.052  1.00  0.00     0.042 C 
ATOM      7  O   UNL     1      20.264   5.802  11.973  1.00  0.00    -0.550 OA
ATOM      8  O   UNL     1      19.310   5.306  13.995  1.00  0.00    -0.550 OA
ENDBRANCH   5   6
ENDBRANCH   1   5
TORSDOF 3
ENDMDL
MODEL 3
REMARK VINA RESULT:    -3.239     20.420     21.064
REMARK INTER + INTRA:          -3.902
REMARK INTER:                  -3.785
REMARK INTRA:                  -0.117
REMARK UNBOUND:                -0.095
REMARK SMILES O=C([O-])CCC(=O)[O-]
REMARK SMILES IDX 4 1 2 2 1 3 3 4 5 5 6 6 7 7 8 8
REMARK H PARENT
REMARK Flexibility Score: inf
ROOT
ATOM      1  C   UNL     1      33.059  -0.374  -1.786  1.00  0.00     0.059 C 
ENDROOT
BRANCH   1   2
ATOM      2  C   UNL     1      33.927  -0.734  -2.951  1.00  0.00     0.042 C 
ATOM      3  O   UNL     1      33.482  -0.638  -4.125  1.00  0.00    -0.550 OA
ATOM      4  O   UNL     1      35.242  -1.127  -2.743  1.00  0.00    -0.550 OA
ENDBRANCH   1   2
BRANCH   1   5
ATOM      5  C   UNL     1      31.614  -0.806  -2.042  1.00  0.00     0.059 C 
BRANCH   5   6
ATOM      6  C   UNL     1      30.721   0.389  -2.151  1.00  0.00     0.042 C 
ATOM      7  O   UNL     1      30.020   0.747  -1.168  1.00  0.00    -0.550 OA
ATOM      8  O   UNL     1      30.625   1.079  -3.352  1.00  0.00    -0.550 OA
ENDBRANCH   5   6
ENDBRANCH   1   5
TORSDOF 3
ENDMDL
MODEL 4
REMARK VINA RESULT:    -3.232      0.103      1.147
REMARK INTER + INTRA:          -3.894
REMARK INTER:                  -3.815
REMARK INTRA:                  -0.079
REMARK UNBOUND:                -0.095
REMARK SMILES O=C([O-])CCC(=O)[O-]
REMARK SMILES IDX 4 1 2 2 1 3 3 4 5 5 6 6 7 7 8 8
REMARK H PARENT
REMARK Flexibility Score: inf
ROOT
ATOM      1  C   UNL     1      19.557   7.694  13.251  1.00  0.00     0.059 C 
ENDROOT
BRANCH   1   2
ATOM      2  C   UNL     1      19.740   6.229  13.015  1.00  0.00     0.042 C 
ATOM      3  O   UNL     1      20.273   5.821  11.950  1.00  0.00    -0.550 OA
ATOM      4  O   UNL     1      19.367   5.314  13.992  1.00  0.00    -0.550 OA
ENDBRANCH   1   2
BRANCH   1   5
ATOM      5  C   UNL     1      19.161   8.401  11.953  1.00  0.00     0.059 C 
BRANCH   5   6
ATOM      6  C   UNL     1      20.306   9.206  11.425  1.00  0.00     0.042 C 
ATOM      7  O   UNL     1      21.305   9.440  12.155  1.00  0.00    -0.550 OA
ATOM      8  O   UNL     1      20.249   9.741  10.145  1.00  0.00    -0.550 OA
ENDBRANCH   5   6
ENDBRANCH   1   5
TORSDOF 3
ENDMDL
MODEL 5
REMARK VINA RESULT:    -3.232     13.498     14.449
REMARK INTER + INTRA:          -3.893
REMARK INTER:                  -3.846
REMARK INTRA:                  -0.047
REMARK UNBOUND:                -0.095
REMARK SMILES O=C([O-])CCC(=O)[O-]
REMARK SMILES IDX 4 1 2 2 1 3 3 4 5 5 6 6 7 7 8 8
REMARK H PARENT
REMARK Flexibility Score: inf
ROOT
ATOM      1  C   UNL     1      18.033  -6.433   9.003  1.00  0.00     0.059 C 
ENDROOT
BRANCH   1   2
ATOM      2  C   UNL     1      17.542  -5.811   7.734  1.00  0.00     0.042 C 
ATOM      3  O   UNL     1      17.772  -4.597   7.494  1.00  0.00    -0.550 OA
ATOM      4  O   UNL     1      16.875  -6.585   6.793  1.00  0.00    -0.550 OA
ENDBRANCH   1   2
BRANCH   1   5
ATOM      5  C   UNL     1      16.980  -6.303  10.105  1.00  0.00     0.059 C 
BRANCH   5   6
ATOM      6  C   UNL     1      17.594  -5.753  11.353  1.00  0.00     0.042 C 
ATOM      7  O   UNL     1      18.744  -6.121  11.709  1.00  0.00    -0.550 OA
ATOM      8  O   UNL     1      16.877  -4.871  12.151  1.00  0.00    -0.550 OA
ENDBRANCH   5   6
ENDBRANCH   1   5
TORSDOF 3
ENDMDL
MODEL 6
REMARK VINA RESULT:    -3.089      1.839      3.997
REMARK INTER + INTRA:          -3.726
REMARK INTER:                  -3.652
REMARK INTRA:                  -0.074
REMARK UNBOUND:                -0.095
REMARK SMILES O=C([O-])CCC(=O)[O-]
REMARK SMILES IDX 4 1 2 2 1 3 3 4 5 5 6 6 7 7 8 8
REMARK H PARENT
REMARK Flexibility Score: inf
ROOT
ATOM      1  C   UNL     1      20.660  10.074  11.912  1.00  0.00     0.059 C 
ENDROOT
BRANCH   1   2
ATOM      2  C   UNL     1      20.223   9.808  10.506  1.00  0.00     0.042 C 
ATOM      3  O   UNL     1      19.063  10.125  10.134  1.00  0.00    -0.550 OA
ATOM      4  O   UNL     1      21.113   9.258   9.593  1.00  0.00    -0.550 OA
ENDBRANCH   1   2
BRANCH   1   5
ATOM      5  C   UNL     1      19.563   9.670  12.899  1.00  0.00     0.059 C 
BRANCH   5   6
ATOM      6  C   UNL     1      19.947   8.422  13.628  1.00  0.00     0.042 C 
ATOM      7  O   UNL     1      19.788   8.341  14.874  1.00  0.00    -0.550 OA
ATOM      8  O   UNL     1      20.527   7.365  12.938  1.00  0.00    -0.550 OA
ENDBRANCH   5   6
ENDBRANCH   1   5
TORSDOF 3
ENDMDL
MODEL 7
REMARK VINA RESULT:    -3.074      3.224      5.525
REMARK INTER + INTRA:          -3.708
REMARK INTER:                  -3.673
REMARK INTRA:                  -0.035
REMARK UNBOUND:                -0.095
REMARK SMILES O=C([O-])CCC(=O)[O-]
REMARK SMILES IDX 4 1 2 2 1 3 3 4 5 5 6 6 7 7 8 8
REMARK H PARENT
REMARK Flexibility Score: inf
ROOT
ATOM      1  C   UNL     1      21.047  10.125   8.122  1.00  0.00     0.059 C 
ENDROOT
BRANCH   1   2
ATOM      2  C   UNL     1      21.650   9.488   6.911  1.00  0.00     0.042 C 
ATOM      3  O   UNL     1      21.092   8.495   6.373  1.00  0.00    -0.550 OA
ATOM      4  O   UNL     1      22.802  10.019   6.345  1.00  0.00    -0.550 OA
ENDBRANCH   1   2
BRANCH   1   5
ATOM      5  C   UNL     1      21.387   9.318   9.377  1.00  0.00     0.059 C 
BRANCH   5   6
ATOM      6  C   UNL     1      20.474   9.689  10.502  1.00  0.00     0.042 C 
ATOM      7  O   UNL     1      20.860   9.578  11.694  1.00  0.00    -0.550 OA
ATOM      8  O   UNL     1      19.177  10.109  10.235  1.00  0.00    -0.550 OA
ENDBRANCH   5   6
ENDBRANCH   1   5
TORSDOF 3
ENDMDL
MODEL 8
REMARK VINA RESULT:    -2.941      1.670      2.148
REMARK INTER + INTRA:          -3.552
REMARK INTER:                  -3.465
REMARK INTRA:                  -0.087
REMARK UNBOUND:                -0.095
REMARK SMILES O=C([O-])CCC(=O)[O-]
REMARK SMILES IDX 4 1 2 2 1 3 3 4 5 5 6 6 7 7 8 8
REMARK H PARENT
REMARK Flexibility Score: inf
ROOT
ATOM      1  C   UNL     1      19.908   6.076  12.802  1.00  0.00     0.059 C 
ENDROOT
BRANCH   1   2
ATOM      2  C   UNL     1      19.028   5.557  13.894  1.00  0.00     0.042 C 
ATOM      3  O   UNL     1      17.810   5.872  13.929  1.00  0.00    -0.550 OA
ATOM      4  O   UNL     1      19.541   4.685  14.846  1.00  0.00    -0.550 OA
ENDBRANCH   1   2
BRANCH   1   5
ATOM      5  C   UNL     1      19.438   7.460  12.348  1.00  0.00     0.059 C 
BRANCH   5   6
ATOM      6  C   UNL     1      20.225   8.531  13.035  1.00  0.00     0.042 C 
ATOM      7  O   UNL     1      19.980   8.825  14.235  1.00  0.00    -0.550 OA
ATOM      8  O   UNL     1      21.194   9.240  12.337  1.00  0.00    -0.550 OA
ENDBRANCH   5   6
ENDBRANCH   1   5
TORSDOF 3
ENDMDL
MODEL 9
REMARK VINA RESULT:    -2.906     19.868     20.437
REMARK INTER + INTRA:          -3.511
REMARK INTER:                  -3.372
REMARK INTRA:                  -0.139
REMARK UNBOUND:                -0.095
REMARK SMILES O=C([O-])CCC(=O)[O-]
REMARK SMILES IDX 4 1 2 2 1 3 3 4 5 5 6 6 7 7 8 8
REMARK H PARENT
REMARK Flexibility Score: inf
ROOT
ATOM      1  C   UNL     1      31.088  -0.293  -3.352  1.00  0.00     0.059 C 
ENDROOT
BRANCH   1   2
ATOM      2  C   UNL     1      31.119  -0.108  -1.868  1.00  0.00     0.042 C 
ATOM      3  O   UNL     1      32.085  -0.552  -1.195  1.00  0.00    -0.550 OA
ATOM      4  O   UNL     1      30.104   0.597  -1.233  1.00  0.00    -0.550 OA
ENDBRANCH   1   2
BRANCH   1   5
ATOM      5  C   UNL     1      30.936   1.058  -4.056  1.00  0.00     0.059 C 
BRANCH   5   6
ATOM      6  C   UNL     1      32.217   1.828  -3.992  1.00  0.00     0.042 C 
ATOM      7  O   UNL     1      33.320   1.235  -4.124  1.00  0.00    -0.550 OA
ATOM      8  O   UNL     1      32.197   3.193  -3.736  1.00  0.00    -0.550 OA
ENDBRANCH   5   6
ENDBRANCH   1   5
TORSDOF 3
ENDMDL
