MODEL 1
REMARK VINA RESULT:    -3.223      0.000      0.000
REMARK INTER + INTRA:          -4.783
REMARK INTER:                  -4.165
REMARK INTRA:                  -0.619
REMARK UNBOUND:                -0.619
REMARK SMILES C=CC(=O)CCCCC
REMARK SMILES IDX 6 1 7 2 8 3 9 4 5 5 3 6 4 7 2 8 1 9
REMARK H PARENT
REMARK Flexibility Score: inf
ROOT
ATOM      1  C   UNL     1      -3.379  12.854  -5.120  1.00  0.00     0.008 C 
ENDROOT
BRANCH   1   2
ATOM      2  C   UNL     1      -3.714  12.765  -3.623  1.00  0.00     0.000 C 
BRANCH   2   3
ATOM      3  C   UNL     1      -4.390  14.038  -3.092  1.00  0.00    -0.003 C 
ATOM      4  C   UNL     1      -5.800  13.742  -2.589  1.00  0.00     0.004 C 
ENDBRANCH   2   3
ENDBRANCH   1   2
BRANCH   1   5
ATOM      5  C   UNL     1      -4.171  11.848  -5.964  1.00  0.00     0.080 C 
BRANCH   5   6
ATOM      6  C   UNL     1      -5.575  12.333  -6.181  1.00  0.00     0.155 C 
ATOM      7  O   UNL     1      -5.763  13.495  -6.633  1.00  0.00    -0.295 OA
BRANCH   6   8
ATOM      8  C   UNL     1      -6.719  11.473  -5.821  1.00  0.00     0.039 C 
ATOM      9  C   UNL     1      -6.803  10.848  -4.648  1.00  0.00     0.012 C 
ENDBRANCH   6   8
ENDBRANCH   5   6
ENDBRANCH   1   5
TORSDOF 5
ENDMDL
MODEL 2
REMARK VINA RESULT:    -3.214      1.320      3.380
REMARK INTER + INTRA:          -4.772
REMARK INTER:                  -4.172
REMARK INTRA:                  -0.601
REMARK UNBOUND:                -0.619
REMARK SMILES C=CC(=O)CCCCC
REMARK SMILES IDX 6 1 7 2 8 3 9 4 5 5 3 6 4 7 2 8 1 9
REMARK H PARENT
REMARK Flexibility Score: inf
ROOT
ATOM      1  C   UNL     1      -5.236  12.596  -6.728  1.00  0.00     0.008 C 
ENDROOT
BRANCH   1   2
ATOM      2  C   UNL     1      -6.690  12.449  -6.257  1.00  0.00     0.000 C 
BRANCH   2   3
ATOM      3  C   UNL     1      -7.011  11.030  -5.763  1.00  0.00    -0.003 C 
ATOM      4  C   UNL     1      -7.633  11.061  -4.370  1.00  0.00     0.004 C 
ENDBRANCH   2   3
ENDBRANCH   1   2
BRANCH   1   5
ATOM      5  C   UNL     1      -4.246  11.828  -5.842  1.00  0.00     0.080 C 
BRANCH   5   6
ATOM      6  C   UNL     1      -3.715  12.716  -4.755  1.00  0.00     0.155 C 
ATOM      7  O   UNL     1      -2.763  13.502  -5.011  1.00  0.00    -0.295 OA
BRANCH   6   8
ATOM      8  C   UNL     1      -4.275  12.632  -3.392  1.00  0.00     0.039 C 
ATOM      9  C   UNL     1      -5.069  13.573  -2.885  1.00  0.00     0.012 C 
ENDBRANCH   6   8
ENDBRANCH   5   6
ENDBRANCH   1   5
TORSDOF 5
ENDMDL
MODEL 3
REMARK VINA RESULT:    -3.209     14.745     15.952
REMARK INTER + INTRA:          -4.766
REMARK INTER:                  -4.198
REMARK INTRA:                  -0.567
REMARK UNBOUND:                -0.619
REMARK SMILES C=CC(=O)CCCCC
REMARK SMILES IDX 6 1 7 2 8 3 9 4 5 5 3 6 4 7 2 8 1 9
REMARK H PARENT
REMARK Flexibility Score: inf
ROOT
ATOM      1  C   UNL     1       6.791   4.151  -5.027  1.00  0.00     0.008 C 
ENDROOT
BRANCH   1   2
ATOM      2  C   UNL     1       6.646   5.414  -5.889  1.00  0.00     0.000 C 
BRANCH   2   3
ATOM      3  C   UNL     1       6.530   5.097  -7.388  1.00  0.00    -0.003 C 
ATOM      4  C   UNL     1       7.773   5.554  -8.144  1.00  0.00     0.004 C 
ENDBRANCH   2   3
ENDBRANCH   1   2
BRANCH   1   5
ATOM      5  C   UNL     1       6.182   2.909  -5.690  1.00  0.00     0.080 C 
BRANCH   5   6
ATOM      6  C   UNL     1       7.216   1.831  -5.836  1.00  0.00     0.155 C 
ATOM      7  O   UNL     1       6.888   0.630  -5.634  1.00  0.00    -0.295 OA
BRANCH   6   8
ATOM      8  C   UNL     1       8.611   2.183  -6.165  1.00  0.00     0.039 C 
ATOM      9  C   UNL     1       9.082   2.151  -7.410  1.00  0.00     0.012 C 
ENDBRANCH   6   8
ENDBRANCH   5   6
ENDBRANCH   1   5
TORSDOF 5
ENDMDL
MODEL 4
REMARK VINA RESULT:    -3.189     14.031     15.225
REMARK INTER + INTRA:          -4.740
REMARK INTER:                  -4.338
REMARK INTRA:                  -0.402
REMARK UNBOUND:                -0.619
REMARK SMILES C=CC(=O)CCCCC
REMARK SMILES IDX 6 1 7 2 8 3 9 4 5 5 3 6 4 7 2 8 1 9
REMARK H PARENT
REMARK Flexibility Score: inf
ROOT
ATOM      1  C   UNL     1       6.156   3.770  -7.397  1.00  0.00     0.008 C 
ENDROOT
BRANCH   1   2
ATOM      2  C   UNL     1       7.029   5.025  -7.554  1.00  0.00     0.000 C 
BRANCH   2   3
ATOM      3  C   UNL     1       6.644   6.140  -6.569  1.00  0.00    -0.003 C 
ATOM      4  C   UNL     1       6.131   7.372  -7.308  1.00  0.00     0.004 C 
ENDBRANCH   2   3
ENDBRANCH   1   2
BRANCH   1   5
ATOM      5  C   UNL     1       5.748   3.513  -5.940  1.00  0.00     0.080 C 
BRANCH   5   6
ATOM      6  C   UNL     1       6.726   2.588  -5.276  1.00  0.00     0.155 C 
ATOM      7  O   UNL     1       6.597   1.343  -5.427  1.00  0.00    -0.295 OA
BRANCH   6   8
ATOM      8  C   UNL     1       7.796   3.134  -4.419  1.00  0.00     0.039 C 
ATOM      9  C   UNL     1       9.081   2.835  -4.601  1.00  0.00     0.012 C 
ENDBRANCH   6   8
ENDBRANCH   5   6
ENDBRANCH   1   5
TORSDOF 5
ENDMDL
MODEL 5
REMARK VINA RESULT:    -3.113      2.086      3.284
REMARK INTER + INTRA:          -4.642
REMARK INTER:                  -4.156
REMARK INTRA:                  -0.485
REMARK UNBOUND:                -0.619
REMARK SMILES C=CC(=O)CCCCC
REMARK SMILES IDX 6 1 7 2 8 3 9 4 5 5 3 6 4 7 2 8 1 9
REMARK H PARENT
REMARK Flexibility Score: inf
ROOT
ATOM      1  C   UNL     1      -4.983  13.743  -2.782  1.00  0.00     0.008 C 
ENDROOT
BRANCH   1   2
ATOM      2  C   UNL     1      -4.157  12.609  -3.407  1.00  0.00     0.000 C 
BRANCH   2   3
ATOM      3  C   UNL     1      -3.672  12.942  -4.826  1.00  0.00    -0.003 C 
ATOM      4  C   UNL     1      -3.956  11.792  -5.787  1.00  0.00     0.004 C 
ENDBRANCH   2   3
ENDBRANCH   1   2
BRANCH   1   5
ATOM      5  C   UNL     1      -6.209  14.115  -3.627  1.00  0.00     0.080 C 
BRANCH   5   6
ATOM      6  C   UNL     1      -7.459  13.556  -3.013  1.00  0.00     0.155 C 
ATOM      7  O   UNL     1      -7.852  14.000  -1.901  1.00  0.00    -0.295 OA
BRANCH   6   8
ATOM      8  C   UNL     1      -8.190  12.466  -3.687  1.00  0.00     0.039 C 
ATOM      9  C   UNL     1      -7.602  11.632  -4.543  1.00  0.00     0.012 C 
ENDBRANCH   6   8
ENDBRANCH   5   6
ENDBRANCH   1   5
TORSDOF 5
ENDMDL
MODEL 6
REMARK VINA RESULT:    -3.107     14.523     15.839
REMARK INTER + INTRA:          -4.634
REMARK INTER:                  -4.210
REMARK INTRA:                  -0.424
REMARK UNBOUND:                -0.619
REMARK SMILES C=CC(=O)CCCCC
REMARK SMILES IDX 6 1 7 2 8 3 9 4 5 5 3 6 4 7 2 8 1 9
REMARK H PARENT
REMARK Flexibility Score: inf
ROOT
ATOM      1  C   UNL     1       6.572   1.435  -8.607  1.00  0.00     0.008 C 
ENDROOT
BRANCH   1   2
ATOM      2  C   UNL     1       6.137   2.469  -9.657  1.00  0.00     0.000 C 
BRANCH   2   3
ATOM      3  C   UNL     1       5.131   3.488  -9.102  1.00  0.00    -0.003 C 
ATOM      4  C   UNL     1       3.718   3.186  -9.590  1.00  0.00     0.004 C 
ENDBRANCH   2   3
ENDBRANCH   1   2
BRANCH   1   5
ATOM      5  C   UNL     1       7.455   2.044  -7.510  1.00  0.00     0.080 C 
BRANCH   5   6
ATOM      6  C   UNL     1       6.859   1.792  -6.156  1.00  0.00     0.155 C 
ATOM      7  O   UNL     1       6.904   0.631  -5.668  1.00  0.00    -0.295 OA
BRANCH   6   8
ATOM      8  C   UNL     1       6.186   2.887  -5.429  1.00  0.00     0.039 C 
ATOM      9  C   UNL     1       6.443   4.171  -5.672  1.00  0.00     0.012 C 
ENDBRANCH   6   8
ENDBRANCH   5   6
ENDBRANCH   1   5
TORSDOF 5
ENDMDL
MODEL 7
REMARK VINA RESULT:    -3.076     15.317     16.536
REMARK INTER + INTRA:          -4.594
REMARK INTER:                  -4.016
REMARK INTRA:                  -0.578
REMARK UNBOUND:                -0.619
REMARK SMILES C=CC(=O)CCCCC
REMARK SMILES IDX 6 1 7 2 8 3 9 4 5 5 3 6 4 7 2 8 1 9
REMARK H PARENT
REMARK Flexibility Score: inf
ROOT
ATOM      1  C   UNL     1       7.094   4.288  -5.254  1.00  0.00     0.008 C 
ENDROOT
BRANCH   1   2
ATOM      2  C   UNL     1       5.850   3.591  -5.825  1.00  0.00     0.000 C 
BRANCH   2   3
ATOM      3  C   UNL     1       5.959   3.330  -7.335  1.00  0.00    -0.003 C 
ATOM      4  C   UNL     1       7.131   4.098  -7.941  1.00  0.00     0.004 C 
ENDBRANCH   2   3
ENDBRANCH   1   2
BRANCH   1   5
ATOM      5  C   UNL     1       7.724   3.513  -4.089  1.00  0.00     0.080 C 
BRANCH   5   6
ATOM      6  C   UNL     1       8.916   2.733  -4.561  1.00  0.00     0.155 C 
ATOM      7  O   UNL     1      10.071   3.212  -4.397  1.00  0.00    -0.295 OA
BRANCH   6   8
ATOM      8  C   UNL     1       8.729   1.441  -5.250  1.00  0.00     0.039 C 
ATOM      9  C   UNL     1       9.100   1.245  -6.514  1.00  0.00     0.012 C 
ENDBRANCH   6   8
ENDBRANCH   5   6
ENDBRANCH   1   5
TORSDOF 5
ENDMDL
MODEL 8
REMARK VINA RESULT:    -3.060     14.125     15.004
REMARK INTER + INTRA:          -4.573
REMARK INTER:                  -4.018
REMARK INTRA:                  -0.555
REMARK UNBOUND:                -0.619
REMARK SMILES C=CC(=O)CCCCC
REMARK SMILES IDX 6 1 7 2 8 3 9 4 5 5 3 6 4 7 2 8 1 9
REMARK H PARENT
REMARK Flexibility Score: inf
ROOT
ATOM      1  C   UNL     1       6.722   5.030  -5.394  1.00  0.00     0.008 C 
ENDROOT
BRANCH   1   2
ATOM      2  C   UNL     1       5.811   3.800  -5.526  1.00  0.00     0.000 C 
BRANCH   2   3
ATOM      3  C   UNL     1       6.594   2.478  -5.489  1.00  0.00    -0.003 C 
ATOM      4  C   UNL     1       8.002   2.689  -4.941  1.00  0.00     0.004 C 
ENDBRANCH   2   3
ENDBRANCH   1   2
BRANCH   1   5
ATOM      5  C   UNL     1       6.686   5.928  -6.638  1.00  0.00     0.080 C 
BRANCH   5   6
ATOM      6  C   UNL     1       7.349   5.245  -7.798  1.00  0.00     0.155 C 
ATOM      7  O   UNL     1       8.561   4.910  -7.706  1.00  0.00    -0.295 OA
BRANCH   6   8
ATOM      8  C   UNL     1       6.598   5.013  -9.048  1.00  0.00     0.039 C 
ATOM      9  C   UNL     1       5.796   3.964  -9.216  1.00  0.00     0.012 C 
ENDBRANCH   6   8
ENDBRANCH   5   6
ENDBRANCH   1   5
TORSDOF 5
ENDMDL
MODEL 9
REMARK VINA RESULT:    -3.052     15.367     16.495
REMARK INTER + INTRA:          -4.563
REMARK INTER:                  -3.970
REMARK INTRA:                  -0.594
REMARK UNBOUND:                -0.619
REMARK SMILES C=CC(=O)CCCCC
REMARK SMILES IDX 6 1 7 2 8 3 9 4 5 5 3 6 4 7 2 8 1 9
REMARK H PARENT
REMARK Flexibility Score: inf
ROOT
ATOM      1  C   UNL     1       6.827   2.725  -7.615  1.00  0.00     0.008 C 
ENDROOT
BRANCH   1   2
ATOM      2  C   UNL     1       7.273   4.175  -7.373  1.00  0.00     0.000 C 
BRANCH   2   3
ATOM      3  C   UNL     1       6.716   4.754  -6.064  1.00  0.00    -0.003 C 
ATOM      4  C   UNL     1       5.635   3.849  -5.479  1.00  0.00     0.004 C 
ENDBRANCH   2   3
ENDBRANCH   1   2
BRANCH   1   5
ATOM      5  C   UNL     1       7.970   1.718  -7.433  1.00  0.00     0.080 C 
BRANCH   5   6
ATOM      6  C   UNL     1       7.993   1.198  -6.026  1.00  0.00     0.155 C 
ATOM      7  O   UNL     1       6.988   0.581  -5.579  1.00  0.00    -0.295 OA
BRANCH   6   8
ATOM      8  C   UNL     1       9.164   1.450  -5.163  1.00  0.00     0.039 C 
ATOM      9  C   UNL     1       9.312   2.578  -4.470  1.00  0.00     0.012 C 
ENDBRANCH   6   8
ENDBRANCH   5   6
ENDBRANCH   1   5
TORSDOF 5
ENDMDL
