MODEL 1
REMARK VINA RESULT:    -4.974      0.000      0.000
REMARK INTER + INTRA:          -5.656
REMARK INTER:                  -5.846
REMARK INTRA:                   0.190
REMARK UNBOUND:                 0.190
REMARK SMILES O=C([O-])C=Cc1ccc(O)c(O)c1
REMARK SMILES IDX 6 1 13 2 7 3 11 4 8 5 9 6 5 7 4 8 2 9 1 10 3 11 12 12 10 14
REMARK H PARENT 12 13 10 15
REMARK Flexibility Score: inf
ROOT
ATOM      1  C   UNL     1     -11.319  82.462 -10.285  1.00  0.00    -0.022 A 
ATOM      2  C   UNL     1     -12.471  83.219 -10.028  1.00  0.00     0.058 A 
ATOM      3  C   UNL     1     -11.250  81.694 -11.456  1.00  0.00     0.012 A 
ATOM      4  C   UNL     1     -13.526  83.257 -10.948  1.00  0.00     0.157 A 
ATOM      5  C   UNL     1     -12.296  81.726 -12.381  1.00  0.00     0.051 A 
ATOM      6  C   UNL     1     -13.434  82.506 -12.144  1.00  0.00     0.157 A 
ENDROOT
BRANCH   1   7
ATOM      7  C   UNL     1     -10.250  82.403  -9.267  1.00  0.00     0.010 C 
ATOM      8  C   UNL     1     -10.434  82.155  -7.961  1.00  0.00     0.025 C 
BRANCH   8   9
ATOM      9  C   UNL     1     -11.699  81.713  -7.344  1.00  0.00     0.064 C 
ATOM     10  O   UNL     1     -11.967  80.484  -7.300  1.00  0.00    -0.545 OA
ATOM     11  O   UNL     1     -12.637  82.626  -6.875  1.00  0.00    -0.545 OA
ENDBRANCH   8   9
ENDBRANCH   1   7
BRANCH   4  12
ATOM     12  O   UNL     1     -14.635  84.044 -10.635  1.00  0.00    -0.504 OA
ATOM     13  H   UNL     1     -15.464  83.695 -10.175  1.00  0.00     0.293 HD
ENDBRANCH   4  12
BRANCH   6  14
ATOM     14  O   UNL     1     -14.442  82.500 -13.112  1.00  0.00    -0.504 OA
ATOM     15  H   UNL     1     -15.107  81.750 -13.228  1.00  0.00     0.293 HD
ENDBRANCH   6  14
TORSDOF 4
ENDMDL
MODEL 2
REMARK VINA RESULT:    -4.825      1.760      2.138
REMARK INTER + INTRA:          -5.481
REMARK INTER:                  -5.699
REMARK INTRA:                   0.218
REMARK UNBOUND:                 0.190
REMARK SMILES O=C([O-])C=Cc1ccc(O)c(O)c1
REMARK SMILES IDX 6 1 13 2 7 3 11 4 8 5 9 6 5 7 4 8 2 9 1 10 3 11 12 12 10 14
REMARK H PARENT 12 13 10 15
REMARK Flexibility Score: inf
ROOT
ATOM      1  C   UNL     1     -11.292  82.308 -10.303  1.00  0.00    -0.022 A 
ATOM      2  C   UNL     1     -12.476  82.942  -9.902  1.00  0.00     0.058 A 
ATOM      3  C   UNL     1     -11.216  81.743 -11.584  1.00  0.00     0.012 A 
ATOM      4  C   UNL     1     -13.560  83.063 -10.781  1.00  0.00     0.157 A 
ATOM      5  C   UNL     1     -12.290  81.860 -12.469  1.00  0.00     0.051 A 
ATOM      6  C   UNL     1     -13.463  82.520 -12.084  1.00  0.00     0.157 A 
ENDROOT
BRANCH   1   7
ATOM      7  C   UNL     1     -10.190  82.152  -9.332  1.00  0.00     0.010 C 
ATOM      8  C   UNL     1      -9.583  83.154  -8.678  1.00  0.00     0.025 C 
BRANCH   8   9
ATOM      9  C   UNL     1     -10.028  84.561  -8.666  1.00  0.00     0.064 C 
ATOM     10  O   UNL     1      -9.389  85.415  -9.334  1.00  0.00    -0.545 OA
ATOM     11  O   UNL     1     -11.093  84.979  -7.875  1.00  0.00    -0.545 OA
ENDBRANCH   8   9
ENDBRANCH   1   7
BRANCH   4  12
ATOM     12  O   UNL     1     -14.702  83.721 -10.321  1.00  0.00    -0.504 OA
ATOM     13  H   UNL     1     -15.444  83.269  -9.805  1.00  0.00     0.293 HD
ENDBRANCH   4  12
BRANCH   6  14
ATOM     14  O   UNL     1     -14.499  82.608 -13.018  1.00  0.00    -0.504 OA
ATOM     15  H   UNL     1     -15.474  82.476 -12.792  1.00  0.00     0.293 HD
ENDBRANCH   6  14
TORSDOF 4
ENDMDL
MODEL 3
REMARK VINA RESULT:    -4.539      2.475      3.427
REMARK INTER + INTRA:          -5.145
REMARK INTER:                  -4.865
REMARK INTRA:                  -0.280
REMARK UNBOUND:                 0.190
REMARK SMILES O=C([O-])C=Cc1ccc(O)c(O)c1
REMARK SMILES IDX 6 1 13 2 7 3 11 4 8 5 9 6 5 7 4 8 2 9 1 10 3 11 12 12 10 14
REMARK H PARENT 12 13 10 15
REMARK Flexibility Score: inf
ROOT
ATOM      1  C   UNL     1     -12.610  82.034  -8.674  1.00  0.00    -0.022 A 
ATOM      2  C   UNL     1     -11.292  82.473  -8.863  1.00  0.00     0.058 A 
ATOM      3  C   UNL     1     -13.338  81.556  -9.773  1.00  0.00     0.012 A 
ATOM      4  C   UNL     1     -10.680  82.390 -10.120  1.00  0.00     0.157 A 
ATOM      5  C   UNL     1     -12.737  81.469 -11.031  1.00  0.00     0.051 A 
ATOM      6  C   UNL     1     -11.411  81.875 -11.217  1.00  0.00     0.157 A 
ENDROOT
BRANCH   1   7
ATOM      7  C   UNL     1     -13.240  82.186  -7.347  1.00  0.00     0.010 C 
ATOM      8  C   UNL     1     -13.795  83.313  -6.875  1.00  0.00     0.025 C 
BRANCH   8   9
ATOM      9  C   UNL     1     -14.045  84.537  -7.660  1.00  0.00     0.064 C 
ATOM     10  O   UNL     1     -15.070  84.605  -8.386  1.00  0.00    -0.545 OA
ATOM     11  O   UNL     1     -13.137  85.590  -7.672  1.00  0.00    -0.545 OA
ENDBRANCH   8   9
ENDBRANCH   1   7
BRANCH   4  12
ATOM     12  O   UNL     1      -9.360  82.830 -10.232  1.00  0.00    -0.504 OA
ATOM     13  H   UNL     1      -8.754  83.003  -9.443  1.00  0.00     0.293 HD
ENDBRANCH   4  12
BRANCH   6  14
ATOM     14  O   UNL     1     -10.866  81.756 -12.498  1.00  0.00    -0.504 OA
ATOM     15  H   UNL     1     -10.635  80.874 -12.932  1.00  0.00     0.293 HD
ENDBRANCH   6  14
TORSDOF 4
ENDMDL
MODEL 4
REMARK VINA RESULT:    -4.455      2.772      4.265
REMARK INTER + INTRA:          -5.046
REMARK INTER:                  -4.777
REMARK INTRA:                  -0.269
REMARK UNBOUND:                 0.190
REMARK SMILES O=C([O-])C=Cc1ccc(O)c(O)c1
REMARK SMILES IDX 6 1 13 2 7 3 11 4 8 5 9 6 5 7 4 8 2 9 1 10 3 11 12 12 10 14
REMARK H PARENT 12 13 10 15
REMARK Flexibility Score: inf
ROOT
ATOM      1  C   UNL     1     -12.982  83.544  -9.645  1.00  0.00    -0.022 A 
ATOM      2  C   UNL     1     -14.072  84.339 -10.023  1.00  0.00     0.058 A 
ATOM      3  C   UNL     1     -11.753  84.156  -9.360  1.00  0.00     0.012 A 
ATOM      4  C   UNL     1     -13.963  85.735 -10.068  1.00  0.00     0.157 A 
ATOM      5  C   UNL     1     -11.633  85.547  -9.400  1.00  0.00     0.051 A 
ATOM      6  C   UNL     1     -12.728  86.347  -9.745  1.00  0.00     0.157 A 
ENDROOT
BRANCH   1   7
ATOM      7  C   UNL     1     -13.119  82.073  -9.661  1.00  0.00     0.010 C 
ATOM      8  C   UNL     1     -13.023  81.297 -10.751  1.00  0.00     0.025 C 
BRANCH   8   9
ATOM      9  C   UNL     1     -12.579  81.744 -12.084  1.00  0.00     0.064 C 
ATOM     10  O   UNL     1     -13.438  82.074 -12.941  1.00  0.00    -0.545 OA
ATOM     11  O   UNL     1     -11.235  81.740 -12.441  1.00  0.00    -0.545 OA
ENDBRANCH   8   9
ENDBRANCH   1   7
BRANCH   4  12
ATOM     12  O   UNL     1     -15.094  86.466 -10.436  1.00  0.00    -0.504 OA
ATOM     13  H   UNL     1     -15.808  86.122 -11.062  1.00  0.00     0.293 HD
ENDBRANCH   4  12
BRANCH   6  14
ATOM     14  O   UNL     1     -12.545  87.732  -9.761  1.00  0.00    -0.504 OA
ATOM     15  H   UNL     1     -12.653  88.306 -10.584  1.00  0.00     0.293 HD
ENDBRANCH   6  14
TORSDOF 4
ENDMDL
MODEL 5
REMARK VINA RESULT:    -4.411      6.617      8.430
REMARK INTER + INTRA:          -4.994
REMARK INTER:                  -4.790
REMARK INTRA:                  -0.204
REMARK UNBOUND:                 0.190
REMARK SMILES O=C([O-])C=Cc1ccc(O)c(O)c1
REMARK SMILES IDX 6 1 13 2 7 3 11 4 8 5 9 6 5 7 4 8 2 9 1 10 3 11 12 12 10 14
REMARK H PARENT 12 13 10 15
REMARK Flexibility Score: inf
ROOT
ATOM      1  C   UNL     1      -5.419  85.013  -9.813  1.00  0.00    -0.022 A 
ATOM      2  C   UNL     1      -4.347  85.617  -9.143  1.00  0.00     0.058 A 
ATOM      3  C   UNL     1      -5.355  83.646 -10.118  1.00  0.00     0.012 A 
ATOM      4  C   UNL     1      -3.240  84.863  -8.730  1.00  0.00     0.157 A 
ATOM      5  C   UNL     1      -4.258  82.884  -9.710  1.00  0.00     0.051 A 
ATOM      6  C   UNL     1      -3.198  83.477  -9.012  1.00  0.00     0.157 A 
ENDROOT
BRANCH   1   7
ATOM      7  C   UNL     1      -6.544  85.849 -10.280  1.00  0.00     0.010 C 
ATOM      8  C   UNL     1      -7.813  85.750  -9.857  1.00  0.00     0.025 C 
BRANCH   8   9
ATOM      9  C   UNL     1      -8.275  84.928  -8.722  1.00  0.00     0.064 C 
ATOM     10  O   UNL     1      -8.177  85.380  -7.553  1.00  0.00    -0.545 OA
ATOM     11  O   UNL     1      -8.751  83.635  -8.910  1.00  0.00    -0.545 OA
ENDBRANCH   8   9
ENDBRANCH   1   7
BRANCH   4  12
ATOM     12  O   UNL     1      -2.215  85.526  -8.053  1.00  0.00    -0.504 OA
ATOM     13  H   UNL     1      -1.317  85.114  -7.845  1.00  0.00     0.293 HD
ENDBRANCH   4  12
BRANCH   6  14
ATOM     14  O   UNL     1      -2.134  82.659  -8.627  1.00  0.00    -0.504 OA
ATOM     15  H   UNL     1      -1.472  82.899  -7.902  1.00  0.00     0.293 HD
ENDBRANCH   6  14
TORSDOF 4
ENDMDL
MODEL 6
REMARK VINA RESULT:    -4.391      2.509      3.351
REMARK INTER + INTRA:          -4.970
REMARK INTER:                  -4.736
REMARK INTRA:                  -0.234
REMARK UNBOUND:                 0.190
REMARK SMILES O=C([O-])C=Cc1ccc(O)c(O)c1
REMARK SMILES IDX 6 1 13 2 7 3 11 4 8 5 9 6 5 7 4 8 2 9 1 10 3 11 12 12 10 14
REMARK H PARENT 12 13 10 15
REMARK Flexibility Score: inf
ROOT
ATOM      1  C   UNL     1     -13.441  82.989  -9.473  1.00  0.00    -0.022 A 
ATOM      2  C   UNL     1     -12.113  82.698  -9.132  1.00  0.00     0.058 A 
ATOM      3  C   UNL     1     -13.860  82.825 -10.800  1.00  0.00     0.012 A 
ATOM      4  C   UNL     1     -11.219  82.198 -10.087  1.00  0.00     0.157 A 
ATOM      5  C   UNL     1     -12.978  82.325 -11.760  1.00  0.00     0.051 A 
ATOM      6  C   UNL     1     -11.659  82.003 -11.418  1.00  0.00     0.157 A 
ENDROOT
BRANCH   1   7
ATOM      7  C   UNL     1     -14.340  83.566  -8.452  1.00  0.00     0.010 C 
ATOM      8  C   UNL     1     -15.133  82.863  -7.629  1.00  0.00     0.025 C 
BRANCH   8   9
ATOM      9  C   UNL     1     -15.111  81.397  -7.465  1.00  0.00     0.064 C 
ATOM     10  O   UNL     1     -16.132  80.728  -7.768  1.00  0.00    -0.545 OA
ATOM     11  O   UNL     1     -14.013  80.745  -6.914  1.00  0.00    -0.545 OA
ENDBRANCH   8   9
ENDBRANCH   1   7
BRANCH   4  12
ATOM     12  O   UNL     1      -9.916  81.914  -9.675  1.00  0.00    -0.504 OA
ATOM     13  H   UNL     1      -9.107  82.455  -9.947  1.00  0.00     0.293 HD
ENDBRANCH   4  12
BRANCH   6  14
ATOM     14  O   UNL     1     -10.829  81.501 -12.422  1.00  0.00    -0.504 OA
ATOM     15  H   UNL     1     -10.984  81.649 -13.409  1.00  0.00     0.293 HD
ENDBRANCH   6  14
TORSDOF 4
ENDMDL
MODEL 7
REMARK VINA RESULT:    -4.363      2.720      4.434
REMARK INTER + INTRA:          -4.938
REMARK INTER:                  -4.655
REMARK INTRA:                  -0.283
REMARK UNBOUND:                 0.190
REMARK SMILES O=C([O-])C=Cc1ccc(O)c(O)c1
REMARK SMILES IDX 6 1 13 2 7 3 11 4 8 5 9 6 5 7 4 8 2 9 1 10 3 11 12 12 10 14
REMARK H PARENT 12 13 10 15
REMARK Flexibility Score: inf
ROOT
ATOM      1  C   UNL     1     -12.993  83.675  -9.781  1.00  0.00    -0.022 A 
ATOM      2  C   UNL     1     -11.855  84.415  -9.430  1.00  0.00     0.058 A 
ATOM      3  C   UNL     1     -14.164  84.350 -10.151  1.00  0.00     0.012 A 
ATOM      4  C   UNL     1     -11.860  85.814  -9.496  1.00  0.00     0.157 A 
ATOM      5  C   UNL     1     -14.180  85.744 -10.222  1.00  0.00     0.051 A 
ATOM      6  C   UNL     1     -13.037  86.488  -9.904  1.00  0.00     0.157 A 
ENDROOT
BRANCH   1   7
ATOM      7  C   UNL     1     -12.967  82.203  -9.647  1.00  0.00     0.010 C 
ATOM      8  C   UNL     1     -12.846  81.334 -10.662  1.00  0.00     0.025 C 
BRANCH   8   9
ATOM      9  C   UNL     1     -12.528  81.687 -12.058  1.00  0.00     0.064 C 
ATOM     10  O   UNL     1     -11.324  81.743 -12.420  1.00  0.00    -0.545 OA
ATOM     11  O   UNL     1     -13.524  82.029 -12.966  1.00  0.00    -0.545 OA
ENDBRANCH   8   9
ENDBRANCH   1   7
BRANCH   4  12
ATOM     12  O   UNL     1     -10.688  86.487  -9.149  1.00  0.00    -0.504 OA
ATOM     13  H   UNL     1     -10.494  87.447  -9.395  1.00  0.00     0.293 HD
ENDBRANCH   4  12
BRANCH   6  14
ATOM     14  O   UNL     1     -13.115  87.879 -10.001  1.00  0.00    -0.504 OA
ATOM     15  H   UNL     1     -13.567  88.467  -9.316  1.00  0.00     0.293 HD
ENDBRANCH   6  14
TORSDOF 4
ENDMDL
MODEL 8
REMARK VINA RESULT:    -4.283      2.189      2.914
REMARK INTER + INTRA:          -4.843
REMARK INTER:                  -4.654
REMARK INTRA:                  -0.189
REMARK UNBOUND:                 0.190
REMARK SMILES O=C([O-])C=Cc1ccc(O)c(O)c1
REMARK SMILES IDX 6 1 13 2 7 3 11 4 8 5 9 6 5 7 4 8 2 9 1 10 3 11 12 12 10 14
REMARK H PARENT 12 13 10 15
REMARK Flexibility Score: inf
ROOT
ATOM      1  C   UNL     1     -12.999  83.000  -9.202  1.00  0.00    -0.022 A 
ATOM      2  C   UNL     1     -13.639  82.766 -10.427  1.00  0.00     0.058 A 
ATOM      3  C   UNL     1     -11.642  82.674  -9.063  1.00  0.00     0.012 A 
ATOM      4  C   UNL     1     -12.929  82.260 -11.524  1.00  0.00     0.157 A 
ATOM      5  C   UNL     1     -10.925  82.171 -10.150  1.00  0.00     0.051 A 
ATOM      6  C   UNL     1     -11.551  81.966 -11.385  1.00  0.00     0.157 A 
ENDROOT
BRANCH   1   7
ATOM      7  C   UNL     1     -13.792  83.482  -8.053  1.00  0.00     0.010 C 
ATOM      8  C   UNL     1     -14.588  82.723  -7.285  1.00  0.00     0.025 C 
BRANCH   8   9
ATOM      9  C   UNL     1     -14.667  81.250  -7.329  1.00  0.00     0.064 C 
ATOM     10  O   UNL     1     -13.655  80.569  -7.019  1.00  0.00    -0.545 OA
ATOM     11  O   UNL     1     -15.811  80.597  -7.774  1.00  0.00    -0.545 OA
ENDBRANCH   8   9
ENDBRANCH   1   7
BRANCH   4  12
ATOM     12  O   UNL     1     -13.625  82.067 -12.718  1.00  0.00    -0.504 OA
ATOM     13  H   UNL     1     -13.937  82.818 -13.318  1.00  0.00     0.293 HD
ENDBRANCH   4  12
BRANCH   6  14
ATOM     14  O   UNL     1     -10.776  81.467 -12.435  1.00  0.00    -0.504 OA
ATOM     15  H   UNL     1     -11.060  80.703 -13.032  1.00  0.00     0.293 HD
ENDBRANCH   6  14
TORSDOF 4
ENDMDL
MODEL 9
REMARK VINA RESULT:    -4.259     13.277     13.876
REMARK INTER + INTRA:          -4.816
REMARK INTER:                  -4.541
REMARK INTRA:                  -0.275
REMARK UNBOUND:                 0.190
REMARK SMILES O=C([O-])C=Cc1ccc(O)c(O)c1
REMARK SMILES IDX 6 1 13 2 7 3 11 4 8 5 9 6 5 7 4 8 2 9 1 10 3 11 12 12 10 14
REMARK H PARENT 12 13 10 15
REMARK Flexibility Score: inf
ROOT
ATOM      1  C   UNL     1      -6.409  91.727 -16.083  1.00  0.00    -0.022 A 
ATOM      2  C   UNL     1      -6.006  91.413 -17.388  1.00  0.00     0.058 A 
ATOM      3  C   UNL     1      -7.122  92.912 -15.851  1.00  0.00     0.012 A 
ATOM      4  C   UNL     1      -6.350  92.240 -18.465  1.00  0.00     0.157 A 
ATOM      5  C   UNL     1      -7.472  93.742 -16.917  1.00  0.00     0.051 A 
ATOM      6  C   UNL     1      -7.099  93.417 -18.227  1.00  0.00     0.157 A 
ENDROOT
BRANCH   1   7
ATOM      7  C   UNL     1      -5.982  90.860 -14.965  1.00  0.00     0.010 C 
ATOM      8  C   UNL     1      -4.773  90.882 -14.384  1.00  0.00     0.025 C 
BRANCH   8   9
ATOM      9  C   UNL     1      -3.726  91.894 -14.623  1.00  0.00     0.064 C 
ATOM     10  O   UNL     1      -3.737  92.961 -13.956  1.00  0.00    -0.545 OA
ATOM     11  O   UNL     1      -2.771  91.729 -15.620  1.00  0.00    -0.545 OA
ENDBRANCH   8   9
ENDBRANCH   1   7
BRANCH   4  12
ATOM     12  O   UNL     1      -5.930  91.858 -19.740  1.00  0.00    -0.504 OA
ATOM     13  H   UNL     1      -6.453  91.242 -20.346  1.00  0.00     0.293 HD
ENDBRANCH   4  12
BRANCH   6  14
ATOM     14  O   UNL     1      -7.485  94.286 -19.250  1.00  0.00    -0.504 OA
ATOM     15  H   UNL     1      -7.377  95.289 -19.209  1.00  0.00     0.293 HD
ENDBRANCH   6  14
TORSDOF 4
ENDMDL
