MODEL 1
REMARK VINA RESULT:    -3.475      0.000      0.000
REMARK INTER + INTRA:          -4.937
REMARK INTER:                  -4.694
REMARK INTRA:                  -0.243
REMARK UNBOUND:                -0.243
REMARK SMILES CCCCCCCC(=O)[O-]
REMARK SMILES IDX 5 1 6 2 7 3 8 4 9 5 10 6 4 7 3 8 2 9 1 10
REMARK H PARENT
REMARK Flexibility Score: inf
ROOT
ATOM      1  C   UNL     1      60.983  32.727  60.522  1.00  0.00     0.000 C 
ENDROOT
BRANCH   1   2
ATOM      2  C   UNL     1      61.191  31.216  60.367  1.00  0.00     0.006 C 
BRANCH   2   3
ATOM      3  C   UNL     1      61.344  30.539  61.733  1.00  0.00     0.053 C 
BRANCH   3   4
ATOM      4  C   UNL     1      62.501  29.591  61.721  1.00  0.00     0.041 C 
ATOM      5  O   UNL     1      63.680  30.030  61.670  1.00  0.00    -0.550 OA
ATOM      6  O   UNL     1      62.277  28.219  61.717  1.00  0.00    -0.550 OA
ENDBRANCH   3   4
ENDBRANCH   2   3
ENDBRANCH   1   2
BRANCH   1   7
ATOM      7  C   UNL     1      62.330  33.464  60.585  1.00  0.00     0.000 C 
BRANCH   7   8
ATOM      8  C   UNL     1      62.168  34.975  60.810  1.00  0.00    -0.000 C 
BRANCH   8   9
ATOM      9  C   UNL     1      63.446  35.632  61.355  1.00  0.00    -0.003 C 
ATOM     10  C   UNL     1      64.547  34.597  61.565  1.00  0.00     0.004 C 
ENDBRANCH   8   9
ENDBRANCH   7   8
ENDBRANCH   1   7
TORSDOF 6
ENDMDL
MODEL 2
REMARK VINA RESULT:    -3.404     12.261     13.888
REMARK INTER + INTRA:          -4.841
REMARK INTER:                  -4.640
REMARK INTRA:                  -0.201
REMARK UNBOUND:                -0.243
REMARK SMILES CCCCCCCC(=O)[O-]
REMARK SMILES IDX 5 1 6 2 7 3 8 4 9 5 10 6 4 7 3 8 2 9 1 10
REMARK H PARENT
REMARK Flexibility Score: inf
ROOT
ATOM      1  C   UNL     1      56.698  27.512  50.644  1.00  0.00     0.000 C 
ENDROOT
BRANCH   1   2
ATOM      2  C   UNL     1      57.916  28.434  50.772  1.00  0.00     0.006 C 
BRANCH   2   3
ATOM      3  C   UNL     1      58.783  28.378  49.509  1.00  0.00     0.053 C 
BRANCH   3   4
ATOM      4  C   UNL     1      59.859  27.349  49.658  1.00  0.00     0.041 C 
ATOM      5  O   UNL     1      61.055  27.703  49.826  1.00  0.00    -0.550 OA
ATOM      6  O   UNL     1      59.547  25.998  49.564  1.00  0.00    -0.550 OA
ENDBRANCH   3   4
ENDBRANCH   2   3
ENDBRANCH   1   2
BRANCH   1   7
ATOM      7  C   UNL     1      55.391  28.319  50.684  1.00  0.00     0.000 C 
BRANCH   7   8
ATOM      8  C   UNL     1      54.170  27.489  50.260  1.00  0.00    -0.000 C 
BRANCH   8   9
ATOM      9  C   UNL     1      54.303  26.006  50.639  1.00  0.00    -0.003 C 
ATOM     10  C   UNL     1      53.940  25.105  49.463  1.00  0.00     0.004 C 
ENDBRANCH   8   9
ENDBRANCH   7   8
ENDBRANCH   1   7
TORSDOF 6
ENDMDL
MODEL 3
REMARK VINA RESULT:    -3.336     12.912     13.899
REMARK INTER + INTRA:          -4.749
REMARK INTER:                  -4.378
REMARK INTRA:                  -0.370
REMARK UNBOUND:                -0.243
REMARK SMILES CCCCCCCC(=O)[O-]
REMARK SMILES IDX 5 1 6 2 7 3 8 4 9 5 10 6 4 7 3 8 2 9 1 10
REMARK H PARENT
REMARK Flexibility Score: inf
ROOT
ATOM      1  C   UNL     1      55.687  28.225  50.914  1.00  0.00     0.000 C 
ENDROOT
BRANCH   1   2
ATOM      2  C   UNL     1      54.614  27.302  50.325  1.00  0.00     0.006 C 
BRANCH   2   3
ATOM      3  C   UNL     1      55.168  25.893  50.090  1.00  0.00     0.053 C 
BRANCH   3   4
ATOM      4  C   UNL     1      54.282  24.870  50.725  1.00  0.00     0.041 C 
ATOM      5  O   UNL     1      53.555  24.130  50.011  1.00  0.00    -0.550 OA
ATOM      6  O   UNL     1      54.222  24.764  52.109  1.00  0.00    -0.550 OA
ENDBRANCH   3   4
ENDBRANCH   2   3
ENDBRANCH   1   2
BRANCH   1   7
ATOM      7  C   UNL     1      57.082  27.589  50.799  1.00  0.00     0.000 C 
BRANCH   7   8
ATOM      8  C   UNL     1      58.109  28.530  50.150  1.00  0.00    -0.000 C 
BRANCH   8   9
ATOM      9  C   UNL     1      59.279  27.772  49.505  1.00  0.00    -0.003 C 
ATOM     10  C   UNL     1      59.232  26.288  49.857  1.00  0.00     0.004 C 
ENDBRANCH   8   9
ENDBRANCH   7   8
ENDBRANCH   1   7
TORSDOF 6
ENDMDL
MODEL 4
REMARK VINA RESULT:    -3.297     12.257     13.248
REMARK INTER + INTRA:          -4.696
REMARK INTER:                  -4.393
REMARK INTRA:                  -0.303
REMARK UNBOUND:                -0.243
REMARK SMILES CCCCCCCC(=O)[O-]
REMARK SMILES IDX 5 1 6 2 7 3 8 4 9 5 10 6 4 7 3 8 2 9 1 10
REMARK H PARENT
REMARK Flexibility Score: inf
ROOT
ATOM      1  C   UNL     1      57.496  28.463  50.731  1.00  0.00     0.000 C 
ENDROOT
BRANCH   1   2
ATOM      2  C   UNL     1      58.643  28.607  49.724  1.00  0.00     0.006 C 
BRANCH   2   3
ATOM      3  C   UNL     1      59.401  27.285  49.560  1.00  0.00     0.053 C 
BRANCH   3   4
ATOM      4  C   UNL     1      60.827  27.444  49.980  1.00  0.00     0.041 C 
ATOM      5  O   UNL     1      61.257  28.567  50.353  1.00  0.00    -0.550 OA
ATOM      6  O   UNL     1      61.696  26.362  49.913  1.00  0.00    -0.550 OA
ENDBRANCH   3   4
ENDBRANCH   2   3
ENDBRANCH   1   2
BRANCH   1   7
ATOM      7  C   UNL     1      56.865  27.064  50.649  1.00  0.00     0.000 C 
BRANCH   7   8
ATOM      8  C   UNL     1      55.343  27.112  50.445  1.00  0.00    -0.000 C 
BRANCH   8   9
ATOM      9  C   UNL     1      54.758  28.511  50.690  1.00  0.00    -0.003 C 
ATOM     10  C   UNL     1      53.280  28.562  50.312  1.00  0.00     0.004 C 
ENDBRANCH   8   9
ENDBRANCH   7   8
ENDBRANCH   1   7
TORSDOF 6
ENDMDL
MODEL 5
REMARK VINA RESULT:    -3.293     12.561     13.306
REMARK INTER + INTRA:          -4.691
REMARK INTER:                  -4.314
REMARK INTRA:                  -0.377
REMARK UNBOUND:                -0.243
REMARK SMILES CCCCCCCC(=O)[O-]
REMARK SMILES IDX 5 1 6 2 7 3 8 4 9 5 10 6 4 7 3 8 2 9 1 10
REMARK H PARENT
REMARK Flexibility Score: inf
ROOT
ATOM      1  C   UNL     1      58.223  28.568  49.921  1.00  0.00     0.000 C 
ENDROOT
BRANCH   1   2
ATOM      2  C   UNL     1      59.473  27.742  49.596  1.00  0.00     0.006 C 
BRANCH   2   3
ATOM      3  C   UNL     1      59.203  26.244  49.765  1.00  0.00     0.053 C 
BRANCH   3   4
ATOM      4  C   UNL     1      60.411  25.552  50.311  1.00  0.00     0.041 C 
ATOM      5  O   UNL     1      60.284  24.522  51.024  1.00  0.00    -0.550 OA
ATOM      6  O   UNL     1      61.678  26.072  50.072  1.00  0.00    -0.550 OA
ENDBRANCH   3   4
ENDBRANCH   2   3
ENDBRANCH   1   2
BRANCH   1   7
ATOM      7  C   UNL     1      57.264  27.778  50.826  1.00  0.00     0.000 C 
BRANCH   7   8
ATOM      8  C   UNL     1      55.835  28.343  50.810  1.00  0.00    -0.000 C 
BRANCH   8   9
ATOM      9  C   UNL     1      54.793  27.301  50.374  1.00  0.00    -0.003 C 
ATOM     10  C   UNL     1      55.424  25.918  50.236  1.00  0.00     0.004 C 
ENDBRANCH   8   9
ENDBRANCH   7   8
ENDBRANCH   1   7
TORSDOF 6
ENDMDL
MODEL 6
REMARK VINA RESULT:    -3.284      2.217      4.399
REMARK INTER + INTRA:          -4.679
REMARK INTER:                  -4.304
REMARK INTRA:                  -0.376
REMARK UNBOUND:                -0.243
REMARK SMILES CCCCCCCC(=O)[O-]
REMARK SMILES IDX 5 1 6 2 7 3 8 4 9 5 10 6 4 7 3 8 2 9 1 10
REMARK H PARENT
REMARK Flexibility Score: inf
ROOT
ATOM      1  C   UNL     1      60.914  32.797  60.544  1.00  0.00     0.000 C 
ENDROOT
BRANCH   1   2
ATOM      2  C   UNL     1      62.137  33.482  59.925  1.00  0.00     0.006 C 
BRANCH   2   3
ATOM      3  C   UNL     1      62.761  34.483  60.903  1.00  0.00     0.053 C 
BRANCH   3   4
ATOM      4  C   UNL     1      64.202  34.157  61.138  1.00  0.00     0.041 C 
ATOM      5  O   UNL     1      64.870  34.809  61.983  1.00  0.00    -0.550 OA
ATOM      6  O   UNL     1      64.822  33.165  60.387  1.00  0.00    -0.550 OA
ENDBRANCH   3   4
ENDBRANCH   2   3
ENDBRANCH   1   2
BRANCH   1   7
ATOM      7  C   UNL     1      61.039  31.267  60.459  1.00  0.00     0.000 C 
BRANCH   7   8
ATOM      8  C   UNL     1      61.300  30.618  61.827  1.00  0.00    -0.000 C 
BRANCH   8   9
ATOM      9  C   UNL     1      62.339  29.488  61.757  1.00  0.00    -0.003 C 
ATOM     10  C   UNL     1      63.726  30.036  61.434  1.00  0.00     0.004 C 
ENDBRANCH   8   9
ENDBRANCH   7   8
ENDBRANCH   1   7
TORSDOF 6
ENDMDL
MODEL 7
REMARK VINA RESULT:    -3.215     12.775     13.745
REMARK INTER + INTRA:          -4.586
REMARK INTER:                  -4.286
REMARK INTRA:                  -0.300
REMARK UNBOUND:                -0.243
REMARK SMILES CCCCCCCC(=O)[O-]
REMARK SMILES IDX 5 1 6 2 7 3 8 4 9 5 10 6 4 7 3 8 2 9 1 10
REMARK H PARENT
REMARK Flexibility Score: inf
ROOT
ATOM      1  C   UNL     1      57.910  28.468  50.907  1.00  0.00     0.000 C 
ENDROOT
BRANCH   1   2
ATOM      2  C   UNL     1      56.404  28.278  50.697  1.00  0.00     0.006 C 
BRANCH   2   3
ATOM      3  C   UNL     1      56.013  26.802  50.822  1.00  0.00     0.053 C 
BRANCH   3   4
ATOM      4  C   UNL     1      54.719  26.541  50.118  1.00  0.00     0.041 C 
ATOM      5  O   UNL     1      53.881  27.469  49.968  1.00  0.00    -0.550 OA
ATOM      6  O   UNL     1      54.418  25.262  49.668  1.00  0.00    -0.550 OA
ENDBRANCH   3   4
ENDBRANCH   2   3
ENDBRANCH   1   2
BRANCH   1   7
ATOM      7  C   UNL     1      58.657  28.467  49.563  1.00  0.00     0.000 C 
BRANCH   7   8
ATOM      8  C   UNL     1      59.814  27.457  49.530  1.00  0.00    -0.000 C 
BRANCH   8   9
ATOM      9  C   UNL     1      59.351  26.018  49.802  1.00  0.00    -0.003 C 
ATOM     10  C   UNL     1      60.492  25.169  50.354  1.00  0.00     0.004 C 
ENDBRANCH   8   9
ENDBRANCH   7   8
ENDBRANCH   1   7
TORSDOF 6
ENDMDL
MODEL 8
REMARK VINA RESULT:    -3.188      1.181      1.544
REMARK INTER + INTRA:          -4.550
REMARK INTER:                  -4.313
REMARK INTRA:                  -0.237
REMARK UNBOUND:                -0.243
REMARK SMILES CCCCCCCC(=O)[O-]
REMARK SMILES IDX 5 1 6 2 7 3 8 4 9 5 10 6 4 7 3 8 2 9 1 10
REMARK H PARENT
REMARK Flexibility Score: inf
ROOT
ATOM      1  C   UNL     1      61.197  31.609  60.739  1.00  0.00     0.000 C 
ENDROOT
BRANCH   1   2
ATOM      2  C   UNL     1      61.371  30.566  61.848  1.00  0.00     0.006 C 
BRANCH   2   3
ATOM      3  C   UNL     1      62.532  29.616  61.533  1.00  0.00     0.053 C 
BRANCH   3   4
ATOM      4  C   UNL     1      62.017  28.250  61.207  1.00  0.00     0.041 C 
ATOM      5  O   UNL     1      62.621  27.229  61.627  1.00  0.00    -0.550 OA
ATOM      6  O   UNL     1      60.896  28.104  60.398  1.00  0.00    -0.550 OA
ENDBRANCH   3   4
ENDBRANCH   2   3
ENDBRANCH   1   2
BRANCH   1   7
ATOM      7  C   UNL     1      62.401  32.563  60.688  1.00  0.00     0.000 C 
BRANCH   7   8
ATOM      8  C   UNL     1      61.983  34.039  60.589  1.00  0.00    -0.000 C 
BRANCH   8   9
ATOM      9  C   UNL     1      63.091  34.999  61.050  1.00  0.00    -0.003 C 
ATOM     10  C   UNL     1      64.381  34.243  61.352  1.00  0.00     0.004 C 
ENDBRANCH   8   9
ENDBRANCH   7   8
ENDBRANCH   1   7
TORSDOF 6
ENDMDL
MODEL 9
REMARK VINA RESULT:    -3.183      1.538      2.396
REMARK INTER + INTRA:          -4.542
REMARK INTER:                  -4.258
REMARK INTRA:                  -0.284
REMARK UNBOUND:                -0.243
REMARK SMILES CCCCCCCC(=O)[O-]
REMARK SMILES IDX 5 1 6 2 7 3 8 4 9 5 10 6 4 7 3 8 2 9 1 10
REMARK H PARENT
REMARK Flexibility Score: inf
ROOT
ATOM      1  C   UNL     1      61.332  30.673  61.543  1.00  0.00     0.000 C 
ENDROOT
BRANCH   1   2
ATOM      2  C   UNL     1      62.476  29.669  61.718  1.00  0.00     0.006 C 
BRANCH   2   3
ATOM      3  C   UNL     1      63.810  30.269  61.261  1.00  0.00     0.053 C 
BRANCH   3   4
ATOM      4  C   UNL     1      64.780  29.186  60.910  1.00  0.00     0.041 C 
ATOM      5  O   UNL     1      65.983  29.467  60.669  1.00  0.00    -0.550 OA
ATOM      6  O   UNL     1      64.344  27.871  60.802  1.00  0.00    -0.550 OA
ENDBRANCH   3   4
ENDBRANCH   2   3
ENDBRANCH   1   2
BRANCH   1   7
ATOM      7  C   UNL     1      61.815  31.936  60.813  1.00  0.00     0.000 C 
BRANCH   7   8
ATOM      8  C   UNL     1      60.666  32.892  60.458  1.00  0.00    -0.000 C 
BRANCH   8   9
ATOM      9  C   UNL     1      61.126  34.352  60.341  1.00  0.00    -0.003 C 
ATOM     10  C   UNL     1      62.583  34.505  60.770  1.00  0.00     0.004 C 
ENDBRANCH   8   9
ENDBRANCH   7   8
ENDBRANCH   1   7
TORSDOF 6
ENDMDL
