MODEL 1
REMARK VINA RESULT:    -6.142      0.000      0.000
REMARK INTER + INTRA:         -10.591
REMARK INTER:                  -9.373
REMARK INTRA:                  -1.217
REMARK UNBOUND:                -1.217
REMARK SMILES CC(=O)CCC=C(C)CCC=C(C)CCC=C(C)C
REMARK SMILES IDX 10 1 11 2 12 3 13 4 14 5 15 6 16 7 18 8 17 9 19 10 9 11 7 12
REMARK SMILES IDX 6 13 8 14 5 15 4 16 2 17 3 18 1 19
REMARK H PARENT
REMARK Flexibility Score: inf
ROOT
ATOM      1  C   UNL     1      30.725  10.217 105.471  1.00  0.00     0.032 C 
ENDROOT
BRANCH   1   2
ATOM      2  C   UNL     1      31.799  11.215 105.116  1.00  0.00    -0.028 C 
ATOM      3  C   UNL     1      31.623  12.556 105.101  1.00  0.00    -0.077 C 
ATOM      4  C   UNL     1      30.281  13.186 105.397  1.00  0.00     0.039 C 
BRANCH   3   5
ATOM      5  C   UNL     1      32.802  13.450 104.778  1.00  0.00     0.034 C 
BRANCH   5   6
ATOM      6  C   UNL     1      34.090  12.630 104.644  1.00  0.00     0.032 C 
BRANCH   6   7
ATOM      7  C   UNL     1      34.913  12.694 105.907  1.00  0.00    -0.028 C 
ATOM      8  C   UNL     1      36.199  11.774 107.791  1.00  0.00     0.039 C 
ATOM      9  C   UNL     1      35.386  11.596 106.536  1.00  0.00    -0.080 C 
ATOM     10  C   UNL     1      35.114  10.207 106.010  1.00  0.00     0.039 C 
ENDBRANCH   6   7
ENDBRANCH   5   6
ENDBRANCH   3   5
ENDBRANCH   1   2
BRANCH   1  11
ATOM     11  C   UNL     1      30.981   8.876 104.776  1.00  0.00     0.034 C 
BRANCH  11  12
ATOM     12  C   UNL     1      31.090   7.755 105.787  1.00  0.00    -0.077 C 
ATOM     13  C   UNL     1      31.597   8.025 107.012  1.00  0.00    -0.028 C 
ATOM     14  C   UNL     1      30.625   6.372 105.402  1.00  0.00     0.039 C 
BRANCH  13  15
ATOM     15  C   UNL     1      31.707   7.028 108.142  1.00  0.00     0.035 C 
BRANCH  15  16
ATOM     16  C   UNL     1      33.041   6.275 108.083  1.00  0.00     0.079 C 
BRANCH  16  17
ATOM     17  C   UNL     1      32.849   4.844 107.653  1.00  0.00     0.130 C 
ATOM     18  O   UNL     1      31.748   4.326 107.762  1.00  0.00    -0.300 OA
ATOM     19  C   UNL     1      33.985   4.037 107.099  1.00  0.00     0.087 C 
ENDBRANCH  16  17
ENDBRANCH  15  16
ENDBRANCH  13  15
ENDBRANCH  11  12
ENDBRANCH   1  11
TORSDOF 9
ENDMDL
MODEL 2
REMARK VINA RESULT:    -6.123      2.173      7.106
REMARK INTER + INTRA:         -10.562
REMARK INTER:                  -9.381
REMARK INTRA:                  -1.180
REMARK UNBOUND:                -1.217
REMARK SMILES CC(=O)CCC=C(C)CCC=C(C)CCC=C(C)C
REMARK SMILES IDX 10 1 11 2 12 3 13 4 14 5 15 6 16 7 18 8 17 9 19 10 9 11 7 12
REMARK SMILES IDX 6 13 8 14 5 15 4 16 2 17 3 18 1 19
REMARK H PARENT
REMARK Flexibility Score: inf
ROOT
ATOM      1  C   UNL     1      35.292   9.382 106.966  1.00  0.00     0.032 C 
ENDROOT
BRANCH   1   2
ATOM      2  C   UNL     1      34.350   8.843 108.014  1.00  0.00    -0.028 C 
ATOM      3  C   UNL     1      33.073   8.470 107.774  1.00  0.00    -0.077 C 
ATOM      4  C   UNL     1      32.444   8.614 106.407  1.00  0.00     0.039 C 
BRANCH   3   5
ATOM      5  C   UNL     1      32.250   7.893 108.907  1.00  0.00     0.034 C 
BRANCH   5   6
ATOM      6  C   UNL     1      31.500   6.636 108.455  1.00  0.00     0.032 C 
BRANCH   6   7
ATOM      7  C   UNL     1      32.450   5.486 108.222  1.00  0.00    -0.028 C 
ATOM      8  C   UNL     1      33.437   3.615 106.968  1.00  0.00     0.039 C 
ATOM      9  C   UNL     1      32.443   4.739 107.097  1.00  0.00    -0.080 C 
ATOM     10  C   UNL     1      31.465   5.007 105.978  1.00  0.00     0.039 C 
ENDBRANCH   6   7
ENDBRANCH   5   6
ENDBRANCH   3   5
ENDBRANCH   1   2
BRANCH   1  11
ATOM     11  C   UNL     1      35.856  10.742 107.393  1.00  0.00     0.034 C 
BRANCH  11  12
ATOM     12  C   UNL     1      35.528  11.808 106.370  1.00  0.00    -0.077 C 
ATOM     13  C   UNL     1      34.486  11.613 105.531  1.00  0.00    -0.028 C 
ATOM     14  C   UNL     1      36.369  13.061 106.323  1.00  0.00     0.039 C 
BRANCH  13  15
ATOM     15  C   UNL     1      34.000  12.613 104.506  1.00  0.00     0.035 C 
BRANCH  15  16
ATOM     16  C   UNL     1      32.886  13.493 105.084  1.00  0.00     0.079 C 
BRANCH  16  17
ATOM     17  C   UNL     1      31.559  12.782 105.074  1.00  0.00     0.130 C 
ATOM     18  O   UNL     1      31.515  11.594 104.793  1.00  0.00    -0.300 OA
ATOM     19  C   UNL     1      30.284  13.505 105.395  1.00  0.00     0.087 C 
ENDBRANCH  16  17
ENDBRANCH  15  16
ENDBRANCH  13  15
ENDBRANCH  11  12
ENDBRANCH   1  11
TORSDOF 9
ENDMDL
MODEL 3
REMARK VINA RESULT:    -6.116      2.196      3.257
REMARK INTER + INTRA:         -10.551
REMARK INTER:                  -9.502
REMARK INTRA:                  -1.049
REMARK UNBOUND:                -1.217
REMARK SMILES CC(=O)CCC=C(C)CCC=C(C)CCC=C(C)C
REMARK SMILES IDX 10 1 11 2 12 3 13 4 14 5 15 6 16 7 18 8 17 9 19 10 9 11 7 12
REMARK SMILES IDX 6 13 8 14 5 15 4 16 2 17 3 18 1 19
REMARK H PARENT
REMARK Flexibility Score: inf
ROOT
ATOM      1  C   UNL     1      34.111   9.706 105.950  1.00  0.00     0.032 C 
ENDROOT
BRANCH   1   2
ATOM      2  C   UNL     1      34.799  11.038 105.782  1.00  0.00    -0.028 C 
ATOM      3  C   UNL     1      35.493  11.669 106.756  1.00  0.00    -0.077 C 
ATOM      4  C   UNL     1      35.599  11.102 108.153  1.00  0.00     0.039 C 
BRANCH   3   5
ATOM      5  C   UNL     1      36.181  12.980 106.438  1.00  0.00     0.034 C 
BRANCH   5   6
ATOM      6  C   UNL     1      37.424  12.750 105.572  1.00  0.00     0.032 C 
BRANCH   6   7
ATOM      7  C   UNL     1      38.634  12.447 106.422  1.00  0.00    -0.028 C 
ATOM      8  C   UNL     1      40.892  11.584 106.878  1.00  0.00     0.039 C 
ATOM      9  C   UNL     1      39.739  11.837 105.942  1.00  0.00    -0.080 C 
ATOM     10  C   UNL     1      39.838  11.405 104.499  1.00  0.00     0.039 C 
ENDBRANCH   6   7
ENDBRANCH   5   6
ENDBRANCH   3   5
ENDBRANCH   1   2
BRANCH   1  11
ATOM     11  C   UNL     1      32.645   9.794 105.514  1.00  0.00     0.034 C 
BRANCH  11  12
ATOM     12  C   UNL     1      31.854   8.612 106.030  1.00  0.00    -0.077 C 
ATOM     13  C   UNL     1      32.154   8.105 107.248  1.00  0.00    -0.028 C 
ATOM     14  C   UNL     1      30.751   8.037 105.175  1.00  0.00     0.039 C 
BRANCH  13  15
ATOM     15  C   UNL     1      31.412   6.973 107.921  1.00  0.00     0.035 C 
BRANCH  15  16
ATOM     16  C   UNL     1      32.361   5.817 108.257  1.00  0.00     0.079 C 
BRANCH  16  17
ATOM     17  C   UNL     1      32.403   4.798 107.150  1.00  0.00     0.130 C 
ATOM     18  O   UNL     1      31.494   4.757 106.334  1.00  0.00    -0.300 OA
ATOM     19  C   UNL     1      33.537   3.823 107.030  1.00  0.00     0.087 C 
ENDBRANCH  16  17
ENDBRANCH  15  16
ENDBRANCH  13  15
ENDBRANCH  11  12
ENDBRANCH   1  11
TORSDOF 9
ENDMDL
MODEL 4
REMARK VINA RESULT:    -6.098      2.188      6.572
REMARK INTER + INTRA:         -10.524
REMARK INTER:                  -8.845
REMARK INTRA:                  -1.679
REMARK UNBOUND:                -1.217
REMARK SMILES CC(=O)CCC=C(C)CCC=C(C)CCC=C(C)C
REMARK SMILES IDX 10 1 11 2 12 3 13 4 14 5 15 6 16 7 18 8 17 9 19 10 9 11 7 12
REMARK SMILES IDX 6 13 8 14 5 15 4 16 2 17 3 18 1 19
REMARK H PARENT
REMARK Flexibility Score: inf
ROOT
ATOM      1  C   UNL     1      31.990   9.380 105.321  1.00  0.00     0.032 C 
ENDROOT
BRANCH   1   2
ATOM      2  C   UNL     1      31.748   8.659 106.623  1.00  0.00    -0.028 C 
ATOM      3  C   UNL     1      32.690   8.458 107.573  1.00  0.00    -0.077 C 
ATOM      4  C   UNL     1      34.121   8.905 107.382  1.00  0.00     0.039 C 
BRANCH   3   5
ATOM      5  C   UNL     1      32.300   7.763 108.860  1.00  0.00     0.034 C 
BRANCH   5   6
ATOM      6  C   UNL     1      31.562   6.450 108.573  1.00  0.00     0.032 C 
BRANCH   6   7
ATOM      7  C   UNL     1      32.528   5.350 108.204  1.00  0.00    -0.028 C 
ATOM      8  C   UNL     1      33.493   3.608 106.761  1.00  0.00     0.039 C 
ATOM      9  C   UNL     1      32.478   4.689 107.027  1.00  0.00    -0.080 C 
ATOM     10  C   UNL     1      31.434   5.009 105.985  1.00  0.00     0.039 C 
ENDBRANCH   6   7
ENDBRANCH   5   6
ENDBRANCH   3   5
ENDBRANCH   1   2
BRANCH   1  11
ATOM     11  C   UNL     1      31.021  10.556 105.164  1.00  0.00     0.034 C 
BRANCH  11  12
ATOM     12  C   UNL     1      31.767  11.872 105.130  1.00  0.00    -0.077 C 
ATOM     13  C   UNL     1      33.119  11.858 105.089  1.00  0.00    -0.028 C 
ATOM     14  C   UNL     1      30.980  13.161 105.134  1.00  0.00     0.039 C 
BRANCH  13  15
ATOM     15  C   UNL     1      33.995  13.086 104.986  1.00  0.00     0.035 C 
BRANCH  15  16
ATOM     16  C   UNL     1      35.438  12.703 104.640  1.00  0.00     0.079 C 
BRANCH  16  17
ATOM     17  C   UNL     1      36.043  11.818 105.698  1.00  0.00     0.130 C 
ATOM     18  O   UNL     1      36.481  10.721 105.386  1.00  0.00    -0.300 OA
ATOM     19  C   UNL     1      36.114  12.253 107.132  1.00  0.00     0.087 C 
ENDBRANCH  16  17
ENDBRANCH  15  16
ENDBRANCH  13  15
ENDBRANCH  11  12
ENDBRANCH   1  11
TORSDOF 9
ENDMDL
MODEL 5
REMARK VINA RESULT:    -6.026      1.096      3.609
REMARK INTER + INTRA:         -10.414
REMARK INTER:                  -9.080
REMARK INTRA:                  -1.335
REMARK UNBOUND:                -1.217
REMARK SMILES CC(=O)CCC=C(C)CCC=C(C)CCC=C(C)C
REMARK SMILES IDX 10 1 11 2 12 3 13 4 14 5 15 6 16 7 18 8 17 9 19 10 9 11 7 12
REMARK SMILES IDX 6 13 8 14 5 15 4 16 2 17 3 18 1 19
REMARK H PARENT
REMARK Flexibility Score: inf
ROOT
ATOM      1  C   UNL     1      34.776   8.843 107.030  1.00  0.00     0.032 C 
ENDROOT
BRANCH   1   2
ATOM      2  C   UNL     1      34.492  10.160 106.352  1.00  0.00    -0.028 C 
ATOM      3  C   UNL     1      35.186  11.300 106.571  1.00  0.00    -0.077 C 
ATOM      4  C   UNL     1      36.307  11.367 107.583  1.00  0.00     0.039 C 
BRANCH   3   5
ATOM      5  C   UNL     1      34.830  12.542 105.783  1.00  0.00     0.034 C 
BRANCH   5   6
ATOM      6  C   UNL     1      33.775  12.230 104.715  1.00  0.00     0.032 C 
BRANCH   6   7
ATOM      7  C   UNL     1      32.510  13.019 104.949  1.00  0.00    -0.028 C 
ATOM      8  C   UNL     1      30.105  13.324 105.366  1.00  0.00     0.039 C 
ATOM      9  C   UNL     1      31.304  12.441 105.140  1.00  0.00    -0.080 C 
ATOM     10  C   UNL     1      31.138  10.941 105.129  1.00  0.00     0.039 C 
ENDBRANCH   6   7
ENDBRANCH   5   6
ENDBRANCH   3   5
ENDBRANCH   1   2
BRANCH   1  11
ATOM     11  C   UNL     1      34.000   8.733 108.346  1.00  0.00     0.034 C 
BRANCH  11  12
ATOM     12  C   UNL     1      32.638   8.112 108.120  1.00  0.00    -0.077 C 
ATOM     13  C   UNL     1      32.366   7.548 106.921  1.00  0.00    -0.028 C 
ATOM     14  C   UNL     1      31.627   8.134 109.241  1.00  0.00     0.039 C 
BRANCH  13  15
ATOM     15  C   UNL     1      31.080   6.835 106.572  1.00  0.00     0.035 C 
BRANCH  15  16
ATOM     16  C   UNL     1      31.342   5.364 106.229  1.00  0.00     0.079 C 
BRANCH  16  17
ATOM     17  C   UNL     1      32.134   4.678 107.311  1.00  0.00     0.130 C 
ATOM     18  O   UNL     1      31.730   4.710 108.464  1.00  0.00    -0.300 OA
ATOM     19  C   UNL     1      33.415   3.961 107.005  1.00  0.00     0.087 C 
ENDBRANCH  16  17
ENDBRANCH  15  16
ENDBRANCH  13  15
ENDBRANCH  11  12
ENDBRANCH   1  11
TORSDOF 9
ENDMDL
MODEL 6
REMARK VINA RESULT:    -5.820      2.236      3.536
REMARK INTER + INTRA:         -10.099
REMARK INTER:                  -8.775
REMARK INTRA:                  -1.324
REMARK UNBOUND:                -1.217
REMARK SMILES CC(=O)CCC=C(C)CCC=C(C)CCC=C(C)C
REMARK SMILES IDX 10 1 11 2 12 3 13 4 14 5 15 6 16 7 18 8 17 9 19 10 9 11 7 12
REMARK SMILES IDX 6 13 8 14 5 15 4 16 2 17 3 18 1 19
REMARK H PARENT
REMARK Flexibility Score: inf
ROOT
ATOM      1  C   UNL     1      35.242   9.706 106.494  1.00  0.00     0.032 C 
ENDROOT
BRANCH   1   2
ATOM      2  C   UNL     1      35.942  11.000 106.828  1.00  0.00    -0.028 C 
ATOM      3  C   UNL     1      35.583  12.211 106.345  1.00  0.00    -0.077 C 
ATOM      4  C   UNL     1      34.449  12.371 105.359  1.00  0.00     0.039 C 
BRANCH   3   5
ATOM      5  C   UNL     1      36.340  13.440 106.803  1.00  0.00     0.034 C 
BRANCH   5   6
ATOM      6  C   UNL     1      37.541  13.715 105.893  1.00  0.00     0.032 C 
BRANCH   6   7
ATOM      7  C   UNL     1      38.813  13.152 106.480  1.00  0.00    -0.028 C 
ATOM      8  C   UNL     1      40.750  11.642 106.595  1.00  0.00     0.039 C 
ATOM      9  C   UNL     1      39.490  12.124 105.925  1.00  0.00    -0.080 C 
ATOM     10  C   UNL     1      39.011  11.455 104.660  1.00  0.00     0.039 C 
ENDBRANCH   6   7
ENDBRANCH   5   6
ENDBRANCH   3   5
ENDBRANCH   1   2
BRANCH   1  11
ATOM     11  C   UNL     1      34.782   8.994 107.770  1.00  0.00     0.034 C 
BRANCH  11  12
ATOM     12  C   UNL     1      33.422   8.359 107.576  1.00  0.00    -0.077 C 
ATOM     13  C   UNL     1      33.044   7.355 108.399  1.00  0.00    -0.028 C 
ATOM     14  C   UNL     1      32.525   8.870 106.474  1.00  0.00     0.039 C 
BRANCH  13  15
ATOM     15  C   UNL     1      31.696   6.672 108.369  1.00  0.00     0.035 C 
BRANCH  15  16
ATOM     16  C   UNL     1      31.852   5.147 108.390  1.00  0.00     0.079 C 
BRANCH  16  17
ATOM     17  C   UNL     1      32.293   4.619 107.051  1.00  0.00     0.130 C 
ATOM     18  O   UNL     1      31.615   4.847 106.061  1.00  0.00    -0.300 OA
ATOM     19  C   UNL     1      33.548   3.810 106.907  1.00  0.00     0.087 C 
ENDBRANCH  16  17
ENDBRANCH  15  16
ENDBRANCH  13  15
ENDBRANCH  11  12
ENDBRANCH   1  11
TORSDOF 9
ENDMDL
MODEL 7
REMARK VINA RESULT:    -5.810      3.333      7.155
REMARK INTER + INTRA:         -10.084
REMARK INTER:                  -8.934
REMARK INTRA:                  -1.150
REMARK UNBOUND:                -1.217
REMARK SMILES CC(=O)CCC=C(C)CCC=C(C)CCC=C(C)C
REMARK SMILES IDX 10 1 11 2 12 3 13 4 14 5 15 6 16 7 18 8 17 9 19 10 9 11 7 12
REMARK SMILES IDX 6 13 8 14 5 15 4 16 2 17 3 18 1 19
REMARK H PARENT
REMARK Flexibility Score: inf
ROOT
ATOM      1  C   UNL     1      33.572   9.998 105.965  1.00  0.00     0.032 C 
ENDROOT
BRANCH   1   2
ATOM      2  C   UNL     1      32.700   8.778 105.800  1.00  0.00    -0.028 C 
ATOM      3  C   UNL     1      31.394   8.812 105.452  1.00  0.00    -0.077 C 
ATOM      4  C   UNL     1      30.660  10.116 105.241  1.00  0.00     0.039 C 
BRANCH   3   5
ATOM      5  C   UNL     1      30.647   7.508 105.269  1.00  0.00     0.034 C 
BRANCH   5   6
ATOM      6  C   UNL     1      30.652   6.688 106.564  1.00  0.00     0.032 C 
BRANCH   6   7
ATOM      7  C   UNL     1      31.463   5.424 106.408  1.00  0.00    -0.028 C 
ATOM      8  C   UNL     1      33.225   3.808 106.984  1.00  0.00     0.039 C 
ATOM      9  C   UNL     1      32.483   5.095 107.230  1.00  0.00    -0.080 C 
ATOM     10  C   UNL     1      32.890   5.987 108.378  1.00  0.00     0.039 C 
ENDBRANCH   6   7
ENDBRANCH   5   6
ENDBRANCH   3   5
ENDBRANCH   1   2
BRANCH   1  11
ATOM     11  C   UNL     1      34.750   9.701 106.897  1.00  0.00     0.034 C 
BRANCH  11  12
ATOM     12  C   UNL     1      35.842  10.736 106.737  1.00  0.00    -0.077 C 
ATOM     13  C   UNL     1      36.375  10.942 105.510  1.00  0.00    -0.028 C 
ATOM     14  C   UNL     1      36.299  11.514 107.947  1.00  0.00     0.039 C 
BRANCH  13  15
ATOM     15  C   UNL     1      37.421  11.984 105.185  1.00  0.00     0.035 C 
BRANCH  15  16
ATOM     16  C   UNL     1      38.576  11.371 104.384  1.00  0.00     0.079 C 
BRANCH  16  17
ATOM     17  C   UNL     1      39.876  11.454 105.138  1.00  0.00     0.130 C 
ATOM     18  O   UNL     1      40.876  10.929 104.673  1.00  0.00    -0.300 OA
ATOM     19  C   UNL     1      39.969  12.163 106.457  1.00  0.00     0.087 C 
ENDBRANCH  16  17
ENDBRANCH  15  16
ENDBRANCH  13  15
ENDBRANCH  11  12
ENDBRANCH   1  11
TORSDOF 9
ENDMDL
MODEL 8
REMARK VINA RESULT:    -5.792      3.842      7.859
REMARK INTER + INTRA:         -10.057
REMARK INTER:                  -8.972
REMARK INTRA:                  -1.085
REMARK UNBOUND:                -1.217
REMARK SMILES CC(=O)CCC=C(C)CCC=C(C)CCC=C(C)C
REMARK SMILES IDX 10 1 11 2 12 3 13 4 14 5 15 6 16 7 18 8 17 9 19 10 9 11 7 12
REMARK SMILES IDX 6 13 8 14 5 15 4 16 2 17 3 18 1 19
REMARK H PARENT
REMARK Flexibility Score: inf
ROOT
ATOM      1  C   UNL     1      35.256   9.478 107.011  1.00  0.00     0.032 C 
ENDROOT
BRANCH   1   2
ATOM      2  C   UNL     1      34.355   8.865 108.055  1.00  0.00    -0.028 C 
ATOM      3  C   UNL     1      33.067   8.512 107.842  1.00  0.00    -0.077 C 
ATOM      4  C   UNL     1      32.384   8.755 106.516  1.00  0.00     0.039 C 
BRANCH   3   5
ATOM      5  C   UNL     1      32.289   7.857 108.963  1.00  0.00     0.034 C 
BRANCH   5   6
ATOM      6  C   UNL     1      31.529   6.626 108.456  1.00  0.00     0.032 C 
BRANCH   6   7
ATOM      7  C   UNL     1      32.465   5.468 108.210  1.00  0.00    -0.028 C 
ATOM      8  C   UNL     1      33.427   3.598 106.935  1.00  0.00     0.039 C 
ATOM      9  C   UNL     1      32.446   4.732 107.078  1.00  0.00    -0.080 C 
ATOM     10  C   UNL     1      31.468   5.020 105.965  1.00  0.00     0.039 C 
ENDBRANCH   6   7
ENDBRANCH   5   6
ENDBRANCH   3   5
ENDBRANCH   1   2
BRANCH   1  11
ATOM     11  C   UNL     1      35.619  10.918 107.386  1.00  0.00     0.034 C 
BRANCH  11  12
ATOM     12  C   UNL     1      36.495  11.549 106.326  1.00  0.00    -0.077 C 
ATOM     13  C   UNL     1      37.757  11.912 106.650  1.00  0.00    -0.028 C 
ATOM     14  C   UNL     1      35.939  11.748 104.937  1.00  0.00     0.039 C 
BRANCH  13  15
ATOM     15  C   UNL     1      38.767  12.490 105.686  1.00  0.00     0.035 C 
BRANCH  15  16
ATOM     16  C   UNL     1      39.935  11.522 105.467  1.00  0.00     0.079 C 
BRANCH  16  17
ATOM     17  C   UNL     1      41.014  11.715 106.500  1.00  0.00     0.130 C 
ATOM     18  O   UNL     1      41.171  12.815 107.006  1.00  0.00    -0.300 OA
ATOM     19  C   UNL     1      41.907  10.584 106.916  1.00  0.00     0.087 C 
ENDBRANCH  16  17
ENDBRANCH  15  16
ENDBRANCH  13  15
ENDBRANCH  11  12
ENDBRANCH   1  11
TORSDOF 9
ENDMDL
MODEL 9
REMARK VINA RESULT:    -5.518      2.432      3.818
REMARK INTER + INTRA:          -9.638
REMARK INTER:                  -8.751
REMARK INTRA:                  -0.887
REMARK UNBOUND:                -1.217
REMARK SMILES CC(=O)CCC=C(C)CCC=C(C)CCC=C(C)C
REMARK SMILES IDX 10 1 11 2 12 3 13 4 14 5 15 6 16 7 18 8 17 9 19 10 9 11 7 12
REMARK SMILES IDX 6 13 8 14 5 15 4 16 2 17 3 18 1 19
REMARK H PARENT
REMARK Flexibility Score: inf
ROOT
ATOM      1  C   UNL     1      34.364   9.563 106.920  1.00  0.00     0.032 C 
ENDROOT
BRANCH   1   2
ATOM      2  C   UNL     1      35.531  10.473 107.210  1.00  0.00    -0.028 C 
ATOM      3  C   UNL     1      35.680  11.715 106.697  1.00  0.00    -0.077 C 
ATOM      4  C   UNL     1      34.685  12.296 105.718  1.00  0.00     0.039 C 
BRANCH   3   5
ATOM      5  C   UNL     1      36.876  12.545 107.112  1.00  0.00     0.034 C 
BRANCH   5   6
ATOM      6  C   UNL     1      37.630  13.071 105.886  1.00  0.00     0.032 C 
BRANCH   6   7
ATOM      7  C   UNL     1      38.670  12.082 105.418  1.00  0.00    -0.028 C 
ATOM      8  C   UNL     1      40.931  11.136 105.218  1.00  0.00     0.039 C 
ATOM      9  C   UNL     1      39.978  12.180 105.738  1.00  0.00    -0.080 C 
ATOM     10  C   UNL     1      40.498  13.307 106.597  1.00  0.00     0.039 C 
ENDBRANCH   6   7
ENDBRANCH   5   6
ENDBRANCH   3   5
ENDBRANCH   1   2
BRANCH   1  11
ATOM     11  C   UNL     1      34.066   8.663 108.124  1.00  0.00     0.034 C 
BRANCH  11  12
ATOM     12  C   UNL     1      32.696   8.032 108.002  1.00  0.00    -0.077 C 
ATOM     13  C   UNL     1      32.332   7.477 106.823  1.00  0.00    -0.028 C 
ATOM     14  C   UNL     1      31.778   8.034 109.201  1.00  0.00     0.039 C 
BRANCH  13  15
ATOM     15  C   UNL     1      31.028   6.756 106.572  1.00  0.00     0.035 C 
BRANCH  15  16
ATOM     16  C   UNL     1      31.273   5.285 106.217  1.00  0.00     0.079 C 
BRANCH  16  17
ATOM     17  C   UNL     1      32.130   4.603 107.250  1.00  0.00     0.130 C 
ATOM     18  O   UNL     1      31.807   4.653 108.427  1.00  0.00    -0.300 OA
ATOM     19  C   UNL     1      33.380   3.869 106.866  1.00  0.00     0.087 C 
ENDBRANCH  16  17
ENDBRANCH  15  16
ENDBRANCH  13  15
ENDBRANCH  11  12
ENDBRANCH   1  11
TORSDOF 9
ENDMDL
