MODEL 1
REMARK VINA RESULT:     2.035      0.000      0.000
REMARK INTER + INTRA:           2.125
REMARK INTER:                   2.511
REMARK INTRA:                  -0.386
REMARK UNBOUND:                -0.386
REMARK SMILES COc1cc(-c2oc3cc(O)cc(O)c3c(=O)c2O)ccc1O
REMARK SMILES IDX 6 1 18 2 16 3 17 4 15 5 13 6 12 7 10 8 9 9 8 10 7 11 5 12
REMARK SMILES IDX 3 13 22 14 4 15 21 16 20 17 2 18 1 19 23 20 19 22 14 24
REMARK SMILES IDX 11 26
REMARK H PARENT 23 21 19 23 14 25 11 27
REMARK Flexibility Score: inf
ROOT
ATOM      1  C   UNL     1      28.951  37.517  28.042  1.00  0.00     0.180 A 
ATOM      2  C   UNL     1      27.723  37.863  27.445  1.00  0.00     0.208 A 
ATOM      3  C   UNL     1      27.128  36.963  26.547  1.00  0.00     0.238 A 
ATOM      4  O   UNL     1      26.024  37.257  26.015  1.00  0.00    -0.285 OA
ATOM      5  C   UNL     1      27.777  35.748  26.246  1.00  0.00     0.111 A 
ATOM      6  C   UNL     1      27.248  34.788  25.349  1.00  0.00     0.134 A 
ATOM      7  C   UNL     1      27.959  33.606  25.095  1.00  0.00     0.093 A 
ATOM      8  C   UNL     1      29.189  33.367  25.720  1.00  0.00     0.123 A 
ATOM      9  C   UNL     1      29.714  34.309  26.604  1.00  0.00     0.094 A 
ATOM     10  C   UNL     1      29.020  35.493  26.873  1.00  0.00     0.146 A 
ATOM     11  O   UNL     1      29.541  36.369  27.723  1.00  0.00    -0.452 OA
ENDROOT
BRANCH   1  12
ATOM     12  C   UNL     1      29.631  38.405  29.013  1.00  0.00     0.025 A 
ATOM     13  C   UNL     1      31.120  40.278  29.522  1.00  0.00     0.161 A 
ATOM     14  C   UNL     1      30.856  40.106  30.888  1.00  0.00     0.157 A 
ATOM     15  C   UNL     1      30.497  39.428  28.586  1.00  0.00     0.062 A 
ATOM     16  C   UNL     1      29.976  39.103  31.313  1.00  0.00     0.051 A 
ATOM     17  C   UNL     1      29.362  38.264  30.382  1.00  0.00     0.016 A 
BRANCH  13  18
ATOM     18  O   UNL     1      31.999  41.301  29.134  1.00  0.00    -0.493 OA
ATOM     19  C   UNL     1      32.763  41.297  27.933  1.00  0.00     0.278 C 
ENDBRANCH  13  18
BRANCH  14  20
ATOM     20  O   UNL     1      31.472  40.941  31.819  1.00  0.00    -0.504 OA
ATOM     21  H   UNL     1      31.960  41.782  31.536  1.00  0.00     0.293 HD
ENDBRANCH  14  20
ENDBRANCH   1  12
BRANCH   2  22
ATOM     22  O   UNL     1      27.126  39.095  27.723  1.00  0.00    -0.502 OA
ATOM     23  H   UNL     1      26.120  39.210  27.781  1.00  0.00     0.293 HD
ENDBRANCH   2  22
BRANCH   6  24
ATOM     24  O   UNL     1      26.024  35.000  24.711  1.00  0.00    -0.507 OA
ATOM     25  H   UNL     1      25.519  35.873  24.804  1.00  0.00     0.293 HD
ENDBRANCH   6  24
BRANCH   8  26
ATOM     26  O   UNL     1      29.895  32.193  25.466  1.00  0.00    -0.508 OA
ATOM     27  H   UNL     1      30.307  32.006  24.559  1.00  0.00     0.293 HD
ENDBRANCH   8  26
TORSDOF 6
ENDMDL
MODEL 2
REMARK VINA RESULT:     2.047      0.931      2.056
REMARK INTER + INTRA:           2.140
REMARK INTER:                   2.532
REMARK INTRA:                  -0.392
REMARK UNBOUND:                -0.386
REMARK SMILES COc1cc(-c2oc3cc(O)cc(O)c3c(=O)c2O)ccc1O
REMARK SMILES IDX 6 1 18 2 16 3 17 4 15 5 13 6 12 7 10 8 9 9 8 10 7 11 5 12
REMARK SMILES IDX 3 13 22 14 4 15 21 16 20 17 2 18 1 19 23 20 19 22 14 24
REMARK SMILES IDX 11 26
REMARK H PARENT 23 21 19 23 14 25 11 27
REMARK Flexibility Score: inf
ROOT
ATOM      1  C   UNL     1      29.570  37.859  26.979  1.00  0.00     0.180 A 
ATOM      2  C   UNL     1      28.294  38.107  26.437  1.00  0.00     0.208 A 
ATOM      3  C   UNL     1      27.571  37.036  25.887  1.00  0.00     0.238 A 
ATOM      4  O   UNL     1      26.423  37.244  25.409  1.00  0.00    -0.285 OA
ATOM      5  C   UNL     1      28.142  35.747  25.869  1.00  0.00     0.111 A 
ATOM      6  C   UNL     1      27.482  34.616  25.330  1.00  0.00     0.134 A 
ATOM      7  C   UNL     1      28.121  33.367  25.342  1.00  0.00     0.093 A 
ATOM      8  C   UNL     1      29.405  33.228  25.881  1.00  0.00     0.123 A 
ATOM      9  C   UNL     1      30.058  34.340  26.413  1.00  0.00     0.094 A 
ATOM     10  C   UNL     1      29.439  35.594  26.413  1.00  0.00     0.146 A 
ATOM     11  O   UNL     1      30.083  36.633  26.931  1.00  0.00    -0.452 OA
ENDROOT
BRANCH   1  12
ATOM     12  C   UNL     1      30.385  38.932  27.592  1.00  0.00     0.025 A 
ATOM     13  C   UNL     1      31.140  40.195  29.547  1.00  0.00     0.161 A 
ATOM     14  C   UNL     1      31.993  40.944  28.724  1.00  0.00     0.157 A 
ATOM     15  C   UNL     1      30.342  39.183  28.976  1.00  0.00     0.062 A 
ATOM     16  C   UNL     1      32.054  40.680  27.350  1.00  0.00     0.051 A 
ATOM     17  C   UNL     1      31.262  39.676  26.790  1.00  0.00     0.016 A 
BRANCH  13  18
ATOM     18  O   UNL     1      31.115  40.482  30.921  1.00  0.00    -0.493 OA
ATOM     19  C   UNL     1      30.392  39.730  31.889  1.00  0.00     0.278 C 
ENDBRANCH  13  18
BRANCH  14  20
ATOM     20  O   UNL     1      32.782  41.948  29.282  1.00  0.00    -0.504 OA
ATOM     21  H   UNL     1      32.661  42.921  29.028  1.00  0.00     0.293 HD
ENDBRANCH  14  20
ENDBRANCH   1  12
BRANCH   2  22
ATOM     22  O   UNL     1      27.773  39.403  26.423  1.00  0.00    -0.502 OA
ATOM     23  H   UNL     1      27.982  40.080  27.147  1.00  0.00     0.293 HD
ENDBRANCH   2  22
BRANCH   6  24
ATOM     24  O   UNL     1      26.201  34.723  24.786  1.00  0.00    -0.507 OA
ATOM     25  H   UNL     1      25.817  35.615  24.499  1.00  0.00     0.293 HD
ENDBRANCH   6  24
BRANCH   8  26
ATOM     26  O   UNL     1      30.039  31.988  25.890  1.00  0.00    -0.508 OA
ATOM     27  H   UNL     1      30.196  31.478  26.752  1.00  0.00     0.293 HD
ENDBRANCH   8  26
TORSDOF 6
ENDMDL
MODEL 3
REMARK VINA RESULT:     3.735      1.519      7.184
REMARK INTER + INTRA:           4.222
REMARK INTER:                   4.609
REMARK INTRA:                  -0.386
REMARK UNBOUND:                -0.386
REMARK SMILES COc1cc(-c2oc3cc(O)cc(O)c3c(=O)c2O)ccc1O
REMARK SMILES IDX 6 1 18 2 16 3 17 4 15 5 13 6 12 7 10 8 9 9 8 10 7 11 5 12
REMARK SMILES IDX 3 13 22 14 4 15 21 16 20 17 2 18 1 19 23 20 19 22 14 24
REMARK SMILES IDX 11 26
REMARK H PARENT 23 21 19 23 14 25 11 27
REMARK Flexibility Score: inf
ROOT
ATOM      1  C   UNL     1      29.464  37.745  26.980  1.00  0.00     0.180 A 
ATOM      2  C   UNL     1      30.342  38.578  26.259  1.00  0.00     0.208 A 
ATOM      3  C   UNL     1      31.091  39.538  26.958  1.00  0.00     0.238 A 
ATOM      4  O   UNL     1      31.888  40.282  26.325  1.00  0.00    -0.285 OA
ATOM      5  C   UNL     1      30.936  39.663  28.353  1.00  0.00     0.111 A 
ATOM      6  C   UNL     1      31.650  40.607  29.131  1.00  0.00     0.134 A 
ATOM      7  C   UNL     1      31.433  40.675  30.514  1.00  0.00     0.093 A 
ATOM      8  C   UNL     1      30.516  39.819  31.135  1.00  0.00     0.123 A 
ATOM      9  C   UNL     1      29.811  38.887  30.373  1.00  0.00     0.094 A 
ATOM     10  C   UNL     1      30.014  38.801  28.993  1.00  0.00     0.146 A 
ATOM     11  O   UNL     1      29.332  37.901  28.293  1.00  0.00    -0.452 OA
ENDROOT
BRANCH   1  12
ATOM     12  C   UNL     1      28.654  36.697  26.317  1.00  0.00     0.025 A 
ATOM     13  C   UNL     1      28.301  34.373  25.641  1.00  0.00     0.161 A 
ATOM     14  C   UNL     1      27.057  34.727  25.099  1.00  0.00     0.157 A 
ATOM     15  C   UNL     1      29.093  35.362  26.257  1.00  0.00     0.062 A 
ATOM     16  C   UNL     1      26.609  36.051  25.178  1.00  0.00     0.051 A 
ATOM     17  C   UNL     1      27.398  37.027  25.790  1.00  0.00     0.016 A 
BRANCH  13  18
ATOM     18  O   UNL     1      28.711  33.033  25.553  1.00  0.00    -0.493 OA
ATOM     19  C   UNL     1      30.012  32.564  25.888  1.00  0.00     0.278 C 
ENDBRANCH  13  18
BRANCH  14  20
ATOM     20  O   UNL     1      26.270  33.755  24.485  1.00  0.00    -0.504 OA
ATOM     21  H   UNL     1      26.181  32.822  24.872  1.00  0.00     0.293 HD
ENDBRANCH  14  20
ENDBRANCH   1  12
BRANCH   2  22
ATOM     22  O   UNL     1      30.440  38.466  24.870  1.00  0.00    -0.502 OA
ATOM     23  H   UNL     1      29.643  38.241  24.286  1.00  0.00     0.293 HD
ENDBRANCH   2  22
BRANCH   6  24
ATOM     24  O   UNL     1      32.570  41.475  28.540  1.00  0.00    -0.507 OA
ATOM     25  H   UNL     1      33.564  41.278  28.538  1.00  0.00     0.293 HD
ENDBRANCH   6  24
BRANCH   8  26
ATOM     26  O   UNL     1      30.300  39.888  32.510  1.00  0.00    -0.508 OA
ATOM     27  H   UNL     1      31.069  39.957  33.166  1.00  0.00     0.293 HD
ENDBRANCH   8  26
TORSDOF 6
ENDMDL
MODEL 4
REMARK VINA RESULT:     4.194      3.236      5.698
REMARK INTER + INTRA:           4.789
REMARK INTER:                   5.186
REMARK INTRA:                  -0.397
REMARK UNBOUND:                -0.386
REMARK SMILES COc1cc(-c2oc3cc(O)cc(O)c3c(=O)c2O)ccc1O
REMARK SMILES IDX 6 1 18 2 16 3 17 4 15 5 13 6 12 7 10 8 9 9 8 10 7 11 5 12
REMARK SMILES IDX 3 13 22 14 4 15 21 16 20 17 2 18 1 19 23 20 19 22 14 24
REMARK SMILES IDX 11 26
REMARK H PARENT 23 21 19 23 14 25 11 27
REMARK Flexibility Score: inf
ROOT
ATOM      1  C   UNL     1      29.528  37.534  26.793  1.00  0.00     0.180 A 
ATOM      2  C   UNL     1      28.256  37.919  27.259  1.00  0.00     0.208 A 
ATOM      3  C   UNL     1      27.567  38.938  26.582  1.00  0.00     0.238 A 
ATOM      4  O   UNL     1      26.422  39.284  26.982  1.00  0.00    -0.285 OA
ATOM      5  C   UNL     1      28.167  39.567  25.471  1.00  0.00     0.111 A 
ATOM      6  C   UNL     1      27.542  40.603  24.737  1.00  0.00     0.134 A 
ATOM      7  C   UNL     1      28.208  41.184  23.648  1.00  0.00     0.093 A 
ATOM      8  C   UNL     1      29.486  40.748  23.280  1.00  0.00     0.123 A 
ATOM      9  C   UNL     1      30.106  39.726  24.000  1.00  0.00     0.094 A 
ATOM     10  C   UNL     1      29.458  39.133  25.088  1.00  0.00     0.146 A 
ATOM     11  O   UNL     1      30.069  38.159  25.752  1.00  0.00    -0.452 OA
ENDROOT
BRANCH   1  12
ATOM     12  C   UNL     1      30.309  36.456  27.442  1.00  0.00     0.025 A 
ATOM     13  C   UNL     1      30.949  34.104  27.649  1.00  0.00     0.161 A 
ATOM     14  C   UNL     1      31.853  34.447  28.664  1.00  0.00     0.157 A 
ATOM     15  C   UNL     1      30.183  35.115  27.034  1.00  0.00     0.062 A 
ATOM     16  C   UNL     1      31.996  35.783  29.055  1.00  0.00     0.051 A 
ATOM     17  C   UNL     1      31.235  36.782  28.443  1.00  0.00     0.016 A 
BRANCH  13  18
ATOM     18  O   UNL     1      30.841  32.754  27.276  1.00  0.00    -0.493 OA
ATOM     19  C   UNL     1      30.129  32.286  26.137  1.00  0.00     0.278 C 
ENDBRANCH  13  18
BRANCH  14  20
ATOM     20  O   UNL     1      32.610  33.451  29.278  1.00  0.00    -0.504 OA
ATOM     21  H   UNL     1      32.675  33.379  30.286  1.00  0.00     0.293 HD
ENDBRANCH  14  20
ENDBRANCH   1  12
BRANCH   2  22
ATOM     22  O   UNL     1      27.706  37.315  28.391  1.00  0.00    -0.502 OA
ATOM     23  H   UNL     1      27.924  36.362  28.658  1.00  0.00     0.293 HD
ENDBRANCH   2  22
BRANCH   6  24
ATOM     24  O   UNL     1      26.268  41.060  25.080  1.00  0.00    -0.507 OA
ATOM     25  H   UNL     1      25.434  40.529  24.859  1.00  0.00     0.293 HD
ENDBRANCH   6  24
BRANCH   8  26
ATOM     26  O   UNL     1      30.148  41.326  22.199  1.00  0.00    -0.508 OA
ATOM     27  H   UNL     1      29.780  41.267  21.257  1.00  0.00     0.293 HD
ENDBRANCH   8  26
TORSDOF 6
ENDMDL
MODEL 5
REMARK VINA RESULT:     4.334      3.403      6.052
REMARK INTER + INTRA:           4.961
REMARK INTER:                   5.358
REMARK INTRA:                  -0.396
REMARK UNBOUND:                -0.386
REMARK SMILES COc1cc(-c2oc3cc(O)cc(O)c3c(=O)c2O)ccc1O
REMARK SMILES IDX 6 1 18 2 16 3 17 4 15 5 13 6 12 7 10 8 9 9 8 10 7 11 5 12
REMARK SMILES IDX 3 13 22 14 4 15 21 16 20 17 2 18 1 19 23 20 19 22 14 24
REMARK SMILES IDX 11 26
REMARK H PARENT 23 21 19 23 14 25 11 27
REMARK Flexibility Score: inf
ROOT
ATOM      1  C   UNL     1      29.552  37.727  26.703  1.00  0.00     0.180 A 
ATOM      2  C   UNL     1      28.261  37.183  26.855  1.00  0.00     0.208 A 
ATOM      3  C   UNL     1      27.629  37.280  28.105  1.00  0.00     0.238 A 
ATOM      4  O   UNL     1      26.469  36.807  28.250  1.00  0.00    -0.285 OA
ATOM      5  C   UNL     1      28.301  37.895  29.181  1.00  0.00     0.111 A 
ATOM      6  C   UNL     1      27.735  38.030  30.472  1.00  0.00     0.134 A 
ATOM      7  C   UNL     1      28.472  38.648  31.493  1.00  0.00     0.093 A 
ATOM      8  C   UNL     1      29.762  39.133  31.247  1.00  0.00     0.123 A 
ATOM      9  C   UNL     1      30.322  39.003  29.977  1.00  0.00     0.094 A 
ATOM     10  C   UNL     1      29.604  38.392  28.945  1.00  0.00     0.146 A 
ATOM     11  O   UNL     1      30.161  38.287  27.743  1.00  0.00    -0.452 OA
ENDROOT
BRANCH   1  12
ATOM     12  C   UNL     1      30.276  37.680  25.412  1.00  0.00     0.025 A 
ATOM     13  C   UNL     1      30.880  38.673  23.260  1.00  0.00     0.161 A 
ATOM     14  C   UNL     1      31.715  37.578  22.997  1.00  0.00     0.157 A 
ATOM     15  C   UNL     1      30.167  38.723  24.474  1.00  0.00     0.062 A 
ATOM     16  C   UNL     1      31.843  36.550  23.940  1.00  0.00     0.051 A 
ATOM     17  C   UNL     1      31.135  36.605  25.142  1.00  0.00     0.016 A 
BRANCH  13  18
ATOM     18  O   UNL     1      30.787  39.689  22.295  1.00  0.00    -0.493 OA
ATOM     19  C   UNL     1      30.067  40.904  22.470  1.00  0.00     0.278 C 
ENDBRANCH  13  18
BRANCH  14  20
ATOM     20  O   UNL     1      32.420  37.521  21.797  1.00  0.00    -0.504 OA
ATOM     21  H   UNL     1      33.342  37.932  21.702  1.00  0.00     0.293 HD
ENDBRANCH  14  20
ENDBRANCH   1  12
BRANCH   2  22
ATOM     22  O   UNL     1      27.638  36.534  25.787  1.00  0.00    -0.502 OA
ATOM     23  H   UNL     1      26.868  35.889  25.918  1.00  0.00     0.293 HD
ENDBRANCH   2  22
BRANCH   6  24
ATOM     24  O   UNL     1      26.452  37.555  30.747  1.00  0.00    -0.507 OA
ATOM     25  H   UNL     1      26.141  36.644  30.432  1.00  0.00     0.293 HD
ENDBRANCH   6  24
BRANCH   8  26
ATOM     26  O   UNL     1      30.493  39.745  32.262  1.00  0.00    -0.508 OA
ATOM     27  H   UNL     1      30.282  40.685  32.577  1.00  0.00     0.293 HD
ENDBRANCH   8  26
TORSDOF 6
ENDMDL
MODEL 6
REMARK VINA RESULT:     4.675      3.574      6.009
REMARK INTER + INTRA:           5.382
REMARK INTER:                   5.769
REMARK INTRA:                  -0.387
REMARK UNBOUND:                -0.386
REMARK SMILES COc1cc(-c2oc3cc(O)cc(O)c3c(=O)c2O)ccc1O
REMARK SMILES IDX 6 1 18 2 16 3 17 4 15 5 13 6 12 7 10 8 9 9 8 10 7 11 5 12
REMARK SMILES IDX 3 13 22 14 4 15 21 16 20 17 2 18 1 19 23 20 19 22 14 24
REMARK SMILES IDX 11 26
REMARK H PARENT 23 21 19 23 14 25 11 27
REMARK Flexibility Score: inf
ROOT
ATOM      1  C   UNL     1      28.851  38.750  26.410  1.00  0.00     0.180 A 
ATOM      2  C   UNL     1      27.622  38.067  26.490  1.00  0.00     0.208 A 
ATOM      3  C   UNL     1      27.110  37.741  27.756  1.00  0.00     0.238 A 
ATOM      4  O   UNL     1      26.005  37.138  27.841  1.00  0.00    -0.285 OA
ATOM      5  C   UNL     1      27.841  38.081  28.912  1.00  0.00     0.111 A 
ATOM      6  C   UNL     1      27.397  37.785  30.224  1.00  0.00     0.134 A 
ATOM      7  C   UNL     1      28.186  38.150  31.324  1.00  0.00     0.093 A 
ATOM      8  C   UNL     1      29.410  38.804  31.138  1.00  0.00     0.123 A 
ATOM      9  C   UNL     1      29.850  39.099  29.848  1.00  0.00     0.094 A 
ATOM     10  C   UNL     1      29.078  38.745  28.737  1.00  0.00     0.146 A 
ATOM     11  O   UNL     1      29.520  39.042  27.521  1.00  0.00    -0.452 OA
ENDROOT
BRANCH   1  12
ATOM     12  C   UNL     1      29.447  39.145  25.113  1.00  0.00     0.025 A 
ATOM     13  C   UNL     1      30.869  38.675  23.179  1.00  0.00     0.161 A 
ATOM     14  C   UNL     1      30.511  39.912  22.624  1.00  0.00     0.157 A 
ATOM     15  C   UNL     1      30.327  38.292  24.422  1.00  0.00     0.062 A 
ATOM     16  C   UNL     1      29.617  40.752  23.299  1.00  0.00     0.051 A 
ATOM     17  C   UNL     1      29.083  40.368  24.531  1.00  0.00     0.016 A 
BRANCH  13  18
ATOM     18  O   UNL     1      31.759  37.856  22.467  1.00  0.00    -0.493 OA
ATOM     19  C   UNL     1      32.477  36.763  23.029  1.00  0.00     0.278 C 
ENDBRANCH  13  18
BRANCH  14  20
ATOM     20  O   UNL     1      31.046  40.298  21.396  1.00  0.00    -0.504 OA
ATOM     21  H   UNL     1      30.511  40.229  20.539  1.00  0.00     0.293 HD
ENDBRANCH  14  20
ENDBRANCH   1  12
BRANCH   2  22
ATOM     22  O   UNL     1      26.943  37.697  25.327  1.00  0.00    -0.502 OA
ATOM     23  H   UNL     1      26.164  38.231  24.960  1.00  0.00     0.293 HD
ENDBRANCH   2  22
BRANCH   6  24
ATOM     24  O   UNL     1      26.182  37.133  30.441  1.00  0.00    -0.507 OA
ATOM     25  H   UNL     1      26.142  36.179  30.779  1.00  0.00     0.293 HD
ENDBRANCH   6  24
BRANCH   8  26
ATOM     26  O   UNL     1      30.194  39.165  32.232  1.00  0.00    -0.508 OA
ATOM     27  H   UNL     1      30.102  40.071  32.676  1.00  0.00     0.293 HD
ENDBRANCH   8  26
TORSDOF 6
ENDMDL
MODEL 7
REMARK VINA RESULT:     4.799      1.478      7.043
REMARK INTER + INTRA:           5.536
REMARK INTER:                   5.873
REMARK INTRA:                  -0.337
REMARK UNBOUND:                -0.386
REMARK SMILES COc1cc(-c2oc3cc(O)cc(O)c3c(=O)c2O)ccc1O
REMARK SMILES IDX 6 1 18 2 16 3 17 4 15 5 13 6 12 7 10 8 9 9 8 10 7 11 5 12
REMARK SMILES IDX 3 13 22 14 4 15 21 16 20 17 2 18 1 19 23 20 19 22 14 24
REMARK SMILES IDX 11 26
REMARK H PARENT 23 21 19 23 14 25 11 27
REMARK Flexibility Score: inf
ROOT
ATOM      1  C   UNL     1      28.942  37.492  27.703  1.00  0.00     0.180 A 
ATOM      2  C   UNL     1      28.570  37.660  29.051  1.00  0.00     0.208 A 
ATOM      3  C   UNL     1      29.275  38.585  29.838  1.00  0.00     0.238 A 
ATOM      4  O   UNL     1      28.944  38.752  31.043  1.00  0.00    -0.285 OA
ATOM      5  C   UNL     1      30.347  39.305  29.274  1.00  0.00     0.111 A 
ATOM      6  C   UNL     1      31.111  40.252  29.999  1.00  0.00     0.134 A 
ATOM      7  C   UNL     1      32.169  40.923  29.368  1.00  0.00     0.093 A 
ATOM      8  C   UNL     1      32.477  40.665  28.027  1.00  0.00     0.123 A 
ATOM      9  C   UNL     1      31.727  39.733  27.309  1.00  0.00     0.094 A 
ATOM     10  C   UNL     1      30.668  39.055  27.918  1.00  0.00     0.146 A 
ATOM     11  O   UNL     1      29.968  38.178  27.209  1.00  0.00    -0.452 OA
ENDROOT
BRANCH   1  12
ATOM     12  C   UNL     1      28.235  36.550  26.805  1.00  0.00     0.025 A 
ATOM     13  C   UNL     1      28.073  34.391  25.667  1.00  0.00     0.161 A 
ATOM     14  C   UNL     1      26.831  34.770  25.139  1.00  0.00     0.157 A 
ATOM     15  C   UNL     1      28.769  35.283  26.507  1.00  0.00     0.062 A 
ATOM     16  C   UNL     1      26.287  36.021  25.454  1.00  0.00     0.051 A 
ATOM     17  C   UNL     1      26.980  36.902  26.286  1.00  0.00     0.016 A 
BRANCH  13  18
ATOM     18  O   UNL     1      28.580  33.123  25.338  1.00  0.00    -0.493 OA
ATOM     19  C   UNL     1      29.850  32.631  25.750  1.00  0.00     0.278 C 
ENDBRANCH  13  18
BRANCH  14  20
ATOM     20  O   UNL     1      26.139  33.893  24.305  1.00  0.00    -0.504 OA
ATOM     21  H   UNL     1      25.529  33.176  24.679  1.00  0.00     0.293 HD
ENDBRANCH  14  20
ENDBRANCH   1  12
BRANCH   2  22
ATOM     22  O   UNL     1      27.536  36.897  29.598  1.00  0.00    -0.502 OA
ATOM     23  H   UNL     1      26.725  36.616  29.060  1.00  0.00     0.293 HD
ENDBRANCH   2  22
BRANCH   6  24
ATOM     24  O   UNL     1      30.827  40.530  31.337  1.00  0.00    -0.507 OA
ATOM     25  H   UNL     1      30.709  39.792  32.021  1.00  0.00     0.293 HD
ENDBRANCH   6  24
BRANCH   8  26
ATOM     26  O   UNL     1      33.529  41.330  27.401  1.00  0.00    -0.508 OA
ATOM     27  H   UNL     1      34.476  40.969  27.425  1.00  0.00     0.293 HD
ENDBRANCH   8  26
TORSDOF 6
ENDMDL
MODEL 8
REMARK VINA RESULT:     4.828      3.626      6.044
REMARK INTER + INTRA:           5.571
REMARK INTER:                   5.955
REMARK INTRA:                  -0.384
REMARK UNBOUND:                -0.386
REMARK SMILES COc1cc(-c2oc3cc(O)cc(O)c3c(=O)c2O)ccc1O
REMARK SMILES IDX 6 1 18 2 16 3 17 4 15 5 13 6 12 7 10 8 9 9 8 10 7 11 5 12
REMARK SMILES IDX 3 13 22 14 4 15 21 16 20 17 2 18 1 19 23 20 19 22 14 24
REMARK SMILES IDX 11 26
REMARK H PARENT 23 21 19 23 14 25 11 27
REMARK Flexibility Score: inf
ROOT
ATOM      1  C   UNL     1      28.879  36.678  26.073  1.00  0.00     0.180 A 
ATOM      2  C   UNL     1      27.710  37.121  26.721  1.00  0.00     0.208 A 
ATOM      3  C   UNL     1      27.194  38.386  26.397  1.00  0.00     0.238 A 
ATOM      4  O   UNL     1      26.142  38.789  26.963  1.00  0.00    -0.285 OA
ATOM      5  C   UNL     1      27.863  39.191  25.453  1.00  0.00     0.111 A 
ATOM      6  C   UNL     1      27.412  40.478  25.074  1.00  0.00     0.134 A 
ATOM      7  C   UNL     1      28.140  41.221  24.133  1.00  0.00     0.093 A 
ATOM      8  C   UNL     1      29.308  40.702  23.564  1.00  0.00     0.123 A 
ATOM      9  C   UNL     1      29.756  39.434  23.934  1.00  0.00     0.094 A 
ATOM     10  C   UNL     1      29.045  38.676  24.870  1.00  0.00     0.146 A 
ATOM     11  O   UNL     1      29.492  37.470  25.199  1.00  0.00    -0.452 OA
ENDROOT
BRANCH   1  12
ATOM     12  C   UNL     1      29.474  35.349  26.347  1.00  0.00     0.025 A 
ATOM     13  C   UNL     1      30.905  33.878  27.678  1.00  0.00     0.161 A 
ATOM     14  C   UNL     1      30.534  32.796  26.866  1.00  0.00     0.157 A 
ATOM     15  C   UNL     1      30.364  35.153  27.418  1.00  0.00     0.062 A 
ATOM     16  C   UNL     1      29.630  32.985  25.814  1.00  0.00     0.051 A 
ATOM     17  C   UNL     1      29.097  34.250  25.561  1.00  0.00     0.016 A 
BRANCH  13  18
ATOM     18  O   UNL     1      31.805  33.646  28.730  1.00  0.00    -0.493 OA
ATOM     19  C   UNL     1      32.681  34.628  29.273  1.00  0.00     0.278 C 
ENDBRANCH  13  18
BRANCH  14  20
ATOM     20  O   UNL     1      31.068  31.533  27.115  1.00  0.00    -0.504 OA
ATOM     21  H   UNL     1      30.550  30.687  26.906  1.00  0.00     0.293 HD
ENDBRANCH  14  20
ENDBRANCH   1  12
BRANCH   2  22
ATOM     22  O   UNL     1      27.094  36.324  27.689  1.00  0.00    -0.502 OA
ATOM     23  H   UNL     1      26.667  35.433  27.467  1.00  0.00     0.293 HD
ENDBRANCH   2  22
BRANCH   6  24
ATOM     24  O   UNL     1      26.251  41.023  25.624  1.00  0.00    -0.507 OA
ATOM     25  H   UNL     1      26.246  41.935  26.065  1.00  0.00     0.293 HD
ENDBRANCH   6  24
BRANCH   8  26
ATOM     26  O   UNL     1      30.031  41.441  22.631  1.00  0.00    -0.508 OA
ATOM     27  H   UNL     1      30.858  41.965  22.893  1.00  0.00     0.293 HD
ENDBRANCH   8  26
TORSDOF 6
ENDMDL
