MODEL 1
REMARK VINA RESULT:    -4.900      0.000      0.000
REMARK INTER + INTRA:          -8.295
REMARK INTER:                  -7.622
REMARK INTRA:                  -0.673
REMARK UNBOUND:                -0.673
REMARK SMILES COc1cc(CNC(=O)CCCCC=CC(C)C)ccc1O
REMARK SMILES IDX 11 1 12 2 13 3 14 4 15 5 16 6 17 7 18 8 10 9 8 10 9 11 7 12
REMARK SMILES IDX 6 14 5 15 4 16 19 17 3 18 20 19 21 20 2 21 1 22 22 23
REMARK H PARENT 7 13 22 24
REMARK Flexibility Score: inf
ROOT
ATOM      1  C   UNL     1     139.487 148.138 119.833  1.00  0.00     0.010 C 
ENDROOT
BRANCH   1   2
ATOM      2  C   UNL     1     138.259 147.844 118.959  1.00  0.00     0.005 C 
BRANCH   2   3
ATOM      3  C   UNL     1     137.946 146.342 118.876  1.00  0.00     0.027 C 
BRANCH   3   4
ATOM      4  C   UNL     1     139.189 145.520 119.095  1.00  0.00    -0.031 C 
ATOM      5  C   UNL     1     139.318 144.553 120.025  1.00  0.00    -0.028 C 
BRANCH   5   6
ATOM      6  C   UNL     1     138.253 144.163 121.029  1.00  0.00     0.005 C 
ATOM      7  C   UNL     1     138.393 142.678 121.377  1.00  0.00     0.012 C 
ATOM      8  C   UNL     1     138.388 145.026 122.285  1.00  0.00     0.012 C 
ENDBRANCH   5   6
ENDBRANCH   3   4
ENDBRANCH   2   3
ENDBRANCH   1   2
BRANCH   1   9
ATOM      9  C   UNL     1     140.316 149.311 119.293  1.00  0.00     0.100 C 
BRANCH   9  10
ATOM     10  C   UNL     1     139.675 150.615 119.658  1.00  0.00     0.220 C 
ATOM     11  O   UNL     1     138.775 150.640 120.540  1.00  0.00    -0.275 OA
ATOM     12  N   UNL     1     140.054 151.818 118.974  1.00  0.00    -0.352 N 
ATOM     13  H   UNL     1     140.756 151.763 118.203  1.00  0.00     0.163 HD
BRANCH  12  14
ATOM     14  C   UNL     1     139.487 153.123 119.307  1.00  0.00     0.151 C 
BRANCH  14  15
ATOM     15  C   UNL     1     140.477 153.934 120.098  1.00  0.00    -0.025 A 
ATOM     16  C   UNL     1     140.275 155.308 120.305  1.00  0.00     0.056 A 
ATOM     17  C   UNL     1     141.596 153.309 120.668  1.00  0.00     0.009 A 
ATOM     18  C   UNL     1     141.188 156.059 121.071  1.00  0.00     0.160 A 
ATOM     19  C   UNL     1     142.507 154.049 121.423  1.00  0.00     0.050 A 
ATOM     20  C   UNL     1     142.307 155.421 121.626  1.00  0.00     0.157 A 
BRANCH  18  21
ATOM     21  O   UNL     1     141.020 157.434 121.300  1.00  0.00    -0.493 OA
ATOM     22  C   UNL     1     141.273 158.449 120.333  1.00  0.00     0.278 C 
ENDBRANCH  18  21
BRANCH  20  23
ATOM     23  O   UNL     1     143.216 156.159 122.381  1.00  0.00    -0.504 OA
ATOM     24  H   UNL     1     143.910 155.708 122.966  1.00  0.00     0.293 HD
ENDBRANCH  20  23
ENDBRANCH  14  15
ENDBRANCH  12  14
ENDBRANCH   9  10
ENDBRANCH   1   9
TORSDOF 10
ENDMDL
MODEL 2
REMARK VINA RESULT:    -4.860      2.734      8.169
REMARK INTER + INTRA:          -8.232
REMARK INTER:                  -6.633
REMARK INTRA:                  -1.599
REMARK UNBOUND:                -0.673
REMARK SMILES COc1cc(CNC(=O)CCCCC=CC(C)C)ccc1O
REMARK SMILES IDX 11 1 12 2 13 3 14 4 15 5 16 6 17 7 18 8 10 9 8 10 9 11 7 12
REMARK SMILES IDX 6 14 5 15 4 16 19 17 3 18 20 19 21 20 2 21 1 22 22 23
REMARK H PARENT 7 13 22 24
REMARK Flexibility Score: inf
ROOT
ATOM      1  C   UNL     1     139.156 155.598 122.259  1.00  0.00     0.010 C 
ENDROOT
BRANCH   1   2
ATOM      2  C   UNL     1     139.586 156.975 121.732  1.00  0.00     0.005 C 
BRANCH   2   3
ATOM      3  C   UNL     1     140.877 156.907 120.901  1.00  0.00     0.027 C 
BRANCH   3   4
ATOM      4  C   UNL     1     140.754 155.889 119.797  1.00  0.00    -0.031 C 
ATOM      5  C   UNL     1     141.582 154.840 119.624  1.00  0.00    -0.028 C 
BRANCH   5   6
ATOM      6  C   UNL     1     142.794 154.535 120.479  1.00  0.00     0.005 C 
ATOM      7  C   UNL     1     142.357 153.803 121.751  1.00  0.00     0.012 C 
ATOM      8  C   UNL     1     143.786 153.686 119.682  1.00  0.00     0.012 C 
ENDBRANCH   5   6
ENDBRANCH   3   4
ENDBRANCH   2   3
ENDBRANCH   1   2
BRANCH   1   9
ATOM      9  C   UNL     1     137.704 155.263 121.893  1.00  0.00     0.100 C 
BRANCH   9  10
ATOM     10  C   UNL     1     137.489 153.781 121.914  1.00  0.00     0.220 C 
ATOM     11  O   UNL     1     137.288 153.198 123.014  1.00  0.00    -0.275 OA
ATOM     12  N   UNL     1     137.557 153.027 120.695  1.00  0.00    -0.352 N 
ATOM     13  H   UNL     1     137.789 153.523 119.805  1.00  0.00     0.163 HD
BRANCH  12  14
ATOM     14  C   UNL     1     137.325 151.586 120.648  1.00  0.00     0.151 C 
BRANCH  14  15
ATOM     15  C   UNL     1     138.592 150.868 120.267  1.00  0.00    -0.025 A 
ATOM     16  C   UNL     1     138.565 149.512 119.904  1.00  0.00     0.056 A 
ATOM     17  C   UNL     1     139.809 151.564 120.239  1.00  0.00     0.009 A 
ATOM     18  C   UNL     1     139.748 148.849 119.522  1.00  0.00     0.160 A 
ATOM     19  C   UNL     1     140.984 150.912 119.865  1.00  0.00     0.050 A 
ATOM     20  C   UNL     1     140.958 149.557 119.507  1.00  0.00     0.157 A 
BRANCH  18  21
ATOM     21  O   UNL     1     139.761 147.495 119.152  1.00  0.00    -0.493 OA
ATOM     22  C   UNL     1     139.411 146.419 120.019  1.00  0.00     0.278 C 
ENDBRANCH  18  21
BRANCH  20  23
ATOM     23  O   UNL     1     142.131 148.907 119.131  1.00  0.00    -0.504 OA
ATOM     24  H   UNL     1     142.132 147.932 118.852  1.00  0.00     0.293 HD
ENDBRANCH  20  23
ENDBRANCH  14  15
ENDBRANCH  12  14
ENDBRANCH   9  10
ENDBRANCH   1   9
TORSDOF 10
ENDMDL
MODEL 3
REMARK VINA RESULT:    -4.800      2.427      8.732
REMARK INTER + INTRA:          -8.139
REMARK INTER:                  -6.903
REMARK INTRA:                  -1.237
REMARK UNBOUND:                -0.673
REMARK SMILES COc1cc(CNC(=O)CCCCC=CC(C)C)ccc1O
REMARK SMILES IDX 11 1 12 2 13 3 14 4 15 5 16 6 17 7 18 8 10 9 8 10 9 11 7 12
REMARK SMILES IDX 6 14 5 15 4 16 19 17 3 18 20 19 21 20 2 21 1 22 22 23
REMARK H PARENT 7 13 22 24
REMARK Flexibility Score: inf
ROOT
ATOM      1  C   UNL     1     139.062 155.543 121.639  1.00  0.00     0.010 C 
ENDROOT
BRANCH   1   2
ATOM      2  C   UNL     1     139.581 156.773 120.878  1.00  0.00     0.005 C 
BRANCH   2   3
ATOM      3  C   UNL     1     140.992 156.555 120.308  1.00  0.00     0.027 C 
BRANCH   3   4
ATOM      4  C   UNL     1     141.916 155.992 121.356  1.00  0.00    -0.031 C 
ATOM      5  C   UNL     1     142.624 154.854 121.225  1.00  0.00    -0.028 C 
BRANCH   5   6
ATOM      6  C   UNL     1     142.578 153.931 120.024  1.00  0.00     0.005 C 
ATOM      7  C   UNL     1     144.003 153.606 119.568  1.00  0.00     0.012 C 
ATOM      8  C   UNL     1     141.822 152.651 120.387  1.00  0.00     0.012 C 
ENDBRANCH   5   6
ENDBRANCH   3   4
ENDBRANCH   2   3
ENDBRANCH   1   2
BRANCH   1   9
ATOM      9  C   UNL     1     138.376 154.533 120.710  1.00  0.00     0.100 C 
BRANCH   9  10
ATOM     10  C   UNL     1     137.979 153.307 121.475  1.00  0.00     0.220 C 
ATOM     11  O   UNL     1     137.615 153.416 122.678  1.00  0.00    -0.275 OA
ATOM     12  N   UNL     1     138.054 152.016 120.854  1.00  0.00    -0.352 N 
ATOM     13  H   UNL     1     138.419 151.943 119.878  1.00  0.00     0.163 HD
BRANCH  12  14
ATOM     14  C   UNL     1     137.651 150.790 121.538  1.00  0.00     0.151 C 
BRANCH  14  15
ATOM     15  C   UNL     1     138.299 149.596 120.892  1.00  0.00    -0.025 A 
ATOM     16  C   UNL     1     137.809 148.301 121.124  1.00  0.00     0.056 A 
ATOM     17  C   UNL     1     139.382 149.776 120.019  1.00  0.00     0.009 A 
ATOM     18  C   UNL     1     138.400 147.187 120.495  1.00  0.00     0.160 A 
ATOM     19  C   UNL     1     139.975 148.676 119.396  1.00  0.00     0.050 A 
ATOM     20  C   UNL     1     139.488 147.383 119.632  1.00  0.00     0.157 A 
BRANCH  18  21
ATOM     21  O   UNL     1     137.938 145.878 120.703  1.00  0.00    -0.493 OA
ATOM     22  C   UNL     1     138.382 145.023 121.752  1.00  0.00     0.278 C 
ENDBRANCH  18  21
BRANCH  20  23
ATOM     23  O   UNL     1     140.078 146.285 119.009  1.00  0.00    -0.504 OA
ATOM     24  H   UNL     1     141.029 146.321 118.659  1.00  0.00     0.293 HD
ENDBRANCH  20  23
ENDBRANCH  14  15
ENDBRANCH  12  14
ENDBRANCH   9  10
ENDBRANCH   1   9
TORSDOF 10
ENDMDL
MODEL 4
REMARK VINA RESULT:    -4.699      1.578      2.183
REMARK INTER + INTRA:          -7.982
REMARK INTER:                  -7.163
REMARK INTRA:                  -0.819
REMARK UNBOUND:                -0.673
REMARK SMILES COc1cc(CNC(=O)CCCCC=CC(C)C)ccc1O
REMARK SMILES IDX 11 1 12 2 13 3 14 4 15 5 16 6 17 7 18 8 10 9 8 10 9 11 7 12
REMARK SMILES IDX 6 14 5 15 4 16 19 17 3 18 20 19 21 20 2 21 1 22 22 23
REMARK H PARENT 7 13 22 24
REMARK Flexibility Score: inf
ROOT
ATOM      1  C   UNL     1     140.011 148.602 119.546  1.00  0.00     0.010 C 
ENDROOT
BRANCH   1   2
ATOM      2  C   UNL     1     138.515 148.357 119.293  1.00  0.00     0.005 C 
BRANCH   2   3
ATOM      3  C   UNL     1     138.201 146.875 119.036  1.00  0.00     0.027 C 
BRANCH   3   4
ATOM      4  C   UNL     1     139.414 146.016 119.280  1.00  0.00    -0.031 C 
ATOM      5  C   UNL     1     139.448 144.949 120.100  1.00  0.00    -0.028 C 
BRANCH   5   6
ATOM      6  C   UNL     1     138.289 144.460 120.945  1.00  0.00     0.005 C 
ATOM      7  C   UNL     1     138.452 142.964 121.229  1.00  0.00     0.012 C 
ATOM      8  C   UNL     1     138.232 145.255 122.251  1.00  0.00     0.012 C 
ENDBRANCH   5   6
ENDBRANCH   3   4
ENDBRANCH   2   3
ENDBRANCH   1   2
BRANCH   1   9
ATOM      9  C   UNL     1     140.498 149.915 118.919  1.00  0.00     0.100 C 
BRANCH   9  10
ATOM     10  C   UNL     1     140.855 150.903 119.988  1.00  0.00     0.220 C 
ATOM     11  O   UNL     1     140.264 150.856 121.100  1.00  0.00    -0.275 OA
ATOM     12  N   UNL     1     141.833 151.920 119.728  1.00  0.00    -0.352 N 
ATOM     13  H   UNL     1     142.264 151.979 118.778  1.00  0.00     0.163 HD
BRANCH  12  14
ATOM     14  C   UNL     1     142.245 152.890 120.739  1.00  0.00     0.151 C 
BRANCH  14  15
ATOM     15  C   UNL     1     141.490 154.179 120.562  1.00  0.00    -0.025 A 
ATOM     16  C   UNL     1     140.566 154.607 121.529  1.00  0.00     0.056 A 
ATOM     17  C   UNL     1     141.734 154.983 119.439  1.00  0.00     0.009 A 
ATOM     18  C   UNL     1     139.881 155.828 121.374  1.00  0.00     0.160 A 
ATOM     19  C   UNL     1     141.055 156.192 119.279  1.00  0.00     0.050 A 
ATOM     20  C   UNL     1     140.130 156.617 120.241  1.00  0.00     0.157 A 
BRANCH  18  21
ATOM     21  O   UNL     1     138.950 156.289 122.319  1.00  0.00    -0.493 OA
ATOM     22  C   UNL     1     138.065 155.450 123.055  1.00  0.00     0.278 C 
ENDBRANCH  18  21
BRANCH  20  23
ATOM     23  O   UNL     1     139.454 157.824 120.082  1.00  0.00    -0.504 OA
ATOM     24  H   UNL     1     139.828 158.694 120.443  1.00  0.00     0.293 HD
ENDBRANCH  20  23
ENDBRANCH  14  15
ENDBRANCH  12  14
ENDBRANCH   9  10
ENDBRANCH   1   9
TORSDOF 10
ENDMDL
MODEL 5
REMARK VINA RESULT:    -4.602      2.328      9.926
REMARK INTER + INTRA:          -7.831
REMARK INTER:                  -7.053
REMARK INTRA:                  -0.778
REMARK UNBOUND:                -0.673
REMARK SMILES COc1cc(CNC(=O)CCCCC=CC(C)C)ccc1O
REMARK SMILES IDX 11 1 12 2 13 3 14 4 15 5 16 6 17 7 18 8 10 9 8 10 9 11 7 12
REMARK SMILES IDX 6 14 5 15 4 16 19 17 3 18 20 19 21 20 2 21 1 22 22 23
REMARK H PARENT 7 13 22 24
REMARK Flexibility Score: inf
ROOT
ATOM      1  C   UNL     1     141.537 153.413 120.906  1.00  0.00     0.010 C 
ENDROOT
BRANCH   1   2
ATOM      2  C   UNL     1     142.428 154.346 120.072  1.00  0.00     0.005 C 
BRANCH   2   3
ATOM      3  C   UNL     1     141.611 155.349 119.243  1.00  0.00     0.027 C 
BRANCH   3   4
ATOM      4  C   UNL     1     140.419 155.846 120.019  1.00  0.00    -0.031 C 
ATOM      5  C   UNL     1     140.302 157.083 120.538  1.00  0.00    -0.028 C 
BRANCH   5   6
ATOM      6  C   UNL     1     141.362 158.163 120.466  1.00  0.00     0.005 C 
ATOM      7  C   UNL     1     141.151 159.008 119.206  1.00  0.00     0.012 C 
ATOM      8  C   UNL     1     141.293 159.037 121.720  1.00  0.00     0.012 C 
ENDBRANCH   5   6
ENDBRANCH   3   4
ENDBRANCH   2   3
ENDBRANCH   1   2
BRANCH   1   9
ATOM      9  C   UNL     1     141.912 151.937 120.724  1.00  0.00     0.100 C 
BRANCH   9  10
ATOM     10  C   UNL     1     140.882 151.235 119.891  1.00  0.00     0.220 C 
ATOM     11  O   UNL     1     140.012 151.913 119.280  1.00  0.00    -0.275 OA
ATOM     12  N   UNL     1     140.863 149.802 119.829  1.00  0.00    -0.352 N 
ATOM     13  H   UNL     1     141.554 149.260 120.395  1.00  0.00     0.163 HD
BRANCH  12  14
ATOM     14  C   UNL     1     139.904 149.064 119.011  1.00  0.00     0.151 C 
BRANCH  14  15
ATOM     15  C   UNL     1     139.096 148.131 119.871  1.00  0.00    -0.025 A 
ATOM     16  C   UNL     1     139.284 146.742 119.793  1.00  0.00     0.056 A 
ATOM     17  C   UNL     1     138.169 148.650 120.787  1.00  0.00     0.009 A 
ATOM     18  C   UNL     1     138.546 145.872 120.619  1.00  0.00     0.160 A 
ATOM     19  C   UNL     1     137.432 147.793 121.605  1.00  0.00     0.050 A 
ATOM     20  C   UNL     1     137.617 146.406 121.524  1.00  0.00     0.157 A 
BRANCH  18  21
ATOM     21  O   UNL     1     138.705 144.478 120.570  1.00  0.00    -0.493 OA
ATOM     22  C   UNL     1     137.910 143.602 119.775  1.00  0.00     0.278 C 
ENDBRANCH  18  21
BRANCH  20  23
ATOM     23  O   UNL     1     136.882 145.550 122.342  1.00  0.00    -0.504 OA
ATOM     24  H   UNL     1     136.547 145.844 123.253  1.00  0.00     0.293 HD
ENDBRANCH  20  23
ENDBRANCH  14  15
ENDBRANCH  12  14
ENDBRANCH   9  10
ENDBRANCH   1   9
TORSDOF 10
ENDMDL
MODEL 6
REMARK VINA RESULT:    -4.579      2.369      9.327
REMARK INTER + INTRA:          -7.794
REMARK INTER:                  -6.909
REMARK INTRA:                  -0.885
REMARK UNBOUND:                -0.673
REMARK SMILES COc1cc(CNC(=O)CCCCC=CC(C)C)ccc1O
REMARK SMILES IDX 11 1 12 2 13 3 14 4 15 5 16 6 17 7 18 8 10 9 8 10 9 11 7 12
REMARK SMILES IDX 6 14 5 15 4 16 19 17 3 18 20 19 21 20 2 21 1 22 22 23
REMARK H PARENT 7 13 22 24
REMARK Flexibility Score: inf
ROOT
ATOM      1  C   UNL     1     141.490 155.046 120.607  1.00  0.00     0.010 C 
ENDROOT
BRANCH   1   2
ATOM      2  C   UNL     1     141.207 155.715 119.254  1.00  0.00     0.005 C 
BRANCH   2   3
ATOM      3  C   UNL     1     140.603 157.119 119.411  1.00  0.00     0.027 C 
BRANCH   3   4
ATOM      4  C   UNL     1     141.196 157.831 120.599  1.00  0.00    -0.031 C 
ATOM      5  C   UNL     1     140.509 158.192 121.700  1.00  0.00    -0.028 C 
BRANCH   5   6
ATOM      6  C   UNL     1     139.024 157.984 121.908  1.00  0.00     0.005 C 
ATOM      7  C   UNL     1     138.781 156.619 122.561  1.00  0.00     0.012 C 
ATOM      8  C   UNL     1     138.463 159.107 122.782  1.00  0.00     0.012 C 
ENDBRANCH   5   6
ENDBRANCH   3   4
ENDBRANCH   2   3
ENDBRANCH   1   2
BRANCH   1   9
ATOM      9  C   UNL     1     142.928 154.519 120.705  1.00  0.00     0.100 C 
BRANCH   9  10
ATOM     10  C   UNL     1     143.049 153.199 120.005  1.00  0.00     0.220 C 
ATOM     11  O   UNL     1     144.038 152.982 119.254  1.00  0.00    -0.275 OA
ATOM     12  N   UNL     1     142.021 152.208 120.157  1.00  0.00    -0.352 N 
ATOM     13  H   UNL     1     141.180 152.435 120.734  1.00  0.00     0.163 HD
BRANCH  12  14
ATOM     14  C   UNL     1     142.099 150.894 119.526  1.00  0.00     0.151 C 
BRANCH  14  15
ATOM     15  C   UNL     1     140.844 150.110 119.801  1.00  0.00    -0.025 A 
ATOM     16  C   UNL     1     140.685 148.811 119.293  1.00  0.00     0.056 A 
ATOM     17  C   UNL     1     139.835 150.664 120.602  1.00  0.00     0.009 A 
ATOM     18  C   UNL     1     139.522 148.068 119.575  1.00  0.00     0.160 A 
ATOM     19  C   UNL     1     138.679 149.935 120.882  1.00  0.00     0.050 A 
ATOM     20  C   UNL     1     138.518 148.640 120.371  1.00  0.00     0.157 A 
BRANCH  18  21
ATOM     21  O   UNL     1     139.327 146.767 119.085  1.00  0.00    -0.493 OA
ATOM     22  C   UNL     1     139.661 145.579 119.796  1.00  0.00     0.278 C 
ENDBRANCH  18  21
BRANCH  20  23
ATOM     23  O   UNL     1     137.364 147.912 120.652  1.00  0.00    -0.504 OA
ATOM     24  H   UNL     1     136.453 148.355 120.690  1.00  0.00     0.293 HD
ENDBRANCH  20  23
ENDBRANCH  14  15
ENDBRANCH  12  14
ENDBRANCH   9  10
ENDBRANCH   1   9
TORSDOF 10
ENDMDL
MODEL 7
REMARK VINA RESULT:    -4.500      2.466      8.444
REMARK INTER + INTRA:          -7.672
REMARK INTER:                  -6.538
REMARK INTRA:                  -1.134
REMARK UNBOUND:                -0.673
REMARK SMILES COc1cc(CNC(=O)CCCCC=CC(C)C)ccc1O
REMARK SMILES IDX 11 1 12 2 13 3 14 4 15 5 16 6 17 7 18 8 10 9 8 10 9 11 7 12
REMARK SMILES IDX 6 14 5 15 4 16 19 17 3 18 20 19 21 20 2 21 1 22 22 23
REMARK H PARENT 7 13 22 24
REMARK Flexibility Score: inf
ROOT
ATOM      1  C   UNL     1     142.484 154.236 120.553  1.00  0.00     0.010 C 
ENDROOT
BRANCH   1   2
ATOM      2  C   UNL     1     142.442 155.348 121.612  1.00  0.00     0.005 C 
BRANCH   2   3
ATOM      3  C   UNL     1     141.651 156.577 121.137  1.00  0.00     0.027 C 
BRANCH   3   4
ATOM      4  C   UNL     1     140.501 156.170 120.254  1.00  0.00    -0.031 C 
ATOM      5  C   UNL     1     139.311 155.722 120.700  1.00  0.00    -0.028 C 
BRANCH   5   6
ATOM      6  C   UNL     1     138.948 155.512 122.155  1.00  0.00     0.005 C 
ATOM      7  C   UNL     1     138.202 156.741 122.683  1.00  0.00     0.012 C 
ATOM      8  C   UNL     1     138.085 154.256 122.295  1.00  0.00     0.012 C 
ENDBRANCH   5   6
ENDBRANCH   3   4
ENDBRANCH   2   3
ENDBRANCH   1   2
BRANCH   1   9
ATOM      9  C   UNL     1     142.111 152.866 121.135  1.00  0.00     0.100 C 
BRANCH   9  10
ATOM     10  C   UNL     1     141.261 152.102 120.167  1.00  0.00     0.220 C 
ATOM     11  O   UNL     1     140.290 152.677 119.605  1.00  0.00    -0.275 OA
ATOM     12  N   UNL     1     141.525 150.713 119.918  1.00  0.00    -0.352 N 
ATOM     13  H   UNL     1     142.295 150.241 120.443  1.00  0.00     0.163 HD
BRANCH  12  14
ATOM     14  C   UNL     1     140.750 149.925 118.963  1.00  0.00     0.151 C 
BRANCH  14  15
ATOM     15  C   UNL     1     139.764 149.051 119.689  1.00  0.00    -0.025 A 
ATOM     16  C   UNL     1     138.836 149.608 120.584  1.00  0.00     0.056 A 
ATOM     17  C   UNL     1     139.744 147.670 119.446  1.00  0.00     0.009 A 
ATOM     18  C   UNL     1     137.895 148.790 121.241  1.00  0.00     0.160 A 
ATOM     19  C   UNL     1     138.817 146.854 120.098  1.00  0.00     0.050 A 
ATOM     20  C   UNL     1     137.894 147.410 120.994  1.00  0.00     0.157 A 
BRANCH  18  21
ATOM     21  O   UNL     1     136.953 149.310 122.142  1.00  0.00    -0.493 OA
ATOM     22  C   UNL     1     137.167 150.454 122.963  1.00  0.00     0.278 C 
ENDBRANCH  18  21
BRANCH  20  23
ATOM     23  O   UNL     1     136.967 146.596 121.642  1.00  0.00    -0.504 OA
ATOM     24  H   UNL     1     137.185 146.140 122.522  1.00  0.00     0.293 HD
ENDBRANCH  20  23
ENDBRANCH  14  15
ENDBRANCH  12  14
ENDBRANCH   9  10
ENDBRANCH   1   9
TORSDOF 10
ENDMDL
MODEL 8
REMARK VINA RESULT:    -4.469      2.131      8.548
REMARK INTER + INTRA:          -7.624
REMARK INTER:                  -6.102
REMARK INTRA:                  -1.521
REMARK UNBOUND:                -0.673
REMARK SMILES COc1cc(CNC(=O)CCCCC=CC(C)C)ccc1O
REMARK SMILES IDX 11 1 12 2 13 3 14 4 15 5 16 6 17 7 18 8 10 9 8 10 9 11 7 12
REMARK SMILES IDX 6 14 5 15 4 16 19 17 3 18 20 19 21 20 2 21 1 22 22 23
REMARK H PARENT 7 13 22 24
REMARK Flexibility Score: inf
ROOT
ATOM      1  C   UNL     1     141.577 155.891 121.100  1.00  0.00     0.010 C 
ENDROOT
BRANCH   1   2
ATOM      2  C   UNL     1     140.881 157.250 120.936  1.00  0.00     0.005 C 
BRANCH   2   3
ATOM      3  C   UNL     1     139.831 157.238 119.813  1.00  0.00     0.027 C 
BRANCH   3   4
ATOM      4  C   UNL     1     138.435 157.253 120.379  1.00  0.00    -0.031 C 
ATOM      5  C   UNL     1     137.730 156.156 120.714  1.00  0.00    -0.028 C 
BRANCH   5   6
ATOM      6  C   UNL     1     138.202 154.728 120.538  1.00  0.00     0.005 C 
ATOM      7  C   UNL     1     138.395 154.076 121.910  1.00  0.00     0.012 C 
ATOM      8  C   UNL     1     137.181 153.946 119.708  1.00  0.00     0.012 C 
ENDBRANCH   5   6
ENDBRANCH   3   4
ENDBRANCH   2   3
ENDBRANCH   1   2
BRANCH   1   9
ATOM      9  C   UNL     1     141.739 155.155 119.763  1.00  0.00     0.100 C 
BRANCH   9  10
ATOM     10  C   UNL     1     142.209 153.751 119.994  1.00  0.00     0.220 C 
ATOM     11  O   UNL     1     143.397 153.547 120.362  1.00  0.00    -0.275 OA
ATOM     12  N   UNL     1     141.323 152.648 119.753  1.00  0.00    -0.352 N 
ATOM     13  H   UNL     1     140.364 152.839 119.387  1.00  0.00     0.163 HD
BRANCH  12  14
ATOM     14  C   UNL     1     141.714 151.261 119.989  1.00  0.00     0.151 C 
BRANCH  14  15
ATOM     15  C   UNL     1     140.495 150.384 120.071  1.00  0.00    -0.025 A 
ATOM     16  C   UNL     1     140.500 149.096 119.511  1.00  0.00     0.056 A 
ATOM     17  C   UNL     1     139.352 150.837 120.745  1.00  0.00     0.009 A 
ATOM     18  C   UNL     1     139.366 148.266 119.614  1.00  0.00     0.160 A 
ATOM     19  C   UNL     1     138.224 150.021 120.847  1.00  0.00     0.050 A 
ATOM     20  C   UNL     1     138.227 148.738 120.283  1.00  0.00     0.157 A 
BRANCH  18  21
ATOM     21  O   UNL     1     139.332 146.974 119.066  1.00  0.00    -0.493 OA
ATOM     22  C   UNL     1     139.573 145.779 119.804  1.00  0.00     0.278 C 
ENDBRANCH  18  21
BRANCH  20  23
ATOM     23  O   UNL     1     137.103 147.922 120.386  1.00  0.00    -0.504 OA
ATOM     24  H   UNL     1     136.279 148.079 119.816  1.00  0.00     0.293 HD
ENDBRANCH  20  23
ENDBRANCH  14  15
ENDBRANCH  12  14
ENDBRANCH   9  10
ENDBRANCH   1   9
TORSDOF 10
ENDMDL
MODEL 9
REMARK VINA RESULT:    -4.436      2.346      9.016
REMARK INTER + INTRA:          -7.573
REMARK INTER:                  -6.284
REMARK INTRA:                  -1.289
REMARK UNBOUND:                -0.673
REMARK SMILES COc1cc(CNC(=O)CCCCC=CC(C)C)ccc1O
REMARK SMILES IDX 11 1 12 2 13 3 14 4 15 5 16 6 17 7 18 8 10 9 8 10 9 11 7 12
REMARK SMILES IDX 6 14 5 15 4 16 19 17 3 18 20 19 21 20 2 21 1 22 22 23
REMARK H PARENT 7 13 22 24
REMARK Flexibility Score: inf
ROOT
ATOM      1  C   UNL     1     142.134 154.658 121.464  1.00  0.00     0.010 C 
ENDROOT
BRANCH   1   2
ATOM      2  C   UNL     1     142.220 156.159 121.777  1.00  0.00     0.005 C 
BRANCH   2   3
ATOM      3  C   UNL     1     141.443 157.013 120.763  1.00  0.00     0.027 C 
BRANCH   3   4
ATOM      4  C   UNL     1     140.547 158.000 121.465  1.00  0.00    -0.031 C 
ATOM      5  C   UNL     1     139.254 157.781 121.771  1.00  0.00    -0.028 C 
BRANCH   5   6
ATOM      6  C   UNL     1     138.475 156.529 121.424  1.00  0.00     0.005 C 
ATOM      7  C   UNL     1     138.550 155.536 122.588  1.00  0.00     0.012 C 
ATOM      8  C   UNL     1     137.021 156.895 121.120  1.00  0.00     0.012 C 
ENDBRANCH   5   6
ENDBRANCH   3   4
ENDBRANCH   2   3
ENDBRANCH   1   2
BRANCH   1   9
ATOM      9  C   UNL     1     141.776 154.389 119.997  1.00  0.00     0.100 C 
BRANCH   9  10
ATOM     10  C   UNL     1     140.461 153.677 119.902  1.00  0.00     0.220 C 
ATOM     11  O   UNL     1     139.578 154.105 119.110  1.00  0.00    -0.275 OA
ATOM     12  N   UNL     1     140.195 152.543 120.741  1.00  0.00    -0.352 N 
ATOM     13  H   UNL     1     140.917 152.246 121.435  1.00  0.00     0.163 HD
BRANCH  12  14
ATOM     14  C   UNL     1     138.946 151.791 120.672  1.00  0.00     0.151 C 
BRANCH  14  15
ATOM     15  C   UNL     1     139.219 150.362 120.290  1.00  0.00    -0.025 A 
ATOM     16  C   UNL     1     138.267 149.359 120.535  1.00  0.00     0.056 A 
ATOM     17  C   UNL     1     140.422 150.027 119.650  1.00  0.00     0.009 A 
ATOM     18  C   UNL     1     138.514 148.027 120.151  1.00  0.00     0.160 A 
ATOM     19  C   UNL     1     140.674 148.707 119.272  1.00  0.00     0.050 A 
ATOM     20  C   UNL     1     139.725 147.707 119.521  1.00  0.00     0.157 A 
BRANCH  18  21
ATOM     21  O   UNL     1     137.586 146.998 120.379  1.00  0.00    -0.493 OA
ATOM     22  C   UNL     1     137.391 146.352 121.634  1.00  0.00     0.278 C 
ENDBRANCH  18  21
BRANCH  20  23
ATOM     23  O   UNL     1     139.976 146.390 119.141  1.00  0.00    -0.504 OA
ATOM     24  H   UNL     1     139.442 145.617 119.521  1.00  0.00     0.293 HD
ENDBRANCH  20  23
ENDBRANCH  14  15
ENDBRANCH  12  14
ENDBRANCH   9  10
ENDBRANCH   1   9
TORSDOF 10
ENDMDL
