MODEL 1
REMARK VINA RESULT:    -5.011      0.000      0.000
REMARK INTER + INTRA:          -5.655
REMARK INTER:                  -5.597
REMARK INTRA:                  -0.058
REMARK UNBOUND:                -0.058
REMARK SMILES COc1ccc(C(=O)[O-])cc1
REMARK SMILES IDX 6 1 5 2 10 3 4 4 11 5 3 6 7 7 8 8 9 9 2 10 1 11
REMARK H PARENT
REMARK Flexibility Score: inf
ROOT
ATOM      1  C   UNL     1      13.703  15.998  27.411  1.00  0.00    -0.003 A 
ATOM      2  C   UNL     1      13.716  15.338  26.170  1.00  0.00     0.014 A 
ATOM      3  C   UNL     1      12.979  17.197  27.537  1.00  0.00     0.014 A 
ATOM      4  C   UNL     1      13.020  15.868  25.079  1.00  0.00     0.047 A 
ATOM      5  C   UNL     1      12.284  17.725  26.445  1.00  0.00     0.047 A 
ATOM      6  C   UNL     1      12.300  17.061  25.204  1.00  0.00     0.118 A 
ENDROOT
BRANCH   1   7
ATOM      7  C   UNL     1      14.440  15.435  28.563  1.00  0.00     0.071 C 
ATOM      8  O   UNL     1      13.828  15.095  29.612  1.00  0.00    -0.545 OA
ATOM      9  O   UNL     1      15.820  15.272  28.506  1.00  0.00    -0.545 OA
ENDBRANCH   1   7
BRANCH   6  10
ATOM     10  O   UNL     1      11.618  17.550  24.080  1.00  0.00    -0.497 OA
ATOM     11  C   UNL     1      12.200  17.704  22.791  1.00  0.00     0.278 C 
ENDBRANCH   6  10
TORSDOF 2
ENDMDL
MODEL 2
REMARK VINA RESULT:    -4.964      0.111      1.758
REMARK INTER + INTRA:          -5.602
REMARK INTER:                  -5.545
REMARK INTRA:                  -0.057
REMARK UNBOUND:                -0.058
REMARK SMILES COc1ccc(C(=O)[O-])cc1
REMARK SMILES IDX 6 1 5 2 10 3 4 4 11 5 3 6 7 7 8 8 9 9 2 10 1 11
REMARK H PARENT
REMARK Flexibility Score: inf
ROOT
ATOM      1  C   UNL     1      13.734  16.021  27.362  1.00  0.00    -0.003 A 
ATOM      2  C   UNL     1      12.987  17.206  27.473  1.00  0.00     0.014 A 
ATOM      3  C   UNL     1      13.804  15.374  26.115  1.00  0.00     0.014 A 
ATOM      4  C   UNL     1      12.324  17.732  26.360  1.00  0.00     0.047 A 
ATOM      5  C   UNL     1      13.141  15.902  25.003  1.00  0.00     0.047 A 
ATOM      6  C   UNL     1      12.393  17.089  25.119  1.00  0.00     0.118 A 
ENDROOT
BRANCH   1   7
ATOM      7  C   UNL     1      14.435  15.466  28.541  1.00  0.00     0.071 C 
ATOM      8  O   UNL     1      15.685  15.300  28.525  1.00  0.00    -0.545 OA
ATOM      9  O   UNL     1      13.724  15.121  29.685  1.00  0.00    -0.545 OA
ENDBRANCH   1   7
BRANCH   6  10
ATOM     10  O   UNL     1      11.711  17.658  24.034  1.00  0.00    -0.497 OA
ATOM     11  C   UNL     1      12.203  17.682  22.699  1.00  0.00     0.278 C 
ENDBRANCH   6  10
TORSDOF 2
ENDMDL
MODEL 3
REMARK VINA RESULT:    -4.955      1.127      4.713
REMARK INTER + INTRA:          -5.592
REMARK INTER:                  -5.540
REMARK INTRA:                  -0.052
REMARK UNBOUND:                -0.058
REMARK SMILES COc1ccc(C(=O)[O-])cc1
REMARK SMILES IDX 6 1 5 2 10 3 4 4 11 5 3 6 7 7 8 8 9 9 2 10 1 11
REMARK H PARENT
REMARK Flexibility Score: inf
ROOT
ATOM      1  C   UNL     1      13.067  16.983  25.925  1.00  0.00    -0.003 A 
ATOM      2  C   UNL     1      13.609  15.691  25.816  1.00  0.00     0.014 A 
ATOM      3  C   UNL     1      13.318  17.730  27.090  1.00  0.00     0.014 A 
ATOM      4  C   UNL     1      14.384  15.158  26.851  1.00  0.00     0.047 A 
ATOM      5  C   UNL     1      14.092  17.195  28.123  1.00  0.00     0.047 A 
ATOM      6  C   UNL     1      14.633  15.901  28.010  1.00  0.00     0.118 A 
ENDROOT
BRANCH   1   7
ATOM      7  C   UNL     1      12.248  17.545  24.829  1.00  0.00     0.071 C 
ATOM      8  O   UNL     1      10.989  17.507  24.885  1.00  0.00    -0.545 OA
ATOM      9  O   UNL     1      12.855  18.123  23.720  1.00  0.00    -0.545 OA
ENDBRANCH   1   7
BRANCH   6  10
ATOM     10  O   UNL     1      15.417  15.321  29.018  1.00  0.00    -0.497 OA
ATOM     11  C   UNL     1      14.916  14.446  30.023  1.00  0.00     0.278 C 
ENDBRANCH   6  10
TORSDOF 2
ENDMDL
MODEL 4
REMARK VINA RESULT:    -4.914      1.089      4.931
REMARK INTER + INTRA:          -5.546
REMARK INTER:                  -5.495
REMARK INTRA:                  -0.051
REMARK UNBOUND:                -0.058
REMARK SMILES COc1ccc(C(=O)[O-])cc1
REMARK SMILES IDX 6 1 5 2 10 3 4 4 11 5 3 6 7 7 8 8 9 9 2 10 1 11
REMARK H PARENT
REMARK Flexibility Score: inf
ROOT
ATOM      1  C   UNL     1      13.087  16.922  25.908  1.00  0.00    -0.003 A 
ATOM      2  C   UNL     1      13.281  17.652  27.093  1.00  0.00     0.014 A 
ATOM      3  C   UNL     1      13.640  15.634  25.803  1.00  0.00     0.014 A 
ATOM      4  C   UNL     1      14.013  17.103  28.151  1.00  0.00     0.047 A 
ATOM      5  C   UNL     1      14.371  15.087  26.862  1.00  0.00     0.047 A 
ATOM      6  C   UNL     1      14.564  15.822  28.047  1.00  0.00     0.118 A 
ENDROOT
BRANCH   1   7
ATOM      7  C   UNL     1      12.312  17.505  24.790  1.00  0.00     0.071 C 
ATOM      8  O   UNL     1      11.052  17.455  24.790  1.00  0.00    -0.545 OA
ATOM      9  O   UNL     1      12.962  18.117  23.725  1.00  0.00    -0.545 OA
ENDBRANCH   1   7
BRANCH   6  10
ATOM     10  O   UNL     1      15.289  15.317  29.136  1.00  0.00    -0.497 OA
ATOM     11  C   UNL     1      14.765  14.408  30.098  1.00  0.00     0.278 C 
ENDBRANCH   6  10
TORSDOF 2
ENDMDL
MODEL 5
REMARK VINA RESULT:    -4.864      1.161      4.829
REMARK INTER + INTRA:          -5.491
REMARK INTER:                  -5.435
REMARK INTRA:                  -0.055
REMARK UNBOUND:                -0.058
REMARK SMILES COc1ccc(C(=O)[O-])cc1
REMARK SMILES IDX 6 1 5 2 10 3 4 4 11 5 3 6 7 7 8 8 9 9 2 10 1 11
REMARK H PARENT
REMARK Flexibility Score: inf
ROOT
ATOM      1  C   UNL     1      13.154  16.677  26.087  1.00  0.00    -0.003 A 
ATOM      2  C   UNL     1      13.971  15.534  26.044  1.00  0.00     0.014 A 
ATOM      3  C   UNL     1      13.003  17.360  27.307  1.00  0.00     0.014 A 
ATOM      4  C   UNL     1      14.622  15.085  27.197  1.00  0.00     0.047 A 
ATOM      5  C   UNL     1      13.654  16.909  28.459  1.00  0.00     0.047 A 
ATOM      6  C   UNL     1      14.471  15.764  28.411  1.00  0.00     0.118 A 
ENDROOT
BRANCH   1   7
ATOM      7  C   UNL     1      12.467  17.150  24.865  1.00  0.00     0.071 C 
ATOM      8  O   UNL     1      13.104  17.297  23.788  1.00  0.00    -0.545 OA
ATOM      9  O   UNL     1      11.107  17.439  24.889  1.00  0.00    -0.545 OA
ENDBRANCH   1   7
BRANCH   6  10
ATOM     10  O   UNL     1      15.145  15.273  29.539  1.00  0.00    -0.497 OA
ATOM     11  C   UNL     1      14.668  14.217  30.364  1.00  0.00     0.278 C 
ENDBRANCH   6  10
TORSDOF 2
ENDMDL
MODEL 6
REMARK VINA RESULT:    -4.736      2.446      3.065
REMARK INTER + INTRA:          -5.348
REMARK INTER:                  -5.286
REMARK INTRA:                  -0.062
REMARK UNBOUND:                -0.058
REMARK SMILES COc1ccc(C(=O)[O-])cc1
REMARK SMILES IDX 6 1 5 2 10 3 4 4 11 5 3 6 7 7 8 8 9 9 2 10 1 11
REMARK H PARENT
REMARK Flexibility Score: inf
ROOT
ATOM      1  C   UNL     1      14.649  14.767  29.648  1.00  0.00    -0.003 A 
ATOM      2  C   UNL     1      15.624  14.915  28.647  1.00  0.00     0.014 A 
ATOM      3  C   UNL     1      13.490  15.562  29.592  1.00  0.00     0.014 A 
ATOM      4  C   UNL     1      15.443  15.839  27.612  1.00  0.00     0.047 A 
ATOM      5  C   UNL     1      13.311  16.484  28.557  1.00  0.00     0.047 A 
ATOM      6  C   UNL     1      14.290  16.629  27.557  1.00  0.00     0.118 A 
ENDROOT
BRANCH   1   7
ATOM      7  C   UNL     1      14.843  13.789  30.740  1.00  0.00     0.071 C 
ATOM      8  O   UNL     1      14.595  14.105  31.935  1.00  0.00    -0.545 OA
ATOM      9  O   UNL     1      15.303  12.506  30.464  1.00  0.00    -0.545 OA
ENDBRANCH   1   7
BRANCH   6  10
ATOM     10  O   UNL     1      14.156  17.540  26.499  1.00  0.00    -0.497 OA
ATOM     11  C   UNL     1      14.520  17.265  25.151  1.00  0.00     0.278 C 
ENDBRANCH   6  10
TORSDOF 2
ENDMDL
MODEL 7
REMARK VINA RESULT:    -4.654      1.746      5.065
REMARK INTER + INTRA:          -5.255
REMARK INTER:                  -5.194
REMARK INTRA:                  -0.061
REMARK UNBOUND:                -0.058
REMARK SMILES COc1ccc(C(=O)[O-])cc1
REMARK SMILES IDX 6 1 5 2 10 3 4 4 11 5 3 6 7 7 8 8 9 9 2 10 1 11
REMARK H PARENT
REMARK Flexibility Score: inf
ROOT
ATOM      1  C   UNL     1      14.050  16.197  26.503  1.00  0.00    -0.003 A 
ATOM      2  C   UNL     1      12.876  16.015  27.254  1.00  0.00     0.014 A 
ATOM      3  C   UNL     1      15.287  15.863  27.082  1.00  0.00     0.014 A 
ATOM      4  C   UNL     1      12.940  15.509  28.556  1.00  0.00     0.047 A 
ATOM      5  C   UNL     1      15.348  15.358  28.384  1.00  0.00     0.047 A 
ATOM      6  C   UNL     1      14.170  15.177  29.133  1.00  0.00     0.118 A 
ENDROOT
BRANCH   1   7
ATOM      7  C   UNL     1      13.980  16.732  25.125  1.00  0.00     0.071 C 
ATOM      8  O   UNL     1      14.906  17.457  24.672  1.00  0.00    -0.545 OA
ATOM      9  O   UNL     1      12.892  16.440  24.311  1.00  0.00    -0.545 OA
ENDBRANCH   1   7
BRANCH   6  10
ATOM     10  O   UNL     1      14.180  14.673  30.441  1.00  0.00    -0.497 OA
ATOM     11  C   UNL     1      15.055  13.650  30.903  1.00  0.00     0.278 C 
ENDBRANCH   6  10
TORSDOF 2
ENDMDL
MODEL 8
REMARK VINA RESULT:    -4.454      1.599      4.877
REMARK INTER + INTRA:          -5.032
REMARK INTER:                  -4.969
REMARK INTRA:                  -0.063
REMARK UNBOUND:                -0.058
REMARK SMILES COc1ccc(C(=O)[O-])cc1
REMARK SMILES IDX 6 1 5 2 10 3 4 4 11 5 3 6 7 7 8 8 9 9 2 10 1 11
REMARK H PARENT
REMARK Flexibility Score: inf
ROOT
ATOM      1  C   UNL     1      13.086  17.480  24.439  1.00  0.00    -0.003 A 
ATOM      2  C   UNL     1      14.397  17.497  24.946  1.00  0.00     0.014 A 
ATOM      3  C   UNL     1      12.025  17.170  25.308  1.00  0.00     0.014 A 
ATOM      4  C   UNL     1      14.640  17.209  26.293  1.00  0.00     0.047 A 
ATOM      5  C   UNL     1      12.269  16.883  26.654  1.00  0.00     0.047 A 
ATOM      6  C   UNL     1      13.584  16.901  27.157  1.00  0.00     0.118 A 
ENDROOT
BRANCH   1   7
ATOM      7  C   UNL     1      12.832  17.785  23.014  1.00  0.00     0.071 C 
ATOM      8  O   UNL     1      11.662  17.742  22.548  1.00  0.00    -0.545 OA
ATOM      9  O   UNL     1      13.882  18.123  22.168  1.00  0.00    -0.545 OA
ENDBRANCH   1   7
BRANCH   6  10
ATOM     10  O   UNL     1      13.880  16.621  28.499  1.00  0.00    -0.497 OA
ATOM     11  C   UNL     1      13.355  15.515  29.224  1.00  0.00     0.278 C 
ENDBRANCH   6  10
TORSDOF 2
ENDMDL
MODEL 9
REMARK VINA RESULT:    -3.038     19.922     21.396
REMARK INTER + INTRA:          -3.451
REMARK INTER:                  -3.384
REMARK INTRA:                  -0.066
REMARK UNBOUND:                -0.058
REMARK SMILES COc1ccc(C(=O)[O-])cc1
REMARK SMILES IDX 6 1 5 2 10 3 4 4 11 5 3 6 7 7 8 8 9 9 2 10 1 11
REMARK H PARENT
REMARK Flexibility Score: inf
ROOT
ATOM      1  C   UNL     1       8.211  -2.004  34.007  1.00  0.00    -0.003 A 
ATOM      2  C   UNL     1       8.684  -2.086  35.327  1.00  0.00     0.014 A 
ATOM      3  C   UNL     1       6.823  -1.962  33.782  1.00  0.00     0.014 A 
ATOM      4  C   UNL     1       7.787  -2.124  36.400  1.00  0.00     0.047 A 
ATOM      5  C   UNL     1       5.929  -2.000  34.855  1.00  0.00     0.047 A 
ATOM      6  C   UNL     1       6.407  -2.082  36.177  1.00  0.00     0.118 A 
ENDROOT
BRANCH   1   7
ATOM      7  C   UNL     1       9.162  -1.964  32.874  1.00  0.00     0.071 C 
ATOM      8  O   UNL     1       8.747  -1.808  31.694  1.00  0.00    -0.545 OA
ATOM      9  O   UNL     1      10.528  -2.097  33.096  1.00  0.00    -0.545 OA
ENDBRANCH   1   7
BRANCH   6  10
ATOM     10  O   UNL     1       5.550  -2.122  37.286  1.00  0.00    -0.497 OA
ATOM     11  C   UNL     1       4.129  -2.125  37.205  1.00  0.00     0.278 C 
ENDBRANCH   6  10
TORSDOF 2
ENDMDL
