MODEL 1
REMARK VINA RESULT:    -4.273      0.000      0.000
REMARK INTER + INTRA:          -4.898
REMARK INTER:                  -4.648
REMARK INTRA:                  -0.250
REMARK UNBOUND:                -0.250
REMARK SMILES O=C([O-])c1ccccc1O
REMARK SMILES IDX 4 1 9 2 5 3 8 4 6 5 7 6 2 7 1 8 3 9 10 10
REMARK H PARENT 10 11
REMARK Flexibility Score: inf
ROOT
ATOM      1  C   UNL     1       6.645   6.984  13.259  1.00  0.00     0.039 A 
ATOM      2  C   UNL     1       6.923   5.704  12.712  1.00  0.00     0.124 A 
ATOM      3  C   UNL     1       5.319   7.456  13.244  1.00  0.00     0.014 A 
ATOM      4  C   UNL     1       5.872   4.914  12.229  1.00  0.00     0.047 A 
ATOM      5  C   UNL     1       4.286   6.664  12.739  1.00  0.00     0.001 A 
ATOM      6  C   UNL     1       4.561   5.390  12.241  1.00  0.00     0.004 A 
ENDROOT
BRANCH   1   7
ATOM      7  C   UNL     1       7.685   7.835  13.877  1.00  0.00     0.075 C 
ATOM      8  O   UNL     1       7.422   8.561  14.871  1.00  0.00    -0.545 OA
ATOM      9  O   UNL     1       8.957   7.896  13.318  1.00  0.00    -0.545 OA
ENDBRANCH   1   7
BRANCH   2  10
ATOM     10  O   UNL     1       8.220   5.197  12.600  1.00  0.00    -0.507 OA
ATOM     11  H   UNL     1       8.974   5.687  12.136  1.00  0.00     0.293 HD
ENDBRANCH   2  10
TORSDOF 2
ENDMDL
MODEL 2
REMARK VINA RESULT:    -3.985      1.183      2.070
REMARK INTER + INTRA:          -4.585
REMARK INTER:                  -4.417
REMARK INTRA:                  -0.168
REMARK UNBOUND:                -0.250
REMARK SMILES O=C([O-])c1ccccc1O
REMARK SMILES IDX 4 1 9 2 5 3 8 4 6 5 7 6 2 7 1 8 3 9 10 10
REMARK H PARENT 10 11
REMARK Flexibility Score: inf
ROOT
ATOM      1  C   UNL     1       6.695   7.109  13.299  1.00  0.00     0.039 A 
ATOM      2  C   UNL     1       5.669   7.634  12.469  1.00  0.00     0.124 A 
ATOM      3  C   UNL     1       6.720   5.727  13.557  1.00  0.00     0.014 A 
ATOM      4  C   UNL     1       4.746   6.763  11.876  1.00  0.00     0.047 A 
ATOM      5  C   UNL     1       5.780   4.875  12.974  1.00  0.00     0.001 A 
ATOM      6  C   UNL     1       4.800   5.391  12.127  1.00  0.00     0.004 A 
ENDROOT
BRANCH   1   7
ATOM      7  C   UNL     1       7.763   7.951  13.882  1.00  0.00     0.075 C 
ATOM      8  O   UNL     1       7.509   8.777  14.797  1.00  0.00    -0.545 OA
ATOM      9  O   UNL     1       9.055   7.886  13.373  1.00  0.00    -0.545 OA
ENDBRANCH   1   7
BRANCH   2  10
ATOM     10  O   UNL     1       5.511   9.001  12.238  1.00  0.00    -0.507 OA
ATOM     11  H   UNL     1       5.597   9.705  12.959  1.00  0.00     0.293 HD
ENDBRANCH   2  10
TORSDOF 2
ENDMDL
MODEL 3
REMARK VINA RESULT:    -3.819     21.405     22.795
REMARK INTER + INTRA:          -4.404
REMARK INTER:                  -4.206
REMARK INTRA:                  -0.198
REMARK UNBOUND:                -0.250
REMARK SMILES O=C([O-])c1ccccc1O
REMARK SMILES IDX 4 1 9 2 5 3 8 4 6 5 7 6 2 7 1 8 3 9 10 10
REMARK H PARENT 10 11
REMARK Flexibility Score: inf
ROOT
ATOM      1  C   UNL     1      -0.934  19.416  29.842  1.00  0.00     0.039 A 
ATOM      2  C   UNL     1      -1.015  19.633  31.243  1.00  0.00     0.124 A 
ATOM      3  C   UNL     1      -0.731  18.107  29.368  1.00  0.00     0.014 A 
ATOM      4  C   UNL     1      -0.955  18.540  32.117  1.00  0.00     0.047 A 
ATOM      5  C   UNL     1      -0.652  17.031  30.255  1.00  0.00     0.001 A 
ATOM      6  C   UNL     1      -0.774  17.246  31.627  1.00  0.00     0.004 A 
ENDROOT
BRANCH   1   7
ATOM      7  C   UNL     1      -1.087  20.504  28.852  1.00  0.00     0.075 C 
ATOM      8  O   UNL     1      -1.122  20.257  27.618  1.00  0.00    -0.545 OA
ATOM      9  O   UNL     1      -1.125  21.828  29.274  1.00  0.00    -0.545 OA
ENDBRANCH   1   7
BRANCH   2  10
ATOM     10  O   UNL     1      -1.120  20.907  31.804  1.00  0.00    -0.507 OA
ATOM     11  H   UNL     1      -1.913  21.518  31.660  1.00  0.00     0.293 HD
ENDBRANCH   2  10
TORSDOF 2
ENDMDL
MODEL 4
REMARK VINA RESULT:    -3.613      9.436     10.500
REMARK INTER + INTRA:          -4.180
REMARK INTER:                  -3.946
REMARK INTRA:                  -0.233
REMARK UNBOUND:                -0.250
REMARK SMILES O=C([O-])c1ccccc1O
REMARK SMILES IDX 4 1 9 2 5 3 8 4 6 5 7 6 2 7 1 8 3 9 10 10
REMARK H PARENT 10 11
REMARK Flexibility Score: inf
ROOT
ATOM      1  C   UNL     1       1.512  15.102  16.376  1.00  0.00     0.039 A 
ATOM      2  C   UNL     1       0.711  14.133  17.035  1.00  0.00     0.124 A 
ATOM      3  C   UNL     1       2.268  14.710  15.256  1.00  0.00     0.014 A 
ATOM      4  C   UNL     1       0.639  12.830  16.525  1.00  0.00     0.047 A 
ATOM      5  C   UNL     1       2.201  13.401  14.772  1.00  0.00     0.001 A 
ATOM      6  C   UNL     1       1.380  12.465  15.400  1.00  0.00     0.004 A 
ENDROOT
BRANCH   1   7
ATOM      7  C   UNL     1       1.563  16.519  16.795  1.00  0.00     0.075 C 
ATOM      8  O   UNL     1       1.888  16.836  17.969  1.00  0.00    -0.545 OA
ATOM      9  O   UNL     1       1.183  17.521  15.909  1.00  0.00    -0.545 OA
ENDBRANCH   1   7
BRANCH   2  10
ATOM     10  O   UNL     1       0.004  14.409  18.208  1.00  0.00    -0.507 OA
ATOM     11  H   UNL     1      -0.756  15.074  18.259  1.00  0.00     0.293 HD
ENDBRANCH   2  10
TORSDOF 2
ENDMDL
MODEL 5
REMARK VINA RESULT:    -3.567     11.051     12.173
REMARK INTER + INTRA:          -4.130
REMARK INTER:                  -3.877
REMARK INTRA:                  -0.253
REMARK UNBOUND:                -0.250
REMARK SMILES O=C([O-])c1ccccc1O
REMARK SMILES IDX 4 1 9 2 5 3 8 4 6 5 7 6 2 7 1 8 3 9 10 10
REMARK H PARENT 10 11
REMARK Flexibility Score: inf
ROOT
ATOM      1  C   UNL     1       0.377  15.770  17.046  1.00  0.00     0.039 A 
ATOM      2  C   UNL     1       1.377  16.772  17.157  1.00  0.00     0.124 A 
ATOM      3  C   UNL     1      -0.606  15.898  16.048  1.00  0.00     0.014 A 
ATOM      4  C   UNL     1       1.403  17.828  16.237  1.00  0.00     0.047 A 
ATOM      5  C   UNL     1      -0.577  16.969  15.152  1.00  0.00     0.001 A 
ATOM      6  C   UNL     1       0.432  17.927  15.240  1.00  0.00     0.004 A 
ENDROOT
BRANCH   1   7
ATOM      7  C   UNL     1       0.340  14.574  17.917  1.00  0.00     0.075 C 
ATOM      8  O   UNL     1      -0.744  14.163  18.406  1.00  0.00    -0.545 OA
ATOM      9  O   UNL     1       1.522  13.929  18.262  1.00  0.00    -0.545 OA
ENDBRANCH   1   7
BRANCH   2  10
ATOM     10  O   UNL     1       2.333  16.775  18.175  1.00  0.00    -0.507 OA
ATOM     11  H   UNL     1       2.742  15.934  18.561  1.00  0.00     0.293 HD
ENDBRANCH   2  10
TORSDOF 2
ENDMDL
MODEL 6
REMARK VINA RESULT:    -3.524     12.324     12.651
REMARK INTER + INTRA:          -4.083
REMARK INTER:                  -3.835
REMARK INTRA:                  -0.248
REMARK UNBOUND:                -0.250
REMARK SMILES O=C([O-])c1ccccc1O
REMARK SMILES IDX 4 1 9 2 5 3 8 4 6 5 7 6 2 7 1 8 3 9 10 10
REMARK H PARENT 10 11
REMARK Flexibility Score: inf
ROOT
ATOM      1  C   UNL     1       0.921  17.357  16.049  1.00  0.00     0.039 A 
ATOM      2  C   UNL     1      -0.268  16.583  16.109  1.00  0.00     0.124 A 
ATOM      3  C   UNL     1       1.248  18.010  14.847  1.00  0.00     0.014 A 
ATOM      4  C   UNL     1      -1.120  16.537  14.998  1.00  0.00     0.047 A 
ATOM      5  C   UNL     1       0.397  17.936  13.742  1.00  0.00     0.001 A 
ATOM      6  C   UNL     1      -0.790  17.209  13.820  1.00  0.00     0.004 A 
ENDROOT
BRANCH   1   7
ATOM      7  C   UNL     1       1.821  17.534  17.210  1.00  0.00     0.075 C 
ATOM      8  O   UNL     1       2.065  16.578  17.992  1.00  0.00    -0.545 OA
ATOM      9  O   UNL     1       2.354  18.787  17.492  1.00  0.00    -0.545 OA
ENDBRANCH   1   7
BRANCH   2  10
ATOM     10  O   UNL     1      -0.621  15.827  17.228  1.00  0.00    -0.507 OA
ATOM     11  H   UNL     1       0.008  15.639  17.997  1.00  0.00     0.293 HD
ENDBRANCH   2  10
TORSDOF 2
ENDMDL
MODEL 7
REMARK VINA RESULT:    -3.512      9.371     10.604
REMARK INTER + INTRA:          -4.070
REMARK INTER:                  -3.822
REMARK INTRA:                  -0.249
REMARK UNBOUND:                -0.250
REMARK SMILES O=C([O-])c1ccccc1O
REMARK SMILES IDX 4 1 9 2 5 3 8 4 6 5 7 6 2 7 1 8 3 9 10 10
REMARK H PARENT 10 11
REMARK Flexibility Score: inf
ROOT
ATOM      1  C   UNL     1       0.491  14.006  16.978  1.00  0.00     0.039 A 
ATOM      2  C   UNL     1       1.480  14.922  16.530  1.00  0.00     0.124 A 
ATOM      3  C   UNL     1       0.362  12.770  16.320  1.00  0.00     0.014 A 
ATOM      4  C   UNL     1       2.343  14.554  15.490  1.00  0.00     0.047 A 
ATOM      5  C   UNL     1       1.217  12.428  15.270  1.00  0.00     0.001 A 
ATOM      6  C   UNL     1       2.213  13.315  14.863  1.00  0.00     0.004 A 
ENDROOT
BRANCH   1   7
ATOM      7  C   UNL     1      -0.392  14.282  18.133  1.00  0.00     0.075 C 
ATOM      8  O   UNL     1      -0.977  15.390  18.250  1.00  0.00    -0.545 OA
ATOM      9  O   UNL     1      -0.531  13.337  19.143  1.00  0.00    -0.545 OA
ENDBRANCH   1   7
BRANCH   2  10
ATOM     10  O   UNL     1       1.616  16.206  17.062  1.00  0.00    -0.507 OA
ATOM     11  H   UNL     1       0.835  16.823  17.240  1.00  0.00     0.293 HD
ENDBRANCH   2  10
TORSDOF 2
ENDMDL
MODEL 8
REMARK VINA RESULT:    -3.469      2.557      3.285
REMARK INTER + INTRA:          -4.024
REMARK INTER:                  -3.797
REMARK INTRA:                  -0.227
REMARK UNBOUND:                -0.250
REMARK SMILES O=C([O-])c1ccccc1O
REMARK SMILES IDX 4 1 9 2 5 3 8 4 6 5 7 6 2 7 1 8 3 9 10 10
REMARK H PARENT 10 11
REMARK Flexibility Score: inf
ROOT
ATOM      1  C   UNL     1       5.633   7.095  12.578  1.00  0.00     0.039 A 
ATOM      2  C   UNL     1       5.473   5.688  12.470  1.00  0.00     0.124 A 
ATOM      3  C   UNL     1       6.933   7.634  12.560  1.00  0.00     0.014 A 
ATOM      4  C   UNL     1       6.599   4.876  12.285  1.00  0.00     0.047 A 
ATOM      5  C   UNL     1       8.046   6.807  12.397  1.00  0.00     0.001 A 
ATOM      6  C   UNL     1       7.879   5.431  12.249  1.00  0.00     0.004 A 
ENDROOT
BRANCH   1   7
ATOM      7  C   UNL     1       4.489   8.027  12.677  1.00  0.00     0.075 C 
ATOM      8  O   UNL     1       4.369   8.992  11.877  1.00  0.00    -0.545 OA
ATOM      9  O   UNL     1       3.563   7.885  13.704  1.00  0.00    -0.545 OA
ENDBRANCH   1   7
BRANCH   2  10
ATOM     10  O   UNL     1       4.230   5.060  12.573  1.00  0.00    -0.507 OA
ATOM     11  H   UNL     1       4.008   4.183  12.122  1.00  0.00     0.293 HD
ENDBRANCH   2  10
TORSDOF 2
ENDMDL
