MODEL 1
REMARK VINA RESULT:    -7.234      0.000      0.000
REMARK INTER + INTRA:          -8.731
REMARK INTER:                  -8.080
REMARK INTRA:                  -0.651
REMARK UNBOUND:                -0.651
REMARK SMILES C=C(C)[C@@H]1CC[C@]2(C(=O)[O-])CC[C@@]3(C)[C@@H](CC[C@@H]4[C@]5(C)CCC(=O)C(C)(C)[C@@H]5CC[C@@]43C)[C@H]12
REMARK SMILES IDX 7 1 6 2 33 3 11 4 5 5 15 6 4 7 12 8 16 9 13 10 17 11 31 12
REMARK SMILES IDX 14 13 18 14 30 15 32 16 19 17 29 18 21 19 20 20 28 21 22 22
REMARK SMILES IDX 25 23 23 24 26 25 27 26 24 27 8 28 9 29 10 30 2 31 3 32 1 33
REMARK H PARENT
REMARK Flexibility Score: inf
ROOT
ATOM      1  C   UNL     1      33.931  33.903  28.361  1.00  0.00     0.014 C 
ATOM      2  C   UNL     1      35.113  34.845  28.699  1.00  0.00     0.014 C 
ATOM      3  C   UNL     1      33.553  33.170  29.715  1.00  0.00     0.012 C 
ATOM      4  C   UNL     1      32.751  34.785  27.847  1.00  0.00     0.014 C 
ATOM      5  C   UNL     1      35.018  35.115  30.180  1.00  0.00     0.009 C 
ATOM      6  C   UNL     1      32.014  33.285  30.047  1.00  0.00     0.000 C 
ATOM      7  C   UNL     1      34.563  33.780  30.746  1.00  0.00     0.018 C 
ATOM      8  C   UNL     1      31.380  34.072  27.744  1.00  0.00     0.008 C 
ATOM      9  C   UNL     1      31.525  32.482  31.256  1.00  0.00     0.005 C 
ATOM     10  C   UNL     1      31.080  32.940  28.811  1.00  0.00    -0.024 C 
ATOM     11  C   UNL     1      30.177  33.042  31.732  1.00  0.00     0.005 C 
ATOM     12  C   UNL     1      29.484  32.839  29.239  1.00  0.00    -0.024 C 
ATOM     13  C   UNL     1      31.497  31.585  28.151  1.00  0.00     0.012 C 
ATOM     14  C   UNL     1      29.238  33.623  30.597  1.00  0.00     0.002 C 
ATOM     15  C   UNL     1      28.957  31.362  29.477  1.00  0.00     0.008 C 
ATOM     16  C   UNL     1      28.622  33.386  28.049  1.00  0.00     0.012 C 
ATOM     17  C   UNL     1      27.705  33.729  31.073  1.00  0.00    -0.025 C 
ATOM     18  C   UNL     1      27.810  31.175  30.507  1.00  0.00     0.006 C 
ATOM     19  C   UNL     1      27.615  34.060  32.603  1.00  0.00     0.015 C 
ATOM     20  C   UNL     1      27.031  34.946  30.347  1.00  0.00     0.012 C 
ATOM     21  C   UNL     1      26.891  32.405  30.750  1.00  0.00     0.008 C 
ATOM     22  C   UNL     1      26.183  34.255  33.125  1.00  0.00     0.077 C 
ATOM     23  C   UNL     1      25.685  32.067  31.739  1.00  0.00     0.027 C 
ATOM     24  C   UNL     1      25.207  33.320  32.463  1.00  0.00     0.138 C 
ATOM     25  C   UNL     1      24.510  31.468  30.921  1.00  0.00     0.020 C 
ATOM     26  C   UNL     1      26.049  31.037  32.838  1.00  0.00     0.020 C 
ATOM     27  O   UNL     1      24.012  33.546  32.594  1.00  0.00    -0.299 OA
ENDROOT
BRANCH   1  28
ATOM     28  C   UNL     1      34.414  32.937  27.290  1.00  0.00     0.048 C 
ATOM     29  O   UNL     1      34.736  31.760  27.598  1.00  0.00    -0.550 OA
ATOM     30  O   UNL     1      34.530  33.340  25.962  1.00  0.00    -0.550 OA
ENDBRANCH   1  28
BRANCH   7  31
ATOM     31  C   UNL     1      34.216  33.833  32.229  1.00  0.00    -0.077 C 
ATOM     32  C   UNL     1      33.605  35.118  32.755  1.00  0.00     0.039 C 
ATOM     33  C   UNL     1      34.428  32.801  33.068  1.00  0.00     0.008 C 
ENDBRANCH   7  31
TORSDOF 2
ENDMDL
MODEL 2
REMARK VINA RESULT:    -7.119      2.552      9.107
REMARK INTER + INTRA:          -8.602
REMARK INTER:                  -8.251
REMARK INTRA:                  -0.352
REMARK UNBOUND:                -0.651
REMARK SMILES C=C(C)[C@@H]1CC[C@]2(C(=O)[O-])CC[C@@]3(C)[C@@H](CC[C@@H]4[C@]5(C)CCC(=O)C(C)(C)[C@@H]5CC[C@@]43C)[C@H]12
REMARK SMILES IDX 7 1 6 2 33 3 11 4 5 5 15 6 4 7 12 8 16 9 13 10 17 11 31 12
REMARK SMILES IDX 14 13 18 14 30 15 32 16 19 17 29 18 21 19 20 20 28 21 22 22
REMARK SMILES IDX 25 23 23 24 26 25 27 26 24 27 8 28 9 29 10 30 2 31 3 32 1 33
REMARK H PARENT
REMARK Flexibility Score: inf
ROOT
ATOM      1  C   UNL     1      22.281  30.494  30.953  1.00  0.00     0.014 C 
ATOM      2  C   UNL     1      21.204  29.939  29.989  1.00  0.00     0.014 C 
ATOM      3  C   UNL     1      23.589  29.637  30.691  1.00  0.00     0.012 C 
ATOM      4  C   UNL     1      22.510  31.996  30.599  1.00  0.00     0.014 C 
ATOM      5  C   UNL     1      21.957  29.283  28.859  1.00  0.00     0.009 C 
ATOM      6  C   UNL     1      24.853  30.542  30.417  1.00  0.00     0.000 C 
ATOM      7  C   UNL     1      23.147  28.647  29.559  1.00  0.00     0.018 C 
ATOM      8  C   UNL     1      23.757  32.651  31.240  1.00  0.00     0.008 C 
ATOM      9  C   UNL     1      26.192  29.810  30.301  1.00  0.00     0.005 C 
ATOM     10  C   UNL     1      25.018  31.719  31.468  1.00  0.00    -0.024 C 
ATOM     11  C   UNL     1      27.208  30.711  29.586  1.00  0.00     0.005 C 
ATOM     12  C   UNL     1      26.464  32.509  31.304  1.00  0.00    -0.024 C 
ATOM     13  C   UNL     1      24.916  31.184  32.934  1.00  0.00     0.012 C 
ATOM     14  C   UNL     1      27.051  32.265  29.849  1.00  0.00     0.002 C 
ATOM     15  C   UNL     1      27.589  32.043  32.320  1.00  0.00     0.008 C 
ATOM     16  C   UNL     1      26.234  34.025  31.627  1.00  0.00     0.012 C 
ATOM     17  C   UNL     1      28.391  33.080  29.492  1.00  0.00    -0.025 C 
ATOM     18  C   UNL     1      29.063  32.145  31.843  1.00  0.00     0.006 C 
ATOM     19  C   UNL     1      29.142  32.421  28.283  1.00  0.00     0.015 C 
ATOM     20  C   UNL     1      27.995  34.517  28.999  1.00  0.00     0.012 C 
ATOM     21  C   UNL     1      29.363  33.199  30.741  1.00  0.00     0.008 C 
ATOM     22  C   UNL     1      30.395  33.184  27.825  1.00  0.00     0.077 C 
ATOM     23  C   UNL     1      30.920  33.295  30.407  1.00  0.00     0.027 C 
ATOM     24  C   UNL     1      31.143  33.788  28.983  1.00  0.00     0.138 C 
ATOM     25  C   UNL     1      31.593  34.279  31.401  1.00  0.00     0.020 C 
ATOM     26  C   UNL     1      31.667  31.942  30.527  1.00  0.00     0.020 C 
ATOM     27  O   UNL     1      32.000  34.626  28.741  1.00  0.00    -0.299 OA
ENDROOT
BRANCH   1  28
ATOM     28  C   UNL     1      21.750  30.330  32.369  1.00  0.00     0.048 C 
ATOM     29  O   UNL     1      22.021  29.294  33.031  1.00  0.00    -0.550 OA
ATOM     30  O   UNL     1      20.939  31.303  32.947  1.00  0.00    -0.550 OA
ENDBRANCH   1  28
BRANCH   7  31
ATOM     31  C   UNL     1      24.177  28.061  28.600  1.00  0.00    -0.077 C 
ATOM     32  C   UNL     1      24.068  28.449  27.139  1.00  0.00     0.039 C 
ATOM     33  C   UNL     1      25.158  27.230  29.000  1.00  0.00     0.008 C 
ENDBRANCH   7  31
TORSDOF 2
ENDMDL
MODEL 3
REMARK VINA RESULT:    -6.682      3.885     10.489
REMARK INTER + INTRA:          -8.114
REMARK INTER:                  -7.877
REMARK INTRA:                  -0.237
REMARK UNBOUND:                -0.651
REMARK SMILES C=C(C)[C@@H]1CC[C@]2(C(=O)[O-])CC[C@@]3(C)[C@@H](CC[C@@H]4[C@]5(C)CCC(=O)C(C)(C)[C@@H]5CC[C@@]43C)[C@H]12
REMARK SMILES IDX 7 1 6 2 33 3 11 4 5 5 15 6 4 7 12 8 16 9 13 10 17 11 31 12
REMARK SMILES IDX 14 13 18 14 30 15 32 16 19 17 29 18 21 19 20 20 28 21 22 22
REMARK SMILES IDX 25 23 23 24 26 25 27 26 24 27 8 28 9 29 10 30 2 31 3 32 1 33
REMARK H PARENT
REMARK Flexibility Score: inf
ROOT
ATOM      1  C   UNL     1      19.683  31.189  30.379  1.00  0.00     0.014 C 
ATOM      2  C   UNL     1      18.804  30.655  29.222  1.00  0.00     0.014 C 
ATOM      3  C   UNL     1      20.765  30.066  30.664  1.00  0.00     0.012 C 
ATOM      4  C   UNL     1      20.354  32.512  29.896  1.00  0.00     0.014 C 
ATOM      5  C   UNL     1      19.651  29.645  28.490  1.00  0.00     0.009 C 
ATOM      6  C   UNL     1      22.236  30.639  30.664  1.00  0.00     0.000 C 
ATOM      7  C   UNL     1      20.418  28.960  29.610  1.00  0.00     0.018 C 
ATOM      8  C   UNL     1      21.504  33.042  30.788  1.00  0.00     0.008 C 
ATOM      9  C   UNL     1      23.339  29.661  31.077  1.00  0.00     0.005 C 
ATOM     10  C   UNL     1      22.392  31.960  31.529  1.00  0.00    -0.024 C 
ATOM     11  C   UNL     1      24.696  30.182  30.587  1.00  0.00     0.005 C 
ATOM     12  C   UNL     1      23.975  32.411  31.706  1.00  0.00    -0.024 C 
ATOM     13  C   UNL     1      21.773  31.776  32.954  1.00  0.00     0.012 C 
ATOM     14  C   UNL     1      24.854  31.759  30.557  1.00  0.00     0.002 C 
ATOM     15  C   UNL     1      24.637  31.969  33.078  1.00  0.00     0.008 C 
ATOM     16  C   UNL     1      24.041  33.977  31.715  1.00  0.00     0.012 C 
ATOM     17  C   UNL     1      26.397  32.213  30.516  1.00  0.00    -0.025 C 
ATOM     18  C   UNL     1      26.165  31.688  33.070  1.00  0.00     0.006 C 
ATOM     19  C   UNL     1      27.263  31.184  29.709  1.00  0.00     0.015 C 
ATOM     20  C   UNL     1      26.508  33.560  29.719  1.00  0.00     0.012 C 
ATOM     21  C   UNL     1      26.996  32.410  31.972  1.00  0.00     0.008 C 
ATOM     22  C   UNL     1      28.739  31.583  29.555  1.00  0.00     0.077 C 
ATOM     23  C   UNL     1      28.561  32.138  32.127  1.00  0.00     0.027 C 
ATOM     24  C   UNL     1      29.271  32.267  30.785  1.00  0.00     0.138 C 
ATOM     25  C   UNL     1      29.159  33.166  33.124  1.00  0.00     0.020 C 
ATOM     26  C   UNL     1      28.898  30.726  32.670  1.00  0.00     0.020 C 
ATOM     27  O   UNL     1      30.338  32.859  30.700  1.00  0.00    -0.299 OA
ENDROOT
BRANCH   1  28
ATOM     28  C   UNL     1      18.766  31.432  31.569  1.00  0.00     0.048 C 
ATOM     29  O   UNL     1      18.439  30.476  32.321  1.00  0.00    -0.550 OA
ATOM     30  O   UNL     1      18.256  32.700  31.834  1.00  0.00    -0.550 OA
ENDBRANCH   1  28
BRANCH   7  31
ATOM     31  C   UNL     1      21.494  28.001  29.114  1.00  0.00    -0.077 C 
ATOM     32  C   UNL     1      21.412  26.561  29.579  1.00  0.00     0.039 C 
ATOM     33  C   UNL     1      22.492  28.384  28.294  1.00  0.00     0.008 C 
ENDBRANCH   7  31
TORSDOF 2
ENDMDL
MODEL 4
REMARK VINA RESULT:    -6.494      3.160      9.811
REMARK INTER + INTRA:          -7.904
REMARK INTER:                  -7.284
REMARK INTRA:                  -0.621
REMARK UNBOUND:                -0.651
REMARK SMILES C=C(C)[C@@H]1CC[C@]2(C(=O)[O-])CC[C@@]3(C)[C@@H](CC[C@@H]4[C@]5(C)CCC(=O)C(C)(C)[C@@H]5CC[C@@]43C)[C@H]12
REMARK SMILES IDX 7 1 6 2 33 3 11 4 5 5 15 6 4 7 12 8 16 9 13 10 17 11 31 12
REMARK SMILES IDX 14 13 18 14 30 15 32 16 19 17 29 18 21 19 20 20 28 21 22 22
REMARK SMILES IDX 25 23 23 24 26 25 27 26 24 27 8 28 9 29 10 30 2 31 3 32 1 33
REMARK H PARENT
REMARK Flexibility Score: inf
ROOT
ATOM      1  C   UNL     1      20.608  33.055  30.589  1.00  0.00     0.014 C 
ATOM      2  C   UNL     1      19.560  32.451  29.622  1.00  0.00     0.014 C 
ATOM      3  C   UNL     1      21.468  31.835  31.123  1.00  0.00     0.012 C 
ATOM      4  C   UNL     1      21.487  34.054  29.775  1.00  0.00     0.014 C 
ATOM      5  C   UNL     1      20.140  31.141  29.149  1.00  0.00     0.009 C 
ATOM      6  C   UNL     1      23.019  32.075  30.947  1.00  0.00     0.000 C 
ATOM      7  C   UNL     1      20.838  30.604  30.388  1.00  0.00     0.018 C 
ATOM      8  C   UNL     1      22.779  34.535  30.480  1.00  0.00     0.008 C 
ATOM      9  C   UNL     1      23.938  31.020  31.568  1.00  0.00     0.005 C 
ATOM     10  C   UNL     1      23.491  33.504  31.449  1.00  0.00    -0.024 C 
ATOM     11  C   UNL     1      25.331  31.116  30.934  1.00  0.00     0.005 C 
ATOM     12  C   UNL     1      25.141  33.648  31.472  1.00  0.00    -0.024 C 
ATOM     13  C   UNL     1      22.953  33.802  32.887  1.00  0.00     0.012 C 
ATOM     14  C   UNL     1      25.791  32.571  30.505  1.00  0.00     0.002 C 
ATOM     15  C   UNL     1      25.802  33.423  32.897  1.00  0.00     0.008 C 
ATOM     16  C   UNL     1      25.510  35.121  31.087  1.00  0.00     0.012 C 
ATOM     17  C   UNL     1      27.385  32.673  30.317  1.00  0.00    -0.025 C 
ATOM     18  C   UNL     1      27.241  32.840  32.926  1.00  0.00     0.006 C 
ATOM     19  C   UNL     1      27.974  31.324  29.777  1.00  0.00     0.015 C 
ATOM     20  C   UNL     1      27.698  33.736  29.206  1.00  0.00     0.012 C 
ATOM     21  C   UNL     1      28.115  33.088  31.665  1.00  0.00     0.008 C 
ATOM     22  C   UNL     1      29.484  31.360  29.495  1.00  0.00     0.077 C 
ATOM     23  C   UNL     1      29.604  32.545  31.849  1.00  0.00     0.027 C 
ATOM     24  C   UNL     1      30.226  32.196  30.502  1.00  0.00     0.138 C 
ATOM     25  C   UNL     1      30.461  33.637  32.542  1.00  0.00     0.020 C 
ATOM     26  C   UNL     1      29.698  31.267  32.721  1.00  0.00     0.020 C 
ATOM     27  O   UNL     1      31.379  32.517  30.247  1.00  0.00    -0.299 OA
ENDROOT
BRANCH   1  28
ATOM     28  C   UNL     1      19.845  33.761  31.699  1.00  0.00     0.048 C 
ATOM     29  O   UNL     1      19.434  33.112  32.697  1.00  0.00    -0.550 OA
ATOM     30  O   UNL     1      19.567  35.124  31.624  1.00  0.00    -0.550 OA
ENDBRANCH   1  28
BRANCH   7  31
ATOM     31  C   UNL     1      21.668  29.353  30.125  1.00  0.00    -0.077 C 
ATOM     32  C   UNL     1      22.169  29.134  28.711  1.00  0.00     0.039 C 
ATOM     33  C   UNL     1      21.965  28.457  31.086  1.00  0.00     0.008 C 
ENDBRANCH   7  31
TORSDOF 2
ENDMDL
MODEL 5
REMARK VINA RESULT:    -5.741      5.755      9.777
REMARK INTER + INTRA:          -7.064
REMARK INTER:                  -7.167
REMARK INTRA:                   0.103
REMARK UNBOUND:                -0.651
REMARK SMILES C=C(C)[C@@H]1CC[C@]2(C(=O)[O-])CC[C@@]3(C)[C@@H](CC[C@@H]4[C@]5(C)CCC(=O)C(C)(C)[C@@H]5CC[C@@]43C)[C@H]12
REMARK SMILES IDX 7 1 6 2 33 3 11 4 5 5 15 6 4 7 12 8 16 9 13 10 17 11 31 12
REMARK SMILES IDX 14 13 18 14 30 15 32 16 19 17 29 18 21 19 20 20 28 21 22 22
REMARK SMILES IDX 25 23 23 24 26 25 27 26 24 27 8 28 9 29 10 30 2 31 3 32 1 33
REMARK H PARENT
REMARK Flexibility Score: inf
ROOT
ATOM      1  C   UNL     1      25.489  31.134  30.984  1.00  0.00     0.014 C 
ATOM      2  C   UNL     1      26.483  32.136  30.346  1.00  0.00     0.014 C 
ATOM      3  C   UNL     1      24.360  32.011  31.669  1.00  0.00     0.012 C 
ATOM      4  C   UNL     1      24.902  30.251  29.839  1.00  0.00     0.014 C 
ATOM      5  C   UNL     1      25.704  33.408  30.124  1.00  0.00     0.009 C 
ATOM      6  C   UNL     1      22.910  31.572  31.227  1.00  0.00     0.000 C 
ATOM      7  C   UNL     1      24.803  33.479  31.346  1.00  0.00     0.018 C 
ATOM      8  C   UNL     1      23.670  29.395  30.222  1.00  0.00     0.008 C 
ATOM      9  C   UNL     1      21.749  32.260  31.950  1.00  0.00     0.005 C 
ATOM     10  C   UNL     1      22.683  30.003  31.302  1.00  0.00    -0.024 C 
ATOM     11  C   UNL     1      20.466  32.103  31.123  1.00  0.00     0.005 C 
ATOM     12  C   UNL     1      21.099  29.586  31.060  1.00  0.00    -0.024 C 
ATOM     13  C   UNL     1      23.133  29.433  32.687  1.00  0.00     0.012 C 
ATOM     14  C   UNL     1      20.342  30.756  30.298  1.00  0.00     0.002 C 
ATOM     15  C   UNL     1      20.277  29.318  32.390  1.00  0.00     0.008 C 
ATOM     16  C   UNL     1      21.063  28.225  30.284  1.00  0.00     0.012 C 
ATOM     17  C   UNL     1      18.823  30.442  29.872  1.00  0.00    -0.025 C 
ATOM     18  C   UNL     1      18.756  29.625  32.358  1.00  0.00     0.006 C 
ATOM     19  C   UNL     1      18.034  31.769  29.594  1.00  0.00     0.015 C 
ATOM     20  C   UNL     1      18.829  29.671  28.505  1.00  0.00     0.012 C 
ATOM     21  C   UNL     1      18.068  29.575  30.965  1.00  0.00     0.008 C 
ATOM     22  C   UNL     1      16.593  31.557  29.105  1.00  0.00     0.077 C 
ATOM     23  C   UNL     1      16.490  29.796  31.065  1.00  0.00     0.027 C 
ATOM     24  C   UNL     1      15.939  30.375  29.768  1.00  0.00     0.138 C 
ATOM     25  C   UNL     1      15.804  28.433  31.350  1.00  0.00     0.020 C 
ATOM     26  C   UNL     1      16.067  30.766  32.196  1.00  0.00     0.020 C 
ATOM     27  O   UNL     1      14.900  29.945  29.286  1.00  0.00    -0.299 OA
ENDROOT
BRANCH   1  28
ATOM     28  C   UNL     1      26.270  30.299  31.987  1.00  0.00     0.048 C 
ATOM     29  O   UNL     1      25.739  29.959  33.077  1.00  0.00    -0.550 OA
ATOM     30  O   UNL     1      27.584  29.917  31.732  1.00  0.00    -0.550 OA
ENDBRANCH   1  28
BRANCH   7  31
ATOM     31  C   UNL     1      23.771  34.599  31.278  1.00  0.00    -0.077 C 
ATOM     32  C   UNL     1      23.226  35.125  32.592  1.00  0.00     0.039 C 
ATOM     33  C   UNL     1      23.338  35.125  30.116  1.00  0.00     0.008 C 
ENDBRANCH   7  31
TORSDOF 2
ENDMDL
MODEL 6
REMARK VINA RESULT:    -5.700      3.344      9.697
REMARK INTER + INTRA:          -7.018
REMARK INTER:                  -6.535
REMARK INTRA:                  -0.482
REMARK UNBOUND:                -0.651
REMARK SMILES C=C(C)[C@@H]1CC[C@]2(C(=O)[O-])CC[C@@]3(C)[C@@H](CC[C@@H]4[C@]5(C)CCC(=O)C(C)(C)[C@@H]5CC[C@@]43C)[C@H]12
REMARK SMILES IDX 7 1 6 2 33 3 11 4 5 5 15 6 4 7 12 8 16 9 13 10 17 11 31 12
REMARK SMILES IDX 14 13 18 14 30 15 32 16 19 17 29 18 21 19 20 20 28 21 22 22
REMARK SMILES IDX 25 23 23 24 26 25 27 26 24 27 8 28 9 29 10 30 2 31 3 32 1 33
REMARK H PARENT
REMARK Flexibility Score: inf
ROOT
ATOM      1  C   UNL     1      20.885  30.361  31.276  1.00  0.00     0.014 C 
ATOM      2  C   UNL     1      19.626  30.892  32.004  1.00  0.00     0.014 C 
ATOM      3  C   UNL     1      21.491  31.596  30.488  1.00  0.00     0.012 C 
ATOM      4  C   UNL     1      21.878  29.840  32.361  1.00  0.00     0.014 C 
ATOM      5  C   UNL     1      19.829  32.379  32.152  1.00  0.00     0.009 C 
ATOM      6  C   UNL     1      23.026  31.805  30.793  1.00  0.00     0.000 C 
ATOM      7  C   UNL     1      20.514  32.766  30.852  1.00  0.00     0.018 C 
ATOM      8  C   UNL     1      23.316  29.548  31.865  1.00  0.00     0.008 C 
ATOM      9  C   UNL     1      23.736  32.880  29.966  1.00  0.00     0.005 C 
ATOM     10  C   UNL     1      23.870  30.465  30.698  1.00  0.00    -0.024 C 
ATOM     11  C   UNL     1      25.035  33.293  30.669  1.00  0.00     0.005 C 
ATOM     12  C   UNL     1      25.500  30.742  30.791  1.00  0.00    -0.024 C 
ATOM     13  C   UNL     1      23.577  29.709  29.361  1.00  0.00     0.012 C 
ATOM     14  C   UNL     1      25.771  32.147  31.478  1.00  0.00     0.002 C 
ATOM     15  C   UNL     1      26.242  30.783  29.389  1.00  0.00     0.008 C 
ATOM     16  C   UNL     1      26.158  29.545  31.559  1.00  0.00     0.012 C 
ATOM     17  C   UNL     1      27.315  32.499  31.761  1.00  0.00    -0.025 C 
ATOM     18  C   UNL     1      27.500  31.687  29.279  1.00  0.00     0.006 C 
ATOM     19  C   UNL     1      27.510  34.041  31.965  1.00  0.00     0.015 C 
ATOM     20  C   UNL     1      27.743  31.845  33.122  1.00  0.00     0.012 C 
ATOM     21  C   UNL     1      28.264  31.975  30.602  1.00  0.00     0.008 C 
ATOM     22  C   UNL     1      28.947  34.456  32.317  1.00  0.00     0.077 C 
ATOM     23  C   UNL     1      29.597  32.818  30.356  1.00  0.00     0.027 C 
ATOM     24  C   UNL     1      29.970  33.621  31.595  1.00  0.00     0.138 C 
ATOM     25  C   UNL     1      30.755  31.846  30.007  1.00  0.00     0.020 C 
ATOM     26  C   UNL     1      29.486  33.833  29.190  1.00  0.00     0.020 C 
ATOM     27  O   UNL     1      31.130  33.673  31.978  1.00  0.00    -0.299 OA
ENDROOT
BRANCH   1  28
ATOM     28  C   UNL     1      20.434  29.242  30.350  1.00  0.00     0.048 C 
ATOM     29  O   UNL     1      19.531  29.451  29.497  1.00  0.00    -0.550 OA
ATOM     30  O   UNL     1      20.989  27.968  30.441  1.00  0.00    -0.550 OA
ENDBRANCH   1  28
BRANCH   7  31
ATOM     31  C   UNL     1      20.996  34.212  30.823  1.00  0.00    -0.077 C 
ATOM     32  C   UNL     1      21.543  34.789  32.114  1.00  0.00     0.039 C 
ATOM     33  C   UNL     1      20.954  34.975  29.714  1.00  0.00     0.008 C 
ENDBRANCH   7  31
TORSDOF 2
ENDMDL
MODEL 7
REMARK VINA RESULT:    -5.551      5.738     11.905
REMARK INTER + INTRA:          -6.851
REMARK INTER:                  -6.917
REMARK INTRA:                   0.066
REMARK UNBOUND:                -0.651
REMARK SMILES C=C(C)[C@@H]1CC[C@]2(C(=O)[O-])CC[C@@]3(C)[C@@H](CC[C@@H]4[C@]5(C)CCC(=O)C(C)(C)[C@@H]5CC[C@@]43C)[C@H]12
REMARK SMILES IDX 7 1 6 2 33 3 11 4 5 5 15 6 4 7 12 8 16 9 13 10 17 11 31 12
REMARK SMILES IDX 14 13 18 14 30 15 32 16 19 17 29 18 21 19 20 20 28 21 22 22
REMARK SMILES IDX 25 23 23 24 26 25 27 26 24 27 8 28 9 29 10 30 2 31 3 32 1 33
REMARK H PARENT
REMARK Flexibility Score: inf
ROOT
ATOM      1  C   UNL     1      17.932  28.933  29.584  1.00  0.00     0.014 C 
ATOM      2  C   UNL     1      17.549  27.960  28.443  1.00  0.00     0.014 C 
ATOM      3  C   UNL     1      19.273  28.367  30.213  1.00  0.00     0.012 C 
ATOM      4  C   UNL     1      18.155  30.343  28.954  1.00  0.00     0.014 C 
ATOM      5  C   UNL     1      18.830  27.280  28.029  1.00  0.00     0.009 C 
ATOM      6  C   UNL     1      20.404  29.465  30.298  1.00  0.00     0.000 C 
ATOM      7  C   UNL     1      19.563  27.093  29.348  1.00  0.00     0.018 C 
ATOM      8  C   UNL     1      18.837  31.386  29.873  1.00  0.00     0.008 C 
ATOM      9  C   UNL     1      21.686  29.055  31.027  1.00  0.00     0.005 C 
ATOM     10  C   UNL     1      19.898  30.837  30.914  1.00  0.00    -0.024 C 
ATOM     11  C   UNL     1      22.827  30.001  30.630  1.00  0.00     0.005 C 
ATOM     12  C   UNL     1      21.142  31.889  31.208  1.00  0.00    -0.024 C 
ATOM     13  C   UNL     1      19.127  30.602  32.254  1.00  0.00     0.012 C 
ATOM     14  C   UNL     1      22.402  31.497  30.326  1.00  0.00     0.002 C 
ATOM     15  C   UNL     1      21.643  31.913  32.713  1.00  0.00     0.008 C 
ATOM     16  C   UNL     1      20.629  33.344  30.932  1.00  0.00     0.012 C 
ATOM     17  C   UNL     1      23.650  32.510  30.403  1.00  0.00    -0.025 C 
ATOM     18  C   UNL     1      23.138  32.254  32.958  1.00  0.00     0.006 C 
ATOM     19  C   UNL     1      24.969  31.811  29.923  1.00  0.00     0.015 C 
ATOM     20  C   UNL     1      23.413  33.684  29.389  1.00  0.00     0.012 C 
ATOM     21  C   UNL     1      23.843  33.102  31.862  1.00  0.00     0.008 C 
ATOM     22  C   UNL     1      26.198  32.733  29.891  1.00  0.00     0.077 C 
ATOM     23  C   UNL     1      25.338  33.486  32.268  1.00  0.00     0.027 C 
ATOM     24  C   UNL     1      26.196  33.716  31.030  1.00  0.00     0.138 C 
ATOM     25  C   UNL     1      25.316  34.780  33.125  1.00  0.00     0.020 C 
ATOM     26  C   UNL     1      26.056  32.396  33.105  1.00  0.00     0.020 C 
ATOM     27  O   UNL     1      26.969  34.663  30.975  1.00  0.00    -0.299 OA
ENDROOT
BRANCH   1  28
ATOM     28  C   UNL     1      16.780  28.942  30.577  1.00  0.00     0.048 C 
ATOM     29  O   UNL     1      16.707  28.057  31.470  1.00  0.00    -0.550 OA
ATOM     30  O   UNL     1      15.779  29.907  30.505  1.00  0.00    -0.550 OA
ENDBRANCH   1  28
BRANCH   7  31
ATOM     31  C   UNL     1      20.989  26.579  29.185  1.00  0.00    -0.077 C 
ATOM     32  C   UNL     1      21.304  25.209  29.752  1.00  0.00     0.039 C 
ATOM     33  C   UNL     1      21.955  27.286  28.567  1.00  0.00     0.008 C 
ENDBRANCH   7  31
TORSDOF 2
ENDMDL
MODEL 8
REMARK VINA RESULT:    -5.191      5.887      9.841
REMARK INTER + INTRA:          -6.449
REMARK INTER:                  -6.405
REMARK INTRA:                  -0.044
REMARK UNBOUND:                -0.651
REMARK SMILES C=C(C)[C@@H]1CC[C@]2(C(=O)[O-])CC[C@@]3(C)[C@@H](CC[C@@H]4[C@]5(C)CCC(=O)C(C)(C)[C@@H]5CC[C@@]43C)[C@H]12
REMARK SMILES IDX 7 1 6 2 33 3 11 4 5 5 15 6 4 7 12 8 16 9 13 10 17 11 31 12
REMARK SMILES IDX 14 13 18 14 30 15 32 16 19 17 29 18 21 19 20 20 28 21 22 22
REMARK SMILES IDX 25 23 23 24 26 25 27 26 24 27 8 28 9 29 10 30 2 31 3 32 1 33
REMARK H PARENT
REMARK Flexibility Score: inf
ROOT
ATOM      1  C   UNL     1      25.279  32.534  31.301  1.00  0.00     0.014 C 
ATOM      2  C   UNL     1      26.566  31.721  31.584  1.00  0.00     0.014 C 
ATOM      3  C   UNL     1      24.521  31.765  30.140  1.00  0.00     0.012 C 
ATOM      4  C   UNL     1      24.432  32.556  32.611  1.00  0.00     0.014 C 
ATOM      5  C   UNL     1      26.283  30.317  31.110  1.00  0.00     0.009 C 
ATOM      6  C   UNL     1      23.013  31.471  30.503  1.00  0.00     0.000 C 
ATOM      7  C   UNL     1      25.451  30.536  29.857  1.00  0.00     0.018 C 
ATOM      8  C   UNL     1      22.975  33.055  32.456  1.00  0.00     0.008 C 
ATOM      9  C   UNL     1      22.158  30.866  29.386  1.00  0.00     0.005 C 
ATOM     10  C   UNL     1      22.251  32.736  31.083  1.00  0.00    -0.024 C 
ATOM     11  C   UNL     1      20.909  30.212  29.993  1.00  0.00     0.005 C 
ATOM     12  C   UNL     1      20.624  32.473  31.238  1.00  0.00    -0.024 C 
ATOM     13  C   UNL     1      22.460  33.988  30.168  1.00  0.00     0.012 C 
ATOM     14  C   UNL     1      20.331  30.914  31.291  1.00  0.00     0.002 C 
ATOM     15  C   UNL     1      19.747  33.049  30.048  1.00  0.00     0.008 C 
ATOM     16  C   UNL     1      20.122  33.236  32.512  1.00  0.00     0.012 C 
ATOM     17  C   UNL     1      18.803  30.500  31.576  1.00  0.00    -0.025 C 
ATOM     18  C   UNL     1      18.429  32.300  29.711  1.00  0.00     0.006 C 
ATOM     19  C   UNL     1      18.530  29.022  31.127  1.00  0.00     0.015 C 
ATOM     20  C   UNL     1      18.553  30.514  33.125  1.00  0.00     0.012 C 
ATOM     21  C   UNL     1      17.781  31.485  30.866  1.00  0.00     0.008 C 
ATOM     22  C   UNL     1      17.110  28.520  31.434  1.00  0.00     0.077 C 
ATOM     23  C   UNL     1      16.379  30.852  30.442  1.00  0.00     0.027 C 
ATOM     24  C   UNL     1      16.078  29.601  31.258  1.00  0.00     0.138 C 
ATOM     25  C   UNL     1      15.257  31.898  30.675  1.00  0.00     0.020 C 
ATOM     26  C   UNL     1      16.310  30.432  28.952  1.00  0.00     0.020 C 
ATOM     27  O   UNL     1      14.959  29.409  31.715  1.00  0.00    -0.299 OA
ENDROOT
BRANCH   1  28
ATOM     28  C   UNL     1      25.709  33.934  30.891  1.00  0.00     0.048 C 
ATOM     29  O   UNL     1      26.045  34.170  29.700  1.00  0.00    -0.550 OA
ATOM     30  O   UNL     1      25.761  34.968  31.821  1.00  0.00    -0.550 OA
ENDBRANCH   1  28
BRANCH   7  31
ATOM     31  C   UNL     1      24.876  29.250  29.275  1.00  0.00    -0.077 C 
ATOM     32  C   UNL     1      25.308  28.867  27.873  1.00  0.00     0.039 C 
ATOM     33  C   UNL     1      24.017  28.462  29.950  1.00  0.00     0.008 C 
ENDBRANCH   7  31
TORSDOF 2
ENDMDL
MODEL 9
REMARK VINA RESULT:    -4.636      2.075      7.886
REMARK INTER + INTRA:          -5.830
REMARK INTER:                  -6.199
REMARK INTRA:                   0.369
REMARK UNBOUND:                -0.651
REMARK SMILES C=C(C)[C@@H]1CC[C@]2(C(=O)[O-])CC[C@@]3(C)[C@@H](CC[C@@H]4[C@]5(C)CCC(=O)C(C)(C)[C@@H]5CC[C@@]43C)[C@H]12
REMARK SMILES IDX 7 1 6 2 33 3 11 4 5 5 15 6 4 7 12 8 16 9 13 10 17 11 31 12
REMARK SMILES IDX 14 13 18 14 30 15 32 16 19 17 29 18 21 19 20 20 28 21 22 22
REMARK SMILES IDX 25 23 23 24 26 25 27 26 24 27 8 28 9 29 10 30 2 31 3 32 1 33
REMARK H PARENT
REMARK Flexibility Score: inf
ROOT
ATOM      1  C   UNL     1      25.000  30.444  30.902  1.00  0.00     0.014 C 
ATOM      2  C   UNL     1      23.777  30.723  31.809  1.00  0.00     0.014 C 
ATOM      3  C   UNL     1      25.416  31.843  30.283  1.00  0.00     0.012 C 
ATOM      4  C   UNL     1      26.136  29.863  31.800  1.00  0.00     0.014 C 
ATOM      5  C   UNL     1      23.863  32.181  32.185  1.00  0.00     0.009 C 
ATOM      6  C   UNL     1      26.949  32.157  30.491  1.00  0.00     0.000 C 
ATOM      7  C   UNL     1      24.381  32.836  30.914  1.00  0.00     0.018 C 
ATOM      8  C   UNL     1      27.538  29.801  31.146  1.00  0.00     0.008 C 
ATOM      9  C   UNL     1      27.479  33.416  29.798  1.00  0.00     0.005 C 
ATOM     10  C   UNL     1      27.894  30.942  30.106  1.00  0.00    -0.024 C 
ATOM     11  C   UNL     1      28.800  33.843  30.451  1.00  0.00     0.005 C 
ATOM     12  C   UNL     1      29.495  31.366  30.109  1.00  0.00    -0.024 C 
ATOM     13  C   UNL     1      27.539  30.380  28.690  1.00  0.00     0.012 C 
ATOM     14  C   UNL     1      29.708  32.665  30.996  1.00  0.00     0.002 C 
ATOM     15  C   UNL     1      30.091  31.702  28.678  1.00  0.00     0.008 C 
ATOM     16  C   UNL     1      30.326  30.136  30.612  1.00  0.00     0.012 C 
ATOM     17  C   UNL     1      31.236  33.123  31.206  1.00  0.00    -0.025 C 
ATOM     18  C   UNL     1      31.248  32.735  28.616  1.00  0.00     0.006 C 
ATOM     19  C   UNL     1      31.314  34.627  31.645  1.00  0.00     0.015 C 
ATOM     20  C   UNL     1      31.850  32.311  32.400  1.00  0.00     0.012 C 
ATOM     21  C   UNL     1      32.109  32.888  29.902  1.00  0.00     0.008 C 
ATOM     22  C   UNL     1      32.737  35.125  31.943  1.00  0.00     0.077 C 
ATOM     23  C   UNL     1      33.333  33.890  29.690  1.00  0.00     0.027 C 
ATOM     24  C   UNL     1      33.753  34.523  31.011  1.00  0.00     0.138 C 
ATOM     25  C   UNL     1      34.532  33.108  29.091  1.00  0.00     0.020 C 
ATOM     26  C   UNL     1      33.020  35.060  28.722  1.00  0.00     0.020 C 
ATOM     27  O   UNL     1      34.937  34.631  31.300  1.00  0.00    -0.299 OA
ENDROOT
BRANCH   1  28
ATOM     28  C   UNL     1      24.560  29.445  29.843  1.00  0.00     0.048 C 
ATOM     29  O   UNL     1      23.387  29.482  29.387  1.00  0.00    -0.550 OA
ATOM     30  O   UNL     1      25.431  28.463  29.378  1.00  0.00    -0.550 OA
ENDBRANCH   1  28
BRANCH   7  31
ATOM     31  C   UNL     1      24.730  34.309  31.087  1.00  0.00    -0.077 C 
ATOM     32  C   UNL     1      24.777  34.853  32.501  1.00  0.00     0.039 C 
ATOM     33  C   UNL     1      24.993  35.125  30.047  1.00  0.00     0.008 C 
ENDBRANCH   7  31
TORSDOF 2
ENDMDL
