MODEL 1
REMARK VINA RESULT:    -3.084      0.000      0.000
REMARK INTER + INTRA:          -3.939
REMARK INTER:                  -3.715
REMARK INTRA:                  -0.224
REMARK UNBOUND:                -0.224
REMARK SMILES OCC(O)CO
REMARK SMILES IDX 3 1 5 2 6 3 2 5 1 6 4 8
REMARK H PARENT 6 4 1 7 4 9
REMARK Flexibility Score: inf
ROOT
ATOM      1  C   UNL     1      11.805  23.389  30.914  1.00  0.00     0.165 C 
ENDROOT
BRANCH   1   2
ATOM      2  C   UNL     1      13.057  23.523  30.027  1.00  0.00     0.190 C 
BRANCH   2   3
ATOM      3  O   UNL     1      13.082  22.507  29.061  1.00  0.00    -0.394 OA
ATOM      4  H   UNL     1      12.252  22.600  28.524  1.00  0.00     0.210 HD
ENDBRANCH   2   3
ENDBRANCH   1   2
BRANCH   1   5
ATOM      5  C   UNL     1      12.067  22.498  32.137  1.00  0.00     0.190 C 
BRANCH   5   6
ATOM      6  O   UNL     1      12.940  21.457  31.797  1.00  0.00    -0.394 OA
ATOM      7  H   UNL     1      13.056  20.915  32.620  1.00  0.00     0.210 HD
ENDBRANCH   5   6
ENDBRANCH   1   5
BRANCH   1   8
ATOM      8  O   UNL     1      10.721  22.888  30.170  1.00  0.00    -0.388 OA
ATOM      9  H   UNL     1      11.049  22.698  29.253  1.00  0.00     0.211 HD
ENDBRANCH   1   8
TORSDOF 5
ENDMDL
MODEL 2
REMARK VINA RESULT:    -2.921      3.578      4.383
REMARK INTER + INTRA:          -3.743
REMARK INTER:                  -3.739
REMARK INTRA:                  -0.004
REMARK UNBOUND:                -0.224
REMARK SMILES OCC(O)CO
REMARK SMILES IDX 3 1 5 2 6 3 2 5 1 6 4 8
REMARK H PARENT 6 4 1 7 4 9
REMARK Flexibility Score: inf
ROOT
ATOM      1  C   UNL     1      15.246  23.054  28.645  1.00  0.00     0.165 C 
ENDROOT
BRANCH   1   2
ATOM      2  C   UNL     1      14.445  21.779  28.967  1.00  0.00     0.190 C 
BRANCH   2   3
ATOM      3  O   UNL     1      14.262  21.012  27.808  1.00  0.00    -0.394 OA
ATOM      4  H   UNL     1      15.078  20.458  27.697  1.00  0.00     0.210 HD
ENDBRANCH   2   3
ENDBRANCH   1   2
BRANCH   1   5
ATOM      5  C   UNL     1      14.388  24.318  28.800  1.00  0.00     0.190 C 
BRANCH   5   6
ATOM      6  O   UNL     1      14.663  25.217  27.761  1.00  0.00    -0.394 OA
ATOM      7  H   UNL     1      13.866  25.805  27.687  1.00  0.00     0.210 HD
ENDBRANCH   5   6
ENDBRANCH   1   5
BRANCH   1   8
ATOM      8  O   UNL     1      15.786  22.987  27.348  1.00  0.00    -0.388 OA
ATOM      9  H   UNL     1      15.273  23.619  26.778  1.00  0.00     0.211 HD
ENDBRANCH   1   8
TORSDOF 5
ENDMDL
MODEL 3
REMARK VINA RESULT:    -2.895      2.608      3.394
REMARK INTER + INTRA:          -3.711
REMARK INTER:                  -3.488
REMARK INTRA:                  -0.224
REMARK UNBOUND:                -0.224
REMARK SMILES OCC(O)CO
REMARK SMILES IDX 3 1 5 2 6 3 2 5 1 6 4 8
REMARK H PARENT 6 4 1 7 4 9
REMARK Flexibility Score: inf
ROOT
ATOM      1  C   UNL     1      14.290  22.878  29.239  1.00  0.00     0.165 C 
ENDROOT
BRANCH   1   2
ATOM      2  C   UNL     1      14.952  23.935  28.335  1.00  0.00     0.190 C 
BRANCH   2   3
ATOM      3  O   UNL     1      15.854  23.325  27.452  1.00  0.00    -0.394 OA
ATOM      4  H   UNL     1      15.545  22.391  27.325  1.00  0.00     0.210 HD
ENDBRANCH   2   3
ENDBRANCH   1   2
BRANCH   1   5
ATOM      5  C   UNL     1      14.835  21.469  28.960  1.00  0.00     0.190 C 
BRANCH   5   6
ATOM      6  O   UNL     1      14.206  20.924  27.833  1.00  0.00    -0.394 OA
ATOM      7  H   UNL     1      13.355  20.528  28.157  1.00  0.00     0.210 HD
ENDBRANCH   5   6
ENDBRANCH   1   5
BRANCH   1   8
ATOM      8  O   UNL     1      12.892  22.898  29.085  1.00  0.00    -0.388 OA
ATOM      9  H   UNL     1      12.490  22.716  29.975  1.00  0.00     0.211 HD
ENDBRANCH   1   8
TORSDOF 5
ENDMDL
MODEL 4
REMARK VINA RESULT:    -2.876      2.052      3.476
REMARK INTER + INTRA:          -3.689
REMARK INTER:                  -3.486
REMARK INTRA:                  -0.203
REMARK UNBOUND:                -0.224
REMARK SMILES OCC(O)CO
REMARK SMILES IDX 3 1 5 2 6 3 2 5 1 6 4 8
REMARK H PARENT 6 4 1 7 4 9
REMARK Flexibility Score: inf
ROOT
ATOM      1  C   UNL     1      14.589  22.096  29.616  1.00  0.00     0.165 C 
ENDROOT
BRANCH   1   2
ATOM      2  C   UNL     1      13.472  23.062  30.052  1.00  0.00     0.190 C 
BRANCH   2   3
ATOM      3  O   UNL     1      12.385  22.981  29.169  1.00  0.00    -0.394 OA
ATOM      4  H   UNL     1      12.564  22.216  28.563  1.00  0.00     0.210 HD
ENDBRANCH   2   3
ENDBRANCH   1   2
BRANCH   1   5
ATOM      5  C   UNL     1      14.702  22.009  28.087  1.00  0.00     0.190 C 
BRANCH   5   6
ATOM      6  O   UNL     1      14.036  20.869  27.619  1.00  0.00    -0.394 OA
ATOM      7  H   UNL     1      13.859  20.306  28.417  1.00  0.00     0.210 HD
ENDBRANCH   5   6
ENDBRANCH   1   5
BRANCH   1   8
ATOM      8  O   UNL     1      14.380  20.817  30.162  1.00  0.00    -0.388 OA
ATOM      9  H   UNL     1      14.750  20.820  31.083  1.00  0.00     0.211 HD
ENDBRANCH   1   8
TORSDOF 5
ENDMDL
MODEL 5
REMARK VINA RESULT:    -2.867      2.135      2.531
REMARK INTER + INTRA:          -3.678
REMARK INTER:                  -3.455
REMARK INTRA:                  -0.222
REMARK UNBOUND:                -0.224
REMARK SMILES OCC(O)CO
REMARK SMILES IDX 3 1 5 2 6 3 2 5 1 6 4 8
REMARK H PARENT 6 4 1 7 4 9
REMARK Flexibility Score: inf
ROOT
ATOM      1  C   UNL     1      14.072  22.569  29.407  1.00  0.00     0.165 C 
ENDROOT
BRANCH   1   2
ATOM      2  C   UNL     1      14.663  21.772  28.230  1.00  0.00     0.190 C 
BRANCH   2   3
ATOM      3  O   UNL     1      13.691  20.929  27.673  1.00  0.00    -0.394 OA
ATOM      4  H   UNL     1      13.204  21.463  26.993  1.00  0.00     0.210 HD
ENDBRANCH   2   3
ENDBRANCH   1   2
BRANCH   1   5
ATOM      5  C   UNL     1      14.281  21.845  30.746  1.00  0.00     0.190 C 
BRANCH   5   6
ATOM      6  O   UNL     1      14.342  20.461  30.541  1.00  0.00    -0.394 OA
ATOM      7  H   UNL     1      13.623  20.068  31.103  1.00  0.00     0.210 HD
ENDBRANCH   5   6
ENDBRANCH   1   5
BRANCH   1   8
ATOM      8  O   UNL     1      12.704  22.820  29.200  1.00  0.00    -0.388 OA
ATOM      9  H   UNL     1      12.283  22.943  30.091  1.00  0.00     0.211 HD
ENDBRANCH   1   8
TORSDOF 5
ENDMDL
MODEL 6
REMARK VINA RESULT:    -2.850      2.287      3.411
REMARK INTER + INTRA:          -3.657
REMARK INTER:                  -3.433
REMARK INTRA:                  -0.224
REMARK UNBOUND:                -0.224
REMARK SMILES OCC(O)CO
REMARK SMILES IDX 3 1 5 2 6 3 2 5 1 6 4 8
REMARK H PARENT 6 4 1 7 4 9
REMARK Flexibility Score: inf
ROOT
ATOM      1  C   UNL     1      14.655  21.944  28.701  1.00  0.00     0.165 C 
ENDROOT
BRANCH   1   2
ATOM      2  C   UNL     1      15.277  21.274  29.940  1.00  0.00     0.190 C 
BRANCH   2   3
ATOM      3  O   UNL     1      14.348  20.419  30.551  1.00  0.00    -0.394 OA
ATOM      4  H   UNL     1      14.770  20.087  31.386  1.00  0.00     0.210 HD
ENDBRANCH   2   3
ENDBRANCH   1   2
BRANCH   1   5
ATOM      5  C   UNL     1      13.804  23.165  29.083  1.00  0.00     0.190 C 
BRANCH   5   6
ATOM      6  O   UNL     1      12.726  22.770  29.885  1.00  0.00    -0.394 OA
ATOM      7  H   UNL     1      12.381  23.598  30.310  1.00  0.00     0.210 HD
ENDBRANCH   5   6
ENDBRANCH   1   5
BRANCH   1   8
ATOM      8  O   UNL     1      13.882  21.022  27.973  1.00  0.00    -0.388 OA
ATOM      9  H   UNL     1      14.481  20.277  27.704  1.00  0.00     0.211 HD
ENDBRANCH   1   8
TORSDOF 5
ENDMDL
MODEL 7
REMARK VINA RESULT:    -2.809     18.174     18.985
REMARK INTER + INTRA:          -3.608
REMARK INTER:                  -3.393
REMARK INTRA:                  -0.215
REMARK UNBOUND:                -0.224
REMARK SMILES OCC(O)CO
REMARK SMILES IDX 3 1 5 2 6 3 2 5 1 6 4 8
REMARK H PARENT 6 4 1 7 4 9
REMARK Flexibility Score: inf
ROOT
ATOM      1  C   UNL     1       0.979  28.824  17.082  1.00  0.00     0.165 C 
ENDROOT
BRANCH   1   2
ATOM      2  C   UNL     1       1.896  30.060  17.040  1.00  0.00     0.190 C 
BRANCH   2   3
ATOM      3  O   UNL     1       2.037  30.607  18.323  1.00  0.00    -0.394 OA
ATOM      4  H   UNL     1       2.756  31.290  18.267  1.00  0.00     0.210 HD
ENDBRANCH   2   3
ENDBRANCH   1   2
BRANCH   1   5
ATOM      5  C   UNL     1      -0.474  29.181  16.738  1.00  0.00     0.190 C 
BRANCH   5   6
ATOM      6  O   UNL     1      -0.746  30.504  17.110  1.00  0.00    -0.394 OA
ATOM      7  H   UNL     1      -1.730  30.561  17.227  1.00  0.00     0.210 HD
ENDBRANCH   5   6
ENDBRANCH   1   5
BRANCH   1   8
ATOM      8  O   UNL     1       1.041  28.202  18.342  1.00  0.00    -0.388 OA
ATOM      9  H   UNL     1       1.160  28.915  19.023  1.00  0.00     0.211 HD
ENDBRANCH   1   8
TORSDOF 5
ENDMDL
MODEL 8
REMARK VINA RESULT:    -2.763      0.945      2.695
REMARK INTER + INTRA:          -3.553
REMARK INTER:                  -3.330
REMARK INTRA:                  -0.223
REMARK UNBOUND:                -0.224
REMARK SMILES OCC(O)CO
REMARK SMILES IDX 3 1 5 2 6 3 2 5 1 6 4 8
REMARK H PARENT 6 4 1 7 4 9
REMARK Flexibility Score: inf
ROOT
ATOM      1  C   UNL     1      13.113  22.955  30.864  1.00  0.00     0.165 C 
ENDROOT
BRANCH   1   2
ATOM      2  C   UNL     1      13.146  21.939  32.020  1.00  0.00     0.190 C 
BRANCH   2   3
ATOM      3  O   UNL     1      11.983  22.044  32.796  1.00  0.00    -0.394 OA
ATOM      4  H   UNL     1      12.001  21.292  33.444  1.00  0.00     0.210 HD
ENDBRANCH   2   3
ENDBRANCH   1   2
BRANCH   1   5
ATOM      5  C   UNL     1      11.784  23.723  30.820  1.00  0.00     0.190 C 
BRANCH   5   6
ATOM      6  O   UNL     1      10.769  22.902  30.312  1.00  0.00    -0.394 OA
ATOM      7  H   UNL     1      10.827  22.973  29.323  1.00  0.00     0.210 HD
ENDBRANCH   5   6
ENDBRANCH   1   5
BRANCH   1   8
ATOM      8  O   UNL     1      13.345  22.314  29.633  1.00  0.00    -0.388 OA
ATOM      9  H   UNL     1      13.909  21.517  29.812  1.00  0.00     0.211 HD
ENDBRANCH   1   8
TORSDOF 5
ENDMDL
MODEL 9
REMARK VINA RESULT:    -2.705      2.101      3.690
REMARK INTER + INTRA:          -3.482
REMARK INTER:                  -3.287
REMARK INTRA:                  -0.195
REMARK UNBOUND:                -0.224
REMARK SMILES OCC(O)CO
REMARK SMILES IDX 3 1 5 2 6 3 2 5 1 6 4 8
REMARK H PARENT 6 4 1 7 4 9
REMARK Flexibility Score: inf
ROOT
ATOM      1  C   UNL     1      14.427  22.730  29.210  1.00  0.00     0.165 C 
ENDROOT
BRANCH   1   2
ATOM      2  C   UNL     1      13.185  23.433  29.788  1.00  0.00     0.190 C 
BRANCH   2   3
ATOM      3  O   UNL     1      12.045  23.100  29.042  1.00  0.00    -0.394 OA
ATOM      4  H   UNL     1      12.101  22.127  28.851  1.00  0.00     0.210 HD
ENDBRANCH   2   3
ENDBRANCH   1   2
BRANCH   1   5
ATOM      5  C   UNL     1      15.147  23.607  28.175  1.00  0.00     0.190 C 
BRANCH   5   6
ATOM      6  O   UNL     1      14.435  24.796  27.973  1.00  0.00    -0.394 OA
ATOM      7  H   UNL     1      15.032  25.529  28.278  1.00  0.00     0.210 HD
ENDBRANCH   5   6
ENDBRANCH   1   5
BRANCH   1   8
ATOM      8  O   UNL     1      14.078  21.492  28.641  1.00  0.00    -0.388 OA
ATOM      9  H   UNL     1      13.302  21.137  29.148  1.00  0.00     0.211 HD
ENDBRANCH   1   8
TORSDOF 5
ENDMDL
