MODEL 1
REMARK VINA RESULT:    -4.962      0.000      0.000
REMARK INTER + INTRA:          -6.458
REMARK INTER:                  -6.123
REMARK INTRA:                  -0.336
REMARK UNBOUND:                -0.336
REMARK SMILES COC(=O)c1ccccc1C(=O)OC
REMARK SMILES IDX 5 1 6 2 7 3 8 4 9 5 10 6 3 7 4 8 2 9 1 10 11 11 12 12 13 13
REMARK SMILES IDX 14 14
REMARK H PARENT
REMARK Flexibility Score: inf
ROOT
ATOM      1  C   UNL     1       3.277  28.490  56.586  1.00  0.00     0.074 A 
ATOM      2  C   UNL     1       2.262  28.398  57.557  1.00  0.00     0.016 A 
ATOM      3  C   UNL     1       0.917  28.380  57.184  1.00  0.00     0.001 A 
ATOM      4  C   UNL     1       0.565  28.453  55.838  1.00  0.00     0.001 A 
ATOM      5  C   UNL     1       1.554  28.567  54.861  1.00  0.00     0.016 A 
ATOM      6  C   UNL     1       2.916  28.608  55.217  1.00  0.00     0.074 A 
ENDROOT
BRANCH   1   7
ATOM      7  C   UNL     1       4.685  28.388  57.033  1.00  0.00     0.338 C 
ATOM      8  O   UNL     1       5.374  29.435  57.179  1.00  0.00    -0.246 OA
BRANCH   7   9
ATOM      9  O   UNL     1       5.233  27.138  57.338  1.00  0.00    -0.465 OA
ATOM     10  C   UNL     1       5.592  26.758  58.661  1.00  0.00     0.282 C 
ENDBRANCH   7   9
ENDBRANCH   1   7
BRANCH   6  11
ATOM     11  C   UNL     1       3.913  28.847  54.148  1.00  0.00     0.338 C 
ATOM     12  O   UNL     1       4.208  27.918  53.347  1.00  0.00    -0.246 OA
BRANCH  11  13
ATOM     13  O   UNL     1       4.487  30.114  53.997  1.00  0.00    -0.465 OA
ATOM     14  C   UNL     1       5.882  30.305  53.799  1.00  0.00     0.282 C 
ENDBRANCH  11  13
ENDBRANCH   6  11
TORSDOF 4
ENDMDL
MODEL 2
REMARK VINA RESULT:    -4.456      1.997      3.678
REMARK INTER + INTRA:          -5.834
REMARK INTER:                  -5.705
REMARK INTRA:                  -0.129
REMARK UNBOUND:                -0.336
REMARK SMILES COC(=O)c1ccccc1C(=O)OC
REMARK SMILES IDX 5 1 6 2 7 3 8 4 9 5 10 6 3 7 4 8 2 9 1 10 11 11 12 12 13 13
REMARK SMILES IDX 14 14
REMARK H PARENT
REMARK Flexibility Score: inf
ROOT
ATOM      1  C   UNL     1       2.725  28.278  56.227  1.00  0.00     0.074 A 
ATOM      2  C   UNL     1       2.922  27.793  57.533  1.00  0.00     0.016 A 
ATOM      3  C   UNL     1       4.208  27.658  58.058  1.00  0.00     0.001 A 
ATOM      4  C   UNL     1       5.316  28.003  57.288  1.00  0.00     0.001 A 
ATOM      5  C   UNL     1       5.145  28.465  55.982  1.00  0.00     0.016 A 
ATOM      6  C   UNL     1       3.858  28.590  55.426  1.00  0.00     0.074 A 
ENDROOT
BRANCH   1   7
ATOM      7  C   UNL     1       1.337  28.511  55.767  1.00  0.00     0.338 C 
ATOM      8  O   UNL     1       0.794  27.695  54.972  1.00  0.00    -0.246 OA
BRANCH   7   9
ATOM      9  O   UNL     1       0.613  29.605  56.252  1.00  0.00    -0.465 OA
ATOM     10  C   UNL     1      -0.464  29.469  57.170  1.00  0.00     0.282 C 
ENDBRANCH   7   9
ENDBRANCH   1   7
BRANCH   6  11
ATOM     11  C   UNL     1       3.744  28.974  54.001  1.00  0.00     0.338 C 
ATOM     12  O   UNL     1       3.225  30.080  53.688  1.00  0.00    -0.246 OA
BRANCH  11  13
ATOM     13  O   UNL     1       4.257  28.132  53.006  1.00  0.00    -0.465 OA
ATOM     14  C   UNL     1       4.646  28.608  51.724  1.00  0.00     0.282 C 
ENDBRANCH  11  13
ENDBRANCH   6  11
TORSDOF 4
ENDMDL
MODEL 3
REMARK VINA RESULT:    -4.455      2.004      4.293
REMARK INTER + INTRA:          -5.832
REMARK INTER:                  -5.715
REMARK INTRA:                  -0.117
REMARK UNBOUND:                -0.336
REMARK SMILES COC(=O)c1ccccc1C(=O)OC
REMARK SMILES IDX 5 1 6 2 7 3 8 4 9 5 10 6 3 7 4 8 2 9 1 10 11 11 12 12 13 13
REMARK SMILES IDX 14 14
REMARK H PARENT
REMARK Flexibility Score: inf
ROOT
ATOM      1  C   UNL     1       3.783  28.562  55.442  1.00  0.00     0.074 A 
ATOM      2  C   UNL     1       5.061  28.409  56.009  1.00  0.00     0.016 A 
ATOM      3  C   UNL     1       5.211  27.930  57.312  1.00  0.00     0.001 A 
ATOM      4  C   UNL     1       4.090  27.596  58.066  1.00  0.00     0.001 A 
ATOM      5  C   UNL     1       2.811  27.761  57.532  1.00  0.00     0.016 A 
ATOM      6  C   UNL     1       2.637  28.262  56.228  1.00  0.00     0.074 A 
ENDROOT
BRANCH   1   7
ATOM      7  C   UNL     1       3.690  28.962  54.019  1.00  0.00     0.338 C 
ATOM      8  O   UNL     1       3.160  30.065  53.711  1.00  0.00    -0.246 OA
BRANCH   7   9
ATOM      9  O   UNL     1       4.234  28.143  53.025  1.00  0.00    -0.465 OA
ATOM     10  C   UNL     1       4.623  28.637  51.749  1.00  0.00     0.282 C 
ENDBRANCH   7   9
ENDBRANCH   1   7
BRANCH   6  11
ATOM     11  C   UNL     1       1.257  28.524  55.757  1.00  0.00     0.338 C 
ATOM     12  O   UNL     1       0.701  27.715  54.964  1.00  0.00    -0.246 OA
BRANCH  11  13
ATOM     13  O   UNL     1       0.556  29.639  56.230  1.00  0.00    -0.465 OA
ATOM     14  C   UNL     1      -0.525  29.534  57.147  1.00  0.00     0.282 C 
ENDBRANCH  11  13
ENDBRANCH   6  11
TORSDOF 4
ENDMDL
MODEL 4
REMARK VINA RESULT:    -4.165     10.131     12.020
REMARK INTER + INTRA:          -5.474
REMARK INTER:                  -5.268
REMARK INTRA:                  -0.206
REMARK UNBOUND:                -0.336
REMARK SMILES COC(=O)c1ccccc1C(=O)OC
REMARK SMILES IDX 5 1 6 2 7 3 8 4 9 5 10 6 3 7 4 8 2 9 1 10 11 11 12 12 13 13
REMARK SMILES IDX 14 14
REMARK H PARENT
REMARK Flexibility Score: inf
ROOT
ATOM      1  C   UNL     1      -7.059  31.349  58.432  1.00  0.00     0.074 A 
ATOM      2  C   UNL     1      -6.260  31.854  59.475  1.00  0.00     0.016 A 
ATOM      3  C   UNL     1      -5.062  31.229  59.823  1.00  0.00     0.001 A 
ATOM      4  C   UNL     1      -4.643  30.091  59.138  1.00  0.00     0.001 A 
ATOM      5  C   UNL     1      -5.432  29.559  58.116  1.00  0.00     0.016 A 
ATOM      6  C   UNL     1      -6.653  30.163  57.762  1.00  0.00     0.074 A 
ENDROOT
BRANCH   1   7
ATOM      7  C   UNL     1      -8.258  32.120  58.031  1.00  0.00     0.338 C 
ATOM      8  O   UNL     1      -8.131  33.143  57.303  1.00  0.00    -0.246 OA
BRANCH   7   9
ATOM      9  O   UNL     1      -9.530  31.686  58.417  1.00  0.00    -0.465 OA
ATOM     10  C   UNL     1     -10.307  32.360  59.400  1.00  0.00     0.282 C 
ENDBRANCH   7   9
ENDBRANCH   1   7
BRANCH   6  11
ATOM     11  C   UNL     1      -7.501  29.490  56.752  1.00  0.00     0.338 C 
ATOM     12  O   UNL     1      -7.658  30.015  55.615  1.00  0.00    -0.246 OA
BRANCH  11  13
ATOM     13  O   UNL     1      -8.084  28.251  57.041  1.00  0.00    -0.465 OA
ATOM     14  C   UNL     1      -7.707  27.052  56.376  1.00  0.00     0.282 C 
ENDBRANCH  11  13
ENDBRANCH   6  11
TORSDOF 4
ENDMDL
MODEL 5
REMARK VINA RESULT:    -4.150     10.166     11.982
REMARK INTER + INTRA:          -5.456
REMARK INTER:                  -5.053
REMARK INTRA:                  -0.403
REMARK UNBOUND:                -0.336
REMARK SMILES COC(=O)c1ccccc1C(=O)OC
REMARK SMILES IDX 5 1 6 2 7 3 8 4 9 5 10 6 3 7 4 8 2 9 1 10 11 11 12 12 13 13
REMARK SMILES IDX 14 14
REMARK H PARENT
REMARK Flexibility Score: inf
ROOT
ATOM      1  C   UNL     1      -6.747  30.185  57.690  1.00  0.00     0.074 A 
ATOM      2  C   UNL     1      -5.534  29.534  57.980  1.00  0.00     0.016 A 
ATOM      3  C   UNL     1      -4.693  30.007  58.989  1.00  0.00     0.001 A 
ATOM      4  C   UNL     1      -5.050  31.136  59.723  1.00  0.00     0.001 A 
ATOM      5  C   UNL     1      -6.238  31.810  59.437  1.00  0.00     0.016 A 
ATOM      6  C   UNL     1      -7.090  31.362  58.410  1.00  0.00     0.074 A 
ENDROOT
BRANCH   1   7
ATOM      7  C   UNL     1      -7.650  29.572  56.690  1.00  0.00     0.338 C 
ATOM      8  O   UNL     1      -8.337  28.560  57.002  1.00  0.00    -0.246 OA
BRANCH   7   9
ATOM      9  O   UNL     1      -7.779  30.143  55.420  1.00  0.00    -0.465 OA
ATOM     10  C   UNL     1      -9.041  30.450  54.839  1.00  0.00     0.282 C 
ENDBRANCH   7   9
ENDBRANCH   1   7
BRANCH   6  11
ATOM     11  C   UNL     1      -8.276  32.183  58.076  1.00  0.00     0.338 C 
ATOM     12  O   UNL     1      -9.426  31.793  58.420  1.00  0.00    -0.246 OA
BRANCH  11  13
ATOM     13  O   UNL     1      -8.116  33.411  57.423  1.00  0.00    -0.465 OA
ATOM     14  C   UNL     1      -7.366  33.550  56.223  1.00  0.00     0.282 C 
ENDBRANCH  11  13
ENDBRANCH   6  11
TORSDOF 4
ENDMDL
MODEL 6
REMARK VINA RESULT:    -4.145     10.165     11.953
REMARK INTER + INTRA:          -5.450
REMARK INTER:                  -5.032
REMARK INTRA:                  -0.418
REMARK UNBOUND:                -0.336
REMARK SMILES COC(=O)c1ccccc1C(=O)OC
REMARK SMILES IDX 5 1 6 2 7 3 8 4 9 5 10 6 3 7 4 8 2 9 1 10 11 11 12 12 13 13
REMARK SMILES IDX 14 14
REMARK H PARENT
REMARK Flexibility Score: inf
ROOT
ATOM      1  C   UNL     1      -7.118  31.377  58.440  1.00  0.00     0.074 A 
ATOM      2  C   UNL     1      -6.265  31.803  59.475  1.00  0.00     0.016 A 
ATOM      3  C   UNL     1      -5.069  31.133  59.736  1.00  0.00     0.001 A 
ATOM      4  C   UNL     1      -4.705  30.029  58.969  1.00  0.00     0.001 A 
ATOM      5  C   UNL     1      -5.546  29.576  57.952  1.00  0.00     0.016 A 
ATOM      6  C   UNL     1      -6.767  30.224  57.685  1.00  0.00     0.074 A 
ENDROOT
BRANCH   1   7
ATOM      7  C   UNL     1      -8.313  32.194  58.134  1.00  0.00     0.338 C 
ATOM      8  O   UNL     1      -9.451  31.813  58.525  1.00  0.00    -0.246 OA
BRANCH   7   9
ATOM      9  O   UNL     1      -8.175  33.411  57.458  1.00  0.00    -0.465 OA
ATOM     10  C   UNL     1      -7.376  33.555  56.290  1.00  0.00     0.282 C 
ENDBRANCH   7   9
ENDBRANCH   1   7
BRANCH   6  11
ATOM     11  C   UNL     1      -7.669  29.629  56.673  1.00  0.00     0.338 C 
ATOM     12  O   UNL     1      -8.390  28.640  56.979  1.00  0.00    -0.246 OA
BRANCH  11  13
ATOM     13  O   UNL     1      -7.758  30.195  55.396  1.00  0.00    -0.465 OA
ATOM     14  C   UNL     1      -9.000  30.522  54.786  1.00  0.00     0.282 C 
ENDBRANCH  11  13
ENDBRANCH   6  11
TORSDOF 4
ENDMDL
MODEL 7
REMARK VINA RESULT:    -4.108     10.201     12.167
REMARK INTER + INTRA:          -5.405
REMARK INTER:                  -5.158
REMARK INTRA:                  -0.247
REMARK UNBOUND:                -0.336
REMARK SMILES COC(=O)c1ccccc1C(=O)OC
REMARK SMILES IDX 5 1 6 2 7 3 8 4 9 5 10 6 3 7 4 8 2 9 1 10 11 11 12 12 13 13
REMARK SMILES IDX 14 14
REMARK H PARENT
REMARK Flexibility Score: inf
ROOT
ATOM      1  C   UNL     1      -6.791  30.322  57.599  1.00  0.00     0.074 A 
ATOM      2  C   UNL     1      -5.645  29.574  57.929  1.00  0.00     0.016 A 
ATOM      3  C   UNL     1      -4.825  29.957  58.991  1.00  0.00     0.001 A 
ATOM      4  C   UNL     1      -5.135  31.089  59.740  1.00  0.00     0.001 A 
ATOM      5  C   UNL     1      -6.254  31.858  59.416  1.00  0.00     0.016 A 
ATOM      6  C   UNL     1      -7.083  31.501  58.336  1.00  0.00     0.074 A 
ENDROOT
BRANCH   1   7
ATOM      7  C   UNL     1      -7.685  29.803  56.538  1.00  0.00     0.338 C 
ATOM      8  O   UNL     1      -7.661  30.322  55.388  1.00  0.00    -0.246 OA
BRANCH   7   9
ATOM      9  O   UNL     1      -8.516  28.709  56.797  1.00  0.00    -0.465 OA
ATOM     10  C   UNL     1      -8.261  27.409  56.279  1.00  0.00     0.282 C 
ENDBRANCH   7   9
ENDBRANCH   1   7
BRANCH   6  11
ATOM     11  C   UNL     1      -8.188  32.417  57.968  1.00  0.00     0.338 C 
ATOM     12  O   UNL     1      -7.931  33.509  57.391  1.00  0.00    -0.246 OA
BRANCH  11  13
ATOM     13  O   UNL     1      -9.515  32.047  58.216  1.00  0.00    -0.465 OA
ATOM     14  C   UNL     1     -10.156  32.282  59.464  1.00  0.00     0.282 C 
ENDBRANCH  11  13
ENDBRANCH   6  11
TORSDOF 4
ENDMDL
MODEL 8
REMARK VINA RESULT:    -3.999     10.036     11.684
REMARK INTER + INTRA:          -5.270
REMARK INTER:                  -4.912
REMARK INTRA:                  -0.358
REMARK UNBOUND:                -0.336
REMARK SMILES COC(=O)c1ccccc1C(=O)OC
REMARK SMILES IDX 5 1 6 2 7 3 8 4 9 5 10 6 3 7 4 8 2 9 1 10 11 11 12 12 13 13
REMARK SMILES IDX 14 14
REMARK H PARENT
REMARK Flexibility Score: inf
ROOT
ATOM      1  C   UNL     1      -6.597  29.453  57.576  1.00  0.00     0.074 A 
ATOM      2  C   UNL     1      -5.585  29.554  58.549  1.00  0.00     0.016 A 
ATOM      3  C   UNL     1      -5.367  30.753  59.230  1.00  0.00     0.001 A 
ATOM      4  C   UNL     1      -6.155  31.867  58.952  1.00  0.00     0.001 A 
ATOM      5  C   UNL     1      -7.150  31.795  57.975  1.00  0.00     0.016 A 
ATOM      6  C   UNL     1      -7.372  30.602  57.262  1.00  0.00     0.074 A 
ENDROOT
BRANCH   1   7
ATOM      7  C   UNL     1      -6.858  28.127  56.971  1.00  0.00     0.338 C 
ATOM      8  O   UNL     1      -7.659  27.329  57.531  1.00  0.00    -0.246 OA
BRANCH   7   9
ATOM      9  O   UNL     1      -6.256  27.781  55.757  1.00  0.00    -0.465 OA
ATOM     10  C   UNL     1      -6.902  26.972  54.781  1.00  0.00     0.282 C 
ENDBRANCH   7   9
ENDBRANCH   1   7
BRANCH   6  11
ATOM     11  C   UNL     1      -8.361  30.619  56.159  1.00  0.00     0.338 C 
ATOM     12  O   UNL     1      -7.984  30.873  54.982  1.00  0.00    -0.246 OA
BRANCH  11  13
ATOM     13  O   UNL     1      -9.700  30.305  56.416  1.00  0.00    -0.465 OA
ATOM     14  C   UNL     1     -10.648  31.276  56.844  1.00  0.00     0.282 C 
ENDBRANCH  11  13
ENDBRANCH   6  11
TORSDOF 4
ENDMDL
MODEL 9
REMARK VINA RESULT:    -3.960      9.951     11.794
REMARK INTER + INTRA:          -5.221
REMARK INTER:                  -4.881
REMARK INTRA:                  -0.340
REMARK UNBOUND:                -0.336
REMARK SMILES COC(=O)c1ccccc1C(=O)OC
REMARK SMILES IDX 5 1 6 2 7 3 8 4 9 5 10 6 3 7 4 8 2 9 1 10 11 11 12 12 13 13
REMARK SMILES IDX 14 14
REMARK H PARENT
REMARK Flexibility Score: inf
ROOT
ATOM      1  C   UNL     1      -7.265  30.554  57.454  1.00  0.00     0.074 A 
ATOM      2  C   UNL     1      -7.020  31.730  58.187  1.00  0.00     0.016 A 
ATOM      3  C   UNL     1      -5.984  31.786  59.122  1.00  0.00     0.001 A 
ATOM      4  C   UNL     1      -5.179  30.671  59.339  1.00  0.00     0.001 A 
ATOM      5  C   UNL     1      -5.419  29.487  58.640  1.00  0.00     0.016 A 
ATOM      6  C   UNL     1      -6.470  29.403  57.707  1.00  0.00     0.074 A 
ENDROOT
BRANCH   1   7
ATOM      7  C   UNL     1      -8.299  30.590  56.395  1.00  0.00     0.338 C 
ATOM      8  O   UNL     1      -7.958  30.745  55.190  1.00  0.00    -0.246 OA
BRANCH   7   9
ATOM      9  O   UNL     1      -9.645  30.404  56.726  1.00  0.00    -0.465 OA
ATOM     10  C   UNL     1     -10.693  31.170  56.145  1.00  0.00     0.282 C 
ENDBRANCH   7   9
ENDBRANCH   1   7
BRANCH   6  11
ATOM     11  C   UNL     1      -6.749  28.090  57.082  1.00  0.00     0.338 C 
ATOM     12  O   UNL     1      -7.446  27.238  57.697  1.00  0.00    -0.246 OA
BRANCH  11  13
ATOM     13  O   UNL     1      -6.280  27.816  55.792  1.00  0.00    -0.465 OA
ATOM     14  C   UNL     1      -7.053  27.113  54.828  1.00  0.00     0.282 C 
ENDBRANCH  11  13
ENDBRANCH   6  11
TORSDOF 4
ENDMDL
