MODEL 1
REMARK VINA RESULT:    -3.117      0.000      0.000
REMARK INTER + INTRA:          -7.852
REMARK INTER:                  -5.668
REMARK INTRA:                  -2.183
REMARK UNBOUND:                -2.183
REMARK SMILES CCCCCCCCCCCCCC[C@H](C)C(=O)[O-]
REMARK SMILES IDX 9 1 10 2 11 3 12 4 13 5 14 6 15 7 16 8 17 9 18 10 19 11 8 12
REMARK SMILES IDX 7 13 6 14 5 15 4 16 3 17 2 18 1 19
REMARK H PARENT
REMARK Flexibility Score: inf
ROOT
ATOM      1  C   UNL     1    -115.255  37.068  -8.692  1.00  0.00     0.000 C 
ENDROOT
BRANCH   1   2
ATOM      2  C   UNL     1    -116.196  37.405  -9.858  1.00  0.00     0.000 C 
BRANCH   2   3
ATOM      3  C   UNL     1    -115.448  37.587 -11.189  1.00  0.00     0.000 C 
BRANCH   3   4
ATOM      4  C   UNL     1    -116.353  37.355 -12.411  1.00  0.00     0.000 C 
BRANCH   4   5
ATOM      5  C   UNL     1    -115.559  37.272 -13.726  1.00  0.00     0.001 C 
BRANCH   5   6
ATOM      6  C   UNL     1    -114.071  37.628 -13.547  1.00  0.00     0.009 C 
BRANCH   6   7
ATOM      7  C   UNL     1    -113.177  37.251 -14.750  1.00  0.00     0.032 C 
ATOM      8  C   UNL     1    -113.400  35.787 -15.142  1.00  0.00     0.014 C 
BRANCH   7   9
ATOM      9  C   UNL     1    -111.720  37.475 -14.443  1.00  0.00     0.044 C 
ATOM     10  O   UNL     1    -111.377  38.367 -13.622  1.00  0.00    -0.550 OA
ATOM     11  O   UNL     1    -110.744  36.703 -15.063  1.00  0.00    -0.550 OA
ENDBRANCH   7   9
ENDBRANCH   6   7
ENDBRANCH   5   6
ENDBRANCH   4   5
ENDBRANCH   3   4
ENDBRANCH   2   3
ENDBRANCH   1   2
BRANCH   1  12
ATOM     12  C   UNL     1    -115.883  36.095  -7.683  1.00  0.00     0.000 C 
BRANCH  12  13
ATOM     13  C   UNL     1    -115.037  34.820  -7.550  1.00  0.00    -0.000 C 
BRANCH  13  14
ATOM     14  C   UNL     1    -115.167  33.881  -8.763  1.00  0.00    -0.000 C 
BRANCH  14  15
ATOM     15  C   UNL     1    -116.611  33.609  -9.223  1.00  0.00    -0.000 C 
BRANCH  15  16
ATOM     16  C   UNL     1    -116.804  33.805 -10.734  1.00  0.00    -0.000 C 
BRANCH  16  17
ATOM     17  C   UNL     1    -115.454  33.854 -11.459  1.00  0.00    -0.000 C 
BRANCH  17  18
ATOM     18  C   UNL     1    -115.635  33.686 -12.972  1.00  0.00    -0.003 C 
ATOM     19  C   UNL     1    -114.774  32.545 -13.506  1.00  0.00     0.004 C 
ENDBRANCH  17  18
ENDBRANCH  16  17
ENDBRANCH  15  16
ENDBRANCH  14  15
ENDBRANCH  13  14
ENDBRANCH  12  13
ENDBRANCH   1  12
TORSDOF 14
ENDMDL
MODEL 2
REMARK VINA RESULT:    -3.104      2.067      4.800
REMARK INTER + INTRA:          -7.828
REMARK INTER:                  -5.909
REMARK INTRA:                  -1.919
REMARK UNBOUND:                -2.183
REMARK SMILES CCCCCCCCCCCCCC[C@H](C)C(=O)[O-]
REMARK SMILES IDX 9 1 10 2 11 3 12 4 13 5 14 6 15 7 16 8 17 9 18 10 19 11 8 12
REMARK SMILES IDX 7 13 6 14 5 15 4 16 3 17 2 18 1 19
REMARK H PARENT
REMARK Flexibility Score: inf
ROOT
ATOM      1  C   UNL     1    -116.383  35.669  -7.282  1.00  0.00     0.000 C 
ENDROOT
BRANCH   1   2
ATOM      2  C   UNL     1    -115.028  34.991  -7.535  1.00  0.00     0.000 C 
BRANCH   2   3
ATOM      3  C   UNL     1    -115.114  33.870  -8.584  1.00  0.00     0.000 C 
BRANCH   3   4
ATOM      4  C   UNL     1    -116.555  33.617  -9.060  1.00  0.00     0.000 C 
BRANCH   4   5
ATOM      5  C   UNL     1    -116.700  33.735 -10.587  1.00  0.00     0.001 C 
BRANCH   5   6
ATOM      6  C   UNL     1    -115.348  33.921 -11.302  1.00  0.00     0.009 C 
BRANCH   6   7
ATOM      7  C   UNL     1    -115.459  34.476 -12.740  1.00  0.00     0.032 C 
ATOM      8  C   UNL     1    -116.920  34.783 -13.082  1.00  0.00     0.014 C 
BRANCH   7   9
ATOM      9  C   UNL     1    -114.896  33.510 -13.748  1.00  0.00     0.044 C 
ATOM     10  O   UNL     1    -114.542  33.919 -14.885  1.00  0.00    -0.550 OA
ATOM     11  O   UNL     1    -114.763  32.162 -13.432  1.00  0.00    -0.550 OA
ENDBRANCH   7   9
ENDBRANCH   6   7
ENDBRANCH   5   6
ENDBRANCH   4   5
ENDBRANCH   3   4
ENDBRANCH   2   3
ENDBRANCH   1   2
BRANCH   1  12
ATOM     12  C   UNL     1    -116.435  37.111  -7.810  1.00  0.00     0.000 C 
BRANCH  12  13
ATOM     13  C   UNL     1    -115.316  37.362  -8.831  1.00  0.00    -0.000 C 
BRANCH  13  14
ATOM     14  C   UNL     1    -115.844  37.598 -10.257  1.00  0.00    -0.000 C 
BRANCH  14  15
ATOM     15  C   UNL     1    -114.900  38.391 -11.179  1.00  0.00    -0.000 C 
BRANCH  15  16
ATOM     16  C   UNL     1    -115.015  37.977 -12.653  1.00  0.00    -0.000 C 
BRANCH  16  17
ATOM     17  C   UNL     1    -113.754  38.367 -13.434  1.00  0.00    -0.000 C 
BRANCH  17  18
ATOM     18  C   UNL     1    -112.708  38.999 -12.508  1.00  0.00    -0.003 C 
ATOM     19  C   UNL     1    -111.335  39.035 -13.173  1.00  0.00     0.004 C 
ENDBRANCH  17  18
ENDBRANCH  16  17
ENDBRANCH  15  16
ENDBRANCH  14  15
ENDBRANCH  13  14
ENDBRANCH  12  13
ENDBRANCH   1  12
TORSDOF 14
ENDMDL
MODEL 3
REMARK VINA RESULT:    -3.078      2.983      6.076
REMARK INTER + INTRA:          -7.781
REMARK INTER:                  -5.389
REMARK INTRA:                  -2.392
REMARK UNBOUND:                -2.183
REMARK SMILES CCCCCCCCCCCCCC[C@H](C)C(=O)[O-]
REMARK SMILES IDX 9 1 10 2 11 3 12 4 13 5 14 6 15 7 16 8 17 9 18 10 19 11 8 12
REMARK SMILES IDX 7 13 6 14 5 15 4 16 3 17 2 18 1 19
REMARK H PARENT
REMARK Flexibility Score: inf
ROOT
ATOM      1  C   UNL     1    -115.467  36.924  -8.634  1.00  0.00     0.000 C 
ENDROOT
BRANCH   1   2
ATOM      2  C   UNL     1    -115.966  35.782  -7.735  1.00  0.00     0.000 C 
BRANCH   2   3
ATOM      3  C   UNL     1    -115.026  34.564  -7.748  1.00  0.00     0.000 C 
BRANCH   3   4
ATOM      4  C   UNL     1    -115.079  33.794  -9.079  1.00  0.00     0.000 C 
BRANCH   4   5
ATOM      5  C   UNL     1    -116.518  33.458  -9.508  1.00  0.00     0.001 C 
BRANCH   5   6
ATOM      6  C   UNL     1    -116.858  33.983 -10.916  1.00  0.00     0.009 C 
BRANCH   6   7
ATOM      7  C   UNL     1    -115.630  34.203 -11.827  1.00  0.00     0.032 C 
ATOM      8  C   UNL     1    -115.598  35.646 -12.341  1.00  0.00     0.014 C 
BRANCH   7   9
ATOM      9  C   UNL     1    -115.633  33.251 -12.994  1.00  0.00     0.044 C 
ATOM     10  O   UNL     1    -116.538  33.326 -13.867  1.00  0.00    -0.550 OA
ATOM     11  O   UNL     1    -114.641  32.286 -13.117  1.00  0.00    -0.550 OA
ENDBRANCH   7   9
ENDBRANCH   6   7
ENDBRANCH   5   6
ENDBRANCH   4   5
ENDBRANCH   3   4
ENDBRANCH   2   3
ENDBRANCH   1   2
BRANCH   1  12
ATOM     12  C   UNL     1    -116.603  37.614  -9.404  1.00  0.00     0.000 C 
BRANCH  12  13
ATOM     13  C   UNL     1    -116.047  38.655 -10.387  1.00  0.00    -0.000 C 
BRANCH  13  14
ATOM     14  C   UNL     1    -114.553  38.952 -10.167  1.00  0.00    -0.000 C 
BRANCH  14  15
ATOM     15  C   UNL     1    -114.193  40.446 -10.072  1.00  0.00    -0.000 C 
BRANCH  15  16
ATOM     16  C   UNL     1    -114.954  41.176  -8.956  1.00  0.00    -0.000 C 
BRANCH  16  17
ATOM     17  C   UNL     1    -114.615  40.585  -7.583  1.00  0.00    -0.000 C 
BRANCH  17  18
ATOM     18  C   UNL     1    -115.888  40.205  -6.817  1.00  0.00    -0.003 C 
ATOM     19  C   UNL     1    -117.124  40.824  -7.464  1.00  0.00     0.004 C 
ENDBRANCH  17  18
ENDBRANCH  16  17
ENDBRANCH  15  16
ENDBRANCH  14  15
ENDBRANCH  13  14
ENDBRANCH  12  13
ENDBRANCH   1  12
TORSDOF 14
ENDMDL
MODEL 4
REMARK VINA RESULT:    -3.070      1.401      3.552
REMARK INTER + INTRA:          -7.767
REMARK INTER:                  -5.829
REMARK INTRA:                  -1.937
REMARK UNBOUND:                -2.183
REMARK SMILES CCCCCCCCCCCCCC[C@H](C)C(=O)[O-]
REMARK SMILES IDX 9 1 10 2 11 3 12 4 13 5 14 6 15 7 16 8 17 9 18 10 19 11 8 12
REMARK SMILES IDX 7 13 6 14 5 15 4 16 3 17 2 18 1 19
REMARK H PARENT
REMARK Flexibility Score: inf
ROOT
ATOM      1  C   UNL     1    -115.593  34.181 -11.278  1.00  0.00     0.000 C 
ENDROOT
BRANCH   1   2
ATOM      2  C   UNL     1    -115.878  35.371 -12.207  1.00  0.00     0.000 C 
BRANCH   2   3
ATOM      3  C   UNL     1    -115.293  35.175 -13.617  1.00  0.00     0.000 C 
BRANCH   3   4
ATOM      4  C   UNL     1    -114.488  36.395 -14.095  1.00  0.00     0.000 C 
BRANCH   4   5
ATOM      5  C   UNL     1    -114.891  37.689 -13.368  1.00  0.00     0.001 C 
BRANCH   5   6
ATOM      6  C   UNL     1    -113.933  38.860 -13.659  1.00  0.00     0.009 C 
BRANCH   6   7
ATOM      7  C   UNL     1    -112.802  39.032 -12.621  1.00  0.00     0.032 C 
ATOM      8  C   UNL     1    -112.898  40.405 -11.948  1.00  0.00     0.014 C 
BRANCH   7   9
ATOM      9  C   UNL     1    -111.445  38.873 -13.254  1.00  0.00     0.044 C 
ATOM     10  O   UNL     1    -110.529  39.699 -12.998  1.00  0.00    -0.550 OA
ATOM     11  O   UNL     1    -111.194  37.819 -14.125  1.00  0.00    -0.550 OA
ENDBRANCH   7   9
ENDBRANCH   6   7
ENDBRANCH   5   6
ENDBRANCH   4   5
ENDBRANCH   3   4
ENDBRANCH   2   3
ENDBRANCH   1   2
BRANCH   1  12
ATOM     12  C   UNL     1    -116.850  33.680 -10.550  1.00  0.00     0.000 C 
BRANCH  12  13
ATOM     13  C   UNL     1    -116.590  33.535  -9.043  1.00  0.00    -0.000 C 
BRANCH  13  14
ATOM     14  C   UNL     1    -115.153  33.909  -8.641  1.00  0.00    -0.000 C 
BRANCH  14  15
ATOM     15  C   UNL     1    -115.042  34.974  -7.534  1.00  0.00    -0.000 C 
BRANCH  15  16
ATOM     16  C   UNL     1    -116.387  35.634  -7.202  1.00  0.00    -0.000 C 
BRANCH  16  17
ATOM     17  C   UNL     1    -116.377  37.121  -7.576  1.00  0.00    -0.000 C 
BRANCH  17  18
ATOM     18  C   UNL     1    -116.503  37.308  -9.092  1.00  0.00    -0.003 C 
ATOM     19  C   UNL     1    -115.290  38.041  -9.660  1.00  0.00     0.004 C 
ENDBRANCH  17  18
ENDBRANCH  16  17
ENDBRANCH  15  16
ENDBRANCH  14  15
ENDBRANCH  13  14
ENDBRANCH  12  13
ENDBRANCH   1  12
TORSDOF 14
ENDMDL
MODEL 5
REMARK VINA RESULT:    -3.046      2.013      4.825
REMARK INTER + INTRA:          -7.723
REMARK INTER:                  -5.742
REMARK INTRA:                  -1.980
REMARK UNBOUND:                -2.183
REMARK SMILES CCCCCCCCCCCCCC[C@H](C)C(=O)[O-]
REMARK SMILES IDX 9 1 10 2 11 3 12 4 13 5 14 6 15 7 16 8 17 9 18 10 19 11 8 12
REMARK SMILES IDX 7 13 6 14 5 15 4 16 3 17 2 18 1 19
REMARK H PARENT
REMARK Flexibility Score: inf
ROOT
ATOM      1  C   UNL     1    -115.118  34.959  -7.474  1.00  0.00     0.000 C 
ENDROOT
BRANCH   1   2
ATOM      2  C   UNL     1    -115.127  33.949  -8.631  1.00  0.00     0.000 C 
BRANCH   2   3
ATOM      3  C   UNL     1    -116.551  33.560  -9.065  1.00  0.00     0.000 C 
BRANCH   3   4
ATOM      4  C   UNL     1    -116.779  33.747 -10.575  1.00  0.00     0.000 C 
BRANCH   4   5
ATOM      5  C   UNL     1    -115.476  34.053 -11.334  1.00  0.00     0.001 C 
BRANCH   5   6
ATOM      6  C   UNL     1    -115.711  34.872 -12.617  1.00  0.00     0.009 C 
BRANCH   6   7
ATOM      7  C   UNL     1    -115.394  34.112 -13.925  1.00  0.00     0.032 C 
ATOM      8  C   UNL     1    -114.828  32.723 -13.611  1.00  0.00     0.014 C 
BRANCH   7   9
ATOM      9  C   UNL     1    -114.418  34.874 -14.781  1.00  0.00     0.044 C 
ATOM     10  O   UNL     1    -113.963  35.981 -14.387  1.00  0.00    -0.550 OA
ATOM     11  O   UNL     1    -114.012  34.365 -16.009  1.00  0.00    -0.550 OA
ENDBRANCH   7   9
ENDBRANCH   6   7
ENDBRANCH   5   6
ENDBRANCH   4   5
ENDBRANCH   3   4
ENDBRANCH   2   3
ENDBRANCH   1   2
BRANCH   1  12
ATOM     12  C   UNL     1    -116.519  35.491  -7.137  1.00  0.00     0.000 C 
BRANCH  12  13
ATOM     13  C   UNL     1    -116.630  36.989  -7.461  1.00  0.00    -0.000 C 
BRANCH  13  14
ATOM     14  C   UNL     1    -116.996  37.262  -8.931  1.00  0.00    -0.000 C 
BRANCH  14  15
ATOM     15  C   UNL     1    -115.806  37.610  -9.844  1.00  0.00    -0.000 C 
BRANCH  15  16
ATOM     16  C   UNL     1    -114.678  38.344  -9.105  1.00  0.00    -0.000 C 
BRANCH  16  17
ATOM     17  C   UNL     1    -114.603  39.813  -9.536  1.00  0.00    -0.000 C 
BRANCH  17  18
ATOM     18  C   UNL     1    -114.448  40.736  -8.322  1.00  0.00    -0.003 C 
ATOM     19  C   UNL     1    -115.533  40.466  -7.283  1.00  0.00     0.004 C 
ENDBRANCH  17  18
ENDBRANCH  16  17
ENDBRANCH  15  16
ENDBRANCH  14  15
ENDBRANCH  13  14
ENDBRANCH  12  13
ENDBRANCH   1  12
TORSDOF 14
ENDMDL
MODEL 6
REMARK VINA RESULT:    -3.030      2.582      4.621
REMARK INTER + INTRA:          -7.693
REMARK INTER:                  -5.772
REMARK INTRA:                  -1.921
REMARK UNBOUND:                -2.183
REMARK SMILES CCCCCCCCCCCCCC[C@H](C)C(=O)[O-]
REMARK SMILES IDX 9 1 10 2 11 3 12 4 13 5 14 6 15 7 16 8 17 9 18 10 19 11 8 12
REMARK SMILES IDX 7 13 6 14 5 15 4 16 3 17 2 18 1 19
REMARK H PARENT
REMARK Flexibility Score: inf
ROOT
ATOM      1  C   UNL     1    -115.005  34.960  -7.621  1.00  0.00     0.000 C 
ENDROOT
BRANCH   1   2
ATOM      2  C   UNL     1    -115.138  33.859  -8.685  1.00  0.00     0.000 C 
BRANCH   2   3
ATOM      3  C   UNL     1    -116.598  33.619  -9.108  1.00  0.00     0.000 C 
BRANCH   3   4
ATOM      4  C   UNL     1    -116.848  33.966 -10.585  1.00  0.00     0.000 C 
BRANCH   4   5
ATOM      5  C   UNL     1    -115.623  34.615 -11.253  1.00  0.00     0.001 C 
BRANCH   5   6
ATOM      6  C   UNL     1    -115.767  34.728 -12.783  1.00  0.00     0.009 C 
BRANCH   6   7
ATOM      7  C   UNL     1    -114.774  33.855 -13.582  1.00  0.00     0.032 C 
ATOM      8  C   UNL     1    -114.154  34.663 -14.727  1.00  0.00     0.014 C 
BRANCH   7   9
ATOM      9  C   UNL     1    -115.444  32.626 -14.137  1.00  0.00     0.044 C 
ATOM     10  O   UNL     1    -115.478  31.565 -13.459  1.00  0.00    -0.550 OA
ATOM     11  O   UNL     1    -116.029  32.652 -15.398  1.00  0.00    -0.550 OA
ENDBRANCH   7   9
ENDBRANCH   6   7
ENDBRANCH   5   6
ENDBRANCH   4   5
ENDBRANCH   3   4
ENDBRANCH   2   3
ENDBRANCH   1   2
BRANCH   1  12
ATOM     12  C   UNL     1    -116.359  35.566  -7.219  1.00  0.00     0.000 C 
BRANCH  12  13
ATOM     13  C   UNL     1    -116.495  37.003  -7.745  1.00  0.00    -0.000 C 
BRANCH  13  14
ATOM     14  C   UNL     1    -115.370  37.396  -8.720  1.00  0.00    -0.000 C 
BRANCH  14  15
ATOM     15  C   UNL     1    -115.780  38.392  -9.820  1.00  0.00    -0.000 C 
BRANCH  15  16
ATOM     16  C   UNL     1    -114.651  38.677 -10.820  1.00  0.00    -0.000 C 
BRANCH  16  17
ATOM     17  C   UNL     1    -115.077  38.315 -12.248  1.00  0.00    -0.000 C 
BRANCH  17  18
ATOM     18  C   UNL     1    -113.856  38.060 -13.138  1.00  0.00    -0.003 C 
ATOM     19  C   UNL     1    -112.670  38.919 -12.707  1.00  0.00     0.004 C 
ENDBRANCH  17  18
ENDBRANCH  16  17
ENDBRANCH  15  16
ENDBRANCH  14  15
ENDBRANCH  13  14
ENDBRANCH  12  13
ENDBRANCH   1  12
TORSDOF 14
ENDMDL
MODEL 7
REMARK VINA RESULT:    -2.999      1.266      3.345
REMARK INTER + INTRA:          -7.637
REMARK INTER:                  -5.848
REMARK INTRA:                  -1.789
REMARK UNBOUND:                -2.183
REMARK SMILES CCCCCCCCCCCCCC[C@H](C)C(=O)[O-]
REMARK SMILES IDX 9 1 10 2 11 3 12 4 13 5 14 6 15 7 16 8 17 9 18 10 19 11 8 12
REMARK SMILES IDX 7 13 6 14 5 15 4 16 3 17 2 18 1 19
REMARK H PARENT
REMARK Flexibility Score: inf
ROOT
ATOM      1  C   UNL     1    -115.597  34.312 -11.279  1.00  0.00     0.000 C 
ENDROOT
BRANCH   1   2
ATOM      2  C   UNL     1    -116.040  35.666 -11.855  1.00  0.00     0.000 C 
BRANCH   2   3
ATOM      3  C   UNL     1    -115.267  36.049 -13.129  1.00  0.00     0.000 C 
BRANCH   3   4
ATOM      4  C   UNL     1    -114.920  34.826 -13.997  1.00  0.00     0.000 C 
BRANCH   4   5
ATOM      5  C   UNL     1    -113.756  35.103 -14.964  1.00  0.00     0.001 C 
BRANCH   5   6
ATOM      6  C   UNL     1    -113.503  36.607 -15.179  1.00  0.00     0.009 C 
BRANCH   6   7
ATOM      7  C   UNL     1    -112.023  36.974 -15.432  1.00  0.00     0.032 C 
ATOM      8  C   UNL     1    -111.144  35.721 -15.368  1.00  0.00     0.014 C 
BRANCH   7   9
ATOM      9  C   UNL     1    -111.530  37.989 -14.435  1.00  0.00     0.044 C 
ATOM     10  O   UNL     1    -112.213  38.249 -13.408  1.00  0.00    -0.550 OA
ATOM     11  O   UNL     1    -110.322  38.646 -14.639  1.00  0.00    -0.550 OA
ENDBRANCH   7   9
ENDBRANCH   6   7
ENDBRANCH   5   6
ENDBRANCH   4   5
ENDBRANCH   3   4
ENDBRANCH   2   3
ENDBRANCH   1   2
BRANCH   1  12
ATOM     12  C   UNL     1    -116.742  33.556 -10.589  1.00  0.00     0.000 C 
BRANCH  12  13
ATOM     13  C   UNL     1    -116.549  33.541  -9.065  1.00  0.00    -0.000 C 
BRANCH  13  14
ATOM     14  C   UNL     1    -115.130  33.949  -8.633  1.00  0.00    -0.000 C 
BRANCH  14  15
ATOM     15  C   UNL     1    -115.063  35.126  -7.643  1.00  0.00    -0.000 C 
BRANCH  15  16
ATOM     16  C   UNL     1    -116.394  35.881  -7.520  1.00  0.00    -0.000 C 
BRANCH  16  17
ATOM     17  C   UNL     1    -116.404  37.126  -8.415  1.00  0.00    -0.000 C 
BRANCH  17  18
ATOM     18  C   UNL     1    -114.976  37.588  -8.731  1.00  0.00    -0.003 C 
ATOM     19  C   UNL     1    -114.965  38.601  -9.872  1.00  0.00     0.004 C 
ENDBRANCH  17  18
ENDBRANCH  16  17
ENDBRANCH  15  16
ENDBRANCH  14  15
ENDBRANCH  13  14
ENDBRANCH  12  13
ENDBRANCH   1  12
TORSDOF 14
ENDMDL
MODEL 8
REMARK VINA RESULT:    -2.965      2.547      4.525
REMARK INTER + INTRA:          -7.574
REMARK INTER:                  -5.219
REMARK INTRA:                  -2.355
REMARK UNBOUND:                -2.183
REMARK SMILES CCCCCCCCCCCCCC[C@H](C)C(=O)[O-]
REMARK SMILES IDX 9 1 10 2 11 3 12 4 13 5 14 6 15 7 16 8 17 9 18 10 19 11 8 12
REMARK SMILES IDX 7 13 6 14 5 15 4 16 3 17 2 18 1 19
REMARK H PARENT
REMARK Flexibility Score: inf
ROOT
ATOM      1  C   UNL     1    -115.251  35.945 -12.822  1.00  0.00     0.000 C 
ENDROOT
BRANCH   1   2
ATOM      2  C   UNL     1    -116.591  36.686 -12.956  1.00  0.00     0.000 C 
BRANCH   2   3
ATOM      3  C   UNL     1    -117.085  37.262 -11.618  1.00  0.00     0.000 C 
BRANCH   3   4
ATOM      4  C   UNL     1    -116.049  37.106 -10.492  1.00  0.00     0.000 C 
BRANCH   4   5
ATOM      5  C   UNL     1    -115.783  38.428  -9.749  1.00  0.00     0.001 C 
BRANCH   5   6
ATOM      6  C   UNL     1    -114.386  39.007 -10.043  1.00  0.00     0.009 C 
BRANCH   6   7
ATOM      7  C   UNL     1    -114.279  39.759 -11.388  1.00  0.00     0.032 C 
ATOM      8  C   UNL     1    -113.233  39.095 -12.290  1.00  0.00     0.014 C 
BRANCH   7   9
ATOM      9  C   UNL     1    -113.921  41.207 -11.182  1.00  0.00     0.044 C 
ATOM     10  O   UNL     1    -114.483  42.101 -11.869  1.00  0.00    -0.550 OA
ATOM     11  O   UNL     1    -112.970  41.568 -10.234  1.00  0.00    -0.550 OA
ENDBRANCH   7   9
ENDBRANCH   6   7
ENDBRANCH   5   6
ENDBRANCH   4   5
ENDBRANCH   3   4
ENDBRANCH   2   3
ENDBRANCH   1   2
BRANCH   1  12
ATOM     12  C   UNL     1    -115.351  34.462 -13.209  1.00  0.00     0.000 C 
BRANCH  12  13
ATOM     13  C   UNL     1    -115.241  33.562 -11.968  1.00  0.00    -0.000 C 
BRANCH  13  14
ATOM     14  C   UNL     1    -116.583  33.380 -11.237  1.00  0.00    -0.000 C 
BRANCH  14  15
ATOM     15  C   UNL     1    -116.508  33.488  -9.702  1.00  0.00    -0.000 C 
BRANCH  15  16
ATOM     16  C   UNL     1    -115.091  33.785  -9.192  1.00  0.00    -0.000 C 
BRANCH  16  17
ATOM     17  C   UNL     1    -115.134  34.530  -7.853  1.00  0.00    -0.000 C 
BRANCH  17  18
ATOM     18  C   UNL     1    -116.571  34.918  -7.485  1.00  0.00    -0.003 C 
ATOM     19  C   UNL     1    -116.627  36.320  -6.885  1.00  0.00     0.004 C 
ENDBRANCH  17  18
ENDBRANCH  16  17
ENDBRANCH  15  16
ENDBRANCH  14  15
ENDBRANCH  13  14
ENDBRANCH  12  13
ENDBRANCH   1  12
TORSDOF 14
ENDMDL
MODEL 9
REMARK VINA RESULT:    -2.955      2.648      5.004
REMARK INTER + INTRA:          -7.557
REMARK INTER:                  -5.369
REMARK INTRA:                  -2.188
REMARK UNBOUND:                -2.183
REMARK SMILES CCCCCCCCCCCCCC[C@H](C)C(=O)[O-]
REMARK SMILES IDX 9 1 10 2 11 3 12 4 13 5 14 6 15 7 16 8 17 9 18 10 19 11 8 12
REMARK SMILES IDX 7 13 6 14 5 15 4 16 3 17 2 18 1 19
REMARK H PARENT
REMARK Flexibility Score: inf
ROOT
ATOM      1  C   UNL     1    -115.273  34.107 -10.275  1.00  0.00     0.000 C 
ENDROOT
BRANCH   1   2
ATOM      2  C   UNL     1    -115.288  33.732  -8.785  1.00  0.00     0.000 C 
BRANCH   2   3
ATOM      3  C   UNL     1    -115.058  34.945  -7.868  1.00  0.00     0.000 C 
BRANCH   3   4
ATOM      4  C   UNL     1    -116.373  35.625  -7.449  1.00  0.00     0.000 C 
BRANCH   4   5
ATOM      5  C   UNL     1    -116.433  37.103  -7.870  1.00  0.00     0.001 C 
BRANCH   5   6
ATOM      6  C   UNL     1    -115.207  37.538  -8.696  1.00  0.00     0.009 C 
BRANCH   6   7
ATOM      7  C   UNL     1    -115.409  38.845  -9.495  1.00  0.00     0.032 C 
ATOM      8  C   UNL     1    -114.820  38.707 -10.903  1.00  0.00     0.014 C 
BRANCH   7   9
ATOM      9  C   UNL     1    -114.776  40.020  -8.796  1.00  0.00     0.044 C 
ATOM     10  O   UNL     1    -115.000  40.222  -7.573  1.00  0.00    -0.550 OA
ATOM     11  O   UNL     1    -113.943  40.887  -9.493  1.00  0.00    -0.550 OA
ENDBRANCH   7   9
ENDBRANCH   6   7
ENDBRANCH   5   6
ENDBRANCH   4   5
ENDBRANCH   3   4
ENDBRANCH   2   3
ENDBRANCH   1   2
BRANCH   1  12
ATOM     12  C   UNL     1    -116.682  34.310 -10.852  1.00  0.00     0.000 C 
BRANCH  12  13
ATOM     13  C   UNL     1    -116.818  35.699 -11.493  1.00  0.00    -0.000 C 
BRANCH  13  14
ATOM     14  C   UNL     1    -116.569  35.687 -13.012  1.00  0.00    -0.000 C 
BRANCH  14  15
ATOM     15  C   UNL     1    -115.124  36.002 -13.438  1.00  0.00    -0.000 C 
BRANCH  15  16
ATOM     16  C   UNL     1    -114.524  34.930 -14.360  1.00  0.00    -0.000 C 
BRANCH  16  17
ATOM     17  C   UNL     1    -115.628  34.116 -15.046  1.00  0.00    -0.000 C 
BRANCH  17  18
ATOM     18  C   UNL     1    -115.362  32.612 -14.919  1.00  0.00    -0.003 C 
ATOM     19  C   UNL     1    -114.978  32.239 -13.489  1.00  0.00     0.004 C 
ENDBRANCH  17  18
ENDBRANCH  16  17
ENDBRANCH  15  16
ENDBRANCH  14  15
ENDBRANCH  13  14
ENDBRANCH  12  13
ENDBRANCH   1  12
TORSDOF 14
ENDMDL
