MODEL 1
REMARK VINA RESULT:    -5.815      0.000      0.000
REMARK INTER + INTRA:          -6.547
REMARK INTER:                  -6.495
REMARK INTRA:                  -0.052
REMARK UNBOUND:                -0.052
REMARK SMILES COc1cc2ccc(=O)oc2c(O)c1O
REMARK SMILES IDX 3 1 14 2 12 3 11 4 5 5 4 6 6 7 7 8 8 9 9 10 10 11 2 12 1 13
REMARK SMILES IDX 15 14 13 16
REMARK H PARENT 15 15 13 17
REMARK Flexibility Score: inf
ROOT
ATOM      1  C   UNL     1      -2.895  93.722  45.072  1.00  0.00     0.165 A 
ATOM      2  C   UNL     1      -1.957  93.393  46.063  1.00  0.00     0.204 A 
ATOM      3  C   UNL     1      -1.175  94.395  46.667  1.00  0.00     0.205 A 
ATOM      4  C   UNL     1      -1.335  95.735  46.276  1.00  0.00     0.184 A 
ATOM      5  C   UNL     1      -2.277  96.068  45.280  1.00  0.00     0.025 A 
ATOM      6  C   UNL     1      -3.052  95.065  44.683  1.00  0.00     0.062 A 
ATOM      7  C   UNL     1      -2.414  97.411  44.911  1.00  0.00     0.020 A 
ATOM      8  C   UNL     1      -1.624  98.376  45.531  1.00  0.00     0.094 A 
ATOM      9  C   UNL     1      -0.711  97.975  46.510  1.00  0.00     0.336 A 
ATOM     10  O   UNL     1       0.014  98.831  47.083  1.00  0.00    -0.246 OA
ATOM     11  O   UNL     1      -0.600  96.691  46.842  1.00  0.00    -0.419 OA
ENDROOT
BRANCH   1  12
ATOM     12  O   UNL     1      -3.650  92.686  44.499  1.00  0.00    -0.493 OA
ATOM     13  C   UNL     1      -4.290  92.761  43.229  1.00  0.00     0.278 C 
ENDBRANCH   1  12
BRANCH   2  14
ATOM     14  O   UNL     1      -1.813  92.056  46.437  1.00  0.00    -0.502 OA
ATOM     15  H   UNL     1      -2.453  91.335  46.126  1.00  0.00     0.293 HD
ENDBRANCH   2  14
BRANCH   3  16
ATOM     16  O   UNL     1      -0.249  94.047  47.650  1.00  0.00    -0.502 OA
ATOM     17  H   UNL     1       0.714  94.362  47.622  1.00  0.00     0.293 HD
ENDBRANCH   3  16
TORSDOF 3
ENDMDL
MODEL 2
REMARK VINA RESULT:    -5.806      1.641      3.087
REMARK INTER + INTRA:          -6.537
REMARK INTER:                  -6.486
REMARK INTRA:                  -0.051
REMARK UNBOUND:                -0.052
REMARK SMILES COc1cc2ccc(=O)oc2c(O)c1O
REMARK SMILES IDX 3 1 14 2 12 3 11 4 5 5 4 6 6 7 7 8 8 9 9 10 10 11 2 12 1 13
REMARK SMILES IDX 15 14 13 16
REMARK H PARENT 15 15 13 17
REMARK Flexibility Score: inf
ROOT
ATOM      1  C   UNL     1      -1.430  93.386  46.529  1.00  0.00     0.165 A 
ATOM      2  C   UNL     1      -2.502  93.433  45.623  1.00  0.00     0.204 A 
ATOM      3  C   UNL     1      -2.838  94.637  44.977  1.00  0.00     0.205 A 
ATOM      4  C   UNL     1      -2.095  95.800  45.239  1.00  0.00     0.184 A 
ATOM      5  C   UNL     1      -1.018  95.755  46.149  1.00  0.00     0.025 A 
ATOM      6  C   UNL     1      -0.689  94.554  46.789  1.00  0.00     0.062 A 
ATOM      7  C   UNL     1      -0.296  96.930  46.390  1.00  0.00     0.020 A 
ATOM      8  C   UNL     1      -0.658  98.103  45.731  1.00  0.00     0.094 A 
ATOM      9  C   UNL     1      -1.736  98.076  44.843  1.00  0.00     0.336 A 
ATOM     10  O   UNL     1      -2.079  99.125  44.238  1.00  0.00    -0.246 OA
ATOM     11  O   UNL     1      -2.405  96.945  44.632  1.00  0.00    -0.419 OA
ENDROOT
BRANCH   1  12
ATOM     12  O   UNL     1      -1.135  92.161  47.148  1.00  0.00    -0.493 OA
ATOM     13  C   UNL     1      -0.244  92.008  48.249  1.00  0.00     0.278 C 
ENDBRANCH   1  12
BRANCH   2  14
ATOM     14  O   UNL     1      -3.228  92.267  45.377  1.00  0.00    -0.502 OA
ATOM     15  H   UNL     1      -2.918  91.568  44.713  1.00  0.00     0.293 HD
ENDBRANCH   2  14
BRANCH   3  16
ATOM     16  O   UNL     1      -3.907  94.662  44.081  1.00  0.00    -0.502 OA
ATOM     17  H   UNL     1      -4.641  95.359  44.134  1.00  0.00     0.293 HD
ENDBRANCH   3  16
TORSDOF 3
ENDMDL
MODEL 3
REMARK VINA RESULT:    -5.683      1.961      3.244
REMARK INTER + INTRA:          -6.400
REMARK INTER:                  -6.347
REMARK INTRA:                  -0.053
REMARK UNBOUND:                -0.052
REMARK SMILES COc1cc2ccc(=O)oc2c(O)c1O
REMARK SMILES IDX 3 1 14 2 12 3 11 4 5 5 4 6 6 7 7 8 8 9 9 10 10 11 2 12 1 13
REMARK SMILES IDX 15 14 13 16
REMARK H PARENT 15 15 13 17
REMARK Flexibility Score: inf
ROOT
ATOM      1  C   UNL     1      -4.470  92.746  44.876  1.00  0.00     0.165 A 
ATOM      2  C   UNL     1      -5.246  93.917  44.869  1.00  0.00     0.204 A 
ATOM      3  C   UNL     1      -4.677  95.151  45.236  1.00  0.00     0.205 A 
ATOM      4  C   UNL     1      -3.325  95.213  45.612  1.00  0.00     0.184 A 
ATOM      5  C   UNL     1      -2.545  94.037  45.620  1.00  0.00     0.025 A 
ATOM      6  C   UNL     1      -3.116  92.812  45.253  1.00  0.00     0.062 A 
ATOM      7  C   UNL     1      -1.201  94.129  45.999  1.00  0.00     0.020 A 
ATOM      8  C   UNL     1      -0.673  95.368  46.355  1.00  0.00     0.094 A 
ATOM      9  C   UNL     1      -1.503  96.492  46.325  1.00  0.00     0.336 A 
ATOM     10  O   UNL     1      -1.046  97.620  46.644  1.00  0.00    -0.246 OA
ATOM     11  O   UNL     1      -2.778  96.376  45.961  1.00  0.00    -0.419 OA
ENDROOT
BRANCH   1  12
ATOM     12  O   UNL     1      -5.083  91.540  44.502  1.00  0.00    -0.493 OA
ATOM     13  C   UNL     1      -4.393  90.419  43.957  1.00  0.00     0.278 C 
ENDBRANCH   1  12
BRANCH   2  14
ATOM     14  O   UNL     1      -6.587  93.835  44.494  1.00  0.00    -0.502 OA
ATOM     15  H   UNL     1      -7.015  92.963  44.206  1.00  0.00     0.293 HD
ENDBRANCH   2  14
BRANCH   3  16
ATOM     16  O   UNL     1      -5.465  96.302  45.222  1.00  0.00    -0.502 OA
ATOM     17  H   UNL     1      -5.404  96.990  44.480  1.00  0.00     0.293 HD
ENDBRANCH   3  16
TORSDOF 3
ENDMDL
MODEL 4
REMARK VINA RESULT:    -5.503      1.155      4.798
REMARK INTER + INTRA:          -6.198
REMARK INTER:                  -6.140
REMARK INTRA:                  -0.058
REMARK UNBOUND:                -0.052
REMARK SMILES COc1cc2ccc(=O)oc2c(O)c1O
REMARK SMILES IDX 3 1 14 2 12 3 11 4 5 5 4 6 6 7 7 8 8 9 9 10 10 11 2 12 1 13
REMARK SMILES IDX 15 14 13 16
REMARK H PARENT 15 15 13 17
REMARK Flexibility Score: inf
ROOT
ATOM      1  C   UNL     1      -1.438  96.341  45.339  1.00  0.00     0.165 A 
ATOM      2  C   UNL     1      -0.943  95.457  46.312  1.00  0.00     0.204 A 
ATOM      3  C   UNL     1      -1.437  94.141  46.397  1.00  0.00     0.205 A 
ATOM      4  C   UNL     1      -2.429  93.709  45.503  1.00  0.00     0.184 A 
ATOM      5  C   UNL     1      -2.928  94.597  44.525  1.00  0.00     0.025 A 
ATOM      6  C   UNL     1      -2.433  95.904  44.445  1.00  0.00     0.062 A 
ATOM      7  C   UNL     1      -3.917  94.138  43.648  1.00  0.00     0.020 A 
ATOM      8  C   UNL     1      -4.380  92.829  43.762  1.00  0.00     0.094 A 
ATOM      9  C   UNL     1      -3.843  92.005  44.754  1.00  0.00     0.336 A 
ATOM     10  O   UNL     1      -4.248  90.819  44.875  1.00  0.00    -0.246 OA
ATOM     11  O   UNL     1      -2.902  92.466  45.575  1.00  0.00    -0.419 OA
ENDROOT
BRANCH   1  12
ATOM     12  O   UNL     1      -0.914  97.643  45.296  1.00  0.00    -0.493 OA
ATOM     13  C   UNL     1      -1.505  98.772  45.931  1.00  0.00     0.278 C 
ENDBRANCH   1  12
BRANCH   2  14
ATOM     14  O   UNL     1       0.043  95.906  47.192  1.00  0.00    -0.502 OA
ATOM     15  H   UNL     1       0.938  95.440  47.284  1.00  0.00     0.293 HD
ENDBRANCH   2  14
BRANCH   3  16
ATOM     16  O   UNL     1      -0.932  93.279  47.371  1.00  0.00    -0.502 OA
ATOM     17  H   UNL     1      -0.862  93.547  48.346  1.00  0.00     0.293 HD
ENDBRANCH   3  16
TORSDOF 3
ENDMDL
MODEL 5
REMARK VINA RESULT:    -5.446      1.256      1.774
REMARK INTER + INTRA:          -6.135
REMARK INTER:                  -6.075
REMARK INTRA:                  -0.060
REMARK UNBOUND:                -0.052
REMARK SMILES COc1cc2ccc(=O)oc2c(O)c1O
REMARK SMILES IDX 3 1 14 2 12 3 11 4 5 5 4 6 6 7 7 8 8 9 9 10 10 11 2 12 1 13
REMARK SMILES IDX 15 14 13 16
REMARK H PARENT 15 15 13 17
REMARK Flexibility Score: inf
ROOT
ATOM      1  C   UNL     1      -4.004  93.083  44.215  1.00  0.00     0.165 A 
ATOM      2  C   UNL     1      -3.324  92.379  45.222  1.00  0.00     0.204 A 
ATOM      3  C   UNL     1      -2.337  93.016  45.996  1.00  0.00     0.205 A 
ATOM      4  C   UNL     1      -2.029  94.366  45.761  1.00  0.00     0.184 A 
ATOM      5  C   UNL     1      -2.711  95.076  44.749  1.00  0.00     0.025 A 
ATOM      6  C   UNL     1      -3.692  94.436  43.982  1.00  0.00     0.062 A 
ATOM      7  C   UNL     1      -2.383  96.420  44.538  1.00  0.00     0.020 A 
ATOM      8  C   UNL     1      -1.401  97.018  45.325  1.00  0.00     0.094 A 
ATOM      9  C   UNL     1      -0.766  96.255  46.309  1.00  0.00     0.336 A 
ATOM     10  O   UNL     1       0.125  96.776  47.031  1.00  0.00    -0.246 OA
ATOM     11  O   UNL     1      -1.097  94.979  46.489  1.00  0.00    -0.419 OA
ENDROOT
BRANCH   1  12
ATOM     12  O   UNL     1      -4.979  92.403  43.469  1.00  0.00    -0.493 OA
ATOM     13  C   UNL     1      -6.376  92.434  43.750  1.00  0.00     0.278 C 
ENDBRANCH   1  12
BRANCH   2  14
ATOM     14  O   UNL     1      -3.644  91.038  45.439  1.00  0.00    -0.502 OA
ATOM     15  H   UNL     1      -2.950  90.301  45.386  1.00  0.00     0.293 HD
ENDBRANCH   2  14
BRANCH   3  16
ATOM     16  O   UNL     1      -1.674  92.299  46.992  1.00  0.00    -0.502 OA
ATOM     17  H   UNL     1      -0.941  92.710  47.558  1.00  0.00     0.293 HD
ENDBRANCH   3  16
TORSDOF 3
ENDMDL
MODEL 6
REMARK VINA RESULT:    -5.385      2.137      3.890
REMARK INTER + INTRA:          -6.066
REMARK INTER:                  -6.015
REMARK INTRA:                  -0.051
REMARK UNBOUND:                -0.052
REMARK SMILES COc1cc2ccc(=O)oc2c(O)c1O
REMARK SMILES IDX 3 1 14 2 12 3 11 4 5 5 4 6 6 7 7 8 8 9 9 10 10 11 2 12 1 13
REMARK SMILES IDX 15 14 13 16
REMARK H PARENT 15 15 13 17
REMARK Flexibility Score: inf
ROOT
ATOM      1  C   UNL     1      -5.708  94.681  43.916  1.00  0.00     0.165 A 
ATOM      2  C   UNL     1      -5.299  93.346  43.760  1.00  0.00     0.204 A 
ATOM      3  C   UNL     1      -4.080  92.906  44.307  1.00  0.00     0.205 A 
ATOM      4  C   UNL     1      -3.266  93.806  45.014  1.00  0.00     0.184 A 
ATOM      5  C   UNL     1      -3.675  95.148  45.170  1.00  0.00     0.025 A 
ATOM      6  C   UNL     1      -4.890  95.580  44.624  1.00  0.00     0.062 A 
ATOM      7  C   UNL     1      -2.843  96.022  45.879  1.00  0.00     0.020 A 
ATOM      8  C   UNL     1      -1.643  95.550  46.406  1.00  0.00     0.094 A 
ATOM      9  C   UNL     1      -1.300  94.209  46.213  1.00  0.00     0.336 A 
ATOM     10  O   UNL     1      -0.220  93.762  46.681  1.00  0.00    -0.246 OA
ATOM     11  O   UNL     1      -2.110  93.399  45.535  1.00  0.00    -0.419 OA
ENDROOT
BRANCH   1  12
ATOM     12  O   UNL     1      -6.933  95.071  43.352  1.00  0.00    -0.493 OA
ATOM     13  C   UNL     1      -7.452  96.397  43.389  1.00  0.00     0.278 C 
ENDBRANCH   1  12
BRANCH   2  14
ATOM     14  O   UNL     1      -6.122  92.467  43.055  1.00  0.00    -0.502 OA
ATOM     15  H   UNL     1      -5.824  91.532  42.804  1.00  0.00     0.293 HD
ENDBRANCH   2  14
BRANCH   3  16
ATOM     16  O   UNL     1      -3.692  91.576  44.142  1.00  0.00    -0.502 OA
ATOM     17  H   UNL     1      -3.664  90.921  44.915  1.00  0.00     0.293 HD
ENDBRANCH   3  16
TORSDOF 3
ENDMDL
MODEL 7
REMARK VINA RESULT:    -5.309      1.968      4.528
REMARK INTER + INTRA:          -5.982
REMARK INTER:                  -5.928
REMARK INTRA:                  -0.054
REMARK UNBOUND:                -0.052
REMARK SMILES COc1cc2ccc(=O)oc2c(O)c1O
REMARK SMILES IDX 3 1 14 2 12 3 11 4 5 5 4 6 6 7 7 8 8 9 9 10 10 11 2 12 1 13
REMARK SMILES IDX 15 14 13 16
REMARK H PARENT 15 15 13 17
REMARK Flexibility Score: inf
ROOT
ATOM      1  C   UNL     1      -1.107  94.237  46.311  1.00  0.00     0.165 A 
ATOM      2  C   UNL     1      -1.237  95.635  46.316  1.00  0.00     0.204 A 
ATOM      3  C   UNL     1      -2.392  96.246  45.790  1.00  0.00     0.205 A 
ATOM      4  C   UNL     1      -3.420  95.452  45.257  1.00  0.00     0.184 A 
ATOM      5  C   UNL     1      -3.290  94.046  45.250  1.00  0.00     0.025 A 
ATOM      6  C   UNL     1      -2.139  93.445  45.775  1.00  0.00     0.062 A 
ATOM      7  C   UNL     1      -4.331  93.281  44.712  1.00  0.00     0.020 A 
ATOM      8  C   UNL     1      -5.458  93.921  44.201  1.00  0.00     0.094 A 
ATOM      9  C   UNL     1      -5.520  95.316  44.239  1.00  0.00     0.336 A 
ATOM     10  O   UNL     1      -6.529  95.914  43.782  1.00  0.00    -0.246 OA
ATOM     11  O   UNL     1      -4.516  96.020  44.757  1.00  0.00    -0.419 OA
ENDROOT
BRANCH   1  12
ATOM     12  O   UNL     1       0.063  93.676  46.847  1.00  0.00    -0.493 OA
ATOM     13  C   UNL     1       0.125  92.412  47.501  1.00  0.00     0.278 C 
ENDBRANCH   1  12
BRANCH   2  14
ATOM     14  O   UNL     1      -0.205  96.406  46.850  1.00  0.00    -0.502 OA
ATOM     15  H   UNL     1       0.123  97.255  46.403  1.00  0.00     0.293 HD
ENDBRANCH   2  14
BRANCH   3  16
ATOM     16  O   UNL     1      -2.501  97.636  45.805  1.00  0.00    -0.502 OA
ATOM     17  H   UNL     1      -2.392  98.178  46.655  1.00  0.00     0.293 HD
ENDBRANCH   3  16
TORSDOF 3
ENDMDL
MODEL 8
REMARK VINA RESULT:    -5.263     17.358     19.567
REMARK INTER + INTRA:          -5.931
REMARK INTER:                  -5.867
REMARK INTRA:                  -0.064
REMARK UNBOUND:                -0.052
REMARK SMILES COc1cc2ccc(=O)oc2c(O)c1O
REMARK SMILES IDX 3 1 14 2 12 3 11 4 5 5 4 6 6 7 7 8 8 9 9 10 10 11 2 12 1 13
REMARK SMILES IDX 15 14 13 16
REMARK H PARENT 15 15 13 17
REMARK Flexibility Score: inf
ROOT
ATOM      1  C   UNL     1     -15.570  85.945  40.031  1.00  0.00     0.165 A 
ATOM      2  C   UNL     1     -15.704  86.454  38.729  1.00  0.00     0.204 A 
ATOM      3  C   UNL     1     -15.710  85.585  37.621  1.00  0.00     0.205 A 
ATOM      4  C   UNL     1     -15.582  84.201  37.819  1.00  0.00     0.184 A 
ATOM      5  C   UNL     1     -15.447  83.688  39.127  1.00  0.00     0.025 A 
ATOM      6  C   UNL     1     -15.441  84.557  40.225  1.00  0.00     0.062 A 
ATOM      7  C   UNL     1     -15.321  82.304  39.293  1.00  0.00     0.020 A 
ATOM      8  C   UNL     1     -15.332  81.476  38.173  1.00  0.00     0.094 A 
ATOM      9  C   UNL     1     -15.470  82.051  36.907  1.00  0.00     0.336 A 
ATOM     10  O   UNL     1     -15.482  81.321  35.882  1.00  0.00    -0.246 OA
ATOM     11  O   UNL     1     -15.588  83.371  36.777  1.00  0.00    -0.419 OA
ENDROOT
BRANCH   1  12
ATOM     12  O   UNL     1     -15.568  86.852  41.102  1.00  0.00    -0.493 OA
ATOM     13  C   UNL     1     -16.708  87.159  41.901  1.00  0.00     0.278 C 
ENDBRANCH   1  12
BRANCH   2  14
ATOM     14  O   UNL     1     -15.829  87.832  38.553  1.00  0.00    -0.502 OA
ATOM     15  H   UNL     1     -16.453  88.395  39.119  1.00  0.00     0.293 HD
ENDBRANCH   2  14
BRANCH   3  16
ATOM     16  O   UNL     1     -15.845  86.111  36.336  1.00  0.00    -0.502 OA
ATOM     17  H   UNL     1     -15.722  87.097  36.140  1.00  0.00     0.293 HD
ENDBRANCH   3  16
TORSDOF 3
ENDMDL
MODEL 9
REMARK VINA RESULT:    -4.500      1.364      5.045
REMARK INTER + INTRA:          -5.079
REMARK INTER:                  -5.026
REMARK INTRA:                  -0.052
REMARK UNBOUND:                -0.052
REMARK SMILES COc1cc2ccc(=O)oc2c(O)c1O
REMARK SMILES IDX 3 1 14 2 12 3 11 4 5 5 4 6 6 7 7 8 8 9 9 10 10 11 2 12 1 13
REMARK SMILES IDX 15 14 13 16
REMARK H PARENT 15 15 13 17
REMARK Flexibility Score: inf
ROOT
ATOM      1  C   UNL     1      -1.106  94.955  46.479  1.00  0.00     0.165 A 
ATOM      2  C   UNL     1      -0.834  93.827  47.270  1.00  0.00     0.204 A 
ATOM      3  C   UNL     1      -1.518  92.617  47.048  1.00  0.00     0.205 A 
ATOM      4  C   UNL     1      -2.480  92.537  46.028  1.00  0.00     0.184 A 
ATOM      5  C   UNL     1      -2.755  93.670  45.232  1.00  0.00     0.025 A 
ATOM      6  C   UNL     1      -2.070  94.870  45.458  1.00  0.00     0.062 A 
ATOM      7  C   UNL     1      -3.719  93.560  44.223  1.00  0.00     0.020 A 
ATOM      8  C   UNL     1      -4.375  92.345  44.032  1.00  0.00     0.094 A 
ATOM      9  C   UNL     1      -4.053  91.265  44.857  1.00  0.00     0.336 A 
ATOM     10  O   UNL     1      -4.635  90.159  44.702  1.00  0.00    -0.246 OA
ATOM     11  O   UNL     1      -3.133  91.397  45.810  1.00  0.00    -0.419 OA
ENDROOT
BRANCH   1  12
ATOM     12  O   UNL     1      -0.397  96.138  46.740  1.00  0.00    -0.493 OA
ATOM     13  C   UNL     1      -0.856  97.444  46.405  1.00  0.00     0.278 C 
ENDBRANCH   1  12
BRANCH   2  14
ATOM     14  O   UNL     1       0.125  93.927  48.279  1.00  0.00    -0.502 OA
ATOM     15  H   UNL     1       0.645  94.780  48.448  1.00  0.00     0.293 HD
ENDBRANCH   2  14
BRANCH   3  16
ATOM     16  O   UNL     1      -1.232  91.509  47.845  1.00  0.00    -0.502 OA
ATOM     17  H   UNL     1      -1.792  91.266  48.655  1.00  0.00     0.293 HD
ENDBRANCH   3  16
TORSDOF 3
ENDMDL
