MODEL 1
REMARK VINA RESULT:    37.422      0.000      0.000
REMARK INTER + INTRA:          46.264
REMARK INTER:                  45.079
REMARK INTRA:                   1.186
REMARK UNBOUND:                 1.186
REMARK SMILES O=c1ccn([C@@H]2O[C@H](CO)[C@@H](O)[C@@H]2O)c(=O)[nH]1
REMARK SMILES IDX 6 1 13 2 11 3 8 4 7 5 5 6 3 7 4 8 2 9 17 10 1 11 15 12 16 14
REMARK SMILES IDX 14 15 12 17 9 19 10 20
REMARK H PARENT 17 13 14 16 12 18 10 21
REMARK Flexibility Score: inf
ROOT
ATOM      1  C   UNL     1     -18.716  -9.320  -0.346  1.00  0.00     0.255 C 
ATOM      2  C   UNL     1     -18.572  -9.100  -1.848  1.00  0.00     0.196 C 
ATOM      3  C   UNL     1     -17.605  -7.942  -1.905  1.00  0.00     0.179 C 
ATOM      4  C   UNL     1     -17.845  -7.222  -0.571  1.00  0.00     0.178 C 
ATOM      5  O   UNL     1     -18.521  -8.089   0.316  1.00  0.00    -0.347 OA
ENDROOT
BRANCH   1   6
ATOM      6  N   UNL     1     -20.026  -9.914  -0.000  1.00  0.00    -0.271 N 
ATOM      7  C   UNL     1     -22.219 -10.639  -0.655  1.00  0.00     0.090 A 
ATOM      8  C   UNL     1     -20.991 -10.057  -0.961  1.00  0.00     0.099 A 
ATOM      9  C   UNL     1     -22.439 -11.085   0.645  1.00  0.00     0.253 A 
ATOM     10  N   UNL     1     -21.462 -10.952   1.578  1.00  0.00    -0.274 N 
ATOM     11  O   UNL     1     -23.540 -11.615   0.950  1.00  0.00    -0.269 OA
ATOM     12  C   UNL     1     -20.264 -10.383   1.269  1.00  0.00     0.330 A 
ATOM     13  H   UNL     1     -21.631 -11.299   2.551  1.00  0.00     0.175 HD
ATOM     14  O   UNL     1     -19.376 -10.297   2.162  1.00  0.00    -0.248 OA
ENDBRANCH   1   6
BRANCH   2  15
ATOM     15  O   UNL     1     -19.802  -8.733  -2.420  1.00  0.00    -0.386 OA
ATOM     16  H   UNL     1     -19.590  -8.146  -3.192  1.00  0.00     0.211 HD
ENDBRANCH   2  15
BRANCH   3  17
ATOM     17  O   UNL     1     -16.283  -8.417  -1.952  1.00  0.00    -0.387 OA
ATOM     18  H   UNL     1     -16.195  -9.085  -1.223  1.00  0.00     0.211 HD
ENDBRANCH   3  17
BRANCH   4  19
ATOM     19  C   UNL     1     -18.679  -5.945  -0.760  1.00  0.00     0.191 C 
BRANCH  19  20
ATOM     20  O   UNL     1     -19.387  -5.644   0.412  1.00  0.00    -0.394 OA
ATOM     21  H   UNL     1     -20.123  -5.032   0.150  1.00  0.00     0.210 HD
ENDBRANCH  19  20
ENDBRANCH   4  19
TORSDOF 5
ENDMDL
MODEL 2
REMARK VINA RESULT:    38.866      8.506     10.137
REMARK INTER + INTRA:          48.005
REMARK INTER:                  46.802
REMARK INTRA:                   1.203
REMARK UNBOUND:                 1.186
REMARK SMILES O=c1ccn([C@@H]2O[C@H](CO)[C@@H](O)[C@@H]2O)c(=O)[nH]1
REMARK SMILES IDX 6 1 13 2 11 3 8 4 7 5 5 6 3 7 4 8 2 9 17 10 1 11 15 12 16 14
REMARK SMILES IDX 14 15 12 17 9 19 10 20
REMARK H PARENT 17 13 14 16 12 18 10 21
REMARK Flexibility Score: inf
ROOT
ATOM      1  C   UNL     1     -23.794 -16.253  -5.898  1.00  0.00     0.255 C 
ATOM      2  C   UNL     1     -22.584 -16.477  -6.797  1.00  0.00     0.196 C 
ATOM      3  C   UNL     1     -21.441 -16.380  -5.815  1.00  0.00     0.179 C 
ATOM      4  C   UNL     1     -22.005 -15.475  -4.712  1.00  0.00     0.178 C 
ATOM      5  O   UNL     1     -23.414 -15.428  -4.817  1.00  0.00    -0.347 OA
ENDROOT
BRANCH   1   6
ATOM      6  N   UNL     1     -24.932 -15.669  -6.643  1.00  0.00    -0.271 N 
ATOM      7  C   UNL     1     -25.976 -15.087  -8.725  1.00  0.00     0.090 A 
ATOM      8  C   UNL     1     -24.900 -15.609  -8.011  1.00  0.00     0.099 A 
ATOM      9  C   UNL     1     -27.089 -14.641  -8.020  1.00  0.00     0.253 A 
ATOM     10  N   UNL     1     -27.110 -14.727  -6.665  1.00  0.00    -0.274 N 
ATOM     11  O   UNL     1     -28.077 -14.163  -8.640  1.00  0.00    -0.269 OA
ATOM     12  C   UNL     1     -26.054 -15.241  -5.975  1.00  0.00     0.330 A 
ATOM     13  H   UNL     1     -27.955 -14.399  -6.144  1.00  0.00     0.175 HD
ATOM     14  O   UNL     1     -26.122 -15.320  -4.718  1.00  0.00    -0.248 OA
ENDBRANCH   1   6
BRANCH   2  15
ATOM     15  O   UNL     1     -22.482 -15.461  -7.762  1.00  0.00    -0.386 OA
ATOM     16  H   UNL     1     -23.409 -15.244  -8.044  1.00  0.00     0.211 HD
ENDBRANCH   2  15
BRANCH   3  17
ATOM     17  O   UNL     1     -21.152 -17.647  -5.283  1.00  0.00    -0.387 OA
ATOM     18  H   UNL     1     -22.022 -18.106  -5.150  1.00  0.00     0.211 HD
ENDBRANCH   3  17
BRANCH   4  19
ATOM     19  C   UNL     1     -21.446 -14.048  -4.810  1.00  0.00     0.191 C 
BRANCH  19  20
ATOM     20  O   UNL     1     -21.997 -13.235  -3.809  1.00  0.00    -0.394 OA
ATOM     21  H   UNL     1     -21.320 -13.178  -3.085  1.00  0.00     0.210 HD
ENDBRANCH  19  20
ENDBRANCH   4  19
TORSDOF 5
ENDMDL
MODEL 3
REMARK VINA RESULT:    39.059      1.806      5.214
REMARK INTER + INTRA:          48.237
REMARK INTER:                  45.294
REMARK INTRA:                   2.943
REMARK UNBOUND:                 1.186
REMARK SMILES O=c1ccn([C@@H]2O[C@H](CO)[C@@H](O)[C@@H]2O)c(=O)[nH]1
REMARK SMILES IDX 6 1 13 2 11 3 8 4 7 5 5 6 3 7 4 8 2 9 17 10 1 11 15 12 16 14
REMARK SMILES IDX 14 15 12 17 9 19 10 20
REMARK H PARENT 17 13 14 16 12 18 10 21
REMARK Flexibility Score: inf
ROOT
ATOM      1  C   UNL     1     -21.227 -10.817  -0.202  1.00  0.00     0.255 C 
ATOM      2  C   UNL     1     -21.331 -10.929   1.314  1.00  0.00     0.196 C 
ATOM      3  C   UNL     1     -22.807 -11.184   1.510  1.00  0.00     0.179 C 
ATOM      4  C   UNL     1     -23.440 -10.528   0.277  1.00  0.00     0.178 C 
ATOM      5  O   UNL     1     -22.448 -10.323  -0.708  1.00  0.00    -0.347 OA
ENDROOT
BRANCH   1   6
ATOM      6  N   UNL     1     -20.091  -9.963  -0.614  1.00  0.00    -0.271 N 
ATOM      7  C   UNL     1     -19.030  -8.557  -2.244  1.00  0.00     0.090 A 
ATOM      8  C   UNL     1     -20.080  -9.384  -1.855  1.00  0.00     0.099 A 
ATOM      9  C   UNL     1     -17.999  -8.318  -1.341  1.00  0.00     0.253 A 
ATOM     10  N   UNL     1     -18.038  -8.885  -0.108  1.00  0.00    -0.274 N 
ATOM     11  O   UNL     1     -17.036  -7.574  -1.667  1.00  0.00    -0.269 OA
ATOM     12  C   UNL     1     -19.070  -9.692   0.265  1.00  0.00     0.330 A 
ATOM     13  H   UNL     1     -17.264  -8.693   0.569  1.00  0.00     0.175 HD
ATOM     14  O   UNL     1     -19.077 -10.183   1.428  1.00  0.00    -0.248 OA
ENDBRANCH   1   6
BRANCH   2  15
ATOM     15  O   UNL     1     -20.962  -9.721   1.932  1.00  0.00    -0.386 OA
ATOM     16  H   UNL     1     -20.624  -9.128   1.213  1.00  0.00     0.211 HD
ENDBRANCH   2  15
BRANCH   3  17
ATOM     17  O   UNL     1     -23.064 -12.566   1.493  1.00  0.00    -0.387 OA
ATOM     18  H   UNL     1     -24.051 -12.672   1.510  1.00  0.00     0.211 HD
ENDBRANCH   3  17
BRANCH   4  19
ATOM     19  C   UNL     1     -24.090  -9.180   0.625  1.00  0.00     0.191 C 
BRANCH  19  20
ATOM     20  O   UNL     1     -25.018  -8.814  -0.361  1.00  0.00    -0.394 OA
ATOM     21  H   UNL     1     -25.911  -9.090  -0.027  1.00  0.00     0.210 HD
ENDBRANCH  19  20
ENDBRANCH   4  19
TORSDOF 5
ENDMDL
MODEL 4
REMARK VINA RESULT:    40.023      1.547      2.259
REMARK INTER + INTRA:          49.398
REMARK INTER:                  48.468
REMARK INTRA:                   0.930
REMARK UNBOUND:                 1.186
REMARK SMILES O=c1ccn([C@@H]2O[C@H](CO)[C@@H](O)[C@@H]2O)c(=O)[nH]1
REMARK SMILES IDX 6 1 13 2 11 3 8 4 7 5 5 6 3 7 4 8 2 9 17 10 1 11 15 12 16 14
REMARK SMILES IDX 14 15 12 17 9 19 10 20
REMARK H PARENT 17 13 14 16 12 18 10 21
REMARK Flexibility Score: inf
ROOT
ATOM      1  C   UNL     1     -18.368  -8.800  -0.064  1.00  0.00     0.255 C 
ATOM      2  C   UNL     1     -17.416  -9.491  -1.033  1.00  0.00     0.196 C 
ATOM      3  C   UNL     1     -16.744  -8.318  -1.706  1.00  0.00     0.179 C 
ATOM      4  C   UNL     1     -17.795  -7.205  -1.595  1.00  0.00     0.178 C 
ATOM      5  O   UNL     1     -18.744  -7.552  -0.607  1.00  0.00    -0.347 OA
ENDROOT
BRANCH   1   6
ATOM      6  N   UNL     1     -19.553  -9.634   0.232  1.00  0.00    -0.271 N 
ATOM      7  C   UNL     1     -20.880 -10.881   1.796  1.00  0.00     0.090 A 
ATOM      8  C   UNL     1     -19.755 -10.118   1.498  1.00  0.00     0.099 A 
ATOM      9  C   UNL     1     -21.803 -11.131   0.786  1.00  0.00     0.253 A 
ATOM     10  N   UNL     1     -21.596 -10.626  -0.457  1.00  0.00    -0.274 N 
ATOM     11  O   UNL     1     -22.830 -11.820   1.027  1.00  0.00    -0.269 OA
ATOM     12  C   UNL     1     -20.493  -9.879  -0.740  1.00  0.00     0.330 A 
ATOM     13  H   UNL     1     -22.299 -10.810  -1.209  1.00  0.00     0.175 HD
ATOM     14  O   UNL     1     -20.349  -9.413  -1.904  1.00  0.00    -0.248 OA
ENDBRANCH   1   6
BRANCH   2  15
ATOM     15  O   UNL     1     -18.128 -10.250  -1.979  1.00  0.00    -0.386 OA
ATOM     16  H   UNL     1     -17.772 -11.175  -1.924  1.00  0.00     0.211 HD
ENDBRANCH   2  15
BRANCH   3  17
ATOM     17  O   UNL     1     -15.590  -7.950  -0.995  1.00  0.00    -0.387 OA
ATOM     18  H   UNL     1     -15.066  -8.780  -0.853  1.00  0.00     0.211 HD
ENDBRANCH   3  17
BRANCH   4  19
ATOM     19  C   UNL     1     -18.518  -6.975  -2.930  1.00  0.00     0.191 C 
BRANCH  19  20
ATOM     20  O   UNL     1     -18.333  -8.072  -3.783  1.00  0.00    -0.394 OA
ATOM     21  H   UNL     1     -18.377  -8.885  -3.214  1.00  0.00     0.210 HD
ENDBRANCH  19  20
ENDBRANCH   4  19
TORSDOF 5
ENDMDL
