MODEL 1
REMARK VINA RESULT:    -3.362      0.000      0.000
REMARK INTER + INTRA:          -3.981
REMARK INTER:                  -3.951
REMARK INTRA:                  -0.030
REMARK UNBOUND:                -0.030
REMARK SMILES O=C([O-])CCC(=O)[O-]
REMARK SMILES IDX 4 1 2 2 1 3 3 4 5 5 6 6 7 7 8 8
REMARK H PARENT
REMARK Flexibility Score: inf
ROOT
ATOM      1  C   UNL     1      15.924  30.982  73.979  1.00  0.00     0.059 C 
ENDROOT
BRANCH   1   2
ATOM      2  C   UNL     1      15.553  29.825  73.107  1.00  0.00     0.042 C 
ATOM      3  O   UNL     1      16.383  28.900  72.896  1.00  0.00    -0.550 OA
ATOM      4  O   UNL     1      14.311  29.788  72.487  1.00  0.00    -0.550 OA
ENDBRANCH   1   2
BRANCH   1   5
ATOM      5  C   UNL     1      17.314  31.502  73.616  1.00  0.00     0.059 C 
BRANCH   5   6
ATOM      6  C   UNL     1      17.457  32.938  74.014  1.00  0.00     0.042 C 
ATOM      7  O   UNL     1      18.061  33.244  75.076  1.00  0.00    -0.550 OA
ATOM      8  O   UNL     1      16.967  33.941  73.188  1.00  0.00    -0.550 OA
ENDBRANCH   5   6
ENDBRANCH   1   5
TORSDOF 3
ENDMDL
MODEL 2
REMARK VINA RESULT:    -3.119     18.250     18.888
REMARK INTER + INTRA:          -3.697
REMARK INTER:                  -3.647
REMARK INTRA:                  -0.049
REMARK UNBOUND:                -0.030
REMARK SMILES O=C([O-])CCC(=O)[O-]
REMARK SMILES IDX 4 1 2 2 1 3 3 4 5 5 6 6 7 7 8 8
REMARK H PARENT
REMARK Flexibility Score: inf
ROOT
ATOM      1  C   UNL     1       2.773  41.071  64.588  1.00  0.00     0.059 C 
ENDROOT
BRANCH   1   2
ATOM      2  C   UNL     1       1.524  41.042  63.764  1.00  0.00     0.042 C 
ATOM      3  O   UNL     1       0.396  41.077  64.323  1.00  0.00    -0.550 OA
ATOM      4  O   UNL     1       1.603  40.925  62.383  1.00  0.00    -0.550 OA
ENDBRANCH   1   2
BRANCH   1   5
ATOM      5  C   UNL     1       4.008  41.033  63.688  1.00  0.00     0.059 C 
BRANCH   5   6
ATOM      6  C   UNL     1       5.128  40.311  64.367  1.00  0.00     0.042 C 
ATOM      7  O   UNL     1       6.311  40.445  63.954  1.00  0.00    -0.550 OA
ATOM      8  O   UNL     1       4.876  39.529  65.487  1.00  0.00    -0.550 OA
ENDBRANCH   5   6
ENDBRANCH   1   5
TORSDOF 3
ENDMDL
MODEL 3
REMARK VINA RESULT:    -2.379     17.770     18.566
REMARK INTER + INTRA:          -2.826
REMARK INTER:                  -2.791
REMARK INTRA:                  -0.035
REMARK UNBOUND:                -0.030
REMARK SMILES O=C([O-])CCC(=O)[O-]
REMARK SMILES IDX 4 1 2 2 1 3 3 4 5 5 6 6 7 7 8 8
REMARK H PARENT
REMARK Flexibility Score: inf
ROOT
ATOM      1  C   UNL     1       4.400  40.074  64.165  1.00  0.00     0.059 C 
ENDROOT
BRANCH   1   2
ATOM      2  C   UNL     1       5.756  40.379  64.718  1.00  0.00     0.042 C 
ATOM      3  O   UNL     1       5.958  40.329  65.961  1.00  0.00    -0.550 OA
ATOM      4  O   UNL     1       6.784  40.767  63.869  1.00  0.00    -0.550 OA
ENDBRANCH   1   2
BRANCH   1   5
ATOM      5  C   UNL     1       3.383  41.113  64.637  1.00  0.00     0.059 C 
BRANCH   5   6
ATOM      6  C   UNL     1       2.190  41.125  63.734  1.00  0.00     0.042 C 
ATOM      7  O   UNL     1       2.341  41.091  62.484  1.00  0.00    -0.550 OA
ATOM      8  O   UNL     1       0.909  41.124  64.272  1.00  0.00    -0.550 OA
ENDBRANCH   5   6
ENDBRANCH   1   5
TORSDOF 3
ENDMDL
MODEL 4
REMARK VINA RESULT:    -2.363     16.440     17.036
REMARK INTER + INTRA:          -2.808
REMARK INTER:                  -2.728
REMARK INTRA:                  -0.080
REMARK UNBOUND:                -0.030
REMARK SMILES O=C([O-])CCC(=O)[O-]
REMARK SMILES IDX 4 1 2 2 1 3 3 4 5 5 6 6 7 7 8 8
REMARK H PARENT
REMARK Flexibility Score: inf
ROOT
ATOM      1  C   UNL     1       4.945  39.643  65.154  1.00  0.00     0.059 C 
ENDROOT
BRANCH   1   2
ATOM      2  C   UNL     1       3.848  40.437  65.790  1.00  0.00     0.042 C 
ATOM      3  O   UNL     1       3.865  40.662  67.029  1.00  0.00    -0.550 OA
ATOM      4  O   UNL     1       2.780  40.887  65.025  1.00  0.00    -0.550 OA
ENDBRANCH   1   2
BRANCH   1   5
ATOM      5  C   UNL     1       5.429  40.327  63.876  1.00  0.00     0.059 C 
BRANCH   5   6
ATOM      6  C   UNL     1       6.835  40.811  64.043  1.00  0.00     0.042 C 
ATOM      7  O   UNL     1       7.266  41.125  65.184  1.00  0.00    -0.550 OA
ATOM      8  O   UNL     1       7.685  40.870  62.947  1.00  0.00    -0.550 OA
ENDBRANCH   5   6
ENDBRANCH   1   5
TORSDOF 3
ENDMDL
MODEL 5
REMARK VINA RESULT:    -1.938     17.439     18.078
REMARK INTER + INTRA:          -2.308
REMARK INTER:                  -2.192
REMARK INTRA:                  -0.116
REMARK UNBOUND:                -0.030
REMARK SMILES O=C([O-])CCC(=O)[O-]
REMARK SMILES IDX 4 1 2 2 1 3 3 4 5 5 6 6 7 7 8 8
REMARK H PARENT
REMARK Flexibility Score: inf
ROOT
ATOM      1  C   UNL     1       4.453  41.097  63.673  1.00  0.00     0.059 C 
ENDROOT
BRANCH   1   2
ATOM      2  C   UNL     1       2.994  41.120  63.342  1.00  0.00     0.042 C 
ATOM      3  O   UNL     1       2.136  41.125  64.264  1.00  0.00    -0.550 OA
ATOM      4  O   UNL     1       2.580  41.085  62.017  1.00  0.00    -0.550 OA
ENDBRANCH   1   2
BRANCH   1   5
ATOM      5  C   UNL     1       4.864  39.717  64.187  1.00  0.00     0.059 C 
BRANCH   5   6
ATOM      6  C   UNL     1       5.057  39.747  65.670  1.00  0.00     0.042 C 
ATOM      7  O   UNL     1       6.125  40.201  66.161  1.00  0.00    -0.550 OA
ATOM      8  O   UNL     1       4.040  39.320  66.514  1.00  0.00    -0.550 OA
ENDBRANCH   5   6
ENDBRANCH   1   5
TORSDOF 3
ENDMDL
MODEL 6
REMARK VINA RESULT:    -1.935      2.727      4.138
REMARK INTER + INTRA:          -2.304
REMARK INTER:                  -2.225
REMARK INTRA:                  -0.079
REMARK UNBOUND:                -0.030
REMARK SMILES O=C([O-])CCC(=O)[O-]
REMARK SMILES IDX 4 1 2 2 1 3 3 4 5 5 6 6 7 7 8 8
REMARK H PARENT
REMARK Flexibility Score: inf
ROOT
ATOM      1  C   UNL     1      15.657  28.743  73.271  1.00  0.00     0.059 C 
ENDROOT
BRANCH   1   2
ATOM      2  C   UNL     1      17.066  28.957  72.816  1.00  0.00     0.042 C 
ATOM      3  O   UNL     1      17.689  28.033  72.228  1.00  0.00    -0.550 OA
ATOM      4  O   UNL     1      17.710  30.158  73.085  1.00  0.00    -0.550 OA
ENDBRANCH   1   2
BRANCH   1   5
ATOM      5  C   UNL     1      14.877  30.057  73.234  1.00  0.00     0.059 C 
BRANCH   5   6
ATOM      6  C   UNL     1      13.799  29.997  72.199  1.00  0.00     0.042 C 
ATOM      7  O   UNL     1      14.096  29.886  70.980  1.00  0.00    -0.550 OA
ATOM      8  O   UNL     1      12.464  30.014  72.582  1.00  0.00    -0.550 OA
ENDBRANCH   5   6
ENDBRANCH   1   5
TORSDOF 3
ENDMDL
MODEL 7
REMARK VINA RESULT:    -1.914      2.769      3.538
REMARK INTER + INTRA:          -2.280
REMARK INTER:                  -2.198
REMARK INTRA:                  -0.082
REMARK UNBOUND:                -0.030
REMARK SMILES O=C([O-])CCC(=O)[O-]
REMARK SMILES IDX 4 1 2 2 1 3 3 4 5 5 6 6 7 7 8 8
REMARK H PARENT
REMARK Flexibility Score: inf
ROOT
ATOM      1  C   UNL     1      14.848  30.055  73.229  1.00  0.00     0.059 C 
ENDROOT
BRANCH   1   2
ATOM      2  C   UNL     1      13.773  29.979  72.192  1.00  0.00     0.042 C 
ATOM      3  O   UNL     1      14.074  29.889  70.972  1.00  0.00    -0.550 OA
ATOM      4  O   UNL     1      12.438  30.057  72.566  1.00  0.00    -0.550 OA
ENDBRANCH   1   2
BRANCH   1   5
ATOM      5  C   UNL     1      15.638  28.747  73.278  1.00  0.00     0.059 C 
BRANCH   5   6
ATOM      6  C   UNL     1      17.041  28.965  72.809  1.00  0.00     0.042 C 
ATOM      7  O   UNL     1      17.630  30.051  73.055  1.00  0.00    -0.550 OA
ATOM      8  O   UNL     1      17.719  27.952  72.144  1.00  0.00    -0.550 OA
ENDBRANCH   5   6
ENDBRANCH   1   5
TORSDOF 3
ENDMDL
