MODEL 1
REMARK VINA RESULT:    -2.977      0.000      0.000
REMARK INTER + INTRA:          -4.343
REMARK INTER:                  -4.021
REMARK INTRA:                  -0.322
REMARK UNBOUND:                -0.322
REMARK SMILES CCCCCCCC(=O)[O-]
REMARK SMILES IDX 5 1 6 2 7 3 8 4 9 5 10 6 4 7 3 8 2 9 1 10
REMARK H PARENT
REMARK Flexibility Score: inf
ROOT
ATOM      1  C   UNL     1      35.962  20.297  15.327  1.00  0.00     0.000 C 
ENDROOT
BRANCH   1   2
ATOM      2  C   UNL     1      34.962  20.314  16.490  1.00  0.00     0.006 C 
BRANCH   2   3
ATOM      3  C   UNL     1      33.535  20.068  15.991  1.00  0.00     0.053 C 
BRANCH   3   4
ATOM      4  C   UNL     1      33.380  18.656  15.521  1.00  0.00     0.041 C 
ATOM      5  O   UNL     1      33.309  17.715  16.354  1.00  0.00    -0.550 OA
ATOM      6  O   UNL     1      33.264  18.385  14.164  1.00  0.00    -0.550 OA
ENDBRANCH   3   4
ENDBRANCH   2   3
ENDBRANCH   1   2
BRANCH   1   7
ATOM      7  C   UNL     1      35.810  21.550  14.452  1.00  0.00     0.000 C 
BRANCH   7   8
ATOM      8  C   UNL     1      36.686  22.723  14.928  1.00  0.00    -0.000 C 
BRANCH   8   9
ATOM      9  C   UNL     1      37.998  22.909  14.144  1.00  0.00    -0.003 C 
ATOM     10  C   UNL     1      39.182  22.181  14.777  1.00  0.00     0.004 C 
ENDBRANCH   8   9
ENDBRANCH   7   8
ENDBRANCH   1   7
TORSDOF 6
ENDMDL
MODEL 2
REMARK VINA RESULT:    -2.925      3.223      5.180
REMARK INTER + INTRA:          -4.273
REMARK INTER:                  -4.048
REMARK INTRA:                  -0.225
REMARK UNBOUND:                -0.322
REMARK SMILES CCCCCCCC(=O)[O-]
REMARK SMILES IDX 5 1 6 2 7 3 8 4 9 5 10 6 4 7 3 8 2 9 1 10
REMARK H PARENT
REMARK Flexibility Score: inf
ROOT
ATOM      1  C   UNL     1      37.608  22.799  13.528  1.00  0.00     0.000 C 
ENDROOT
BRANCH   1   2
ATOM      2  C   UNL     1      36.413  22.599  12.588  1.00  0.00     0.006 C 
BRANCH   2   3
ATOM      3  C   UNL     1      36.835  22.744  11.124  1.00  0.00     0.053 C 
BRANCH   3   4
ATOM      4  C   UNL     1      36.249  21.642  10.297  1.00  0.00     0.041 C 
ATOM      5  O   UNL     1      36.791  21.309   9.211  1.00  0.00    -0.550 OA
ATOM      6  O   UNL     1      35.134  20.951  10.752  1.00  0.00    -0.550 OA
ENDBRANCH   3   4
ENDBRANCH   2   3
ENDBRANCH   1   2
BRANCH   1   7
ATOM      7  C   UNL     1      37.432  21.989  14.821  1.00  0.00     0.000 C 
BRANCH   7   8
ATOM      8  C   UNL     1      35.998  21.462  15.008  1.00  0.00    -0.000 C 
BRANCH   8   9
ATOM      9  C   UNL     1      35.897  20.095  15.707  1.00  0.00    -0.003 C 
ATOM     10  C   UNL     1      34.520  19.450  15.566  1.00  0.00     0.004 C 
ENDBRANCH   8   9
ENDBRANCH   7   8
ENDBRANCH   1   7
TORSDOF 6
ENDMDL
MODEL 3
REMARK VINA RESULT:    -2.908      2.554      3.156
REMARK INTER + INTRA:          -4.250
REMARK INTER:                  -4.017
REMARK INTRA:                  -0.234
REMARK UNBOUND:                -0.322
REMARK SMILES CCCCCCCC(=O)[O-]
REMARK SMILES IDX 5 1 6 2 7 3 8 4 9 5 10 6 4 7 3 8 2 9 1 10
REMARK H PARENT
REMARK Flexibility Score: inf
ROOT
ATOM      1  C   UNL     1      35.764  21.636  13.375  1.00  0.00     0.000 C 
ENDROOT
BRANCH   1   2
ATOM      2  C   UNL     1      35.862  21.557  14.904  1.00  0.00     0.006 C 
BRANCH   2   3
ATOM      3  C   UNL     1      35.877  20.102  15.380  1.00  0.00     0.053 C 
BRANCH   3   4
ATOM      4  C   UNL     1      34.491  19.643  15.709  1.00  0.00     0.041 C 
ATOM      5  O   UNL     1      33.894  20.104  16.716  1.00  0.00    -0.550 OA
ATOM      6  O   UNL     1      33.842  18.743  14.875  1.00  0.00    -0.550 OA
ENDBRANCH   3   4
ENDBRANCH   2   3
ENDBRANCH   1   2
BRANCH   1   7
ATOM      7  C   UNL     1      36.713  22.708  12.819  1.00  0.00     0.000 C 
BRANCH   7   8
ATOM      8  C   UNL     1      36.721  22.760  11.280  1.00  0.00    -0.000 C 
BRANCH   8   9
ATOM      9  C   UNL     1      35.963  21.612  10.590  1.00  0.00    -0.003 C 
ATOM     10  C   UNL     1      36.654  21.115   9.322  1.00  0.00     0.004 C 
ENDBRANCH   8   9
ENDBRANCH   7   8
ENDBRANCH   1   7
TORSDOF 6
ENDMDL
MODEL 4
REMARK VINA RESULT:    -2.888      4.088      5.608
REMARK INTER + INTRA:          -4.223
REMARK INTER:                  -4.035
REMARK INTRA:                  -0.188
REMARK UNBOUND:                -0.322
REMARK SMILES CCCCCCCC(=O)[O-]
REMARK SMILES IDX 5 1 6 2 7 3 8 4 9 5 10 6 4 7 3 8 2 9 1 10
REMARK H PARENT
REMARK Flexibility Score: inf
ROOT
ATOM      1  C   UNL     1      33.634  19.959  12.080  1.00  0.00     0.000 C 
ENDROOT
BRANCH   1   2
ATOM      2  C   UNL     1      33.963  21.096  11.104  1.00  0.00     0.006 C 
BRANCH   2   3
ATOM      3  C   UNL     1      35.474  21.329  11.021  1.00  0.00     0.053 C 
BRANCH   3   4
ATOM      4  C   UNL     1      35.918  21.389   9.593  1.00  0.00     0.041 C 
ATOM      5  O   UNL     1      37.001  20.850   9.243  1.00  0.00    -0.550 OA
ATOM      6  O   UNL     1      35.111  21.997   8.640  1.00  0.00    -0.550 OA
ENDBRANCH   3   4
ENDBRANCH   2   3
ENDBRANCH   1   2
BRANCH   1   7
ATOM      7  C   UNL     1      34.518  20.037  13.333  1.00  0.00     0.000 C 
BRANCH   7   8
ATOM      8  C   UNL     1      33.968  19.207  14.507  1.00  0.00    -0.000 C 
BRANCH   8   9
ATOM      9  C   UNL     1      34.447  19.659  15.898  1.00  0.00    -0.003 C 
ATOM     10  C   UNL     1      35.914  20.082  15.918  1.00  0.00     0.004 C 
ENDBRANCH   8   9
ENDBRANCH   7   8
ENDBRANCH   1   7
TORSDOF 6
ENDMDL
MODEL 5
REMARK VINA RESULT:    -2.887      3.226      5.067
REMARK INTER + INTRA:          -4.222
REMARK INTER:                  -3.883
REMARK INTRA:                  -0.339
REMARK UNBOUND:                -0.322
REMARK SMILES CCCCCCCC(=O)[O-]
REMARK SMILES IDX 5 1 6 2 7 3 8 4 9 5 10 6 4 7 3 8 2 9 1 10
REMARK H PARENT
REMARK Flexibility Score: inf
ROOT
ATOM      1  C   UNL     1      35.055  20.041  16.147  1.00  0.00     0.000 C 
ENDROOT
BRANCH   1   2
ATOM      2  C   UNL     1      36.016  20.489  15.039  1.00  0.00     0.006 C 
BRANCH   2   3
ATOM      3  C   UNL     1      36.433  21.949  15.230  1.00  0.00     0.053 C 
BRANCH   3   4
ATOM      4  C   UNL     1      37.615  22.275  14.371  1.00  0.00     0.041 C 
ATOM      5  O   UNL     1      38.781  22.051  14.787  1.00  0.00    -0.550 OA
ATOM      6  O   UNL     1      37.424  22.778  13.091  1.00  0.00    -0.550 OA
ENDBRANCH   3   4
ENDBRANCH   2   3
ENDBRANCH   1   2
BRANCH   1   7
ATOM      7  C   UNL     1      34.088  18.963  15.634  1.00  0.00     0.000 C 
BRANCH   7   8
ATOM      8  C   UNL     1      33.036  19.518  14.656  1.00  0.00    -0.000 C 
BRANCH   8   9
ATOM      9  C   UNL     1      33.146  18.983  13.217  1.00  0.00    -0.003 C 
ATOM     10  C   UNL     1      33.489  20.069  12.200  1.00  0.00     0.004 C 
ENDBRANCH   8   9
ENDBRANCH   7   8
ENDBRANCH   1   7
TORSDOF 6
ENDMDL
MODEL 6
REMARK VINA RESULT:    -2.864      4.034      5.624
REMARK INTER + INTRA:          -4.191
REMARK INTER:                  -3.943
REMARK INTRA:                  -0.248
REMARK UNBOUND:                -0.322
REMARK SMILES CCCCCCCC(=O)[O-]
REMARK SMILES IDX 5 1 6 2 7 3 8 4 9 5 10 6 4 7 3 8 2 9 1 10
REMARK H PARENT
REMARK Flexibility Score: inf
ROOT
ATOM      1  C   UNL     1      34.782  20.285  12.366  1.00  0.00     0.000 C 
ENDROOT
BRANCH   1   2
ATOM      2  C   UNL     1      34.624  21.229  11.168  1.00  0.00     0.006 C 
BRANCH   2   3
ATOM      3  C   UNL     1      35.936  21.957  10.864  1.00  0.00     0.053 C 
BRANCH   3   4
ATOM      4  C   UNL     1      36.394  21.654   9.472  1.00  0.00     0.041 C 
ATOM      5  O   UNL     1      36.859  20.519   9.191  1.00  0.00    -0.550 OA
ATOM      6  O   UNL     1      36.261  22.610   8.474  1.00  0.00    -0.550 OA
ENDBRANCH   3   4
ENDBRANCH   2   3
ENDBRANCH   1   2
BRANCH   1   7
ATOM      7  C   UNL     1      34.769  21.067  13.688  1.00  0.00     0.000 C 
BRANCH   7   8
ATOM      8  C   UNL     1      35.983  20.755  14.581  1.00  0.00    -0.000 C 
BRANCH   8   9
ATOM      9  C   UNL     1      35.636  20.179  15.965  1.00  0.00    -0.003 C 
ATOM     10  C   UNL     1      34.220  19.612  16.040  1.00  0.00     0.004 C 
ENDBRANCH   8   9
ENDBRANCH   7   8
ENDBRANCH   1   7
TORSDOF 6
ENDMDL
MODEL 7
REMARK VINA RESULT:    -2.863     11.760     14.254
REMARK INTER + INTRA:          -4.189
REMARK INTER:                  -3.833
REMARK INTRA:                  -0.357
REMARK UNBOUND:                -0.322
REMARK SMILES CCCCCCCC(=O)[O-]
REMARK SMILES IDX 5 1 6 2 7 3 8 4 9 5 10 6 4 7 3 8 2 9 1 10
REMARK H PARENT
REMARK Flexibility Score: inf
ROOT
ATOM      1  C   UNL     1      50.302  22.780  18.154  1.00  0.00     0.000 C 
ENDROOT
BRANCH   1   2
ATOM      2  C   UNL     1      48.773  22.885  18.080  1.00  0.00     0.006 C 
BRANCH   2   3
ATOM      3  C   UNL     1      48.246  22.320  16.759  1.00  0.00     0.053 C 
BRANCH   3   4
ATOM      4  C   UNL     1      46.752  22.233  16.783  1.00  0.00     0.041 C 
ATOM      5  O   UNL     1      46.078  23.096  17.405  1.00  0.00    -0.550 OA
ATOM      6  O   UNL     1      46.104  21.229  16.077  1.00  0.00    -0.550 OA
ENDBRANCH   3   4
ENDBRANCH   2   3
ENDBRANCH   1   2
BRANCH   1   7
ATOM      7  C   UNL     1      50.921  22.783  16.748  1.00  0.00     0.000 C 
BRANCH   7   8
ATOM      8  C   UNL     1      52.153  21.867  16.634  1.00  0.00    -0.000 C 
BRANCH   8   9
ATOM      9  C   UNL     1      52.294  21.138  15.286  1.00  0.00    -0.003 C 
ATOM     10  C   UNL     1      50.964  20.975  14.552  1.00  0.00     0.004 C 
ENDBRANCH   8   9
ENDBRANCH   7   8
ENDBRANCH   1   7
TORSDOF 6
ENDMDL
MODEL 8
REMARK VINA RESULT:    -2.821      1.576      2.714
REMARK INTER + INTRA:          -4.133
REMARK INTER:                  -3.617
REMARK INTRA:                  -0.516
REMARK UNBOUND:                -0.322
REMARK SMILES CCCCCCCC(=O)[O-]
REMARK SMILES IDX 5 1 6 2 7 3 8 4 9 5 10 6 4 7 3 8 2 9 1 10
REMARK H PARENT
REMARK Flexibility Score: inf
ROOT
ATOM      1  C   UNL     1      36.254  21.645  15.232  1.00  0.00     0.000 C 
ENDROOT
BRANCH   1   2
ATOM      2  C   UNL     1      35.967  20.151  15.425  1.00  0.00     0.006 C 
BRANCH   2   3
ATOM      3  C   UNL     1      34.608  19.935  16.096  1.00  0.00     0.053 C 
BRANCH   3   4
ATOM      4  C   UNL     1      33.829  18.879  15.376  1.00  0.00     0.041 C 
ATOM      5  O   UNL     1      33.740  18.902  14.121  1.00  0.00    -0.550 OA
ATOM      6  O   UNL     1      33.244  17.841  16.090  1.00  0.00    -0.550 OA
ENDBRANCH   3   4
ENDBRANCH   2   3
ENDBRANCH   1   2
BRANCH   1   7
ATOM      7  C   UNL     1      36.091  22.051  13.760  1.00  0.00     0.000 C 
BRANCH   7   8
ATOM      8  C   UNL     1      34.653  22.476  13.411  1.00  0.00    -0.000 C 
BRANCH   8   9
ATOM      9  C   UNL     1      34.120  21.919  12.079  1.00  0.00    -0.003 C 
ATOM     10  C   UNL     1      35.029  20.854  11.469  1.00  0.00     0.004 C 
ENDBRANCH   8   9
ENDBRANCH   7   8
ENDBRANCH   1   7
TORSDOF 6
ENDMDL
MODEL 9
REMARK VINA RESULT:    -2.781      2.838      5.135
REMARK INTER + INTRA:          -4.079
REMARK INTER:                  -3.752
REMARK INTRA:                  -0.327
REMARK UNBOUND:                -0.322
REMARK SMILES CCCCCCCC(=O)[O-]
REMARK SMILES IDX 5 1 6 2 7 3 8 4 9 5 10 6 4 7 3 8 2 9 1 10
REMARK H PARENT
REMARK Flexibility Score: inf
ROOT
ATOM      1  C   UNL     1      36.579  21.488  15.255  1.00  0.00     0.000 C 
ENDROOT
BRANCH   1   2
ATOM      2  C   UNL     1      35.753  22.098  14.115  1.00  0.00     0.006 C 
BRANCH   2   3
ATOM      3  C   UNL     1      36.659  22.758  13.072  1.00  0.00     0.053 C 
BRANCH   3   4
ATOM      4  C   UNL     1      36.304  22.289  11.696  1.00  0.00     0.041 C 
ATOM      5  O   UNL     1      36.980  22.666  10.704  1.00  0.00    -0.550 OA
ATOM      6  O   UNL     1      35.257  21.394  11.517  1.00  0.00    -0.550 OA
ENDBRANCH   3   4
ENDBRANCH   2   3
ENDBRANCH   1   2
BRANCH   1   7
ATOM      7  C   UNL     1      35.918  20.207  15.787  1.00  0.00     0.000 C 
BRANCH   7   8
ATOM      8  C   UNL     1      34.784  19.696  14.880  1.00  0.00    -0.000 C 
BRANCH   8   9
ATOM      9  C   UNL     1      33.686  18.898  15.606  1.00  0.00    -0.003 C 
ATOM     10  C   UNL     1      33.117  19.630  16.820  1.00  0.00     0.004 C 
ENDBRANCH   8   9
ENDBRANCH   7   8
ENDBRANCH   1   7
TORSDOF 6
ENDMDL
