MODEL 1
REMARK VINA RESULT:    -4.350      0.000      0.000
REMARK INTER + INTRA:          -7.111
REMARK INTER:                  -6.004
REMARK INTRA:                  -1.107
REMARK UNBOUND:                -1.107
REMARK SMILES C=C(CC[C@H](C(=O)[O-])[C@H]1CC[C@@]2(C)C3=CC[C@@H]4C(C)(C)[C@H](O)CC[C@@]4(C)C3=CC[C@@]12C)C(C)C
REMARK SMILES IDX 4 1 5 2 6 3 7 4 8 5 9 6 10 7 30 8 11 9 12 10 29 11 31 12
REMARK SMILES IDX 13 13 14 14 28 15 27 16 15 17 25 18 16 19 17 20 24 21 26 22
REMARK SMILES IDX 18 23 23 24 21 25 19 26 20 27 22 28 3 30 2 31 1 32 32 33
REMARK SMILES IDX 33 34 34 35
REMARK H PARENT 22 29
REMARK Flexibility Score: inf
ROOT
ATOM      1  C   UNL     1      90.747 111.384 108.093  1.00  0.00     0.014 C 
ENDROOT
BRANCH   1   2
ATOM      2  C   UNL     1      92.017 112.182 108.497  1.00  0.00     0.039 C 
BRANCH   2   3
ATOM      3  C   UNL     1      91.701 113.621 108.846  1.00  0.00     0.045 C 
ATOM      4  O   UNL     1      92.434 114.275 109.632  1.00  0.00    -0.550 OA
ATOM      5  O   UNL     1      90.591 114.241 108.287  1.00  0.00    -0.550 OA
ENDBRANCH   2   3
BRANCH   2   6
ATOM      6  C   UNL     1      93.218 111.978 107.495  1.00  0.00     0.005 C 
ATOM      7  C   UNL     1      93.683 113.206 106.694  1.00  0.00     0.006 C 
ATOM      8  C   UNL     1      94.523 111.375 108.094  1.00  0.00    -0.016 C 
ATOM      9  C   UNL     1      95.145 112.962 106.318  1.00  0.00     0.012 C 
ATOM     10  C   UNL     1      95.586 111.621 106.957  1.00  0.00    -0.002 C 
ATOM     11  C   UNL     1      94.954 112.136 109.382  1.00  0.00     0.035 C 
ATOM     12  C   UNL     1      94.329 109.871 108.445  1.00  0.00     0.013 C 
ATOM     13  C   UNL     1      95.544 110.503 105.875  1.00  0.00     0.017 C 
ATOM     14  C   UNL     1      97.024 111.734 107.491  1.00  0.00    -0.042 C 
ATOM     15  C   UNL     1      96.321 111.721 109.833  1.00  0.00    -0.022 C 
ATOM     16  C   UNL     1      97.310 111.524 108.947  1.00  0.00    -0.042 C 
ATOM     17  C   UNL     1      98.041 112.037 106.645  1.00  0.00    -0.022 C 
ATOM     18  C   UNL     1      98.754 111.151 109.322  1.00  0.00    -0.004 C 
ATOM     19  C   UNL     1      99.493 112.126 107.065  1.00  0.00     0.032 C 
ATOM     20  C   UNL     1      99.621 112.248 108.601  1.00  0.00     0.011 C 
ATOM     21  C   UNL     1      99.092 111.118 110.854  1.00  0.00     0.014 C 
ATOM     22  C   UNL     1      98.973 109.707 108.784  1.00  0.00     0.017 C 
ATOM     23  C   UNL     1     101.059 112.477 109.198  1.00  0.00    -0.005 C 
ATOM     24  C   UNL     1      99.574 112.470 111.376  1.00  0.00     0.033 C 
ATOM     25  C   UNL     1     100.920 112.889 110.722  1.00  0.00     0.120 C 
ATOM     26  C   UNL     1     101.967 111.230 109.027  1.00  0.00     0.014 C 
ATOM     27  C   UNL     1     101.757 113.644 108.453  1.00  0.00     0.014 C 
BRANCH  25  28
ATOM     28  O   UNL     1     101.994 112.380 111.477  1.00  0.00    -0.393 OA
ATOM     29  H   UNL     1     102.758 112.256 110.854  1.00  0.00     0.210 HD
ENDBRANCH  25  28
ENDBRANCH   2   6
ENDBRANCH   1   2
BRANCH   1  30
ATOM     30  C   UNL     1      90.548 111.194 106.578  1.00  0.00     0.031 C 
BRANCH  30  31
ATOM     31  C   UNL     1      90.502 109.727 106.218  1.00  0.00    -0.075 C 
ATOM     32  C   UNL     1      91.641 109.088 105.900  1.00  0.00     0.008 C 
BRANCH  31  33
ATOM     33  C   UNL     1      89.163 109.004 106.210  1.00  0.00     0.008 C 
ATOM     34  C   UNL     1      89.337 107.490 106.382  1.00  0.00     0.012 C 
ATOM     35  C   UNL     1      88.219 109.580 107.270  1.00  0.00     0.012 C 
ENDBRANCH  31  33
ENDBRANCH  30  31
ENDBRANCH   1  30
TORSDOF 7
ENDMDL
MODEL 2
REMARK VINA RESULT:    -3.353      1.774      8.593
REMARK INTER + INTRA:          -5.733
REMARK INTER:                  -5.971
REMARK INTRA:                   0.238
REMARK UNBOUND:                -1.107
REMARK SMILES C=C(CC[C@H](C(=O)[O-])[C@H]1CC[C@@]2(C)C3=CC[C@@H]4C(C)(C)[C@H](O)CC[C@@]4(C)C3=CC[C@@]12C)C(C)C
REMARK SMILES IDX 4 1 5 2 6 3 7 4 8 5 9 6 10 7 30 8 11 9 12 10 29 11 31 12
REMARK SMILES IDX 13 13 14 14 28 15 27 16 15 17 25 18 16 19 17 20 24 21 26 22
REMARK SMILES IDX 18 23 23 24 21 25 19 26 20 27 22 28 3 30 2 31 1 32 32 33
REMARK SMILES IDX 33 34 34 35
REMARK H PARENT 22 29
REMARK Flexibility Score: inf
ROOT
ATOM      1  C   UNL     1      99.155 111.749 111.119  1.00  0.00     0.014 C 
ENDROOT
BRANCH   1   2
ATOM      2  C   UNL     1     100.086 110.998 110.129  1.00  0.00     0.039 C 
BRANCH   2   3
ATOM      3  C   UNL     1     101.391 111.731 109.903  1.00  0.00     0.045 C 
ATOM      4  O   UNL     1     101.444 112.988 109.927  1.00  0.00    -0.550 OA
ATOM      5  O   UNL     1     102.558 111.012 109.674  1.00  0.00    -0.550 OA
ENDBRANCH   2   3
BRANCH   2   6
ATOM      6  C   UNL     1      99.343 110.523 108.822  1.00  0.00     0.005 C 
ATOM      7  C   UNL     1      98.811 109.080 108.799  1.00  0.00     0.006 C 
ATOM      8  C   UNL     1      98.144 111.398 108.352  1.00  0.00    -0.016 C 
ATOM      9  C   UNL     1      97.654 109.051 107.798  1.00  0.00     0.012 C 
ATOM     10  C   UNL     1      97.440 110.492 107.272  1.00  0.00    -0.002 C 
ATOM     11  C   UNL     1      97.156 111.673 109.523  1.00  0.00     0.035 C 
ATOM     12  C   UNL     1      98.640 112.762 107.788  1.00  0.00     0.013 C 
ATOM     13  C   UNL     1      98.112 110.630 105.875  1.00  0.00     0.017 C 
ATOM     14  C   UNL     1      95.938 110.786 107.126  1.00  0.00    -0.042 C 
ATOM     15  C   UNL     1      95.891 112.311 109.036  1.00  0.00    -0.022 C 
ATOM     16  C   UNL     1      95.305 111.903 107.899  1.00  0.00    -0.042 C 
ATOM     17  C   UNL     1      95.174 110.025 106.301  1.00  0.00    -0.022 C 
ATOM     18  C   UNL     1      93.980 112.461 107.353  1.00  0.00    -0.004 C 
ATOM     19  C   UNL     1      93.699 110.264 106.055  1.00  0.00     0.032 C 
ATOM     20  C   UNL     1      93.093 111.178 107.145  1.00  0.00     0.011 C 
ATOM     21  C   UNL     1      93.228 113.494 108.264  1.00  0.00     0.014 C 
ATOM     22  C   UNL     1      94.345 113.206 106.036  1.00  0.00     0.017 C 
ATOM     23  C   UNL     1      91.539 111.426 107.112  1.00  0.00    -0.005 C 
ATOM     24  C   UNL     1      92.254 112.823 109.229  1.00  0.00     0.033 C 
ATOM     25  C   UNL     1      91.101 112.107 108.474  1.00  0.00     0.120 C 
ATOM     26  C   UNL     1      91.111 112.276 105.887  1.00  0.00     0.014 C 
ATOM     27  C   UNL     1      90.794 110.071 106.997  1.00  0.00     0.014 C 
BRANCH  25  28
ATOM     28  O   UNL     1      90.040 113.008 108.262  1.00  0.00    -0.393 OA
ATOM     29  H   UNL     1      90.399 113.763 107.724  1.00  0.00     0.210 HD
ENDBRANCH  25  28
ENDBRANCH   2   6
ENDBRANCH   1   2
BRANCH   1  30
ATOM     30  C   UNL     1      99.781 112.074 112.488  1.00  0.00     0.031 C 
BRANCH  30  31
ATOM     31  C   UNL     1      98.717 112.206 113.553  1.00  0.00    -0.075 C 
ATOM     32  C   UNL     1      97.423 112.077 113.214  1.00  0.00     0.008 C 
BRANCH  31  33
ATOM     33  C   UNL     1      99.132 112.497 114.988  1.00  0.00     0.008 C 
ATOM     34  C   UNL     1      99.560 111.220 115.721  1.00  0.00     0.012 C 
ATOM     35  C   UNL     1     100.232 113.562 115.039  1.00  0.00     0.012 C 
ENDBRANCH  31  33
ENDBRANCH  30  31
ENDBRANCH   1  30
TORSDOF 7
ENDMDL
MODEL 3
REMARK VINA RESULT:    -2.009      2.291      4.018
REMARK INTER + INTRA:          -3.879
REMARK INTER:                  -3.278
REMARK INTRA:                  -0.600
REMARK UNBOUND:                -1.107
REMARK SMILES C=C(CC[C@H](C(=O)[O-])[C@H]1CC[C@@]2(C)C3=CC[C@@H]4C(C)(C)[C@H](O)CC[C@@]4(C)C3=CC[C@@]12C)C(C)C
REMARK SMILES IDX 4 1 5 2 6 3 7 4 8 5 9 6 10 7 30 8 11 9 12 10 29 11 31 12
REMARK SMILES IDX 13 13 14 14 28 15 27 16 15 17 25 18 16 19 17 20 24 21 26 22
REMARK SMILES IDX 18 23 23 24 21 25 19 26 20 27 22 28 3 30 2 31 1 32 32 33
REMARK SMILES IDX 33 34 34 35
REMARK H PARENT 22 29
REMARK Flexibility Score: inf
ROOT
ATOM      1  C   UNL     1      91.064 111.631 106.826  1.00  0.00     0.014 C 
ENDROOT
BRANCH   1   2
ATOM      2  C   UNL     1      92.480 111.002 106.721  1.00  0.00     0.039 C 
BRANCH   2   3
ATOM      3  C   UNL     1      92.443 109.602 106.146  1.00  0.00     0.045 C 
ATOM      4  O   UNL     1      93.504 108.982 105.875  1.00  0.00    -0.550 OA
ATOM      5  O   UNL     1      91.222 108.980 105.918  1.00  0.00    -0.550 OA
ENDBRANCH   2   3
BRANCH   2   6
ATOM      6  C   UNL     1      93.328 111.168 108.041  1.00  0.00     0.005 C 
ATOM      7  C   UNL     1      93.801 109.882 108.740  1.00  0.00     0.006 C 
ATOM      8  C   UNL     1      94.602 112.057 107.938  1.00  0.00    -0.016 C 
ATOM      9  C   UNL     1      95.047 110.249 109.547  1.00  0.00     0.012 C 
ATOM     10  C   UNL     1      95.370 111.740 109.276  1.00  0.00    -0.002 C 
ATOM     11  C   UNL     1      95.480 111.640 106.722  1.00  0.00     0.035 C 
ATOM     12  C   UNL     1      94.219 113.558 107.784  1.00  0.00     0.013 C 
ATOM     13  C   UNL     1      94.844 112.599 110.462  1.00  0.00     0.017 C 
ATOM     14  C   UNL     1      96.890 111.941 109.161  1.00  0.00    -0.042 C 
ATOM     15  C   UNL     1      96.812 112.327 106.747  1.00  0.00    -0.022 C 
ATOM     16  C   UNL     1      97.489 112.479 107.897  1.00  0.00    -0.042 C 
ATOM     17  C   UNL     1      97.699 111.620 110.202  1.00  0.00    -0.022 C 
ATOM     18  C   UNL     1      98.882 113.120 108.008  1.00  0.00    -0.004 C 
ATOM     19  C   UNL     1      99.200 111.825 110.201  1.00  0.00     0.032 C 
ATOM     20  C   UNL     1      99.733 112.035 108.765  1.00  0.00     0.011 C 
ATOM     21  C   UNL     1      99.583 113.509 106.659  1.00  0.00     0.014 C 
ATOM     22  C   UNL     1      98.679 114.442 108.805  1.00  0.00     0.017 C 
ATOM     23  C   UNL     1     101.291 112.136 108.571  1.00  0.00    -0.005 C 
ATOM     24  C   UNL     1     100.431 112.373 106.091  1.00  0.00     0.033 C 
ATOM     25  C   UNL     1     101.622 112.025 107.025  1.00  0.00     0.120 C 
ATOM     26  C   UNL     1     101.871 113.438 109.185  1.00  0.00     0.014 C 
ATOM     27  C   UNL     1     101.988 110.954 109.292  1.00  0.00     0.014 C 
BRANCH  25  28
ATOM     28  O   UNL     1     102.734 112.822 106.694  1.00  0.00    -0.393 OA
ATOM     29  H   UNL     1     103.504 112.490 107.228  1.00  0.00     0.210 HD
ENDBRANCH  25  28
ENDBRANCH   2   6
ENDBRANCH   1   2
BRANCH   1  30
ATOM     30  C   UNL     1      90.813 112.835 105.900  1.00  0.00     0.031 C 
BRANCH  30  31
ATOM     31  C   UNL     1      90.760 114.123 106.688  1.00  0.00    -0.075 C 
ATOM     32  C   UNL     1      90.732 115.297 106.035  1.00  0.00     0.008 C 
BRANCH  31  33
ATOM     33  C   UNL     1      90.753 114.066 108.209  1.00  0.00     0.008 C 
ATOM     34  C   UNL     1      90.763 115.469 108.828  1.00  0.00     0.012 C 
ATOM     35  C   UNL     1      89.570 113.239 108.724  1.00  0.00     0.012 C 
ENDBRANCH  31  33
ENDBRANCH  30  31
ENDBRANCH   1  30
TORSDOF 7
ENDMDL
MODEL 4
REMARK VINA RESULT:    -1.410      2.341      4.187
REMARK INTER + INTRA:          -3.053
REMARK INTER:                  -3.827
REMARK INTRA:                   0.774
REMARK UNBOUND:                -1.107
REMARK SMILES C=C(CC[C@H](C(=O)[O-])[C@H]1CC[C@@]2(C)C3=CC[C@@H]4C(C)(C)[C@H](O)CC[C@@]4(C)C3=CC[C@@]12C)C(C)C
REMARK SMILES IDX 4 1 5 2 6 3 7 4 8 5 9 6 10 7 30 8 11 9 12 10 29 11 31 12
REMARK SMILES IDX 13 13 14 14 28 15 27 16 15 17 25 18 16 19 17 20 24 21 26 22
REMARK SMILES IDX 18 23 23 24 21 25 19 26 20 27 22 28 3 30 2 31 1 32 32 33
REMARK SMILES IDX 33 34 34 35
REMARK H PARENT 22 29
REMARK Flexibility Score: inf
ROOT
ATOM      1  C   UNL     1      90.795 112.030 106.221  1.00  0.00     0.014 C 
ENDROOT
BRANCH   1   2
ATOM      2  C   UNL     1      90.788 110.477 106.230  1.00  0.00     0.039 C 
BRANCH   2   3
ATOM      3  C   UNL     1      89.502 109.914 106.795  1.00  0.00     0.045 C 
ATOM      4  O   UNL     1      89.479 108.796 107.372  1.00  0.00    -0.550 OA
ATOM      5  O   UNL     1      88.323 110.641 106.688  1.00  0.00    -0.550 OA
ENDBRANCH   2   3
BRANCH   2   6
ATOM      6  C   UNL     1      92.114 109.858 106.819  1.00  0.00     0.005 C 
ATOM      7  C   UNL     1      92.965 108.990 105.876  1.00  0.00     0.006 C 
ATOM      8  C   UNL     1      93.121 110.859 107.458  1.00  0.00    -0.016 C 
ATOM      9  C   UNL     1      94.399 109.039 106.404  1.00  0.00     0.012 C 
ATOM     10  C   UNL     1      94.429 109.996 107.622  1.00  0.00    -0.002 C 
ATOM     11  C   UNL     1      93.404 112.056 106.504  1.00  0.00     0.035 C 
ATOM     12  C   UNL     1      92.572 111.414 108.804  1.00  0.00     0.013 C 
ATOM     13  C   UNL     1      94.405 109.155 108.932  1.00  0.00     0.017 C 
ATOM     14  C   UNL     1      95.714 110.840 107.603  1.00  0.00    -0.042 C 
ATOM     15  C   UNL     1      94.538 112.898 107.003  1.00  0.00    -0.022 C 
ATOM     16  C   UNL     1      95.637 112.335 107.529  1.00  0.00    -0.042 C 
ATOM     17  C   UNL     1      96.927 110.232 107.642  1.00  0.00    -0.022 C 
ATOM     18  C   UNL     1      96.869 113.117 108.015  1.00  0.00    -0.004 C 
ATOM     19  C   UNL     1      98.245 110.977 107.675  1.00  0.00     0.032 C 
ATOM     20  C   UNL     1      98.064 112.449 107.239  1.00  0.00     0.011 C 
ATOM     21  C   UNL     1      96.860 114.665 107.760  1.00  0.00     0.014 C 
ATOM     22  C   UNL     1      96.918 112.917 109.558  1.00  0.00     0.017 C 
ATOM     23  C   UNL     1      99.358 113.334 107.095  1.00  0.00    -0.005 C 
ATOM     24  C   UNL     1      97.469 115.041 106.412  1.00  0.00     0.033 C 
ATOM     25  C   UNL     1      98.977 114.676 106.343  1.00  0.00     0.120 C 
ATOM     26  C   UNL     1     100.025 113.618 108.466  1.00  0.00     0.014 C 
ATOM     27  C   UNL     1     100.409 112.589 106.232  1.00  0.00     0.014 C 
BRANCH  25  28
ATOM     28  O   UNL     1      99.748 115.752 106.825  1.00  0.00    -0.393 OA
ATOM     29  H   UNL     1     100.496 115.888 106.184  1.00  0.00     0.210 HD
ENDBRANCH  25  28
ENDBRANCH   2   6
ENDBRANCH   1   2
BRANCH   1  30
ATOM     30  C   UNL     1      90.230 112.694 107.491  1.00  0.00     0.031 C 
BRANCH  30  31
ATOM     31  C   UNL     1      90.521 114.177 107.503  1.00  0.00    -0.075 C 
ATOM     32  C   UNL     1      90.750 114.815 106.342  1.00  0.00     0.008 C 
BRANCH  31  33
ATOM     33  C   UNL     1      90.561 114.916 108.833  1.00  0.00     0.008 C 
ATOM     34  C   UNL     1      89.382 114.526 109.732  1.00  0.00     0.012 C 
ATOM     35  C   UNL     1      91.900 114.697 109.545  1.00  0.00     0.012 C 
ENDBRANCH  31  33
ENDBRANCH  30  31
ENDBRANCH   1  30
TORSDOF 7
ENDMDL
