MODEL 1
REMARK VINA RESULT:    -5.598      0.000      0.000
REMARK INTER + INTRA:          -6.778
REMARK INTER:                  -6.580
REMARK INTRA:                  -0.198
REMARK UNBOUND:                -0.198
REMARK SMILES O=C([O-])C=Cc1ccc(O)c(O)c1
REMARK SMILES IDX 6 1 13 2 7 3 11 4 8 5 9 6 5 7 4 8 2 9 1 10 3 11 12 12 10 14
REMARK H PARENT 12 13 10 15
REMARK Flexibility Score: inf
ROOT
ATOM      1  C   UNL     1     -33.202  10.515 -37.642  1.00  0.00    -0.022 A 
ATOM      2  C   UNL     1     -33.954   9.741 -36.746  1.00  0.00     0.058 A 
ATOM      3  C   UNL     1     -32.838  11.823 -37.283  1.00  0.00     0.012 A 
ATOM      4  C   UNL     1     -34.384  10.282 -35.526  1.00  0.00     0.157 A 
ATOM      5  C   UNL     1     -33.266  12.365 -36.068  1.00  0.00     0.051 A 
ATOM      6  C   UNL     1     -34.041  11.604 -35.189  1.00  0.00     0.157 A 
ENDROOT
BRANCH   1   7
ATOM      7  C   UNL     1     -32.716   9.901 -38.896  1.00  0.00     0.010 C 
ATOM      8  C   UNL     1     -33.295  10.032 -40.101  1.00  0.00     0.025 C 
BRANCH   8   9
ATOM      9  C   UNL     1     -34.606  10.656 -40.364  1.00  0.00     0.064 C 
ATOM     10  O   UNL     1     -35.577   9.989 -40.808  1.00  0.00    -0.545 OA
ATOM     11  O   UNL     1     -34.752  12.025 -40.183  1.00  0.00    -0.545 OA
ENDBRANCH   8   9
ENDBRANCH   1   7
BRANCH   4  12
ATOM     12  O   UNL     1     -35.148   9.514 -34.649  1.00  0.00    -0.504 OA
ATOM     13  H   UNL     1     -36.133   9.703 -34.497  1.00  0.00     0.293 HD
ENDBRANCH   4  12
BRANCH   6  14
ATOM     14  O   UNL     1     -34.457  12.171 -33.985  1.00  0.00    -0.504 OA
ATOM     15  H   UNL     1     -34.949  13.056 -33.948  1.00  0.00     0.293 HD
ENDBRANCH   6  14
TORSDOF 4
ENDMDL
MODEL 2
REMARK VINA RESULT:    -5.535      1.548      4.528
REMARK INTER + INTRA:          -6.704
REMARK INTER:                  -6.720
REMARK INTRA:                   0.016
REMARK UNBOUND:                -0.198
REMARK SMILES O=C([O-])C=Cc1ccc(O)c(O)c1
REMARK SMILES IDX 6 1 13 2 7 3 11 4 8 5 9 6 5 7 4 8 2 9 1 10 3 11 12 12 10 14
REMARK H PARENT 12 13 10 15
REMARK Flexibility Score: inf
ROOT
ATOM      1  C   UNL     1     -32.431  10.533 -37.797  1.00  0.00    -0.022 A 
ATOM      2  C   UNL     1     -33.110  10.045 -38.923  1.00  0.00     0.058 A 
ATOM      3  C   UNL     1     -32.669  11.850 -37.367  1.00  0.00     0.012 A 
ATOM      4  C   UNL     1     -33.977  10.876 -39.646  1.00  0.00     0.157 A 
ATOM      5  C   UNL     1     -33.533  12.679 -38.086  1.00  0.00     0.051 A 
ATOM      6  C   UNL     1     -34.185  12.202 -39.226  1.00  0.00     0.157 A 
ENDROOT
BRANCH   1   7
ATOM      7  C   UNL     1     -31.564   9.620 -37.023  1.00  0.00     0.010 C 
ATOM      8  C   UNL     1     -31.737   9.290 -35.733  1.00  0.00     0.025 C 
BRANCH   8   9
ATOM      9  C   UNL     1     -32.707   9.908 -34.808  1.00  0.00     0.064 C 
ATOM     10  O   UNL     1     -33.928   9.602 -34.831  1.00  0.00    -0.545 OA
ATOM     11  O   UNL     1     -32.274  10.902 -33.939  1.00  0.00    -0.545 OA
ENDBRANCH   8   9
ENDBRANCH   1   7
BRANCH   4  12
ATOM     12  O   UNL     1     -34.634  10.391 -40.776  1.00  0.00    -0.504 OA
ATOM     13  H   UNL     1     -34.175   9.765 -41.429  1.00  0.00     0.293 HD
ENDBRANCH   4  12
BRANCH   6  14
ATOM     14  O   UNL     1     -35.039  13.054 -39.926  1.00  0.00    -0.504 OA
ATOM     15  H   UNL     1     -35.558  13.793 -39.467  1.00  0.00     0.293 HD
ENDBRANCH   6  14
TORSDOF 4
ENDMDL
MODEL 3
REMARK VINA RESULT:    -5.280      1.159      4.834
REMARK INTER + INTRA:          -6.404
REMARK INTER:                  -6.172
REMARK INTRA:                  -0.232
REMARK UNBOUND:                -0.198
REMARK SMILES O=C([O-])C=Cc1ccc(O)c(O)c1
REMARK SMILES IDX 6 1 13 2 7 3 11 4 8 5 9 6 5 7 4 8 2 9 1 10 3 11 12 12 10 14
REMARK H PARENT 12 13 10 15
REMARK Flexibility Score: inf
ROOT
ATOM      1  C   UNL     1     -33.032  10.560 -38.159  1.00  0.00    -0.022 A 
ATOM      2  C   UNL     1     -33.501  11.831 -38.520  1.00  0.00     0.058 A 
ATOM      3  C   UNL     1     -33.401   9.445 -38.930  1.00  0.00     0.012 A 
ATOM      4  C   UNL     1     -34.373  11.984 -39.608  1.00  0.00     0.157 A 
ATOM      5  C   UNL     1     -34.270   9.596 -40.014  1.00  0.00     0.051 A 
ATOM      6  C   UNL     1     -34.762  10.859 -40.355  1.00  0.00     0.157 A 
ENDROOT
BRANCH   1   7
ATOM      7  C   UNL     1     -32.073  10.434 -37.041  1.00  0.00     0.010 C 
ATOM      8  C   UNL     1     -32.396  10.398 -35.739  1.00  0.00     0.025 C 
BRANCH   8   9
ATOM      9  C   UNL     1     -33.736  10.655 -35.176  1.00  0.00     0.064 C 
ATOM     10  O   UNL     1     -34.603   9.746 -35.096  1.00  0.00    -0.545 OA
ATOM     11  O   UNL     1     -34.072  11.946 -34.791  1.00  0.00    -0.545 OA
ENDBRANCH   8   9
ENDBRANCH   1   7
BRANCH   4  12
ATOM     12  O   UNL     1     -34.852  13.248 -39.950  1.00  0.00    -0.504 OA
ATOM     13  H   UNL     1     -34.556  13.716 -40.800  1.00  0.00     0.293 HD
ENDBRANCH   4  12
BRANCH   6  14
ATOM     14  O   UNL     1     -35.630  10.978 -41.440  1.00  0.00    -0.504 OA
ATOM     15  H   UNL     1     -35.936  11.879 -41.788  1.00  0.00     0.293 HD
ENDBRANCH   6  14
TORSDOF 4
ENDMDL
MODEL 4
REMARK VINA RESULT:    -5.220      2.878      5.871
REMARK INTER + INTRA:          -6.334
REMARK INTER:                  -6.409
REMARK INTRA:                   0.075
REMARK UNBOUND:                -0.198
REMARK SMILES O=C([O-])C=Cc1ccc(O)c(O)c1
REMARK SMILES IDX 6 1 13 2 7 3 11 4 8 5 9 6 5 7 4 8 2 9 1 10 3 11 12 12 10 14
REMARK H PARENT 12 13 10 15
REMARK Flexibility Score: inf
ROOT
ATOM      1  C   UNL     1     -33.233  11.822 -35.132  1.00  0.00    -0.022 A 
ATOM      2  C   UNL     1     -33.111  12.116 -36.498  1.00  0.00     0.058 A 
ATOM      3  C   UNL     1     -32.527  10.733 -34.596  1.00  0.00     0.012 A 
ATOM      4  C   UNL     1     -32.334  11.300 -37.333  1.00  0.00     0.157 A 
ATOM      5  C   UNL     1     -31.753   9.919 -35.426  1.00  0.00     0.051 A 
ATOM      6  C   UNL     1     -31.655  10.193 -36.793  1.00  0.00     0.157 A 
ENDROOT
BRANCH   1   7
ATOM      7  C   UNL     1     -34.016  12.729 -34.266  1.00  0.00     0.010 C 
ATOM      8  C   UNL     1     -33.549  13.356 -33.174  1.00  0.00     0.025 C 
BRANCH   8   9
ATOM      9  C   UNL     1     -32.238  13.120 -32.539  1.00  0.00     0.064 C 
ATOM     10  O   UNL     1     -32.137  12.522 -31.436  1.00  0.00    -0.545 OA
ATOM     11  O   UNL     1     -31.094  13.632 -33.139  1.00  0.00    -0.545 OA
ENDBRANCH   8   9
ENDBRANCH   1   7
BRANCH   4  12
ATOM     12  O   UNL     1     -32.231  11.585 -38.694  1.00  0.00    -0.504 OA
ATOM     13  H   UNL     1     -31.406  11.337 -39.228  1.00  0.00     0.293 HD
ENDBRANCH   4  12
BRANCH   6  14
ATOM     14  O   UNL     1     -30.878   9.362 -37.598  1.00  0.00    -0.504 OA
ATOM     15  H   UNL     1     -31.129   8.397 -37.779  1.00  0.00     0.293 HD
ENDBRANCH   6  14
TORSDOF 4
ENDMDL
MODEL 5
REMARK VINA RESULT:    -5.191      1.747      2.290
REMARK INTER + INTRA:          -6.299
REMARK INTER:                  -6.415
REMARK INTRA:                   0.116
REMARK UNBOUND:                -0.198
REMARK SMILES O=C([O-])C=Cc1ccc(O)c(O)c1
REMARK SMILES IDX 6 1 13 2 7 3 11 4 8 5 9 6 5 7 4 8 2 9 1 10 3 11 12 12 10 14
REMARK H PARENT 12 13 10 15
REMARK Flexibility Score: inf
ROOT
ATOM      1  C   UNL     1     -33.113  11.586 -37.281  1.00  0.00    -0.022 A 
ATOM      2  C   UNL     1     -33.855  12.156 -36.237  1.00  0.00     0.058 A 
ATOM      3  C   UNL     1     -32.158  10.599 -36.987  1.00  0.00     0.012 A 
ATOM      4  C   UNL     1     -33.612  11.786 -34.907  1.00  0.00     0.157 A 
ATOM      5  C   UNL     1     -31.914  10.228 -35.663  1.00  0.00     0.051 A 
ATOM      6  C   UNL     1     -32.633  10.819 -34.620  1.00  0.00     0.157 A 
ENDROOT
BRANCH   1   7
ATOM      7  C   UNL     1     -33.427  11.956 -38.678  1.00  0.00     0.010 C 
ATOM      8  C   UNL     1     -33.724  11.094 -39.663  1.00  0.00     0.025 C 
BRANCH   8   9
ATOM      9  C   UNL     1     -33.619   9.624 -39.583  1.00  0.00     0.064 C 
ATOM     10  O   UNL     1     -34.497   8.930 -39.006  1.00  0.00    -0.545 OA
ATOM     11  O   UNL     1     -32.489   8.998 -40.094  1.00  0.00    -0.545 OA
ENDBRANCH   8   9
ENDBRANCH   1   7
BRANCH   4  12
ATOM     12  O   UNL     1     -34.340  12.370 -33.872  1.00  0.00    -0.504 OA
ATOM     13  H   UNL     1     -34.009  13.200 -33.393  1.00  0.00     0.293 HD
ENDBRANCH   4  12
BRANCH   6  14
ATOM     14  O   UNL     1     -32.366  10.432 -33.307  1.00  0.00    -0.504 OA
ATOM     15  H   UNL     1     -32.855  10.833 -32.516  1.00  0.00     0.293 HD
ENDBRANCH   6  14
TORSDOF 4
ENDMDL
MODEL 6
REMARK VINA RESULT:    -5.021      1.559      1.757
REMARK INTER + INTRA:          -6.099
REMARK INTER:                  -6.175
REMARK INTRA:                   0.076
REMARK UNBOUND:                -0.198
REMARK SMILES O=C([O-])C=Cc1ccc(O)c(O)c1
REMARK SMILES IDX 6 1 13 2 7 3 11 4 8 5 9 6 5 7 4 8 2 9 1 10 3 11 12 12 10 14
REMARK H PARENT 12 13 10 15
REMARK Flexibility Score: inf
ROOT
ATOM      1  C   UNL     1     -33.086   9.425 -37.805  1.00  0.00    -0.022 A 
ATOM      2  C   UNL     1     -34.189   9.307 -36.947  1.00  0.00     0.058 A 
ATOM      3  C   UNL     1     -31.830   9.755 -37.269  1.00  0.00     0.012 A 
ATOM      4  C   UNL     1     -34.054   9.567 -35.575  1.00  0.00     0.157 A 
ATOM      5  C   UNL     1     -31.693  10.014 -35.904  1.00  0.00     0.051 A 
ATOM      6  C   UNL     1     -32.799   9.927 -35.053  1.00  0.00     0.157 A 
ENDROOT
BRANCH   1   7
ATOM      7  C   UNL     1     -33.246   9.093 -39.237  1.00  0.00     0.010 C 
ATOM      8  C   UNL     1     -33.715   9.925 -40.180  1.00  0.00     0.025 C 
BRANCH   8   9
ATOM      9  C   UNL     1     -34.322  11.248 -39.938  1.00  0.00     0.064 C 
ATOM     10  O   UNL     1     -33.838  12.052 -39.098  1.00  0.00    -0.545 OA
ATOM     11  O   UNL     1     -35.494  11.587 -40.601  1.00  0.00    -0.545 OA
ENDBRANCH   8   9
ENDBRANCH   1   7
BRANCH   4  12
ATOM     12  O   UNL     1     -35.158   9.468 -34.731  1.00  0.00    -0.504 OA
ATOM     13  H   UNL     1     -35.792  10.247 -34.590  1.00  0.00     0.293 HD
ENDBRANCH   4  12
BRANCH   6  14
ATOM     14  O   UNL     1     -32.633  10.195 -33.695  1.00  0.00    -0.504 OA
ATOM     15  H   UNL     1     -31.771   9.985 -33.206  1.00  0.00     0.293 HD
ENDBRANCH   6  14
TORSDOF 4
ENDMDL
MODEL 7
REMARK VINA RESULT:    -4.979      1.617      2.216
REMARK INTER + INTRA:          -6.050
REMARK INTER:                  -6.092
REMARK INTRA:                   0.042
REMARK UNBOUND:                -0.198
REMARK SMILES O=C([O-])C=Cc1ccc(O)c(O)c1
REMARK SMILES IDX 6 1 13 2 7 3 11 4 8 5 9 6 5 7 4 8 2 9 1 10 3 11 12 12 10 14
REMARK H PARENT 12 13 10 15
REMARK Flexibility Score: inf
ROOT
ATOM      1  C   UNL     1     -33.432   9.746 -36.449  1.00  0.00    -0.022 A 
ATOM      2  C   UNL     1     -34.266  10.672 -35.807  1.00  0.00     0.058 A 
ATOM      3  C   UNL     1     -32.151   9.497 -35.930  1.00  0.00     0.012 A 
ATOM      4  C   UNL     1     -33.808  11.385 -34.689  1.00  0.00     0.157 A 
ATOM      5  C   UNL     1     -31.692  10.205 -34.817  1.00  0.00     0.051 A 
ATOM      6  C   UNL     1     -32.512  11.152 -34.195  1.00  0.00     0.157 A 
ENDROOT
BRANCH   1   7
ATOM      7  C   UNL     1     -33.959   8.971 -37.593  1.00  0.00     0.010 C 
ATOM      8  C   UNL     1     -34.024   9.404 -38.862  1.00  0.00     0.025 C 
BRANCH   8   9
ATOM      9  C   UNL     1     -33.753  10.781 -39.317  1.00  0.00     0.064 C 
ATOM     10  O   UNL     1     -32.746  11.423 -38.916  1.00  0.00    -0.545 OA
ATOM     11  O   UNL     1     -34.666  11.409 -40.154  1.00  0.00    -0.545 OA
ENDBRANCH   8   9
ENDBRANCH   1   7
BRANCH   4  12
ATOM     12  O   UNL     1     -34.634  12.318 -34.066  1.00  0.00    -0.504 OA
ATOM     13  H   UNL     1     -35.564  12.074 -33.743  1.00  0.00     0.293 HD
ENDBRANCH   4  12
BRANCH   6  14
ATOM     14  O   UNL     1     -32.027  11.846 -33.088  1.00  0.00    -0.504 OA
ATOM     15  H   UNL     1     -32.381  12.758 -32.826  1.00  0.00     0.293 HD
ENDBRANCH   6  14
TORSDOF 4
ENDMDL
MODEL 8
REMARK VINA RESULT:    -4.766      1.942      5.077
REMARK INTER + INTRA:          -5.799
REMARK INTER:                  -6.172
REMARK INTRA:                   0.373
REMARK UNBOUND:                -0.198
REMARK SMILES O=C([O-])C=Cc1ccc(O)c(O)c1
REMARK SMILES IDX 6 1 13 2 7 3 11 4 8 5 9 6 5 7 4 8 2 9 1 10 3 11 12 12 10 14
REMARK H PARENT 12 13 10 15
REMARK Flexibility Score: inf
ROOT
ATOM      1  C   UNL     1     -32.592  10.089 -35.813  1.00  0.00    -0.022 A 
ATOM      2  C   UNL     1     -32.185  10.608 -37.051  1.00  0.00     0.058 A 
ATOM      3  C   UNL     1     -33.677   9.198 -35.764  1.00  0.00     0.012 A 
ATOM      4  C   UNL     1     -32.886  10.285 -38.222  1.00  0.00     0.157 A 
ATOM      5  C   UNL     1     -34.377   8.875 -36.929  1.00  0.00     0.051 A 
ATOM      6  C   UNL     1     -33.990   9.417 -38.158  1.00  0.00     0.157 A 
ENDROOT
BRANCH   1   7
ATOM      7  C   UNL     1     -31.803  10.404 -34.603  1.00  0.00     0.010 C 
ATOM      8  C   UNL     1     -32.053  11.412 -33.753  1.00  0.00     0.025 C 
BRANCH   8   9
ATOM      9  C   UNL     1     -33.038  12.491 -33.960  1.00  0.00     0.064 C 
ATOM     10  O   UNL     1     -33.660  12.616 -35.048  1.00  0.00    -0.545 OA
ATOM     11  O   UNL     1     -33.233  13.431 -32.958  1.00  0.00    -0.545 OA
ENDBRANCH   8   9
ENDBRANCH   1   7
BRANCH   4  12
ATOM     12  O   UNL     1     -32.488  10.820 -39.446  1.00  0.00    -0.504 OA
ATOM     13  H   UNL     1     -33.126  11.358 -40.023  1.00  0.00     0.293 HD
ENDBRANCH   4  12
BRANCH   6  14
ATOM     14  O   UNL     1     -34.709   9.080 -39.304  1.00  0.00    -0.504 OA
ATOM     15  H   UNL     1     -35.561   8.533 -39.265  1.00  0.00     0.293 HD
ENDBRANCH   6  14
TORSDOF 4
ENDMDL
MODEL 9
REMARK VINA RESULT:    -4.526      1.864      2.561
REMARK INTER + INTRA:          -5.518
REMARK INTER:                  -5.562
REMARK INTRA:                   0.044
REMARK UNBOUND:                -0.198
REMARK SMILES O=C([O-])C=Cc1ccc(O)c(O)c1
REMARK SMILES IDX 6 1 13 2 7 3 11 4 8 5 9 6 5 7 4 8 2 9 1 10 3 11 12 12 10 14
REMARK H PARENT 12 13 10 15
REMARK Flexibility Score: inf
ROOT
ATOM      1  C   UNL     1     -33.062   9.125 -38.154  1.00  0.00    -0.022 A 
ATOM      2  C   UNL     1     -31.883   9.637 -37.593  1.00  0.00     0.058 A 
ATOM      3  C   UNL     1     -34.167   8.875 -37.323  1.00  0.00     0.012 A 
ATOM      4  C   UNL     1     -31.787   9.848 -36.210  1.00  0.00     0.157 A 
ATOM      5  C   UNL     1     -34.073   9.084 -35.945  1.00  0.00     0.051 A 
ATOM      6  C   UNL     1     -32.888   9.565 -35.383  1.00  0.00     0.157 A 
ENDROOT
BRANCH   1   7
ATOM      7  C   UNL     1     -33.154   8.963 -39.621  1.00  0.00     0.010 C 
ATOM      8  C   UNL     1     -33.669   9.865 -40.472  1.00  0.00     0.025 C 
BRANCH   8   9
ATOM      9  C   UNL     1     -34.394  11.092 -40.092  1.00  0.00     0.064 C 
ATOM     10  O   UNL     1     -33.960  11.866 -39.198  1.00  0.00    -0.545 OA
ATOM     11  O   UNL     1     -35.620  11.365 -40.686  1.00  0.00    -0.545 OA
ENDBRANCH   8   9
ENDBRANCH   1   7
BRANCH   4  12
ATOM     12  O   UNL     1     -30.605  10.338 -35.656  1.00  0.00    -0.504 OA
ATOM     13  H   UNL     1     -30.158   9.881 -34.870  1.00  0.00     0.293 HD
ENDBRANCH   4  12
BRANCH   6  14
ATOM     14  O   UNL     1     -32.822   9.761 -34.004  1.00  0.00    -0.504 OA
ATOM     15  H   UNL     1     -32.984   9.009 -33.344  1.00  0.00     0.293 HD
ENDBRANCH   6  14
TORSDOF 4
ENDMDL
