MODEL 1
REMARK VINA RESULT:    -3.621      0.000      0.000
REMARK INTER + INTRA:          -6.089
REMARK INTER:                  -5.526
REMARK INTRA:                  -0.562
REMARK UNBOUND:                -0.562
REMARK SMILES CC1=CCC[C@@H](C)C(=O)C[C@H](C(C)C)C(=O)C1
REMARK SMILES IDX 8 1 9 2 6 3 7 4 5 5 4 6 3 7 2 8 1 9 10 11 11 12 15 13 16 14
REMARK SMILES IDX 17 15 12 17 13 18 14 19
REMARK H PARENT
REMARK Flexibility Score: 70.00
ROOT
ATOM      1  C   UNL     1     -14.511   9.856  29.430  1.00  0.00     0.136 C 
ATOM      2  O   UNL     1     -14.819   8.904  28.727  1.00  0.00    -0.299 OA
ENDROOT
BRANCH   1   3
ATOM      3  C   UNL     1     -15.617  10.803  29.878  1.00  0.00     0.053 C 
ATOM      4  C   UNL     1     -15.050  12.051  30.567  1.00  0.00     0.016 C 
BRANCH   3   5
ATOM      5  C   UNL     1     -16.673  10.112  30.766  1.00  0.00     0.015 C 
BRANCH   5   6
ATOM      6  C   UNL     1     -16.057   9.494  32.036  1.00  0.00     0.028 C 
BRANCH   6   7
ATOM      7  C   UNL     1     -16.131   7.993  32.076  1.00  0.00    -0.028 C 
ATOM      8  C   UNL     1     -15.075   7.141  32.109  1.00  0.00    -0.070 CG0
ATOM      9  C   UNL     1     -15.389   5.670  31.954  1.00  0.00     0.039 C 
ATOM     10  G   UNL     1     -13.639   7.522  32.465  1.00  0.00     0.000 G0
ENDBRANCH   6   7
ENDBRANCH   5   6
ENDBRANCH   3   5
ENDBRANCH   1   3
BRANCH   1  11
ATOM     11  C   UNL     1     -13.048  10.040  29.771  1.00  0.00     0.087 C 
BRANCH  11  12
ATOM     12  C   UNL     1     -12.599   9.557  31.179  1.00  0.00     0.066 C 
BRANCH  12  13
ATOM     13  C   UNL     1     -12.748   8.044  31.358  1.00  0.00     0.140 C 
ATOM     14  O   UNL     1     -12.050   7.281  30.706  1.00  0.00    -0.299 OA
BRANCH  13  15
ATOM     15  C   UNL     1     -13.630   7.493  32.462  1.00  0.00     0.106 CG0
ATOM     16  G   UNL     1     -15.077   7.155  32.109  1.00  0.00     0.000 G0
ENDBRANCH  13  15
ENDBRANCH  12  13
BRANCH  12  17
ATOM     17  C   UNL     1     -11.126  10.003  31.470  1.00  0.00    -0.006 C 
ATOM     18  C   UNL     1     -10.892  11.485  31.118  1.00  0.00     0.008 C 
ATOM     19  C   UNL     1     -10.727   9.776  32.940  1.00  0.00     0.008 C 
ENDBRANCH  12  17
ENDBRANCH  11  12
ENDBRANCH   1  11
TORSDOF 1
ENDMDL
MODEL 2
REMARK VINA RESULT:    -3.489      4.163      7.197
REMARK INTER + INTRA:          -5.887
REMARK INTER:                  -5.459
REMARK INTRA:                  -0.428
REMARK UNBOUND:                -0.562
REMARK SMILES CC1=CCC[C@@H](C)C(=O)C[C@H](C(C)C)C(=O)C1
REMARK SMILES IDX 8 1 9 2 6 3 7 4 5 5 4 6 3 7 2 8 1 9 10 11 11 12 15 13 16 14
REMARK SMILES IDX 17 15 12 17 13 18 14 19
REMARK H PARENT
REMARK Flexibility Score: 70.00
ROOT
ATOM      1  C   UNL     1     -13.572   1.648  29.659  1.00  0.00     0.136 C 
ATOM      2  O   UNL     1     -14.291   0.780  29.182  1.00  0.00    -0.299 OA
ENDROOT
BRANCH   1   3
ATOM      3  C   UNL     1     -12.505   1.224  30.659  1.00  0.00     0.053 C 
ATOM      4  C   UNL     1     -12.936  -0.013  31.457  1.00  0.00     0.016 C 
BRANCH   3   5
ATOM      5  C   UNL     1     -12.078   2.369  31.601  1.00  0.00     0.015 C 
BRANCH   5   6
ATOM      6  C   UNL     1     -13.095   2.605  32.735  1.00  0.00     0.028 C 
BRANCH   6   7
ATOM      7  C   UNL     1     -13.122   4.021  33.239  1.00  0.00    -0.028 C 
ATOM      8  C   UNL     1     -13.938   5.012  32.797  1.00  0.00    -0.070 CG0
ATOM      9  C   UNL     1     -13.655   6.402  33.319  1.00  0.00     0.039 C 
ATOM     10  G   UNL     1     -15.206   4.814  31.970  1.00  0.00     0.000 G0
ENDBRANCH   6   7
ENDBRANCH   5   6
ENDBRANCH   3   5
ENDBRANCH   1   3
BRANCH   1  11
ATOM     11  C   UNL     1     -13.823   3.081  29.243  1.00  0.00     0.087 C 
BRANCH  11  12
ATOM     12  C   UNL     1     -15.219   3.671  29.597  1.00  0.00     0.066 C 
BRANCH  12  13
ATOM     13  C   UNL     1     -15.124   4.926  30.467  1.00  0.00     0.140 C 
ATOM     14  O   UNL     1     -15.110   6.031  29.945  1.00  0.00    -0.299 OA
BRANCH  13  15
ATOM     15  C   UNL     1     -15.225   4.812  31.977  1.00  0.00     0.106 CG0
ATOM     16  G   UNL     1     -13.946   5.009  32.788  1.00  0.00     0.000 G0
ENDBRANCH  13  15
ENDBRANCH  12  13
BRANCH  12  17
ATOM     17  C   UNL     1     -16.037   3.965  28.293  1.00  0.00    -0.006 C 
ATOM     18  C   UNL     1     -15.131   4.037  27.048  1.00  0.00     0.008 C 
ATOM     19  C   UNL     1     -17.135   2.915  28.045  1.00  0.00     0.008 C 
ENDBRANCH  12  17
ENDBRANCH  11  12
ENDBRANCH   1  11
TORSDOF 1
ENDMDL
MODEL 3
REMARK VINA RESULT:    -3.357      4.133      7.078
REMARK INTER + INTRA:          -5.685
REMARK INTER:                  -5.435
REMARK INTRA:                  -0.250
REMARK UNBOUND:                -0.562
REMARK SMILES CC1=CCC[C@@H](C)C(=O)C[C@H](C(C)C)C(=O)C1
REMARK SMILES IDX 8 1 9 2 6 3 7 4 5 5 4 6 3 7 2 8 1 9 10 11 11 12 15 13 16 14
REMARK SMILES IDX 17 15 12 17 13 18 14 19
REMARK H PARENT
REMARK Flexibility Score: 70.00
ROOT
ATOM      1  C   UNL     1     -13.970   3.392  33.477  1.00  0.00     0.136 C 
ATOM      2  O   UNL     1     -12.992   4.027  33.847  1.00  0.00    -0.299 OA
ENDROOT
BRANCH   1   3
ATOM      3  C   UNL     1     -14.012   1.900  33.781  1.00  0.00     0.053 C 
ATOM      4  C   UNL     1     -14.241   1.633  35.274  1.00  0.00     0.016 C 
BRANCH   3   5
ATOM      5  C   UNL     1     -12.765   1.149  33.269  1.00  0.00     0.015 C 
BRANCH   5   6
ATOM      6  C   UNL     1     -12.270   1.690  31.913  1.00  0.00     0.028 C 
BRANCH   6   7
ATOM      7  C   UNL     1     -12.997   1.115  30.730  1.00  0.00    -0.028 C 
ATOM      8  C   UNL     1     -13.730   1.813  29.825  1.00  0.00    -0.070 CG0
ATOM      9  C   UNL     1     -14.526   0.999  28.829  1.00  0.00     0.039 C 
ATOM     10  G   UNL     1     -13.676   3.325  29.618  1.00  0.00     0.000 G0
ENDBRANCH   6   7
ENDBRANCH   5   6
ENDBRANCH   3   5
ENDBRANCH   1   3
BRANCH   1  11
ATOM     11  C   UNL     1     -15.048   4.132  32.714  1.00  0.00     0.087 C 
BRANCH  11  12
ATOM     12  C   UNL     1     -14.582   4.947  31.473  1.00  0.00     0.066 C 
BRANCH  12  13
ATOM     13  C   UNL     1     -14.782   4.187  30.161  1.00  0.00     0.140 C 
ATOM     14  O   UNL     1     -15.787   4.377  29.492  1.00  0.00    -0.299 OA
BRANCH  13  15
ATOM     15  C   UNL     1     -13.661   3.331  29.600  1.00  0.00     0.106 CG0
ATOM     16  G   UNL     1     -13.738   1.823  29.833  1.00  0.00     0.000 G0
ENDBRANCH  13  15
ENDBRANCH  12  13
BRANCH  12  17
ATOM     17  C   UNL     1     -15.310   6.334  31.422  1.00  0.00    -0.006 C 
ATOM     18  C   UNL     1     -15.897   6.728  32.792  1.00  0.00     0.008 C 
ATOM     19  C   UNL     1     -14.380   7.463  30.941  1.00  0.00     0.008 C 
ENDBRANCH  12  17
ENDBRANCH  11  12
ENDBRANCH   1  11
TORSDOF 1
ENDMDL
MODEL 4
REMARK VINA RESULT:    -3.350      2.258      5.244
REMARK INTER + INTRA:          -5.675
REMARK INTER:                  -5.382
REMARK INTRA:                  -0.293
REMARK UNBOUND:                -0.562
REMARK SMILES CC1=CCC[C@@H](C)C(=O)C[C@H](C(C)C)C(=O)C1
REMARK SMILES IDX 8 1 9 2 6 3 7 4 5 5 4 6 3 7 2 8 1 9 10 11 11 12 15 13 16 14
REMARK SMILES IDX 17 15 12 17 13 18 14 19
REMARK H PARENT
REMARK Flexibility Score: 70.00
ROOT
ATOM      1  C   UNL     1     -13.135   7.483  32.803  1.00  0.00     0.136 C 
ATOM      2  O   UNL     1     -14.121   7.337  33.512  1.00  0.00    -0.299 OA
ENDROOT
BRANCH   1   3
ATOM      3  C   UNL     1     -11.766   7.233  33.422  1.00  0.00     0.053 C 
ATOM      4  C   UNL     1     -11.503   5.737  33.632  1.00  0.00     0.016 C 
BRANCH   3   5
ATOM      5  C   UNL     1     -11.547   8.022  34.731  1.00  0.00     0.015 C 
BRANCH   5   6
ATOM      6  C   UNL     1     -10.804   9.351  34.497  1.00  0.00     0.028 C 
BRANCH   6   7
ATOM      7  C   UNL     1      -9.854   9.317  33.331  1.00  0.00    -0.028 C 
ATOM      8  C   UNL     1     -10.118   9.749  32.072  1.00  0.00    -0.070 CG0
ATOM      9  C   UNL     1      -9.077   9.441  31.020  1.00  0.00     0.039 C 
ATOM     10  G   UNL     1     -11.275  10.663  31.672  1.00  0.00     0.000 G0
ENDBRANCH   6   7
ENDBRANCH   5   6
ENDBRANCH   3   5
ENDBRANCH   1   3
BRANCH   1  11
ATOM     11  C   UNL     1     -13.350   7.934  31.375  1.00  0.00     0.087 C 
BRANCH  11  12
ATOM     12  C   UNL     1     -13.556   9.460  31.155  1.00  0.00     0.066 C 
BRANCH  12  13
ATOM     13  C   UNL     1     -12.287  10.162  30.667  1.00  0.00     0.140 C 
ATOM     14  O   UNL     1     -12.153  10.428  29.481  1.00  0.00    -0.299 OA
BRANCH  13  15
ATOM     15  C   UNL     1     -11.274  10.683  31.669  1.00  0.00     0.106 CG0
ATOM     16  G   UNL     1     -10.127   9.755  32.065  1.00  0.00     0.000 G0
ENDBRANCH  13  15
ENDBRANCH  12  13
BRANCH  12  17
ATOM     17  C   UNL     1     -14.742   9.717  30.164  1.00  0.00    -0.006 C 
ATOM     18  C   UNL     1     -15.688   8.504  30.070  1.00  0.00     0.008 C 
ATOM     19  C   UNL     1     -15.568  10.958  30.552  1.00  0.00     0.008 C 
ENDBRANCH  12  17
ENDBRANCH  11  12
ENDBRANCH   1  11
TORSDOF 1
ENDMDL
MODEL 5
REMARK VINA RESULT:    -3.332      5.221      7.398
REMARK INTER + INTRA:          -5.647
REMARK INTER:                  -5.563
REMARK INTRA:                  -0.084
REMARK UNBOUND:                -0.562
REMARK SMILES CC1=CCC[C@@H](C)C(=O)C[C@H](C(C)C)C(=O)C1
REMARK SMILES IDX 8 1 9 2 6 3 7 4 5 5 4 6 3 7 2 8 1 9 10 11 11 12 15 13 16 14
REMARK SMILES IDX 17 15 12 17 13 18 14 19
REMARK H PARENT
REMARK Flexibility Score: 70.00
ROOT
ATOM      1  C   UNL     1     -13.637   2.079  33.583  1.00  0.00     0.136 C 
ATOM      2  O   UNL     1     -14.703   1.969  34.174  1.00  0.00    -0.299 OA
ENDROOT
BRANCH   1   3
ATOM      3  C   UNL     1     -12.954   0.808  33.096  1.00  0.00     0.053 C 
ATOM      4  C   UNL     1     -11.477   1.051  32.762  1.00  0.00     0.016 C 
BRANCH   3   5
ATOM      5  C   UNL     1     -13.689   0.150  31.909  1.00  0.00     0.015 C 
BRANCH   5   6
ATOM      6  C   UNL     1     -12.954   0.368  30.572  1.00  0.00     0.028 C 
BRANCH   6   7
ATOM      7  C   UNL     1     -13.851   0.824  29.455  1.00  0.00    -0.028 C 
ATOM      8  C   UNL     1     -14.119   2.112  29.119  1.00  0.00    -0.070 CG0
ATOM      9  C   UNL     1     -15.197   2.329  28.083  1.00  0.00     0.039 C 
ATOM     10  G   UNL     1     -13.310   3.330  29.562  1.00  0.00     0.000 G0
ENDBRANCH   6   7
ENDBRANCH   5   6
ENDBRANCH   3   5
ENDBRANCH   1   3
BRANCH   1  11
ATOM     11  C   UNL     1     -13.063   3.469  33.412  1.00  0.00     0.087 C 
BRANCH  11  12
ATOM     12  C   UNL     1     -12.475   3.808  32.011  1.00  0.00     0.066 C 
BRANCH  12  13
ATOM     13  C   UNL     1     -13.553   3.913  30.930  1.00  0.00     0.140 C 
ATOM     14  O   UNL     1     -14.556   4.581  31.131  1.00  0.00    -0.299 OA
BRANCH  13  15
ATOM     15  C   UNL     1     -13.302   3.335  29.549  1.00  0.00     0.106 CG0
ATOM     16  G   UNL     1     -14.111   2.107  29.138  1.00  0.00     0.000 G0
ENDBRANCH  13  15
ENDBRANCH  12  13
BRANCH  12  17
ATOM     17  C   UNL     1     -11.629   5.124  32.075  1.00  0.00    -0.006 C 
ATOM     18  C   UNL     1     -11.646   5.754  33.481  1.00  0.00     0.008 C 
ATOM     19  C   UNL     1     -10.165   4.897  31.654  1.00  0.00     0.008 C 
ENDBRANCH  12  17
ENDBRANCH  11  12
ENDBRANCH   1  11
TORSDOF 1
ENDMDL
MODEL 6
REMARK VINA RESULT:    -3.317      4.787      7.326
REMARK INTER + INTRA:          -5.625
REMARK INTER:                  -5.395
REMARK INTRA:                  -0.230
REMARK UNBOUND:                -0.562
REMARK SMILES CC1=CCC[C@@H](C)C(=O)C[C@H](C(C)C)C(=O)C1
REMARK SMILES IDX 8 1 9 2 6 3 7 4 5 5 4 6 3 7 2 8 1 9 10 11 11 12 15 13 16 14
REMARK SMILES IDX 17 15 12 17 13 18 14 19
REMARK H PARENT
REMARK Flexibility Score: 70.00
ROOT
ATOM      1  C   UNL     1     -13.675   2.133  28.997  1.00  0.00     0.136 C 
ATOM      2  O   UNL     1     -14.667   1.982  28.296  1.00  0.00    -0.299 OA
ENDROOT
BRANCH   1   3
ATOM      3  C   UNL     1     -12.703   0.967  29.121  1.00  0.00     0.053 C 
ATOM      4  C   UNL     1     -12.718   0.081  27.869  1.00  0.00     0.016 C 
BRANCH   3   5
ATOM      5  C   UNL     1     -12.934   0.127  30.395  1.00  0.00     0.015 C 
BRANCH   5   6
ATOM      6  C   UNL     1     -12.252   0.741  31.633  1.00  0.00     0.028 C 
BRANCH   6   7
ATOM      7  C   UNL     1     -13.186   0.968  32.789  1.00  0.00    -0.028 C 
ATOM      8  C   UNL     1     -13.547   2.171  33.302  1.00  0.00    -0.070 CG0
ATOM      9  C   UNL     1     -14.348   2.147  34.584  1.00  0.00     0.039 C 
ATOM     10  G   UNL     1     -13.369   3.520  32.608  1.00  0.00     0.000 G0
ENDBRANCH   6   7
ENDBRANCH   5   6
ENDBRANCH   3   5
ENDBRANCH   1   3
BRANCH   1  11
ATOM     11  C   UNL     1     -13.510   3.455  29.714  1.00  0.00     0.087 C 
BRANCH  11  12
ATOM     12  C   UNL     1     -14.773   4.021  30.424  1.00  0.00     0.066 C 
BRANCH  12  13
ATOM     13  C   UNL     1     -14.598   4.129  31.940  1.00  0.00     0.140 C 
ATOM     14  O   UNL     1     -15.507   4.567  32.630  1.00  0.00    -0.299 OA
BRANCH  13  15
ATOM     15  C   UNL     1     -13.372   3.535  32.608  1.00  0.00     0.106 CG0
ATOM     16  G   UNL     1     -13.526   2.176  33.289  1.00  0.00     0.000 G0
ENDBRANCH  13  15
ENDBRANCH  12  13
BRANCH  12  17
ATOM     17  C   UNL     1     -15.170   5.409  29.815  1.00  0.00    -0.006 C 
ATOM     18  C   UNL     1     -14.123   5.916  28.804  1.00  0.00     0.008 C 
ATOM     19  C   UNL     1     -16.545   5.370  29.123  1.00  0.00     0.008 C 
ENDBRANCH  12  17
ENDBRANCH  11  12
ENDBRANCH   1  11
TORSDOF 1
ENDMDL
MODEL 7
REMARK VINA RESULT:    -3.284      1.962      5.316
REMARK INTER + INTRA:          -5.575
REMARK INTER:                  -5.363
REMARK INTRA:                  -0.212
REMARK UNBOUND:                -0.562
REMARK SMILES CC1=CCC[C@@H](C)C(=O)C[C@H](C(C)C)C(=O)C1
REMARK SMILES IDX 8 1 9 2 6 3 7 4 5 5 4 6 3 7 2 8 1 9 10 11 11 12 15 13 16 14
REMARK SMILES IDX 17 15 12 17 13 18 14 19
REMARK H PARENT
REMARK Flexibility Score: 70.00
ROOT
ATOM      1  C   UNL     1     -11.767   7.680  33.415  1.00  0.00     0.136 C 
ATOM      2  O   UNL     1     -12.000   7.192  34.512  1.00  0.00    -0.299 OA
ENDROOT
BRANCH   1   3
ATOM      3  C   UNL     1     -10.540   8.571  33.273  1.00  0.00     0.053 C 
ATOM      4  C   UNL     1      -9.559   8.374  34.436  1.00  0.00     0.016 C 
BRANCH   3   5
ATOM      5  C   UNL     1     -10.899  10.062  33.099  1.00  0.00     0.015 C 
BRANCH   5   6
ATOM      6  C   UNL     1     -10.797  10.522  31.632  1.00  0.00     0.028 C 
BRANCH   6   7
ATOM      7  C   UNL     1     -11.954  11.368  31.180  1.00  0.00    -0.028 C 
ATOM      8  C   UNL     1     -13.063  10.927  30.533  1.00  0.00    -0.070 CG0
ATOM      9  C   UNL     1     -14.006  11.986  30.010  1.00  0.00     0.039 C 
ATOM     10  G   UNL     1     -13.519   9.472  30.448  1.00  0.00     0.000 G0
ENDBRANCH   6   7
ENDBRANCH   5   6
ENDBRANCH   3   5
ENDBRANCH   1   3
BRANCH   1  11
ATOM     11  C   UNL     1     -12.737   7.388  32.291  1.00  0.00     0.087 C 
BRANCH  11  12
ATOM     12  C   UNL     1     -14.190   7.913  32.475  1.00  0.00     0.066 C 
BRANCH  12  13
ATOM     13  C   UNL     1     -14.561   8.989  31.453  1.00  0.00     0.140 C 
ATOM     14  O   UNL     1     -15.637   9.564  31.535  1.00  0.00    -0.299 OA
BRANCH  13  15
ATOM     15  C   UNL     1     -13.533   9.468  30.446  1.00  0.00     0.106 CG0
ATOM     16  G   UNL     1     -13.065  10.919  30.548  1.00  0.00     0.000 G0
ENDBRANCH  13  15
ENDBRANCH  12  13
BRANCH  12  17
ATOM     17  C   UNL     1     -15.213   6.728  32.424  1.00  0.00    -0.006 C 
ATOM     18  C   UNL     1     -14.507   5.359  32.363  1.00  0.00     0.008 C 
ATOM     19  C   UNL     1     -16.174   6.735  33.627  1.00  0.00     0.008 C 
ENDBRANCH  12  17
ENDBRANCH  11  12
ENDBRANCH   1  11
TORSDOF 1
ENDMDL
MODEL 8
REMARK VINA RESULT:    -3.271      4.938      6.988
REMARK INTER + INTRA:          -5.554
REMARK INTER:                  -5.050
REMARK INTRA:                  -0.503
REMARK UNBOUND:                -0.562
REMARK SMILES CC1=CCC[C@@H](C)C(=O)C[C@H](C(C)C)C(=O)C1
REMARK SMILES IDX 8 1 9 2 6 3 7 4 5 5 4 6 3 7 2 8 1 9 10 11 11 12 15 13 16 14
REMARK SMILES IDX 17 15 12 17 13 18 14 19
REMARK H PARENT
REMARK Flexibility Score: 70.00
ROOT
ATOM      1  C   UNL     1     -15.149   4.577  30.702  1.00  0.00     0.136 C 
ATOM      2  O   UNL     1     -15.880   4.544  31.682  1.00  0.00    -0.299 OA
ENDROOT
BRANCH   1   3
ATOM      3  C   UNL     1     -15.685   5.220  29.429  1.00  0.00     0.053 C 
ATOM      4  C   UNL     1     -15.951   6.718  29.620  1.00  0.00     0.016 C 
BRANCH   3   5
ATOM      5  C   UNL     1     -16.934   4.501  28.876  1.00  0.00     0.015 C 
BRANCH   5   6
ATOM      6  C   UNL     1     -16.578   3.211  28.113  1.00  0.00     0.028 C 
BRANCH   6   7
ATOM      7  C   UNL     1     -15.608   3.422  26.984  1.00  0.00    -0.028 C 
ATOM      8  C   UNL     1     -14.331   2.964  26.930  1.00  0.00    -0.070 CG0
ATOM      9  C   UNL     1     -13.484   3.460  25.780  1.00  0.00     0.039 C 
ATOM     10  G   UNL     1     -13.745   1.867  27.816  1.00  0.00     0.000 G0
ENDBRANCH   6   7
ENDBRANCH   5   6
ENDBRANCH   3   5
ENDBRANCH   1   3
BRANCH   1  11
ATOM     11  C   UNL     1     -13.779   3.945  30.820  1.00  0.00     0.087 C 
BRANCH  11  12
ATOM     12  C   UNL     1     -13.663   2.456  30.385  1.00  0.00     0.066 C 
BRANCH  12  13
ATOM     13  C   UNL     1     -12.950   2.289  29.042  1.00  0.00     0.140 C 
ATOM     14  O   UNL     1     -11.731   2.358  28.985  1.00  0.00    -0.299 OA
BRANCH  13  15
ATOM     15  C   UNL     1     -13.733   1.865  27.813  1.00  0.00     0.106 CG0
ATOM     16  G   UNL     1     -14.328   2.966  26.939  1.00  0.00     0.000 G0
ENDBRANCH  13  15
ENDBRANCH  12  13
BRANCH  12  17
ATOM     17  C   UNL     1     -12.950   1.612  31.496  1.00  0.00    -0.006 C 
ATOM     18  C   UNL     1     -13.170   2.206  32.901  1.00  0.00     0.008 C 
ATOM     19  C   UNL     1     -13.415   0.144  31.502  1.00  0.00     0.008 C 
ENDBRANCH  12  17
ENDBRANCH  11  12
ENDBRANCH   1  11
TORSDOF 1
ENDMDL
MODEL 9
REMARK VINA RESULT:    -3.192      4.346      6.386
REMARK INTER + INTRA:          -5.433
REMARK INTER:                  -4.978
REMARK INTRA:                  -0.455
REMARK UNBOUND:                -0.562
REMARK SMILES CC1=CCC[C@@H](C)C(=O)C[C@H](C(C)C)C(=O)C1
REMARK SMILES IDX 8 1 9 2 6 3 7 4 5 5 4 6 3 7 2 8 1 9 10 11 11 12 15 13 16 14
REMARK SMILES IDX 17 15 12 17 13 18 14 19
REMARK H PARENT
REMARK Flexibility Score: 70.00
ROOT
ATOM      1  C   UNL     1     -14.394   4.089  32.791  1.00  0.00     0.136 C 
ATOM      2  O   UNL     1     -14.889   3.425  33.691  1.00  0.00    -0.299 OA
ENDROOT
BRANCH   1   3
ATOM      3  C   UNL     1     -15.023   5.439  32.469  1.00  0.00     0.053 C 
ATOM      4  C   UNL     1     -14.767   6.463  33.581  1.00  0.00     0.016 C 
BRANCH   3   5
ATOM      5  C   UNL     1     -16.529   5.336  32.148  1.00  0.00     0.015 C 
BRANCH   5   6
ATOM      6  C   UNL     1     -16.790   4.853  30.707  1.00  0.00     0.028 C 
BRANCH   6   7
ATOM      7  C   UNL     1     -16.145   5.711  29.655  1.00  0.00    -0.028 C 
ATOM      8  C   UNL     1     -15.084   5.367  28.882  1.00  0.00    -0.070 CG0
ATOM      9  C   UNL     1     -14.489   6.461  28.025  1.00  0.00     0.039 C 
ATOM     10  G   UNL     1     -14.563   3.946  28.673  1.00  0.00     0.000 G0
ENDBRANCH   6   7
ENDBRANCH   5   6
ENDBRANCH   3   5
ENDBRANCH   1   3
BRANCH   1  11
ATOM     11  C   UNL     1     -13.216   3.503  32.044  1.00  0.00     0.087 C 
BRANCH  11  12
ATOM     12  C   UNL     1     -13.546   2.690  30.759  1.00  0.00     0.066 C 
BRANCH  12  13
ATOM     13  C   UNL     1     -13.356   3.507  29.480  1.00  0.00     0.140 C 
ATOM     14  O   UNL     1     -12.234   3.684  29.029  1.00  0.00    -0.299 OA
BRANCH  13  15
ATOM     15  C   UNL     1     -14.564   3.950  28.675  1.00  0.00     0.106 CG0
ATOM     16  G   UNL     1     -15.078   5.371  28.895  1.00  0.00     0.000 G0
ENDBRANCH  13  15
ENDBRANCH  12  13
BRANCH  12  17
ATOM     17  C   UNL     1     -12.692   1.378  30.705  1.00  0.00    -0.006 C 
ATOM     18  C   UNL     1     -12.628   0.674  32.076  1.00  0.00     0.008 C 
ATOM     19  C   UNL     1     -13.226   0.377  29.663  1.00  0.00     0.008 C 
ENDBRANCH  12  17
ENDBRANCH  11  12
ENDBRANCH   1  11
TORSDOF 1
ENDMDL
