MODEL 1
REMARK VINA RESULT:    -3.403      0.000      0.000
REMARK INTER + INTRA:          -6.437
REMARK INTER:                  -5.393
REMARK INTRA:                  -1.045
REMARK UNBOUND:                -1.045
REMARK SMILES CCCCCCCCCCCC(=O)[O-]
REMARK SMILES IDX 7 1 8 2 9 3 10 4 11 5 12 6 13 7 14 8 6 9 5 10 4 11 3 12 2 13
REMARK SMILES IDX 1 14
REMARK H PARENT
REMARK Flexibility Score: inf
ROOT
ATOM      1  C   UNL     1      54.728  53.547  48.111  1.00  0.00     0.000 C 
ENDROOT
BRANCH   1   2
ATOM      2  C   UNL     1      53.771  52.559  47.428  1.00  0.00     0.000 C 
BRANCH   2   3
ATOM      3  C   UNL     1      52.429  52.492  48.172  1.00  0.00     0.000 C 
BRANCH   3   4
ATOM      4  C   UNL     1      52.422  53.326  49.466  1.00  0.00     0.006 C 
BRANCH   4   5
ATOM      5  C   UNL     1      52.004  52.544  50.723  1.00  0.00     0.053 C 
BRANCH   5   6
ATOM      6  C   UNL     1      52.885  51.358  50.965  1.00  0.00     0.041 C 
ATOM      7  O   UNL     1      52.430  50.191  50.827  1.00  0.00    -0.550 OA
ATOM      8  O   UNL     1      54.199  51.540  51.377  1.00  0.00    -0.550 OA
ENDBRANCH   5   6
ENDBRANCH   4   5
ENDBRANCH   3   4
ENDBRANCH   2   3
ENDBRANCH   1   2
BRANCH   1   9
ATOM      9  C   UNL     1      55.169  54.687  47.179  1.00  0.00     0.000 C 
BRANCH   9  10
ATOM     10  C   UNL     1      54.599  54.546  45.760  1.00  0.00    -0.000 C 
BRANCH  10  11
ATOM     11  C   UNL     1      53.878  55.828  45.327  1.00  0.00    -0.000 C 
BRANCH  11  12
ATOM     12  C   UNL     1      52.662  56.105  46.217  1.00  0.00    -0.000 C 
BRANCH  12  13
ATOM     13  C   UNL     1      51.410  56.370  45.372  1.00  0.00    -0.003 C 
ATOM     14  C   UNL     1      51.750  56.429  43.887  1.00  0.00     0.004 C 
ENDBRANCH  12  13
ENDBRANCH  11  12
ENDBRANCH  10  11
ENDBRANCH   9  10
ENDBRANCH   1   9
TORSDOF 10
ENDMDL
MODEL 2
REMARK VINA RESULT:    -3.376      3.420      6.381
REMARK INTER + INTRA:          -6.394
REMARK INTER:                  -5.497
REMARK INTRA:                  -0.897
REMARK UNBOUND:                -1.045
REMARK SMILES CCCCCCCCCCCC(=O)[O-]
REMARK SMILES IDX 7 1 8 2 9 3 10 4 11 5 12 6 13 7 14 8 6 9 5 10 4 11 3 12 2 13
REMARK SMILES IDX 1 14
REMARK H PARENT
REMARK Flexibility Score: inf
ROOT
ATOM      1  C   UNL     1      54.087  52.295  47.685  1.00  0.00     0.000 C 
ENDROOT
BRANCH   1   2
ATOM      2  C   UNL     1      54.668  53.708  47.516  1.00  0.00     0.000 C 
BRANCH   2   3
ATOM      3  C   UNL     1      54.868  54.044  46.031  1.00  0.00     0.000 C 
BRANCH   3   4
ATOM      4  C   UNL     1      54.196  55.368  45.623  1.00  0.00     0.006 C 
BRANCH   4   5
ATOM      5  C   UNL     1      52.778  55.559  46.187  1.00  0.00     0.053 C 
BRANCH   5   6
ATOM      6  C   UNL     1      51.880  56.268  45.220  1.00  0.00     0.041 C 
ATOM      7  O   UNL     1      50.786  56.754  45.611  1.00  0.00    -0.550 OA
ATOM      8  O   UNL     1      52.236  56.361  43.881  1.00  0.00    -0.550 OA
ENDBRANCH   5   6
ENDBRANCH   4   5
ENDBRANCH   3   4
ENDBRANCH   2   3
ENDBRANCH   1   2
BRANCH   1   9
ATOM      9  C   UNL     1      52.656  52.306  48.245  1.00  0.00     0.000 C 
BRANCH   9  10
ATOM     10  C   UNL     1      52.423  53.438  49.257  1.00  0.00    -0.000 C 
BRANCH  10  11
ATOM     11  C   UNL     1      52.237  52.879  50.672  1.00  0.00    -0.000 C 
BRANCH  11  12
ATOM     12  C   UNL     1      52.113  51.351  50.650  1.00  0.00    -0.000 C 
BRANCH  12  13
ATOM     13  C   UNL     1      53.283  50.693  51.390  1.00  0.00    -0.003 C 
ATOM     14  C   UNL     1      53.679  49.375  50.732  1.00  0.00     0.004 C 
ENDBRANCH  12  13
ENDBRANCH  11  12
ENDBRANCH  10  11
ENDBRANCH   9  10
ENDBRANCH   1   9
TORSDOF 10
ENDMDL
MODEL 3
REMARK VINA RESULT:    -3.337      3.729      5.871
REMARK INTER + INTRA:          -6.332
REMARK INTER:                  -5.196
REMARK INTRA:                  -1.137
REMARK UNBOUND:                -1.045
REMARK SMILES CCCCCCCCCCCC(=O)[O-]
REMARK SMILES IDX 7 1 8 2 9 3 10 4 11 5 12 6 13 7 14 8 6 9 5 10 4 11 3 12 2 13
REMARK SMILES IDX 1 14
REMARK H PARENT
REMARK Flexibility Score: inf
ROOT
ATOM      1  C   UNL     1      52.386  52.673  48.455  1.00  0.00     0.000 C 
ENDROOT
BRANCH   1   2
ATOM      2  C   UNL     1      53.535  52.636  47.435  1.00  0.00     0.000 C 
BRANCH   2   3
ATOM      3  C   UNL     1      53.932  54.057  47.007  1.00  0.00     0.000 C 
BRANCH   3   4
ATOM      4  C   UNL     1      52.723  55.002  46.877  1.00  0.00     0.006 C 
BRANCH   4   5
ATOM      5  C   UNL     1      53.060  56.387  46.301  1.00  0.00     0.053 C 
BRANCH   5   6
ATOM      6  C   UNL     1      53.092  56.380  44.804  1.00  0.00     0.041 C 
ATOM      7  O   UNL     1      52.019  56.338  44.147  1.00  0.00    -0.550 OA
ATOM      8  O   UNL     1      54.309  56.384  44.134  1.00  0.00    -0.550 OA
ENDBRANCH   5   6
ENDBRANCH   4   5
ENDBRANCH   3   4
ENDBRANCH   2   3
ENDBRANCH   1   2
BRANCH   1   9
ATOM      9  C   UNL     1      52.779  52.070  49.813  1.00  0.00     0.000 C 
BRANCH   9  10
ATOM     10  C   UNL     1      51.917  52.600  50.968  1.00  0.00    -0.000 C 
BRANCH  10  11
ATOM     11  C   UNL     1      52.679  53.651  51.785  1.00  0.00    -0.000 C 
BRANCH  11  12
ATOM     12  C   UNL     1      52.327  55.070  51.323  1.00  0.00    -0.000 C 
BRANCH  12  13
ATOM     13  C   UNL     1      53.459  55.672  50.482  1.00  0.00    -0.003 C 
ATOM     14  C   UNL     1      53.107  57.079  50.010  1.00  0.00     0.004 C 
ENDBRANCH  12  13
ENDBRANCH  11  12
ENDBRANCH  10  11
ENDBRANCH   9  10
ENDBRANCH   1   9
TORSDOF 10
ENDMDL
MODEL 4
REMARK VINA RESULT:    -3.290      3.374      5.847
REMARK INTER + INTRA:          -6.257
REMARK INTER:                  -4.828
REMARK INTRA:                  -1.429
REMARK UNBOUND:                -1.045
REMARK SMILES CCCCCCCCCCCC(=O)[O-]
REMARK SMILES IDX 7 1 8 2 9 3 10 4 11 5 12 6 13 7 14 8 6 9 5 10 4 11 3 12 2 13
REMARK SMILES IDX 1 14
REMARK H PARENT
REMARK Flexibility Score: inf
ROOT
ATOM      1  C   UNL     1      53.164  51.510  49.505  1.00  0.00     0.000 C 
ENDROOT
BRANCH   1   2
ATOM      2  C   UNL     1      52.581  52.370  48.374  1.00  0.00     0.000 C 
BRANCH   2   3
ATOM      3  C   UNL     1      53.626  52.613  47.275  1.00  0.00     0.000 C 
BRANCH   3   4
ATOM      4  C   UNL     1      54.036  54.092  47.157  1.00  0.00     0.006 C 
BRANCH   4   5
ATOM      5  C   UNL     1      52.861  55.082  47.225  1.00  0.00     0.053 C 
BRANCH   5   6
ATOM      6  C   UNL     1      52.594  55.729  45.902  1.00  0.00     0.041 C 
ATOM      7  O   UNL     1      53.487  55.749  45.014  1.00  0.00    -0.550 OA
ATOM      8  O   UNL     1      51.370  56.341  45.661  1.00  0.00    -0.550 OA
ENDBRANCH   5   6
ENDBRANCH   4   5
ENDBRANCH   3   4
ENDBRANCH   2   3
ENDBRANCH   1   2
BRANCH   1   9
ATOM      9  C   UNL     1      52.440  51.720  50.844  1.00  0.00     0.000 C 
BRANCH   9  10
ATOM     10  C   UNL     1      51.943  53.162  51.029  1.00  0.00    -0.000 C 
BRANCH  10  11
ATOM     11  C   UNL     1      52.903  53.963  51.917  1.00  0.00    -0.000 C 
BRANCH  11  12
ATOM     12  C   UNL     1      53.870  54.798  51.070  1.00  0.00    -0.000 C 
BRANCH  12  13
ATOM     13  C   UNL     1      55.328  54.480  51.425  1.00  0.00    -0.003 C 
ATOM     14  C   UNL     1      56.020  53.730  50.292  1.00  0.00     0.004 C 
ENDBRANCH  12  13
ENDBRANCH  11  12
ENDBRANCH  10  11
ENDBRANCH   9  10
ENDBRANCH   1   9
TORSDOF 10
ENDMDL
MODEL 5
REMARK VINA RESULT:    -3.276      3.652      5.775
REMARK INTER + INTRA:          -6.236
REMARK INTER:                  -5.222
REMARK INTRA:                  -1.015
REMARK UNBOUND:                -1.045
REMARK SMILES CCCCCCCCCCCC(=O)[O-]
REMARK SMILES IDX 7 1 8 2 9 3 10 4 11 5 12 6 13 7 14 8 6 9 5 10 4 11 3 12 2 13
REMARK SMILES IDX 1 14
REMARK H PARENT
REMARK Flexibility Score: inf
ROOT
ATOM      1  C   UNL     1      52.258  51.624  50.613  1.00  0.00     0.000 C 
ENDROOT
BRANCH   1   2
ATOM      2  C   UNL     1      53.307  51.796  49.503  1.00  0.00     0.000 C 
BRANCH   2   3
ATOM      3  C   UNL     1      52.666  52.362  48.227  1.00  0.00     0.000 C 
BRANCH   3   4
ATOM      4  C   UNL     1      53.548  53.417  47.535  1.00  0.00     0.006 C 
BRANCH   4   5
ATOM      5  C   UNL     1      53.001  54.852  47.615  1.00  0.00     0.053 C 
BRANCH   5   6
ATOM      6  C   UNL     1      52.888  55.487  46.264  1.00  0.00     0.041 C 
ATOM      7  O   UNL     1      53.841  55.407  45.444  1.00  0.00    -0.550 OA
ATOM      8  O   UNL     1      51.744  56.196  45.922  1.00  0.00    -0.550 OA
ENDBRANCH   5   6
ENDBRANCH   4   5
ENDBRANCH   3   4
ENDBRANCH   2   3
ENDBRANCH   1   2
BRANCH   1   9
ATOM      9  C   UNL     1      51.981  52.930  51.374  1.00  0.00     0.000 C 
BRANCH   9  10
ATOM     10  C   UNL     1      53.229  53.484  52.077  1.00  0.00    -0.000 C 
BRANCH  10  11
ATOM     11  C   UNL     1      53.458  54.955  51.711  1.00  0.00    -0.000 C 
BRANCH  11  12
ATOM     12  C   UNL     1      52.139  55.643  51.340  1.00  0.00    -0.000 C 
BRANCH  12  13
ATOM     13  C   UNL     1      52.109  57.088  51.851  1.00  0.00    -0.003 C 
ATOM     14  C   UNL     1      53.151  57.309  52.942  1.00  0.00     0.004 C 
ENDBRANCH  12  13
ENDBRANCH  11  12
ENDBRANCH  10  11
ENDBRANCH   9  10
ENDBRANCH   1   9
TORSDOF 10
ENDMDL
MODEL 6
REMARK VINA RESULT:    -3.241      2.806      3.761
REMARK INTER + INTRA:          -6.181
REMARK INTER:                  -5.156
REMARK INTRA:                  -1.025
REMARK UNBOUND:                -1.045
REMARK SMILES CCCCCCCCCCCC(=O)[O-]
REMARK SMILES IDX 7 1 8 2 9 3 10 4 11 5 12 6 13 7 14 8 6 9 5 10 4 11 3 12 2 13
REMARK SMILES IDX 1 14
REMARK H PARENT
REMARK Flexibility Score: inf
ROOT
ATOM      1  C   UNL     1      52.916  52.127  49.731  1.00  0.00     0.000 C 
ENDROOT
BRANCH   1   2
ATOM      2  C   UNL     1      51.928  52.544  50.831  1.00  0.00     0.000 C 
BRANCH   2   3
ATOM      3  C   UNL     1      52.599  53.490  51.839  1.00  0.00     0.000 C 
BRANCH   3   4
ATOM      4  C   UNL     1      53.528  54.517  51.167  1.00  0.00     0.006 C 
BRANCH   4   5
ATOM      5  C   UNL     1      52.830  55.819  50.739  1.00  0.00     0.053 C 
BRANCH   5   6
ATOM      6  C   UNL     1      52.327  56.599  51.914  1.00  0.00     0.041 C 
ATOM      7  O   UNL     1      51.142  57.025  51.931  1.00  0.00    -0.550 OA
ATOM      8  O   UNL     1      53.176  56.884  52.975  1.00  0.00    -0.550 OA
ENDBRANCH   5   6
ENDBRANCH   4   5
ENDBRANCH   3   4
ENDBRANCH   2   3
ENDBRANCH   1   2
BRANCH   1   9
ATOM      9  C   UNL     1      52.445  52.533  48.326  1.00  0.00     0.000 C 
BRANCH   9  10
ATOM     10  C   UNL     1      53.608  52.715  47.340  1.00  0.00    -0.000 C 
BRANCH  10  11
ATOM     11  C   UNL     1      54.062  54.179  47.291  1.00  0.00    -0.000 C 
BRANCH  11  12
ATOM     12  C   UNL     1      52.872  55.119  47.069  1.00  0.00    -0.000 C 
BRANCH  12  13
ATOM     13  C   UNL     1      52.985  55.842  45.722  1.00  0.00    -0.003 C 
ATOM     14  C   UNL     1      51.617  56.297  45.224  1.00  0.00     0.004 C 
ENDBRANCH  12  13
ENDBRANCH  11  12
ENDBRANCH  10  11
ENDBRANCH   9  10
ENDBRANCH   1   9
TORSDOF 10
ENDMDL
MODEL 7
REMARK VINA RESULT:    -3.233      3.027      5.612
REMARK INTER + INTRA:          -6.168
REMARK INTER:                  -4.511
REMARK INTRA:                  -1.657
REMARK UNBOUND:                -1.045
REMARK SMILES CCCCCCCCCCCC(=O)[O-]
REMARK SMILES IDX 7 1 8 2 9 3 10 4 11 5 12 6 13 7 14 8 6 9 5 10 4 11 3 12 2 13
REMARK SMILES IDX 1 14
REMARK H PARENT
REMARK Flexibility Score: inf
ROOT
ATOM      1  C   UNL     1      55.794  52.264  50.234  1.00  0.00     0.000 C 
ENDROOT
BRANCH   1   2
ATOM      2  C   UNL     1      55.118  53.076  49.119  1.00  0.00     0.000 C 
BRANCH   2   3
ATOM      3  C   UNL     1      54.611  52.154  48.000  1.00  0.00     0.000 C 
BRANCH   3   4
ATOM      4  C   UNL     1      53.285  52.637  47.384  1.00  0.00     0.006 C 
BRANCH   4   5
ATOM      5  C   UNL     1      52.886  54.069  47.780  1.00  0.00     0.053 C 
BRANCH   5   6
ATOM      6  C   UNL     1      53.128  55.045  46.671  1.00  0.00     0.041 C 
ATOM      7  O   UNL     1      53.929  54.763  45.741  1.00  0.00    -0.550 OA
ATOM      8  O   UNL     1      52.494  56.281  46.683  1.00  0.00    -0.550 OA
ENDBRANCH   5   6
ENDBRANCH   4   5
ENDBRANCH   3   4
ENDBRANCH   2   3
ENDBRANCH   1   2
BRANCH   1   9
ATOM      9  C   UNL     1      55.072  50.938  50.523  1.00  0.00     0.000 C 
BRANCH   9  10
ATOM     10  C   UNL     1      53.974  51.082  51.587  1.00  0.00    -0.000 C 
BRANCH  10  11
ATOM     11  C   UNL     1      52.581  50.954  50.960  1.00  0.00    -0.000 C 
BRANCH  11  12
ATOM     12  C   UNL     1      51.880  52.315  50.888  1.00  0.00    -0.000 C 
BRANCH  12  13
ATOM     13  C   UNL     1      52.498  53.305  51.883  1.00  0.00    -0.003 C 
ATOM     14  C   UNL     1      52.382  54.739  51.377  1.00  0.00     0.004 C 
ENDBRANCH  12  13
ENDBRANCH  11  12
ENDBRANCH  10  11
ENDBRANCH   9  10
ENDBRANCH   1   9
TORSDOF 10
ENDMDL
MODEL 8
REMARK VINA RESULT:    -3.182      3.630      5.897
REMARK INTER + INTRA:          -6.087
REMARK INTER:                  -4.606
REMARK INTRA:                  -1.481
REMARK UNBOUND:                -1.045
REMARK SMILES CCCCCCCCCCCC(=O)[O-]
REMARK SMILES IDX 7 1 8 2 9 3 10 4 11 5 12 6 13 7 14 8 6 9 5 10 4 11 3 12 2 13
REMARK SMILES IDX 1 14
REMARK H PARENT
REMARK Flexibility Score: inf
ROOT
ATOM      1  C   UNL     1      53.856  55.002  51.180  1.00  0.00     0.000 C 
ENDROOT
BRANCH   1   2
ATOM      2  C   UNL     1      54.321  56.058  50.166  1.00  0.00     0.000 C 
BRANCH   2   3
ATOM      3  C   UNL     1      53.245  56.304  49.097  1.00  0.00     0.000 C 
BRANCH   3   4
ATOM      4  C   UNL     1      53.751  56.032  47.669  1.00  0.00     0.006 C 
BRANCH   4   5
ATOM      5  C   UNL     1      52.679  55.485  46.711  1.00  0.00     0.053 C 
BRANCH   5   6
ATOM      6  C   UNL     1      52.486  56.372  45.520  1.00  0.00     0.041 C 
ATOM      7  O   UNL     1      51.507  56.193  44.748  1.00  0.00    -0.550 OA
ATOM      8  O   UNL     1      53.407  57.374  45.242  1.00  0.00    -0.550 OA
ENDBRANCH   5   6
ENDBRANCH   4   5
ENDBRANCH   3   4
ENDBRANCH   2   3
ENDBRANCH   1   2
BRANCH   1   9
ATOM      9  C   UNL     1      52.413  54.535  50.929  1.00  0.00     0.000 C 
BRANCH   9  10
ATOM     10  C   UNL     1      52.141  53.127  51.480  1.00  0.00    -0.000 C 
BRANCH  10  11
ATOM     11  C   UNL     1      52.370  52.062  50.401  1.00  0.00    -0.000 C 
BRANCH  11  12
ATOM     12  C   UNL     1      52.316  52.677  48.998  1.00  0.00    -0.000 C 
BRANCH  12  13
ATOM     13  C   UNL     1      53.396  52.076  48.090  1.00  0.00    -0.003 C 
ATOM     14  C   UNL     1      54.788  52.533  48.513  1.00  0.00     0.004 C 
ENDBRANCH  12  13
ENDBRANCH  11  12
ENDBRANCH  10  11
ENDBRANCH   9  10
ENDBRANCH   1   9
TORSDOF 10
ENDMDL
MODEL 9
REMARK VINA RESULT:    -3.176      1.549      2.073
REMARK INTER + INTRA:          -6.078
REMARK INTER:                  -4.732
REMARK INTRA:                  -1.346
REMARK UNBOUND:                -1.045
REMARK SMILES CCCCCCCCCCCC(=O)[O-]
REMARK SMILES IDX 7 1 8 2 9 3 10 4 11 5 12 6 13 7 14 8 6 9 5 10 4 11 3 12 2 13
REMARK SMILES IDX 1 14
REMARK H PARENT
REMARK Flexibility Score: inf
ROOT
ATOM      1  C   UNL     1      54.779  55.262  48.345  1.00  0.00     0.000 C 
ENDROOT
BRANCH   1   2
ATOM      2  C   UNL     1      54.587  53.965  47.544  1.00  0.00     0.000 C 
BRANCH   2   3
ATOM      3  C   UNL     1      53.097  53.618  47.412  1.00  0.00     0.000 C 
BRANCH   3   4
ATOM      4  C   UNL     1      52.752  52.234  47.993  1.00  0.00     0.006 C 
BRANCH   4   5
ATOM      5  C   UNL     1      53.490  51.894  49.299  1.00  0.00     0.053 C 
BRANCH   5   6
ATOM      6  C   UNL     1      52.543  51.656  50.434  1.00  0.00     0.041 C 
ATOM      7  O   UNL     1      52.433  50.507  50.938  1.00  0.00    -0.550 OA
ATOM      8  O   UNL     1      51.756  52.696  50.912  1.00  0.00    -0.550 OA
ENDBRANCH   5   6
ENDBRANCH   4   5
ENDBRANCH   3   4
ENDBRANCH   2   3
ENDBRANCH   1   2
BRANCH   1   9
ATOM      9  C   UNL     1      53.451  55.848  48.850  1.00  0.00     0.000 C 
BRANCH   9  10
ATOM     10  C   UNL     1      53.252  57.312  48.432  1.00  0.00    -0.000 C 
BRANCH  10  11
ATOM     11  C   UNL     1      53.294  57.458  46.906  1.00  0.00    -0.000 C 
BRANCH  11  12
ATOM     12  C   UNL     1      52.003  56.934  46.266  1.00  0.00    -0.000 C 
BRANCH  12  13
ATOM     13  C   UNL     1      52.284  56.303  44.897  1.00  0.00    -0.003 C 
ATOM     14  C   UNL     1      53.779  56.275  44.599  1.00  0.00     0.004 C 
ENDBRANCH  12  13
ENDBRANCH  11  12
ENDBRANCH  10  11
ENDBRANCH   9  10
ENDBRANCH   1   9
TORSDOF 10
ENDMDL
