MODEL 1
REMARK VINA RESULT:    -2.137      0.000      0.000
REMARK INTER + INTRA:          -1.639
REMARK INTER:                  -2.324
REMARK INTRA:                   0.685
REMARK UNBOUND:                 0.685
REMARK SMILES C[C@H]1[C@@H](C)CC[C@]2(C(=O)[O-])CC[C@]3(C)C(=CC[C@@H]4[C@@]5(C)CC[C@H](O)C(C)(C)[C@H]5CC[C@]43C)[C@@H]12
REMARK SMILES IDX 7 1 6 2 11 3 33 4 5 5 12 6 15 7 2 8 3 9 13 10 16 11 1 12
REMARK SMILES IDX 4 13 14 14 31 15 17 16 18 17 30 18 32 19 19 20 29 21 28 22
REMARK SMILES IDX 21 23 20 24 25 25 22 26 23 27 26 28 27 29 8 30 9 31 10 32
REMARK SMILES IDX 24 33
REMARK H PARENT 24 34
REMARK Flexibility Score: inf
ROOT
ATOM      1  C   UNL     1      24.825  28.914  54.773  1.00  0.00     0.017 C 
ATOM      2  C   UNL     1      23.679  28.278  55.627  1.00  0.00     0.014 C 
ATOM      3  C   UNL     1      24.636  28.450  53.283  1.00  0.00     0.014 C 
ATOM      4  C   UNL     1      26.195  28.369  55.301  1.00  0.00     0.030 C 
ATOM      5  C   UNL     1      23.899  28.388  57.151  1.00  0.00     0.004 C 
ATOM      6  C   UNL     1      25.888  28.576  52.348  1.00  0.00     0.013 C 
ATOM      7  C   UNL     1      27.318  28.710  54.315  1.00  0.00    -0.063 C 
ATOM      8  C   UNL     1      26.441  28.458  56.852  1.00  0.00    -0.003 C 
ATOM      9  C   UNL     1      25.240  27.760  57.569  1.00  0.00    -0.011 C 
ATOM     10  C   UNL     1      27.248  28.012  52.927  1.00  0.00    -0.006 C 
ATOM     11  C   UNL     1      27.899  29.928  54.392  1.00  0.00    -0.027 C 
ATOM     12  C   UNL     1      26.749  29.859  57.428  1.00  0.00     0.008 C 
ATOM     13  C   UNL     1      25.368  27.694  59.100  1.00  0.00     0.008 C 
ATOM     14  C   UNL     1      27.048  26.464  53.072  1.00  0.00     0.017 C 
ATOM     15  C   UNL     1      28.578  28.319  51.978  1.00  0.00    -0.020 C 
ATOM     16  C   UNL     1      28.665  30.511  53.254  1.00  0.00     0.032 C 
ATOM     17  C   UNL     1      29.517  29.403  52.631  1.00  0.00     0.006 C 
ATOM     18  C   UNL     1      29.513  27.076  51.808  1.00  0.00     0.008 C 
ATOM     19  C   UNL     1      28.102  28.702  50.545  1.00  0.00     0.012 C 
ATOM     20  C   UNL     1      30.767  29.919  51.789  1.00  0.00    -0.025 C 
ATOM     21  C   UNL     1      30.966  27.328  51.331  1.00  0.00     0.005 C 
ATOM     22  C   UNL     1      31.389  28.765  50.879  1.00  0.00     0.003 C 
ATOM     23  C   UNL     1      31.850  30.466  52.794  1.00  0.00     0.010 C 
ATOM     24  C   UNL     1      30.334  31.125  50.896  1.00  0.00     0.012 C 
ATOM     25  C   UNL     1      32.972  28.848  50.697  1.00  0.00    -0.006 C 
ATOM     26  C   UNL     1      32.845  29.401  53.256  1.00  0.00     0.033 C 
ATOM     27  C   UNL     1      33.697  28.839  52.094  1.00  0.00     0.120 C 
ATOM     28  C   UNL     1      33.498  27.639  49.868  1.00  0.00     0.014 C 
ATOM     29  C   UNL     1      33.364  30.099  49.856  1.00  0.00     0.014 C 
ENDROOT
BRANCH   1  30
ATOM     30  C   UNL     1      24.720  30.443  54.810  1.00  0.00     0.048 C 
ATOM     31  O   UNL     1      24.755  31.125  53.750  1.00  0.00    -0.550 OA
ATOM     32  O   UNL     1      24.646  31.125  56.017  1.00  0.00    -0.550 OA
ENDBRANCH   1  30
BRANCH  27  33
ATOM     33  O   UNL     1      34.961  29.457  52.035  1.00  0.00    -0.393 OA
ATOM     34  H   UNL     1      34.852  30.346  51.608  1.00  0.00     0.210 HD
ENDBRANCH  27  33
TORSDOF 2
ENDMDL
MODEL 2
REMARK VINA RESULT:     0.517      2.937      7.528
REMARK INTER + INTRA:           1.247
REMARK INTER:                   0.014
REMARK INTRA:                   1.234
REMARK UNBOUND:                 0.685
REMARK SMILES C[C@H]1[C@@H](C)CC[C@]2(C(=O)[O-])CC[C@]3(C)C(=CC[C@@H]4[C@@]5(C)CC[C@H](O)C(C)(C)[C@H]5CC[C@]43C)[C@@H]12
REMARK SMILES IDX 7 1 6 2 11 3 33 4 5 5 12 6 15 7 2 8 3 9 13 10 16 11 1 12
REMARK SMILES IDX 4 13 14 14 31 15 17 16 18 17 30 18 32 19 19 20 29 21 28 22
REMARK SMILES IDX 21 23 20 24 25 25 22 26 23 27 26 28 27 29 8 30 9 31 10 32
REMARK SMILES IDX 24 33
REMARK H PARENT 24 34
REMARK Flexibility Score: inf
ROOT
ATOM      1  C   UNL     1      27.589  29.846  49.180  1.00  0.00     0.017 C 
ATOM      2  C   UNL     1      28.223  29.460  47.802  1.00  0.00     0.014 C 
ATOM      3  C   UNL     1      28.626  30.735  49.960  1.00  0.00     0.014 C 
ATOM      4  C   UNL     1      27.339  28.531  49.994  1.00  0.00     0.030 C 
ATOM      5  C   UNL     1      27.461  28.346  47.054  1.00  0.00     0.004 C 
ATOM      6  C   UNL     1      28.416  30.856  51.508  1.00  0.00     0.013 C 
ATOM      7  C   UNL     1      27.015  28.864  51.454  1.00  0.00    -0.063 C 
ATOM      8  C   UNL     1      26.576  27.374  49.250  1.00  0.00    -0.003 C 
ATOM      9  C   UNL     1      27.334  27.078  47.916  1.00  0.00    -0.011 C 
ATOM     10  C   UNL     1      28.166  29.500  52.285  1.00  0.00    -0.006 C 
ATOM     11  C   UNL     1      25.741  29.176  51.780  1.00  0.00    -0.027 C 
ATOM     12  C   UNL     1      25.056  27.564  49.045  1.00  0.00     0.008 C 
ATOM     13  C   UNL     1      26.754  25.909  47.103  1.00  0.00     0.008 C 
ATOM     14  C   UNL     1      29.493  28.675  52.154  1.00  0.00     0.017 C 
ATOM     15  C   UNL     1      27.780  29.690  53.891  1.00  0.00    -0.020 C 
ATOM     16  C   UNL     1      25.403  29.914  53.029  1.00  0.00     0.032 C 
ATOM     17  C   UNL     1      26.264  29.356  54.165  1.00  0.00     0.006 C 
ATOM     18  C   UNL     1      28.549  28.703  54.830  1.00  0.00     0.008 C 
ATOM     19  C   UNL     1      28.184  31.125  54.344  1.00  0.00     0.012 C 
ATOM     20  C   UNL     1      25.689  29.620  55.627  1.00  0.00    -0.025 C 
ATOM     21  C   UNL     1      27.982  28.474  56.254  1.00  0.00     0.005 C 
ATOM     22  C   UNL     1      26.786  29.349  56.755  1.00  0.00     0.003 C 
ATOM     23  C   UNL     1      24.439  28.686  55.844  1.00  0.00     0.010 C 
ATOM     24  C   UNL     1      25.175  31.091  55.729  1.00  0.00     0.012 C 
ATOM     25  C   UNL     1      26.200  28.762  58.118  1.00  0.00    -0.006 C 
ATOM     26  C   UNL     1      24.793  27.323  56.438  1.00  0.00     0.033 C 
ATOM     27  C   UNL     1      25.401  27.431  57.856  1.00  0.00     0.120 C 
ATOM     28  C   UNL     1      27.346  28.450  59.125  1.00  0.00     0.014 C 
ATOM     29  C   UNL     1      25.320  29.824  58.842  1.00  0.00     0.014 C 
ENDROOT
BRANCH   1  30
ATOM     30  C   UNL     1      26.322  30.679  48.960  1.00  0.00     0.048 C 
ATOM     31  O   UNL     1      26.023  31.125  47.820  1.00  0.00    -0.550 OA
ATOM     32  O   UNL     1      25.498  31.019  50.026  1.00  0.00    -0.550 OA
ENDBRANCH   1  30
BRANCH  27  33
ATOM     33  O   UNL     1      24.433  27.193  58.851  1.00  0.00    -0.393 OA
ATOM     34  H   UNL     1      23.534  27.281  58.438  1.00  0.00     0.210 HD
ENDBRANCH  27  33
TORSDOF 2
ENDMDL
MODEL 3
REMARK VINA RESULT:     0.523      3.224      5.134
REMARK INTER + INTRA:           1.253
REMARK INTER:                   0.282
REMARK INTRA:                   0.971
REMARK UNBOUND:                 0.685
REMARK SMILES C[C@H]1[C@@H](C)CC[C@]2(C(=O)[O-])CC[C@]3(C)C(=CC[C@@H]4[C@@]5(C)CC[C@H](O)C(C)(C)[C@H]5CC[C@]43C)[C@@H]12
REMARK SMILES IDX 7 1 6 2 11 3 33 4 5 5 12 6 15 7 2 8 3 9 13 10 16 11 1 12
REMARK SMILES IDX 4 13 14 14 31 15 17 16 18 17 30 18 32 19 19 20 29 21 28 22
REMARK SMILES IDX 21 23 20 24 25 25 22 26 23 27 26 28 27 29 8 30 9 31 10 32
REMARK SMILES IDX 24 33
REMARK H PARENT 24 34
REMARK Flexibility Score: inf
ROOT
ATOM      1  C   UNL     1      26.249  29.165  57.421  1.00  0.00     0.017 C 
ATOM      2  C   UNL     1      25.693  29.929  58.668  1.00  0.00     0.014 C 
ATOM      3  C   UNL     1      27.495  29.959  56.880  1.00  0.00     0.014 C 
ATOM      4  C   UNL     1      25.140  29.152  56.315  1.00  0.00     0.030 C 
ATOM      5  C   UNL     1      24.299  29.450  59.125  1.00  0.00     0.004 C 
ATOM      6  C   UNL     1      27.929  29.655  55.405  1.00  0.00     0.013 C 
ATOM      7  C   UNL     1      25.732  28.697  54.976  1.00  0.00    -0.063 C 
ATOM      8  C   UNL     1      23.707  28.679  56.756  1.00  0.00    -0.003 C 
ATOM      9  C   UNL     1      23.272  29.545  57.983  1.00  0.00    -0.011 C 
ATOM     10  C   UNL     1      26.773  29.652  54.326  1.00  0.00    -0.006 C 
ATOM     11  C   UNL     1      25.835  27.372  54.731  1.00  0.00    -0.027 C 
ATOM     12  C   UNL     1      23.518  27.164  56.997  1.00  0.00     0.008 C 
ATOM     13  C   UNL     1      21.850  29.256  58.490  1.00  0.00     0.008 C 
ATOM     14  C   UNL     1      26.239  31.125  54.258  1.00  0.00     0.017 C 
ATOM     15  C   UNL     1      27.249  29.159  52.811  1.00  0.00    -0.020 C 
ATOM     16  C   UNL     1      26.758  26.830  53.694  1.00  0.00     0.032 C 
ATOM     17  C   UNL     1      26.677  27.732  52.460  1.00  0.00     0.006 C 
ATOM     18  C   UNL     1      26.696  30.069  51.665  1.00  0.00     0.008 C 
ATOM     19  C   UNL     1      28.802  29.238  52.716  1.00  0.00     0.012 C 
ATOM     20  C   UNL     1      27.150  27.047  51.102  1.00  0.00    -0.025 C 
ATOM     21  C   UNL     1      26.694  29.494  50.226  1.00  0.00     0.005 C 
ATOM     22  C   UNL     1      27.389  28.120  49.946  1.00  0.00     0.003 C 
ATOM     23  C   UNL     1      26.051  26.006  50.664  1.00  0.00     0.010 C 
ATOM     24  C   UNL     1      28.461  26.237  51.354  1.00  0.00     0.012 C 
ATOM     25  C   UNL     1      27.029  27.603  48.480  1.00  0.00    -0.006 C 
ATOM     26  C   UNL     1      24.972  26.603  49.761  1.00  0.00     0.033 C 
ATOM     27  C   UNL     1      25.536  27.108  48.413  1.00  0.00     0.120 C 
ATOM     28  C   UNL     1      27.212  28.739  47.431  1.00  0.00     0.014 C 
ATOM     29  C   UNL     1      28.021  26.491  48.029  1.00  0.00     0.014 C 
ENDROOT
BRANCH   1  30
ATOM     30  C   UNL     1      26.721  27.765  57.830  1.00  0.00     0.048 C 
ATOM     31  O   UNL     1      27.302  27.007  57.008  1.00  0.00    -0.550 OA
ATOM     32  O   UNL     1      26.467  27.270  59.102  1.00  0.00    -0.550 OA
ENDBRANCH   1  30
BRANCH  27  33
ATOM     33  O   UNL     1      25.340  26.163  47.386  1.00  0.00    -0.393 OA
ATOM     34  H   UNL     1      26.023  26.322  46.683  1.00  0.00     0.210 HD
ENDBRANCH  27  33
TORSDOF 2
ENDMDL
