MODEL 1
REMARK VINA RESULT:    -3.655      0.000      0.000
REMARK INTER + INTRA:          -4.345
REMARK INTER:                  -4.296
REMARK INTRA:                  -0.048
REMARK UNBOUND:                -0.048
REMARK SMILES O=C([O-])CCC(=O)[O-]
REMARK SMILES IDX 4 1 2 2 1 3 3 4 5 5 6 6 7 7 8 8
REMARK H PARENT
REMARK Flexibility Score: inf
ROOT
ATOM      1  C   UNL     1      -4.829   8.610   2.774  1.00  0.00     0.059 C 
ENDROOT
BRANCH   1   2
ATOM      2  C   UNL     1      -5.352   8.011   1.504  1.00  0.00     0.042 C 
ATOM      3  O   UNL     1      -5.215   8.622   0.411  1.00  0.00    -0.550 OA
ATOM      4  O   UNL     1      -5.955   6.761   1.522  1.00  0.00    -0.550 OA
ENDBRANCH   1   2
BRANCH   1   5
ATOM      5  C   UNL     1      -5.342   7.858   4.005  1.00  0.00     0.059 C 
BRANCH   5   6
ATOM      6  C   UNL     1      -4.361   7.917   5.136  1.00  0.00     0.042 C 
ATOM      7  O   UNL     1      -3.130   7.776   4.915  1.00  0.00    -0.550 OA
ATOM      8  O   UNL     1      -4.806   8.167   6.428  1.00  0.00    -0.550 OA
ENDBRANCH   5   6
ENDBRANCH   1   5
TORSDOF 3
ENDMDL
MODEL 2
REMARK VINA RESULT:    -3.655      0.025      4.166
REMARK INTER + INTRA:          -4.344
REMARK INTER:                  -4.298
REMARK INTRA:                  -0.046
REMARK UNBOUND:                -0.048
REMARK SMILES O=C([O-])CCC(=O)[O-]
REMARK SMILES IDX 4 1 2 2 1 3 3 4 5 5 6 6 7 7 8 8
REMARK H PARENT
REMARK Flexibility Score: inf
ROOT
ATOM      1  C   UNL     1      -5.337   7.842   3.999  1.00  0.00     0.059 C 
ENDROOT
BRANCH   1   2
ATOM      2  C   UNL     1      -4.367   7.918   5.139  1.00  0.00     0.042 C 
ATOM      3  O   UNL     1      -3.131   7.804   4.927  1.00  0.00    -0.550 OA
ATOM      4  O   UNL     1      -4.826   8.152   6.428  1.00  0.00    -0.550 OA
ENDBRANCH   1   2
BRANCH   1   5
ATOM      5  C   UNL     1      -4.816   8.585   2.765  1.00  0.00     0.059 C 
BRANCH   5   6
ATOM      6  C   UNL     1      -5.367   8.005   1.499  1.00  0.00     0.042 C 
ATOM      7  O   UNL     1      -5.248   8.628   0.411  1.00  0.00    -0.550 OA
ATOM      8  O   UNL     1      -5.977   6.757   1.515  1.00  0.00    -0.550 OA
ENDBRANCH   5   6
ENDBRANCH   1   5
TORSDOF 3
ENDMDL
MODEL 3
REMARK VINA RESULT:    -3.440     17.158     17.559
REMARK INTER + INTRA:          -4.091
REMARK INTER:                  -4.011
REMARK INTRA:                  -0.080
REMARK UNBOUND:                -0.048
REMARK SMILES O=C([O-])CCC(=O)[O-]
REMARK SMILES IDX 4 1 2 2 1 3 3 4 5 5 6 6 7 7 8 8
REMARK H PARENT
REMARK Flexibility Score: inf
ROOT
ATOM      1  C   UNL     1       3.625  -6.403  -1.787  1.00  0.00     0.059 C 
ENDROOT
BRANCH   1   2
ATOM      2  C   UNL     1       4.149  -5.520  -2.879  1.00  0.00     0.042 C 
ATOM      3  O   UNL     1       4.437  -6.007  -4.004  1.00  0.00    -0.550 OA
ATOM      4  O   UNL     1       4.281  -4.155  -2.665  1.00  0.00    -0.550 OA
ENDBRANCH   1   2
BRANCH   1   5
ATOM      5  C   UNL     1       4.763  -7.045  -0.987  1.00  0.00     0.059 C 
BRANCH   5   6
ATOM      6  C   UNL     1       4.641  -6.752   0.477  1.00  0.00     0.042 C 
ATOM      7  O   UNL     1       4.640  -5.561   0.888  1.00  0.00    -0.550 OA
ATOM      8  O   UNL     1       4.489  -7.794   1.383  1.00  0.00    -0.550 OA
ENDBRANCH   5   6
ENDBRANCH   1   5
TORSDOF 3
ENDMDL
MODEL 4
REMARK VINA RESULT:    -3.361      1.143      1.601
REMARK INTER + INTRA:          -3.999
REMARK INTER:                  -3.912
REMARK INTRA:                  -0.086
REMARK UNBOUND:                -0.048
REMARK SMILES O=C([O-])CCC(=O)[O-]
REMARK SMILES IDX 4 1 2 2 1 3 3 4 5 5 6 6 7 7 8 8
REMARK H PARENT
REMARK Flexibility Score: inf
ROOT
ATOM      1  C   UNL     1      -5.459   7.809   3.827  1.00  0.00     0.059 C 
ENDROOT
BRANCH   1   2
ATOM      2  C   UNL     1      -4.937   8.113   2.455  1.00  0.00     0.042 C 
ATOM      3  O   UNL     1      -5.212   7.353   1.490  1.00  0.00    -0.550 OA
ATOM      4  O   UNL     1      -4.180   9.257   2.238  1.00  0.00    -0.550 OA
ENDBRANCH   1   2
BRANCH   1   5
ATOM      5  C   UNL     1      -5.068   8.897   4.832  1.00  0.00     0.059 C 
BRANCH   5   6
ATOM      6  C   UNL     1      -3.949   8.449   5.721  1.00  0.00     0.042 C 
ATOM      7  O   UNL     1      -3.064   7.668   5.283  1.00  0.00    -0.550 OA
ATOM      8  O   UNL     1      -3.862   8.927   7.023  1.00  0.00    -0.550 OA
ENDBRANCH   5   6
ENDBRANCH   1   5
TORSDOF 3
ENDMDL
MODEL 5
REMARK VINA RESULT:    -3.352     19.189     19.611
REMARK INTER + INTRA:          -3.988
REMARK INTER:                  -3.947
REMARK INTRA:                  -0.042
REMARK UNBOUND:                -0.048
REMARK SMILES O=C([O-])CCC(=O)[O-]
REMARK SMILES IDX 4 1 2 2 1 3 3 4 5 5 6 6 7 7 8 8
REMARK H PARENT
REMARK Flexibility Score: inf
ROOT
ATOM      1  C   UNL     1       5.279  -7.908  -0.244  1.00  0.00     0.059 C 
ENDROOT
BRANCH   1   2
ATOM      2  C   UNL     1       4.512  -6.693   0.183  1.00  0.00     0.042 C 
ATOM      3  O   UNL     1       3.863  -6.023  -0.664  1.00  0.00    -0.550 OA
ATOM      4  O   UNL     1       4.484  -6.323   1.521  1.00  0.00    -0.550 OA
ENDBRANCH   1   2
BRANCH   1   5
ATOM      5  C   UNL     1       5.207  -9.018   0.810  1.00  0.00     0.059 C 
BRANCH   5   6
ATOM      6  C   UNL     1       6.489  -9.790   0.885  1.00  0.00     0.042 C 
ATOM      7  O   UNL     1       7.101 -10.107  -0.169  1.00  0.00    -0.550 OA
ATOM      8  O   UNL     1       7.026 -10.125   2.121  1.00  0.00    -0.550 OA
ENDBRANCH   5   6
ENDBRANCH   1   5
TORSDOF 3
ENDMDL
MODEL 6
REMARK VINA RESULT:    -3.341     11.806     12.789
REMARK INTER + INTRA:          -3.975
REMARK INTER:                  -3.888
REMARK INTRA:                  -0.087
REMARK UNBOUND:                -0.048
REMARK SMILES O=C([O-])CCC(=O)[O-]
REMARK SMILES IDX 4 1 2 2 1 3 3 4 5 5 6 6 7 7 8 8
REMARK H PARENT
REMARK Flexibility Score: inf
ROOT
ATOM      1  C   UNL     1      -5.573  -3.087   9.055  1.00  0.00     0.059 C 
ENDROOT
BRANCH   1   2
ATOM      2  C   UNL     1      -6.620  -2.025   8.914  1.00  0.00     0.042 C 
ATOM      3  O   UNL     1      -7.841  -2.326   8.978  1.00  0.00    -0.550 OA
ATOM      4  O   UNL     1      -6.246  -0.698   8.750  1.00  0.00    -0.550 OA
ENDBRANCH   1   2
BRANCH   1   5
ATOM      5  C   UNL     1      -6.010  -4.401   8.399  1.00  0.00     0.059 C 
BRANCH   5   6
ATOM      6  C   UNL     1      -5.309  -4.626   7.094  1.00  0.00     0.042 C 
ATOM      7  O   UNL     1      -5.564  -3.894   6.102  1.00  0.00    -0.550 OA
ATOM      8  O   UNL     1      -4.346  -5.621   6.986  1.00  0.00    -0.550 OA
ENDBRANCH   5   6
ENDBRANCH   1   5
TORSDOF 3
ENDMDL
MODEL 7
REMARK VINA RESULT:    -3.332     14.476     15.136
REMARK INTER + INTRA:          -3.964
REMARK INTER:                  -3.864
REMARK INTRA:                  -0.100
REMARK UNBOUND:                -0.048
REMARK SMILES O=C([O-])CCC(=O)[O-]
REMARK SMILES IDX 4 1 2 2 1 3 3 4 5 5 6 6 7 7 8 8
REMARK H PARENT
REMARK Flexibility Score: inf
ROOT
ATOM      1  C   UNL     1      -3.886  -7.470   7.211  1.00  0.00     0.059 C 
ENDROOT
BRANCH   1   2
ATOM      2  C   UNL     1      -2.673  -7.478   6.331  1.00  0.00     0.042 C 
ATOM      3  O   UNL     1      -2.728  -6.992   5.170  1.00  0.00    -0.550 OA
ATOM      4  O   UNL     1      -1.472  -7.988   6.807  1.00  0.00    -0.550 OA
ENDBRANCH   1   2
BRANCH   1   5
ATOM      5  C   UNL     1      -3.761  -6.434   8.333  1.00  0.00     0.059 C 
BRANCH   5   6
ATOM      6  C   UNL     1      -4.562  -5.203   8.038  1.00  0.00     0.042 C 
ATOM      7  O   UNL     1      -4.799  -4.367   8.950  1.00  0.00    -0.550 OA
ATOM      8  O   UNL     1      -5.015  -4.962   6.747  1.00  0.00    -0.550 OA
ENDBRANCH   5   6
ENDBRANCH   1   5
TORSDOF 3
ENDMDL
MODEL 8
REMARK VINA RESULT:    -3.308     11.811     12.523
REMARK INTER + INTRA:          -3.937
REMARK INTER:                  -3.852
REMARK INTRA:                  -0.084
REMARK UNBOUND:                -0.048
REMARK SMILES O=C([O-])CCC(=O)[O-]
REMARK SMILES IDX 4 1 2 2 1 3 3 4 5 5 6 6 7 7 8 8
REMARK H PARENT
REMARK Flexibility Score: inf
ROOT
ATOM      1  C   UNL     1      -6.019  -4.373   8.462  1.00  0.00     0.059 C 
ENDROOT
BRANCH   1   2
ATOM      2  C   UNL     1      -5.365  -4.625   7.138  1.00  0.00     0.042 C 
ATOM      3  O   UNL     1      -5.604  -3.869   6.159  1.00  0.00    -0.550 OA
ATOM      4  O   UNL     1      -4.462  -5.670   6.996  1.00  0.00    -0.550 OA
ENDBRANCH   1   2
BRANCH   1   5
ATOM      5  C   UNL     1      -5.567  -3.042   9.070  1.00  0.00     0.059 C 
BRANCH   5   6
ATOM      6  C   UNL     1      -6.607  -1.977   8.902  1.00  0.00     0.042 C 
ATOM      7  O   UNL     1      -6.265  -0.785   8.684  1.00  0.00    -0.550 OA
ATOM      8  O   UNL     1      -7.955  -2.310   8.947  1.00  0.00    -0.550 OA
ENDBRANCH   5   6
ENDBRANCH   1   5
TORSDOF 3
ENDMDL
