MODEL 1
REMARK VINA RESULT:    -5.974      0.000      0.000
REMARK INTER + INTRA:          -6.438
REMARK INTER:                  -6.673
REMARK INTRA:                   0.235
REMARK UNBOUND:                 0.235
REMARK SMILES O=C([O-])C=Cc1ccccc1
REMARK SMILES IDX 4 1 5 2 2 3 1 4 3 5 6 6 7 7 11 8 8 9 10 10 9 11
REMARK H PARENT
REMARK Flexibility Score: inf
ROOT
ATOM      1  C   UNL     1     -21.501 -21.861 -43.950  1.00  0.00     0.025 C 
ATOM      2  C   UNL     1     -22.124 -22.416 -42.899  1.00  0.00     0.010 C 
ENDROOT
BRANCH   1   3
ATOM      3  C   UNL     1     -21.180 -22.549 -45.215  1.00  0.00     0.064 C 
ATOM      4  O   UNL     1     -21.882 -22.320 -46.235  1.00  0.00    -0.545 OA
ATOM      5  O   UNL     1     -20.079 -23.388 -45.327  1.00  0.00    -0.545 OA
ENDBRANCH   1   3
BRANCH   2   6
ATOM      6  C   UNL     1     -22.768 -23.745 -42.891  1.00  0.00    -0.026 A 
ATOM      7  C   UNL     1     -23.479 -24.218 -44.008  1.00  0.00     0.008 A 
ATOM      8  C   UNL     1     -22.760 -24.506 -41.711  1.00  0.00     0.008 A 
ATOM      9  C   UNL     1     -24.125 -25.457 -43.961  1.00  0.00     0.001 A 
ATOM     10  C   UNL     1     -23.407 -25.744 -41.667  1.00  0.00     0.001 A 
ATOM     11  C   UNL     1     -24.085 -26.222 -42.791  1.00  0.00     0.000 A 
ENDBRANCH   2   6
TORSDOF 2
ENDMDL
MODEL 2
REMARK VINA RESULT:    -5.817      0.136      1.467
REMARK INTER + INTRA:          -6.262
REMARK INTER:                  -6.785
REMARK INTRA:                   0.523
REMARK UNBOUND:                 0.235
REMARK SMILES O=C([O-])C=Cc1ccccc1
REMARK SMILES IDX 4 1 5 2 2 3 1 4 3 5 6 6 7 7 11 8 8 9 10 10 9 11
REMARK H PARENT
REMARK Flexibility Score: inf
ROOT
ATOM      1  C   UNL     1     -21.467 -21.883 -44.062  1.00  0.00     0.025 C 
ATOM      2  C   UNL     1     -22.090 -22.362 -42.974  1.00  0.00     0.010 C 
ENDROOT
BRANCH   1   3
ATOM      3  C   UNL     1     -21.221 -22.635 -45.306  1.00  0.00     0.064 C 
ATOM      4  O   UNL     1     -22.056 -22.563 -46.246  1.00  0.00    -0.545 OA
ATOM      5  O   UNL     1     -20.054 -23.365 -45.496  1.00  0.00    -0.545 OA
ENDBRANCH   1   3
BRANCH   2   6
ATOM      6  C   UNL     1     -22.805 -23.652 -42.896  1.00  0.00    -0.026 A 
ATOM      7  C   UNL     1     -22.731 -24.459 -41.746  1.00  0.00     0.008 A 
ATOM      8  C   UNL     1     -23.484 -24.132 -44.027  1.00  0.00     0.008 A 
ATOM      9  C   UNL     1     -23.373 -25.701 -41.713  1.00  0.00     0.001 A 
ATOM     10  C   UNL     1     -24.125 -25.373 -43.991  1.00  0.00     0.001 A 
ATOM     11  C   UNL     1     -24.074 -26.156 -42.834  1.00  0.00     0.000 A 
ENDBRANCH   2   6
TORSDOF 2
ENDMDL
MODEL 3
REMARK VINA RESULT:    -5.603      1.003      1.998
REMARK INTER + INTRA:          -6.023
REMARK INTER:                  -6.286
REMARK INTRA:                   0.263
REMARK UNBOUND:                 0.235
REMARK SMILES O=C([O-])C=Cc1ccccc1
REMARK SMILES IDX 4 1 5 2 2 3 1 4 3 5 6 6 7 7 11 8 8 9 10 10 9 11
REMARK H PARENT
REMARK Flexibility Score: inf
ROOT
ATOM      1  C   UNL     1     -22.921 -23.499 -46.210  1.00  0.00     0.025 C 
ATOM      2  C   UNL     1     -23.808 -24.084 -45.391  1.00  0.00     0.010 C 
ENDROOT
BRANCH   1   3
ATOM      3  C   UNL     1     -21.607 -22.963 -45.804  1.00  0.00     0.064 C 
ATOM      4  O   UNL     1     -21.500 -21.740 -45.525  1.00  0.00    -0.545 OA
ATOM      5  O   UNL     1     -20.500 -23.790 -45.653  1.00  0.00    -0.545 OA
ENDBRANCH   1   3
BRANCH   2   6
ATOM      6  C   UNL     1     -23.554 -24.468 -43.988  1.00  0.00    -0.026 A 
ATOM      7  C   UNL     1     -23.993 -25.704 -43.479  1.00  0.00     0.008 A 
ATOM      8  C   UNL     1     -22.957 -23.542 -43.118  1.00  0.00     0.008 A 
ATOM      9  C   UNL     1     -23.787 -26.026 -42.134  1.00  0.00     0.001 A 
ATOM     10  C   UNL     1     -22.753 -23.866 -41.774  1.00  0.00     0.001 A 
ATOM     11  C   UNL     1     -23.163 -25.109 -41.283  1.00  0.00     0.000 A 
ENDBRANCH   2   6
TORSDOF 2
ENDMDL
MODEL 4
REMARK VINA RESULT:    -5.580      1.041      2.261
REMARK INTER + INTRA:          -5.998
REMARK INTER:                  -6.243
REMARK INTRA:                   0.245
REMARK UNBOUND:                 0.235
REMARK SMILES O=C([O-])C=Cc1ccccc1
REMARK SMILES IDX 4 1 5 2 2 3 1 4 3 5 6 6 7 7 11 8 8 9 10 10 9 11
REMARK H PARENT
REMARK Flexibility Score: inf
ROOT
ATOM      1  C   UNL     1     -22.965 -23.570 -46.238  1.00  0.00     0.025 C 
ATOM      2  C   UNL     1     -23.880 -24.116 -45.423  1.00  0.00     0.010 C 
ENDROOT
BRANCH   1   3
ATOM      3  C   UNL     1     -21.664 -23.018 -45.815  1.00  0.00     0.064 C 
ATOM      4  O   UNL     1     -20.663 -23.779 -45.755  1.00  0.00    -0.545 OA
ATOM      5  O   UNL     1     -21.500 -21.664 -45.549  1.00  0.00    -0.545 OA
ENDBRANCH   1   3
BRANCH   2   6
ATOM      6  C   UNL     1     -23.671 -24.438 -43.996  1.00  0.00    -0.026 A 
ATOM      7  C   UNL     1     -23.016 -23.539 -43.135  1.00  0.00     0.008 A 
ATOM      8  C   UNL     1     -24.038 -25.705 -43.516  1.00  0.00     0.008 A 
ATOM      9  C   UNL     1     -22.784 -23.885 -41.800  1.00  0.00     0.001 A 
ATOM     10  C   UNL     1     -23.804 -26.048 -42.181  1.00  0.00     0.001 A 
ATOM     11  C   UNL     1     -23.181 -25.138 -41.322  1.00  0.00     0.000 A 
ENDBRANCH   2   6
TORSDOF 2
ENDMDL
MODEL 5
REMARK VINA RESULT:    -5.511      2.483      4.089
REMARK INTER + INTRA:          -5.921
REMARK INTER:                  -6.271
REMARK INTRA:                   0.350
REMARK UNBOUND:                 0.235
REMARK SMILES O=C([O-])C=Cc1ccccc1
REMARK SMILES IDX 4 1 5 2 2 3 1 4 3 5 6 6 7 7 11 8 8 9 10 10 9 11
REMARK H PARENT
REMARK Flexibility Score: inf
ROOT
ATOM      1  C   UNL     1     -23.017 -24.267 -41.422  1.00  0.00     0.025 C 
ATOM      2  C   UNL     1     -22.805 -23.143 -42.123  1.00  0.00     0.010 C 
ENDROOT
BRANCH   1   3
ATOM      3  C   UNL     1     -23.115 -25.625 -41.991  1.00  0.00     0.064 C 
ATOM      4  O   UNL     1     -22.232 -26.020 -42.796  1.00  0.00    -0.545 OA
ATOM      5  O   UNL     1     -24.119 -26.504 -41.604  1.00  0.00    -0.545 OA
ENDBRANCH   1   3
BRANCH   2   6
ATOM      6  C   UNL     1     -22.443 -23.083 -43.554  1.00  0.00    -0.026 A 
ATOM      7  C   UNL     1     -23.324 -23.546 -44.548  1.00  0.00     0.008 A 
ATOM      8  C   UNL     1     -21.158 -22.656 -43.921  1.00  0.00     0.008 A 
ATOM      9  C   UNL     1     -22.941 -23.528 -45.893  1.00  0.00     0.001 A 
ATOM     10  C   UNL     1     -20.778 -22.640 -45.266  1.00  0.00     0.001 A 
ATOM     11  C   UNL     1     -21.670 -23.071 -46.252  1.00  0.00     0.000 A 
ENDBRANCH   2   6
TORSDOF 2
ENDMDL
MODEL 6
REMARK VINA RESULT:    -5.085      2.540      4.600
REMARK INTER + INTRA:          -5.445
REMARK INTER:                  -5.546
REMARK INTRA:                   0.101
REMARK UNBOUND:                 0.235
REMARK SMILES O=C([O-])C=Cc1ccccc1
REMARK SMILES IDX 4 1 5 2 2 3 1 4 3 5 6 6 7 7 11 8 8 9 10 10 9 11
REMARK H PARENT
REMARK Flexibility Score: inf
ROOT
ATOM      1  C   UNL     1     -24.125 -25.925 -43.347  1.00  0.00     0.025 C 
ATOM      2  C   UNL     1     -23.775 -25.205 -44.424  1.00  0.00     0.010 C 
ENDROOT
BRANCH   1   3
ATOM      3  C   UNL     1     -23.374 -25.986 -42.079  1.00  0.00     0.064 C 
ATOM      4  O   UNL     1     -22.156 -26.303 -42.099  1.00  0.00    -0.545 OA
ATOM      5  O   UNL     1     -23.960 -25.631 -40.869  1.00  0.00    -0.545 OA
ENDBRANCH   1   3
BRANCH   2   6
ATOM      6  C   UNL     1     -22.690 -24.203 -44.468  1.00  0.00    -0.026 A 
ATOM      7  C   UNL     1     -22.650 -23.131 -43.558  1.00  0.00     0.008 A 
ATOM      8  C   UNL     1     -21.741 -24.262 -45.501  1.00  0.00     0.008 A 
ATOM      9  C   UNL     1     -21.643 -22.166 -43.650  1.00  0.00     0.001 A 
ATOM     10  C   UNL     1     -20.736 -23.295 -45.590  1.00  0.00     0.001 A 
ATOM     11  C   UNL     1     -20.684 -22.250 -44.663  1.00  0.00     0.000 A 
ENDBRANCH   2   6
TORSDOF 2
ENDMDL
MODEL 7
REMARK VINA RESULT:    -5.083      2.530      4.439
REMARK INTER + INTRA:          -5.443
REMARK INTER:                  -5.673
REMARK INTRA:                   0.230
REMARK UNBOUND:                 0.235
REMARK SMILES O=C([O-])C=Cc1ccccc1
REMARK SMILES IDX 4 1 5 2 2 3 1 4 3 5 6 6 7 7 11 8 8 9 10 10 9 11
REMARK H PARENT
REMARK Flexibility Score: inf
ROOT
ATOM      1  C   UNL     1     -24.125 -25.999 -43.369  1.00  0.00     0.025 C 
ATOM      2  C   UNL     1     -23.814 -25.299 -44.470  1.00  0.00     0.010 C 
ENDROOT
BRANCH   1   3
ATOM      3  C   UNL     1     -23.373 -25.977 -42.100  1.00  0.00     0.064 C 
ATOM      4  O   UNL     1     -22.128 -26.157 -42.119  1.00  0.00    -0.545 OA
ATOM      5  O   UNL     1     -23.996 -25.690 -40.891  1.00  0.00    -0.545 OA
ENDBRANCH   1   3
BRANCH   2   6
ATOM      6  C   UNL     1     -22.784 -24.241 -44.549  1.00  0.00    -0.026 A 
ATOM      7  C   UNL     1     -21.734 -24.315 -45.481  1.00  0.00     0.008 A 
ATOM      8  C   UNL     1     -22.795 -23.200 -43.608  1.00  0.00     0.008 A 
ATOM      9  C   UNL     1     -20.741 -23.330 -45.504  1.00  0.00     0.001 A 
ATOM     10  C   UNL     1     -21.801 -22.217 -43.633  1.00  0.00     0.001 A 
ATOM     11  C   UNL     1     -20.778 -22.279 -44.583  1.00  0.00     0.000 A 
ENDBRANCH   2   6
TORSDOF 2
ENDMDL
MODEL 8
REMARK VINA RESULT:    -4.287      2.552      3.436
REMARK INTER + INTRA:          -4.553
REMARK INTER:                  -4.384
REMARK INTRA:                  -0.169
REMARK UNBOUND:                 0.235
REMARK SMILES O=C([O-])C=Cc1ccccc1
REMARK SMILES IDX 4 1 5 2 2 3 1 4 3 5 6 6 7 7 11 8 8 9 10 10 9 11
REMARK H PARENT
REMARK Flexibility Score: inf
ROOT
ATOM      1  C   UNL     1     -21.335 -22.664 -43.046  1.00  0.00     0.025 C 
ATOM      2  C   UNL     1     -21.379 -22.945 -44.357  1.00  0.00     0.010 C 
ENDROOT
BRANCH   1   3
ATOM      3  C   UNL     1     -22.355 -23.053 -42.053  1.00  0.00     0.064 C 
ATOM      4  O   UNL     1     -23.348 -22.303 -41.865  1.00  0.00    -0.545 OA
ATOM      5  O   UNL     1     -22.282 -24.262 -41.372  1.00  0.00    -0.545 OA
ENDBRANCH   1   3
BRANCH   2   6
ATOM      6  C   UNL     1     -22.349 -23.852 -45.005  1.00  0.00    -0.026 A 
ATOM      7  C   UNL     1     -22.338 -25.235 -44.750  1.00  0.00     0.008 A 
ATOM      8  C   UNL     1     -23.229 -23.340 -45.972  1.00  0.00     0.008 A 
ATOM      9  C   UNL     1     -23.231 -26.082 -45.413  1.00  0.00     0.001 A 
ATOM     10  C   UNL     1     -24.120 -24.189 -46.634  1.00  0.00     0.001 A 
ATOM     11  C   UNL     1     -24.125 -25.558 -46.352  1.00  0.00     0.000 A 
ENDBRANCH   2   6
TORSDOF 2
ENDMDL
MODEL 9
REMARK VINA RESULT:    -4.252      2.547      3.318
REMARK INTER + INTRA:          -4.515
REMARK INTER:                  -4.487
REMARK INTRA:                  -0.028
REMARK UNBOUND:                 0.235
REMARK SMILES O=C([O-])C=Cc1ccccc1
REMARK SMILES IDX 4 1 5 2 2 3 1 4 3 5 6 6 7 7 11 8 8 9 10 10 9 11
REMARK H PARENT
REMARK Flexibility Score: inf
ROOT
ATOM      1  C   UNL     1     -21.493 -22.596 -42.964  1.00  0.00     0.025 C 
ATOM      2  C   UNL     1     -21.458 -22.865 -44.278  1.00  0.00     0.010 C 
ENDROOT
BRANCH   1   3
ATOM      3  C   UNL     1     -22.544 -23.040 -42.029  1.00  0.00     0.064 C 
ATOM      4  O   UNL     1     -22.378 -24.102 -41.375  1.00  0.00    -0.545 OA
ATOM      5  O   UNL     1     -23.682 -22.276 -41.798  1.00  0.00    -0.545 OA
ENDBRANCH   1   3
BRANCH   2   6
ATOM      6  C   UNL     1     -22.352 -23.806 -44.983  1.00  0.00    -0.026 A 
ATOM      7  C   UNL     1     -23.248 -23.358 -45.971  1.00  0.00     0.008 A 
ATOM      8  C   UNL     1     -22.384 -25.152 -44.588  1.00  0.00     0.008 A 
ATOM      9  C   UNL     1     -24.122 -24.258 -46.590  1.00  0.00     0.001 A 
ATOM     10  C   UNL     1     -23.259 -26.048 -45.207  1.00  0.00     0.001 A 
ATOM     11  C   UNL     1     -24.125 -25.603 -46.211  1.00  0.00     0.000 A 
ENDBRANCH   2   6
TORSDOF 2
ENDMDL
