MODEL 1
REMARK VINA RESULT:    -4.930      0.000      0.000
REMARK INTER + INTRA:          -5.396
REMARK INTER:                  -5.363
REMARK INTRA:                  -0.033
REMARK UNBOUND:                -0.033
REMARK SMILES O=C([O-])c1ccc(O)cc1
REMARK SMILES IDX 4 1 5 2 10 3 6 4 9 5 7 6 2 7 1 8 3 9 8 10
REMARK H PARENT 8 11
REMARK Flexibility Score: inf
ROOT
ATOM      1  C   UNL     1       7.811  13.512 -17.344  1.00  0.00    -0.003 A 
ATOM      2  C   UNL     1       9.186  13.461 -17.637  1.00  0.00     0.014 A 
ATOM      3  C   UNL     1       6.972  14.308 -18.145  1.00  0.00     0.014 A 
ATOM      4  C   UNL     1       9.709  14.191 -18.709  1.00  0.00     0.047 A 
ATOM      5  C   UNL     1       7.499  15.036 -19.216  1.00  0.00     0.047 A 
ATOM      6  C   UNL     1       8.870  14.980 -19.500  1.00  0.00     0.115 A 
ENDROOT
BRANCH   1   7
ATOM      7  C   UNL     1       7.252  12.742 -16.211  1.00  0.00     0.071 C 
ATOM      8  O   UNL     1       6.259  13.175 -15.569  1.00  0.00    -0.545 OA
ATOM      9  O   UNL     1       7.817  11.527 -15.839  1.00  0.00    -0.545 OA
ENDBRANCH   1   7
BRANCH   6  10
ATOM     10  O   UNL     1       9.405  15.701 -20.566  1.00  0.00    -0.508 OA
ATOM     11  H   UNL     1       9.965  16.531 -20.415  1.00  0.00     0.293 HD
ENDBRANCH   6  10
TORSDOF 2
ENDMDL
MODEL 2
REMARK VINA RESULT:    -4.715      1.115      4.332
REMARK INTER + INTRA:          -5.162
REMARK INTER:                  -5.135
REMARK INTRA:                  -0.027
REMARK UNBOUND:                -0.033
REMARK SMILES O=C([O-])c1ccc(O)cc1
REMARK SMILES IDX 4 1 5 2 10 3 6 4 9 5 7 6 2 7 1 8 3 9 8 10
REMARK H PARENT 8 11
REMARK Flexibility Score: inf
ROOT
ATOM      1  C   UNL     1       9.384  14.613 -19.369  1.00  0.00    -0.003 A 
ATOM      2  C   UNL     1       9.836  13.810 -18.306  1.00  0.00     0.014 A 
ATOM      3  C   UNL     1       8.034  15.007 -19.400  1.00  0.00     0.014 A 
ATOM      4  C   UNL     1       8.955  13.410 -17.296  1.00  0.00     0.047 A 
ATOM      5  C   UNL     1       7.156  14.605 -18.389  1.00  0.00     0.047 A 
ATOM      6  C   UNL     1       7.615  13.804 -17.334  1.00  0.00     0.115 A 
ENDROOT
BRANCH   1   7
ATOM      7  C   UNL     1      10.312  15.039 -20.440  1.00  0.00     0.071 C 
ATOM      8  O   UNL     1      10.961  16.114 -20.336  1.00  0.00    -0.545 OA
ATOM      9  O   UNL     1      10.480  14.257 -21.577  1.00  0.00    -0.545 OA
ENDBRANCH   1   7
BRANCH   6  10
ATOM     10  O   UNL     1       6.748  13.399 -16.321  1.00  0.00    -0.508 OA
ATOM     11  H   UNL     1       6.586  13.972 -15.502  1.00  0.00     0.293 HD
ENDBRANCH   6  10
TORSDOF 2
ENDMDL
MODEL 3
REMARK VINA RESULT:    -4.663      1.176      4.581
REMARK INTER + INTRA:          -5.105
REMARK INTER:                  -5.078
REMARK INTRA:                  -0.027
REMARK UNBOUND:                -0.033
REMARK SMILES O=C([O-])c1ccc(O)cc1
REMARK SMILES IDX 4 1 5 2 10 3 6 4 9 5 7 6 2 7 1 8 3 9 8 10
REMARK H PARENT 8 11
REMARK Flexibility Score: inf
ROOT
ATOM      1  C   UNL     1       9.398  14.639 -19.397  1.00  0.00    -0.003 A 
ATOM      2  C   UNL     1       8.045  15.017 -19.486  1.00  0.00     0.014 A 
ATOM      3  C   UNL     1       9.818  13.865 -18.301  1.00  0.00     0.014 A 
ATOM      4  C   UNL     1       7.134  14.628 -18.499  1.00  0.00     0.047 A 
ATOM      5  C   UNL     1       8.904  13.477 -17.317  1.00  0.00     0.047 A 
ATOM      6  C   UNL     1       7.559  13.858 -17.413  1.00  0.00     0.115 A 
ENDROOT
BRANCH   1   7
ATOM      7  C   UNL     1      10.366  15.049 -20.439  1.00  0.00     0.071 C 
ATOM      8  O   UNL     1      11.010  16.125 -20.327  1.00  0.00    -0.545 OA
ATOM      9  O   UNL     1      10.576  14.250 -21.557  1.00  0.00    -0.545 OA
ENDBRANCH   1   7
BRANCH   6  10
ATOM     10  O   UNL     1       6.641  13.476 -16.438  1.00  0.00    -0.508 OA
ATOM     11  H   UNL     1       6.254  14.146 -15.783  1.00  0.00     0.293 HD
ENDBRANCH   6  10
TORSDOF 2
ENDMDL
MODEL 4
REMARK VINA RESULT:    -4.320      1.957      2.564
REMARK INTER + INTRA:          -4.732
REMARK INTER:                  -4.700
REMARK INTRA:                  -0.032
REMARK UNBOUND:                -0.033
REMARK SMILES O=C([O-])c1ccc(O)cc1
REMARK SMILES IDX 4 1 5 2 10 3 6 4 9 5 7 6 2 7 1 8 3 9 8 10
REMARK H PARENT 8 11
REMARK Flexibility Score: inf
ROOT
ATOM      1  C   UNL     1       9.368  14.357 -18.795  1.00  0.00    -0.003 A 
ATOM      2  C   UNL     1       9.969  13.404 -19.638  1.00  0.00     0.014 A 
ATOM      3  C   UNL     1       9.610  15.722 -19.029  1.00  0.00     0.014 A 
ATOM      4  C   UNL     1      10.793  13.810 -20.692  1.00  0.00     0.047 A 
ATOM      5  C   UNL     1      10.434  16.125 -20.084  1.00  0.00     0.047 A 
ATOM      6  C   UNL     1      11.028  15.169 -20.918  1.00  0.00     0.115 A 
ENDROOT
BRANCH   1   7
ATOM      7  C   UNL     1       8.495  13.932 -17.678  1.00  0.00     0.071 C 
ATOM      8  O   UNL     1       7.461  14.589 -17.387  1.00  0.00    -0.545 OA
ATOM      9  O   UNL     1       8.807  12.800 -16.933  1.00  0.00    -0.545 OA
ENDBRANCH   1   7
BRANCH   6  10
ATOM     10  O   UNL     1      11.851  15.559 -21.973  1.00  0.00    -0.508 OA
ATOM     11  H   UNL     1      12.795  15.205 -22.068  1.00  0.00     0.293 HD
ENDBRANCH   6  10
TORSDOF 2
ENDMDL
MODEL 5
REMARK VINA RESULT:    -4.083      1.141      4.345
REMARK INTER + INTRA:          -4.475
REMARK INTER:                  -4.439
REMARK INTRA:                  -0.036
REMARK UNBOUND:                -0.033
REMARK SMILES O=C([O-])c1ccc(O)cc1
REMARK SMILES IDX 4 1 5 2 10 3 6 4 9 5 7 6 2 7 1 8 3 9 8 10
REMARK H PARENT 8 11
REMARK Flexibility Score: inf
ROOT
ATOM      1  C   UNL     1       7.840  14.103 -18.273  1.00  0.00    -0.003 A 
ATOM      2  C   UNL     1       6.629  13.698 -17.682  1.00  0.00     0.014 A 
ATOM      3  C   UNL     1       9.047  13.564 -17.793  1.00  0.00     0.014 A 
ATOM      4  C   UNL     1       6.628  12.773 -16.633  1.00  0.00     0.047 A 
ATOM      5  C   UNL     1       9.041  12.640 -16.744  1.00  0.00     0.047 A 
ATOM      6  C   UNL     1       7.831  12.243 -16.161  1.00  0.00     0.115 A 
ENDROOT
BRANCH   1   7
ATOM      7  C   UNL     1       7.846  15.082 -19.384  1.00  0.00     0.071 C 
ATOM      8  O   UNL     1       6.779  15.382 -19.979  1.00  0.00    -0.545 OA
ATOM      9  O   UNL     1       9.035  15.683 -19.784  1.00  0.00    -0.545 OA
ENDBRANCH   1   7
BRANCH   6  10
ATOM     10  O   UNL     1       7.815  11.321 -15.116  1.00  0.00    -0.508 OA
ATOM     11  H   UNL     1       7.196  10.520 -15.126  1.00  0.00     0.293 HD
ENDBRANCH   6  10
TORSDOF 2
ENDMDL
MODEL 6
REMARK VINA RESULT:    -3.096      1.924      5.092
REMARK INTER + INTRA:          -3.401
REMARK INTER:                  -3.371
REMARK INTRA:                  -0.030
REMARK UNBOUND:                -0.033
REMARK SMILES O=C([O-])c1ccc(O)cc1
REMARK SMILES IDX 4 1 5 2 10 3 6 4 9 5 7 6 2 7 1 8 3 9 8 10
REMARK H PARENT 8 11
REMARK Flexibility Score: inf
ROOT
ATOM      1  C   UNL     1      10.264  14.732 -20.209  1.00  0.00    -0.003 A 
ATOM      2  C   UNL     1       9.384  15.720 -19.732  1.00  0.00     0.014 A 
ATOM      3  C   UNL     1      10.335  13.499 -19.535  1.00  0.00     0.014 A 
ATOM      4  C   UNL     1       8.592  15.479 -18.605  1.00  0.00     0.047 A 
ATOM      5  C   UNL     1       9.542  13.262 -18.409  1.00  0.00     0.047 A 
ATOM      6  C   UNL     1       8.669  14.252 -17.940  1.00  0.00     0.115 A 
ENDROOT
BRANCH   1   7
ATOM      7  C   UNL     1      11.104  14.982 -21.402  1.00  0.00     0.071 C 
ATOM      8  O   UNL     1      11.116  14.166 -22.360  1.00  0.00    -0.545 OA
ATOM      9  O   UNL     1      11.894  16.124 -21.479  1.00  0.00    -0.545 OA
ENDBRANCH   1   7
BRANCH   6  10
ATOM     10  O   UNL     1       7.874  14.025 -16.819  1.00  0.00    -0.508 OA
ATOM     11  H   UNL     1       7.978  14.576 -15.976  1.00  0.00     0.293 HD
ENDBRANCH   6  10
TORSDOF 2
ENDMDL
MODEL 7
REMARK VINA RESULT:    -2.598      1.956      2.603
REMARK INTER + INTRA:          -2.859
REMARK INTER:                  -2.825
REMARK INTRA:                  -0.034
REMARK UNBOUND:                -0.033
REMARK SMILES O=C([O-])c1ccc(O)cc1
REMARK SMILES IDX 4 1 5 2 10 3 6 4 9 5 7 6 2 7 1 8 3 9 8 10
REMARK H PARENT 8 11
REMARK Flexibility Score: inf
ROOT
ATOM      1  C   UNL     1       8.283  11.880 -16.192  1.00  0.00    -0.003 A 
ATOM      2  C   UNL     1       9.205  12.547 -17.020  1.00  0.00     0.014 A 
ATOM      3  C   UNL     1       6.964  12.363 -16.113  1.00  0.00     0.014 A 
ATOM      4  C   UNL     1       8.815  13.673 -17.751  1.00  0.00     0.047 A 
ATOM      5  C   UNL     1       6.578  13.489 -16.846  1.00  0.00     0.047 A 
ATOM      6  C   UNL     1       7.504  14.148 -17.667  1.00  0.00     0.115 A 
ENDROOT
BRANCH   1   7
ATOM      7  C   UNL     1       8.690  10.687 -15.416  1.00  0.00     0.071 C 
ATOM      8  O   UNL     1       7.856   9.786 -15.141  1.00  0.00    -0.545 OA
ATOM      9  O   UNL     1      10.003  10.547 -14.980  1.00  0.00    -0.545 OA
ENDBRANCH   1   7
BRANCH   6  10
ATOM     10  O   UNL     1       7.128  15.270 -18.402  1.00  0.00    -0.508 OA
ATOM     11  H   UNL     1       6.165  15.579 -18.442  1.00  0.00     0.293 HD
ENDBRANCH   6  10
TORSDOF 2
ENDMDL
MODEL 8
REMARK VINA RESULT:    -2.513      2.266      3.323
REMARK INTER + INTRA:          -2.767
REMARK INTER:                  -2.731
REMARK INTRA:                  -0.036
REMARK UNBOUND:                -0.033
REMARK SMILES O=C([O-])c1ccc(O)cc1
REMARK SMILES IDX 4 1 5 2 10 3 6 4 9 5 7 6 2 7 1 8 3 9 8 10
REMARK H PARENT 8 11
REMARK Flexibility Score: inf
ROOT
ATOM      1  C   UNL     1       8.114  14.787 -18.795  1.00  0.00    -0.003 A 
ATOM      2  C   UNL     1       8.415  14.142 -17.580  1.00  0.00     0.014 A 
ATOM      3  C   UNL     1       9.098  15.585 -19.405  1.00  0.00     0.014 A 
ATOM      4  C   UNL     1       9.674  14.295 -16.991  1.00  0.00     0.047 A 
ATOM      5  C   UNL     1      10.355  15.735 -18.813  1.00  0.00     0.047 A 
ATOM      6  C   UNL     1      10.646  15.090 -17.603  1.00  0.00     0.115 A 
ENDROOT
BRANCH   1   7
ATOM      7  C   UNL     1       6.783  14.629 -19.423  1.00  0.00     0.071 C 
ATOM      8  O   UNL     1       6.447  15.347 -20.401  1.00  0.00    -0.545 OA
ATOM      9  O   UNL     1       5.885  13.684 -18.939  1.00  0.00    -0.545 OA
ENDBRANCH   1   7
BRANCH   6  10
ATOM     10  O   UNL     1      11.897  15.232 -17.005  1.00  0.00    -0.508 OA
ATOM     11  H   UNL     1      12.146  16.069 -16.492  1.00  0.00     0.293 HD
ENDBRANCH   6  10
TORSDOF 2
ENDMDL
MODEL 9
REMARK VINA RESULT:    -2.420      2.927      5.853
REMARK INTER + INTRA:          -2.666
REMARK INTER:                  -2.633
REMARK INTRA:                  -0.032
REMARK UNBOUND:                -0.033
REMARK SMILES O=C([O-])c1ccc(O)cc1
REMARK SMILES IDX 4 1 5 2 10 3 6 4 9 5 7 6 2 7 1 8 3 9 8 10
REMARK H PARENT 8 11
REMARK Flexibility Score: inf
ROOT
ATOM      1  C   UNL     1      11.155  14.993 -21.276  1.00  0.00    -0.003 A 
ATOM      2  C   UNL     1      10.717  13.709 -20.904  1.00  0.00     0.014 A 
ATOM      3  C   UNL     1      10.926  16.071 -20.401  1.00  0.00     0.014 A 
ATOM      4  C   UNL     1      10.065  13.508 -19.683  1.00  0.00     0.047 A 
ATOM      5  C   UNL     1      10.273  15.867 -19.182  1.00  0.00     0.047 A 
ATOM      6  C   UNL     1       9.840  14.584 -18.820  1.00  0.00     0.115 A 
ENDROOT
BRANCH   1   7
ATOM      7  C   UNL     1      11.845  15.211 -22.566  1.00  0.00     0.071 C 
ATOM      8  O   UNL     1      11.499  14.572 -23.594  1.00  0.00    -0.545 OA
ATOM      9  O   UNL     1      12.889  16.125 -22.660  1.00  0.00    -0.545 OA
ENDBRANCH   1   7
BRANCH   6  10
ATOM     10  O   UNL     1       9.190  14.370 -17.607  1.00  0.00    -0.508 OA
ATOM     11  H   UNL     1       9.669  13.958 -16.815  1.00  0.00     0.293 HD
ENDBRANCH   6  10
TORSDOF 2
ENDMDL
