MODEL 1
REMARK VINA RESULT:    -6.236      0.000      0.000
REMARK INTER + INTRA:          -7.712
REMARK INTER:                  -7.512
REMARK INTRA:                  -0.200
REMARK UNBOUND:                -0.200
REMARK SMILES O=c1c(O)c(-c2ccc(O)c(O)c2)oc2cc(O)cc(O)c12
REMARK SMILES IDX 5 1 3 2 2 3 1 4 22 5 20 6 19 7 17 8 16 9 15 10 14 11 6 12
REMARK SMILES IDX 7 13 8 14 9 15 13 16 11 17 10 18 12 20 4 22 21 24 18 26
REMARK H PARENT 10 19 12 21 4 23 21 25 18 27
REMARK Flexibility Score: inf
ROOT
ATOM      1  C   UNL     1     108.304 112.519 110.589  1.00  0.00     0.180 A 
ATOM      2  C   UNL     1     109.636 112.933 110.391  1.00  0.00     0.208 A 
ATOM      3  C   UNL     1     110.158 113.949 111.207  1.00  0.00     0.238 A 
ATOM      4  O   UNL     1     111.353 114.321 111.047  1.00  0.00    -0.285 OA
ATOM      5  C   UNL     1     109.340 114.546 112.188  1.00  0.00     0.111 A 
ATOM      6  C   UNL     1     109.788 115.578 113.047  1.00  0.00     0.134 A 
ATOM      7  C   UNL     1     108.909 116.128 113.992  1.00  0.00     0.093 A 
ATOM      8  C   UNL     1     107.595 115.668 114.094  1.00  0.00     0.123 A 
ATOM      9  C   UNL     1     107.146 114.648 113.249  1.00  0.00     0.094 A 
ATOM     10  C   UNL     1     108.007 114.086 112.301  1.00  0.00     0.146 A 
ATOM     11  O   UNL     1     107.557 113.116 111.514  1.00  0.00    -0.452 OA
ENDROOT
BRANCH   1  12
ATOM     12  C   UNL     1     107.688 111.442 109.783  1.00  0.00     0.025 A 
ATOM     13  C   UNL     1     108.144 110.116 109.861  1.00  0.00     0.016 A 
ATOM     14  C   UNL     1     107.531 109.113 109.109  1.00  0.00     0.051 A 
ATOM     15  C   UNL     1     106.446 109.406 108.276  1.00  0.00     0.157 A 
ATOM     16  C   UNL     1     106.586 111.734 108.966  1.00  0.00     0.062 A 
ATOM     17  C   UNL     1     105.964 110.735 108.206  1.00  0.00     0.158 A 
BRANCH  15  18
ATOM     18  O   UNL     1     105.881 108.358 107.547  1.00  0.00    -0.504 OA
ATOM     19  H   UNL     1     106.334 107.904 106.768  1.00  0.00     0.293 HD
ENDBRANCH  15  18
BRANCH  17  20
ATOM     20  O   UNL     1     104.880 111.103 107.406  1.00  0.00    -0.504 OA
ATOM     21  H   UNL     1     104.808 110.891 106.421  1.00  0.00     0.293 HD
ENDBRANCH  17  20
ENDBRANCH   1  12
BRANCH   2  22
ATOM     22  O   UNL     1     110.411 112.359 109.380  1.00  0.00    -0.502 OA
ATOM     23  H   UNL     1     110.013 112.043 108.505  1.00  0.00     0.293 HD
ENDBRANCH   2  22
BRANCH   6  24
ATOM     24  O   UNL     1     111.095 116.060 112.970  1.00  0.00    -0.507 OA
ATOM     25  H   UNL     1     111.364 116.943 113.390  1.00  0.00     0.293 HD
ENDBRANCH   6  24
BRANCH   8  26
ATOM     26  O   UNL     1     106.741 116.231 115.041  1.00  0.00    -0.508 OA
ATOM     27  H   UNL     1     106.982 116.252 116.025  1.00  0.00     0.293 HD
ENDBRANCH   8  26
TORSDOF 6
ENDMDL
MODEL 2
REMARK VINA RESULT:    -6.235      6.403      8.519
REMARK INTER + INTRA:          -7.710
REMARK INTER:                  -7.507
REMARK INTRA:                  -0.203
REMARK UNBOUND:                -0.200
REMARK SMILES O=c1c(O)c(-c2ccc(O)c(O)c2)oc2cc(O)cc(O)c12
REMARK SMILES IDX 5 1 3 2 2 3 1 4 22 5 20 6 19 7 17 8 16 9 15 10 14 11 6 12
REMARK SMILES IDX 7 13 8 14 9 15 13 16 11 17 10 18 12 20 4 22 21 24 18 26
REMARK H PARENT 10 19 12 21 4 23 21 25 18 27
REMARK Flexibility Score: inf
ROOT
ATOM      1  C   UNL     1     114.271 114.965 110.534  1.00  0.00     0.180 A 
ATOM      2  C   UNL     1     113.983 113.604 110.316  1.00  0.00     0.208 A 
ATOM      3  C   UNL     1     114.605 112.641 111.125  1.00  0.00     0.238 A 
ATOM      4  O   UNL     1     114.346 111.419 110.945  1.00  0.00    -0.285 OA
ATOM      5  C   UNL     1     115.516 113.048 112.120  1.00  0.00     0.111 A 
ATOM      6  C   UNL     1     116.189 112.141 112.973  1.00  0.00     0.134 A 
ATOM      7  C   UNL     1     117.089 112.626 113.934  1.00  0.00     0.093 A 
ATOM      8  C   UNL     1     117.330 113.996 114.057  1.00  0.00     0.123 A 
ATOM      9  C   UNL     1     116.667 114.897 113.217  1.00  0.00     0.094 A 
ATOM     10  C   UNL     1     115.766 114.435 112.254  1.00  0.00     0.146 A 
ATOM     11  O   UNL     1     115.148 115.312 111.473  1.00  0.00    -0.452 OA
ENDROOT
BRANCH   1  12
ATOM     12  C   UNL     1     113.640 116.041 109.736  1.00  0.00     0.025 A 
ATOM     13  C   UNL     1     112.262 116.293 109.808  1.00  0.00     0.016 A 
ATOM     14  C   UNL     1     111.694 117.328 109.064  1.00  0.00     0.051 A 
ATOM     15  C   UNL     1     112.488 118.140 108.246  1.00  0.00     0.157 A 
ATOM     16  C   UNL     1     114.443 116.867 108.935  1.00  0.00     0.062 A 
ATOM     17  C   UNL     1     113.883 117.908 108.184  1.00  0.00     0.158 A 
BRANCH  15  18
ATOM     18  O   UNL     1     111.858 119.156 107.525  1.00  0.00    -0.504 OA
ATOM     19  H   UNL     1     112.298 119.676 106.780  1.00  0.00     0.293 HD
ENDBRANCH  15  18
BRANCH  17  20
ATOM     20  O   UNL     1     114.741 118.681 107.399  1.00  0.00    -0.504 OA
ATOM     21  H   UNL     1     115.741 118.546 107.354  1.00  0.00     0.293 HD
ENDBRANCH  17  20
ENDBRANCH   1  12
BRANCH   2  22
ATOM     22  O   UNL     1     113.113 113.222 109.291  1.00  0.00    -0.502 OA
ATOM     23  H   UNL     1     112.211 113.661 109.153  1.00  0.00     0.293 HD
ENDBRANCH   2  22
BRANCH   6  24
ATOM     24  O   UNL     1     115.971 110.767 112.875  1.00  0.00    -0.507 OA
ATOM     25  H   UNL     1     116.738 110.105 112.850  1.00  0.00     0.293 HD
ENDBRANCH   6  24
BRANCH   8  26
ATOM     26  O   UNL     1     118.229 114.451 115.019  1.00  0.00    -0.508 OA
ATOM     27  H   UNL     1     118.616 113.829 115.719  1.00  0.00     0.293 HD
ENDBRANCH   8  26
TORSDOF 6
ENDMDL
MODEL 3
REMARK VINA RESULT:    -6.224      7.137     10.313
REMARK INTER + INTRA:          -7.697
REMARK INTER:                  -7.402
REMARK INTRA:                  -0.296
REMARK UNBOUND:                -0.200
REMARK SMILES O=c1c(O)c(-c2ccc(O)c(O)c2)oc2cc(O)cc(O)c12
REMARK SMILES IDX 5 1 3 2 2 3 1 4 22 5 20 6 19 7 17 8 16 9 15 10 14 11 6 12
REMARK SMILES IDX 7 13 8 14 9 15 13 16 11 17 10 18 12 20 4 22 21 24 18 26
REMARK H PARENT 10 19 12 21 4 23 21 25 18 27
REMARK Flexibility Score: inf
ROOT
ATOM      1  C   UNL     1     113.976 114.123 106.238  1.00  0.00     0.180 A 
ATOM      2  C   UNL     1     114.459 113.245 107.227  1.00  0.00     0.208 A 
ATOM      3  C   UNL     1     115.161 112.096 106.829  1.00  0.00     0.238 A 
ATOM      4  O   UNL     1     115.608 111.307 107.707  1.00  0.00    -0.285 OA
ATOM      5  C   UNL     1     115.349 111.833 105.458  1.00  0.00     0.111 A 
ATOM      6  C   UNL     1     116.039 110.696 104.974  1.00  0.00     0.134 A 
ATOM      7  C   UNL     1     116.176 110.500 103.592  1.00  0.00     0.093 A 
ATOM      8  C   UNL     1     115.637 111.416 102.686  1.00  0.00     0.123 A 
ATOM      9  C   UNL     1     114.954 112.542 103.157  1.00  0.00     0.094 A 
ATOM     10  C   UNL     1     114.808 112.756 104.531  1.00  0.00     0.146 A 
ATOM     11  O   UNL     1     114.159 113.835 104.952  1.00  0.00    -0.452 OA
ENDROOT
BRANCH   1  12
ATOM     12  C   UNL     1     113.245 115.365 106.578  1.00  0.00     0.025 A 
ATOM     13  C   UNL     1     111.842 115.417 106.558  1.00  0.00     0.016 A 
ATOM     14  C   UNL     1     111.175 116.592 106.906  1.00  0.00     0.051 A 
ATOM     15  C   UNL     1     111.888 117.732 107.292  1.00  0.00     0.157 A 
ATOM     16  C   UNL     1     113.962 116.499 106.986  1.00  0.00     0.062 A 
ATOM     17  C   UNL     1     113.302 117.684 107.336  1.00  0.00     0.158 A 
BRANCH  15  18
ATOM     18  O   UNL     1     111.161 118.877 107.623  1.00  0.00    -0.504 OA
ATOM     19  H   UNL     1     110.284 118.863 108.123  1.00  0.00     0.293 HD
ENDBRANCH  15  18
BRANCH  17  20
ATOM     20  O   UNL     1     114.082 118.777 107.720  1.00  0.00    -0.504 OA
ATOM     21  H   UNL     1     114.418 118.928 108.660  1.00  0.00     0.293 HD
ENDBRANCH  17  20
ENDBRANCH   1  12
BRANCH   2  22
ATOM     22  O   UNL     1     114.218 113.503 108.579  1.00  0.00    -0.502 OA
ATOM     23  H   UNL     1     114.940 113.835 109.205  1.00  0.00     0.293 HD
ENDBRANCH   2  22
BRANCH   6  24
ATOM     24  O   UNL     1     116.589 109.762 105.853  1.00  0.00    -0.507 OA
ATOM     25  H   UNL     1     116.601 108.771 105.640  1.00  0.00     0.293 HD
ENDBRANCH   6  24
BRANCH   8  26
ATOM     26  O   UNL     1     115.786 111.198 101.318  1.00  0.00    -0.508 OA
ATOM     27  H   UNL     1     116.103 110.306 100.955  1.00  0.00     0.293 HD
ENDBRANCH   8  26
TORSDOF 6
ENDMDL
MODEL 4
REMARK VINA RESULT:    -6.140      6.465      8.412
REMARK INTER + INTRA:          -7.596
REMARK INTER:                  -7.305
REMARK INTRA:                  -0.291
REMARK UNBOUND:                -0.200
REMARK SMILES O=c1c(O)c(-c2ccc(O)c(O)c2)oc2cc(O)cc(O)c12
REMARK SMILES IDX 5 1 3 2 2 3 1 4 22 5 20 6 19 7 17 8 16 9 15 10 14 11 6 12
REMARK SMILES IDX 7 13 8 14 9 15 13 16 11 17 10 18 12 20 4 22 21 24 18 26
REMARK H PARENT 10 19 12 21 4 23 21 25 18 27
REMARK Flexibility Score: inf
ROOT
ATOM      1  C   UNL     1     114.369 113.147 107.385  1.00  0.00     0.180 A 
ATOM      2  C   UNL     1     112.961 113.161 107.373  1.00  0.00     0.208 A 
ATOM      3  C   UNL     1     112.296 114.397 107.333  1.00  0.00     0.238 A 
ATOM      4  O   UNL     1     111.035 114.422 107.311  1.00  0.00    -0.285 OA
ATOM      5  C   UNL     1     113.043 115.592 107.327  1.00  0.00     0.111 A 
ATOM      6  C   UNL     1     112.450 116.877 107.293  1.00  0.00     0.134 A 
ATOM      7  C   UNL     1     113.264 118.020 107.299  1.00  0.00     0.093 A 
ATOM      8  C   UNL     1     114.655 117.903 107.339  1.00  0.00     0.123 A 
ATOM      9  C   UNL     1     115.247 116.636 107.372  1.00  0.00     0.094 A 
ATOM     10  C   UNL     1     114.454 115.485 107.366  1.00  0.00     0.146 A 
ATOM     11  O   UNL     1     115.042 114.295 107.393  1.00  0.00    -0.452 OA
ENDROOT
BRANCH   1  12
ATOM     12  C   UNL     1     115.143 111.885 107.406  1.00  0.00     0.025 A 
ATOM     13  C   UNL     1     115.319 111.155 108.592  1.00  0.00     0.016 A 
ATOM     14  C   UNL     1     116.032 109.955 108.583  1.00  0.00     0.051 A 
ATOM     15  C   UNL     1     116.571 109.453 107.393  1.00  0.00     0.157 A 
ATOM     16  C   UNL     1     115.662 111.373 106.208  1.00  0.00     0.062 A 
ATOM     17  C   UNL     1     116.380 110.170 106.188  1.00  0.00     0.158 A 
BRANCH  15  18
ATOM     18  O   UNL     1     117.277 108.249 107.452  1.00  0.00    -0.504 OA
ATOM     19  H   UNL     1     116.954 107.430 107.946  1.00  0.00     0.293 HD
ENDBRANCH  15  18
BRANCH  17  20
ATOM     20  O   UNL     1     116.878 109.728 104.960  1.00  0.00    -0.504 OA
ATOM     21  H   UNL     1     117.779 109.993 104.588  1.00  0.00     0.293 HD
ENDBRANCH  17  20
ENDBRANCH   1  12
BRANCH   2  22
ATOM     22  O   UNL     1     112.242 111.964 107.428  1.00  0.00    -0.502 OA
ATOM     23  H   UNL     1     112.639 111.080 107.137  1.00  0.00     0.293 HD
ENDBRANCH   2  22
BRANCH   6  24
ATOM     24  O   UNL     1     111.064 117.027 107.253  1.00  0.00    -0.507 OA
ATOM     25  H   UNL     1     110.457 116.553 107.912  1.00  0.00     0.293 HD
ENDBRANCH   6  24
BRANCH   8  26
ATOM     26  O   UNL     1     115.440 119.053 107.345  1.00  0.00    -0.508 OA
ATOM     27  H   UNL     1     115.750 119.489 106.483  1.00  0.00     0.293 HD
ENDBRANCH   8  26
TORSDOF 6
ENDMDL
MODEL 5
REMARK VINA RESULT:    -6.128      3.908      7.182
REMARK INTER + INTRA:          -7.581
REMARK INTER:                  -7.268
REMARK INTRA:                  -0.314
REMARK UNBOUND:                -0.200
REMARK SMILES O=c1c(O)c(-c2ccc(O)c(O)c2)oc2cc(O)cc(O)c12
REMARK SMILES IDX 5 1 3 2 2 3 1 4 22 5 20 6 19 7 17 8 16 9 15 10 14 11 6 12
REMARK SMILES IDX 7 13 8 14 9 15 13 16 11 17 10 18 12 20 4 22 21 24 18 26
REMARK H PARENT 10 19 12 21 4 23 21 25 18 27
REMARK Flexibility Score: inf
ROOT
ATOM      1  C   UNL     1     110.235 114.797 107.800  1.00  0.00     0.180 A 
ATOM      2  C   UNL     1     109.723 114.231 106.616  1.00  0.00     0.208 A 
ATOM      3  C   UNL     1     108.705 113.269 106.710  1.00  0.00     0.238 A 
ATOM      4  O   UNL     1     108.231 112.762 105.656  1.00  0.00    -0.285 OA
ATOM      5  C   UNL     1     108.231 112.875 107.978  1.00  0.00     0.111 A 
ATOM      6  C   UNL     1     107.212 111.909 108.159  1.00  0.00     0.134 A 
ATOM      7  C   UNL     1     106.803 111.564 109.456  1.00  0.00     0.093 A 
ATOM      8  C   UNL     1     107.391 112.164 110.572  1.00  0.00     0.123 A 
ATOM      9  C   UNL     1     108.398 113.119 110.399  1.00  0.00     0.094 A 
ATOM     10  C   UNL     1     108.820 113.477 109.116  1.00  0.00     0.146 A 
ATOM     11  O   UNL     1     109.774 114.390 108.980  1.00  0.00    -0.452 OA
ENDROOT
BRANCH   1  12
ATOM     12  C   UNL     1     111.294 115.830 107.783  1.00  0.00     0.025 A 
ATOM     13  C   UNL     1     112.652 115.486 107.688  1.00  0.00     0.016 A 
ATOM     14  C   UNL     1     113.631 116.479 107.649  1.00  0.00     0.051 A 
ATOM     15  C   UNL     1     113.279 117.832 107.691  1.00  0.00     0.157 A 
ATOM     16  C   UNL     1     110.937 117.187 107.801  1.00  0.00     0.062 A 
ATOM     17  C   UNL     1     111.912 118.192 107.764  1.00  0.00     0.158 A 
BRANCH  15  18
ATOM     18  O   UNL     1     114.307 118.777 107.652  1.00  0.00    -0.504 OA
ATOM     19  H   UNL     1     114.681 119.169 106.801  1.00  0.00     0.293 HD
ENDBRANCH  15  18
BRANCH  17  20
ATOM     20  O   UNL     1     111.482 119.520 107.798  1.00  0.00    -0.504 OA
ATOM     21  H   UNL     1     111.303 120.033 108.649  1.00  0.00     0.293 HD
ENDBRANCH  17  20
ENDBRANCH   1  12
BRANCH   2  22
ATOM     22  O   UNL     1     110.242 114.602 105.373  1.00  0.00    -0.502 OA
ATOM     23  H   UNL     1     110.787 113.968 104.802  1.00  0.00     0.293 HD
ENDBRANCH   2  22
BRANCH   6  24
ATOM     24  O   UNL     1     106.605 111.292 107.066  1.00  0.00    -0.507 OA
ATOM     25  H   UNL     1     106.525 110.284 106.998  1.00  0.00     0.293 HD
ENDBRANCH   6  24
BRANCH   8  26
ATOM     26  O   UNL     1     106.967 111.803 111.849  1.00  0.00    -0.508 OA
ATOM     27  H   UNL     1     106.493 110.923 112.021  1.00  0.00     0.293 HD
ENDBRANCH   8  26
TORSDOF 6
ENDMDL
MODEL 6
REMARK VINA RESULT:    -6.111      4.249      7.366
REMARK INTER + INTRA:          -7.561
REMARK INTER:                  -7.285
REMARK INTRA:                  -0.275
REMARK UNBOUND:                -0.200
REMARK SMILES O=c1c(O)c(-c2ccc(O)c(O)c2)oc2cc(O)cc(O)c12
REMARK SMILES IDX 5 1 3 2 2 3 1 4 22 5 20 6 19 7 17 8 16 9 15 10 14 11 6 12
REMARK SMILES IDX 7 13 8 14 9 15 13 16 11 17 10 18 12 20 4 22 21 24 18 26
REMARK H PARENT 10 19 12 21 4 23 21 25 18 27
REMARK Flexibility Score: inf
ROOT
ATOM      1  C   UNL     1     109.840 113.435 107.332  1.00  0.00     0.180 A 
ATOM      2  C   UNL     1     110.531 112.208 107.325  1.00  0.00     0.208 A 
ATOM      3  C   UNL     1     109.792 111.015 107.306  1.00  0.00     0.238 A 
ATOM      4  O   UNL     1     110.400 109.909 107.289  1.00  0.00    -0.285 OA
ATOM      5  C   UNL     1     108.384 111.065 107.314  1.00  0.00     0.111 A 
ATOM      6  C   UNL     1     107.567 109.909 107.300  1.00  0.00     0.134 A 
ATOM      7  C   UNL     1     106.170 110.043 107.319  1.00  0.00     0.093 A 
ATOM      8  C   UNL     1     105.577 111.307 107.352  1.00  0.00     0.123 A 
ATOM      9  C   UNL     1     106.378 112.453 107.365  1.00  0.00     0.094 A 
ATOM     10  C   UNL     1     107.772 112.341 107.346  1.00  0.00     0.146 A 
ATOM     11  O   UNL     1     108.509 113.444 107.354  1.00  0.00    -0.452 OA
ENDROOT
BRANCH   1  12
ATOM     12  C   UNL     1     110.547 114.736 107.333  1.00  0.00     0.025 A 
ATOM     13  C   UNL     1     111.146 115.243 108.496  1.00  0.00     0.016 A 
ATOM     14  C   UNL     1     111.828 116.460 108.467  1.00  0.00     0.051 A 
ATOM     15  C   UNL     1     111.938 117.189 107.277  1.00  0.00     0.157 A 
ATOM     16  C   UNL     1     110.675 115.453 106.134  1.00  0.00     0.062 A 
ATOM     17  C   UNL     1     111.356 116.676 106.093  1.00  0.00     0.158 A 
BRANCH  15  18
ATOM     18  O   UNL     1     112.629 118.401 107.316  1.00  0.00    -0.504 OA
ATOM     19  H   UNL     1     112.228 119.288 107.048  1.00  0.00     0.293 HD
ENDBRANCH  15  18
BRANCH  17  20
ATOM     20  O   UNL     1     111.432 117.341 104.867  1.00  0.00    -0.504 OA
ATOM     21  H   UNL     1     111.969 117.010 104.078  1.00  0.00     0.293 HD
ENDBRANCH  17  20
ENDBRANCH   1  12
BRANCH   2  22
ATOM     22  O   UNL     1     111.927 112.184 107.367  1.00  0.00    -0.502 OA
ATOM     23  H   UNL     1     112.497 112.840 106.848  1.00  0.00     0.293 HD
ENDBRANCH   2  22
BRANCH   6  24
ATOM     24  O   UNL     1     108.129 108.633 107.268  1.00  0.00    -0.507 OA
ATOM     25  H   UNL     1     108.718 108.290 108.018  1.00  0.00     0.293 HD
ENDBRANCH   6  24
BRANCH   8  26
ATOM     26  O   UNL     1     104.188 111.413 107.371  1.00  0.00    -0.508 OA
ATOM     27  H   UNL     1     103.641 111.373 106.518  1.00  0.00     0.293 HD
ENDBRANCH   8  26
TORSDOF 6
ENDMDL
MODEL 7
REMARK VINA RESULT:    -6.105      4.722      6.516
REMARK INTER + INTRA:          -7.554
REMARK INTER:                  -7.259
REMARK INTRA:                  -0.296
REMARK UNBOUND:                -0.200
REMARK SMILES O=c1c(O)c(-c2ccc(O)c(O)c2)oc2cc(O)cc(O)c12
REMARK SMILES IDX 5 1 3 2 2 3 1 4 22 5 20 6 19 7 17 8 16 9 15 10 14 11 6 12
REMARK SMILES IDX 7 13 8 14 9 15 13 16 11 17 10 18 12 20 4 22 21 24 18 26
REMARK H PARENT 10 19 12 21 4 23 21 25 18 27
REMARK Flexibility Score: inf
ROOT
ATOM      1  C   UNL     1     109.045 112.631 106.309  1.00  0.00     0.180 A 
ATOM      2  C   UNL     1     109.576 113.494 107.286  1.00  0.00     0.208 A 
ATOM      3  C   UNL     1     110.266 114.645 106.873  1.00  0.00     0.238 A 
ATOM      4  O   UNL     1     110.737 115.431 107.739  1.00  0.00    -0.285 OA
ATOM      5  C   UNL     1     110.431 114.903 105.497  1.00  0.00     0.111 A 
ATOM      6  C   UNL     1     111.117 116.036 104.997  1.00  0.00     0.134 A 
ATOM      7  C   UNL     1     111.246 116.216 103.612  1.00  0.00     0.093 A 
ATOM      8  C   UNL     1     110.707 115.288 102.719  1.00  0.00     0.123 A 
ATOM      9  C   UNL     1     110.028 114.167 103.206  1.00  0.00     0.094 A 
ATOM     10  C   UNL     1     109.887 113.969 104.583  1.00  0.00     0.146 A 
ATOM     11  O   UNL     1     109.233 112.899 105.019  1.00  0.00    -0.452 OA
ENDROOT
BRANCH   1  12
ATOM     12  C   UNL     1     108.289 111.410 106.665  1.00  0.00     0.025 A 
ATOM     13  C   UNL     1     108.904 110.148 106.685  1.00  0.00     0.016 A 
ATOM     14  C   UNL     1     108.177 109.014 107.048  1.00  0.00     0.051 A 
ATOM     15  C   UNL     1     106.829 109.115 107.410  1.00  0.00     0.157 A 
ATOM     16  C   UNL     1     106.944 111.517 107.050  1.00  0.00     0.062 A 
ATOM     17  C   UNL     1     106.204 110.385 107.415  1.00  0.00     0.158 A 
BRANCH  15  18
ATOM     18  O   UNL     1     106.156 107.941 107.759  1.00  0.00    -0.504 OA
ATOM     19  H   UNL     1     105.170 107.789 107.604  1.00  0.00     0.293 HD
ENDBRANCH  15  18
BRANCH  17  20
ATOM     20  O   UNL     1     104.867 110.567 107.773  1.00  0.00    -0.504 OA
ATOM     21  H   UNL     1     104.278 109.836 108.147  1.00  0.00     0.293 HD
ENDBRANCH  17  20
ENDBRANCH   1  12
BRANCH   2  22
ATOM     22  O   UNL     1     109.441 113.192 108.644  1.00  0.00    -0.502 OA
ATOM     23  H   UNL     1     109.167 112.274 108.970  1.00  0.00     0.293 HD
ENDBRANCH   2  22
BRANCH   6  24
ATOM     24  O   UNL     1     111.667 116.981 105.863  1.00  0.00    -0.507 OA
ATOM     25  H   UNL     1     111.552 116.916 106.868  1.00  0.00     0.293 HD
ENDBRANCH   6  24
BRANCH   8  26
ATOM     26  O   UNL     1     110.850 115.490 101.348  1.00  0.00    -0.508 OA
ATOM     27  H   UNL     1     111.673 115.171 100.849  1.00  0.00     0.293 HD
ENDBRANCH   8  26
TORSDOF 6
ENDMDL
MODEL 8
REMARK VINA RESULT:    -6.074      5.478      7.989
REMARK INTER + INTRA:          -7.516
REMARK INTER:                  -7.243
REMARK INTRA:                  -0.273
REMARK UNBOUND:                -0.200
REMARK SMILES O=c1c(O)c(-c2ccc(O)c(O)c2)oc2cc(O)cc(O)c12
REMARK SMILES IDX 5 1 3 2 2 3 1 4 22 5 20 6 19 7 17 8 16 9 15 10 14 11 6 12
REMARK SMILES IDX 7 13 8 14 9 15 13 16 11 17 10 18 12 20 4 22 21 24 18 26
REMARK H PARENT 10 19 12 21 4 23 21 25 18 27
REMARK Flexibility Score: inf
ROOT
ATOM      1  C   UNL     1     111.757 109.466 107.470  1.00  0.00     0.180 A 
ATOM      2  C   UNL     1     112.457 110.688 107.447  1.00  0.00     0.208 A 
ATOM      3  C   UNL     1     113.859 110.665 107.384  1.00  0.00     0.238 A 
ATOM      4  O   UNL     1     114.496 111.753 107.352  1.00  0.00    -0.285 OA
ATOM      5  C   UNL     1     114.537 109.429 107.366  1.00  0.00     0.111 A 
ATOM      6  C   UNL     1     115.947 109.320 107.308  1.00  0.00     0.134 A 
ATOM      7  C   UNL     1     116.547 108.051 107.303  1.00  0.00     0.093 A 
ATOM      8  C   UNL     1     115.767 106.894 107.355  1.00  0.00     0.123 A 
ATOM      9  C   UNL     1     114.373 106.996 107.412  1.00  0.00     0.094 A 
ATOM     10  C   UNL     1     113.756 108.250 107.417  1.00  0.00     0.146 A 
ATOM     11  O   UNL     1     112.431 108.319 107.467  1.00  0.00    -0.452 OA
ENDROOT
BRANCH   1  12
ATOM     12  C   UNL     1     110.279 109.407 107.516  1.00  0.00     0.025 A 
ATOM     13  C   UNL     1     109.572 109.667 108.701  1.00  0.00     0.016 A 
ATOM     14  C   UNL     1     108.178 109.629 108.714  1.00  0.00     0.051 A 
ATOM     15  C   UNL     1     107.459 109.345 107.547  1.00  0.00     0.157 A 
ATOM     16  C   UNL     1     109.561 109.145 106.340  1.00  0.00     0.062 A 
ATOM     17  C   UNL     1     108.161 109.103 106.342  1.00  0.00     0.158 A 
BRANCH  15  18
ATOM     18  O   UNL     1     106.065 109.319 107.629  1.00  0.00    -0.504 OA
ATOM     19  H   UNL     1     105.522 109.944 108.205  1.00  0.00     0.293 HD
ENDBRANCH  15  18
BRANCH  17  20
ATOM     20  O   UNL     1     107.514 108.823 105.136  1.00  0.00    -0.504 OA
ATOM     21  H   UNL     1     106.545 109.041 104.952  1.00  0.00     0.293 HD
ENDBRANCH  17  20
ENDBRANCH   1  12
BRANCH   2  22
ATOM     22  O   UNL     1     111.764 111.900 107.515  1.00  0.00    -0.502 OA
ATOM     23  H   UNL     1     112.153 112.766 107.166  1.00  0.00     0.293 HD
ENDBRANCH   2  22
BRANCH   6  24
ATOM     24  O   UNL     1     116.754 110.456 107.256  1.00  0.00    -0.507 OA
ATOM     25  H   UNL     1     116.527 111.245 106.660  1.00  0.00     0.293 HD
ENDBRANCH   6  24
BRANCH   8  26
ATOM     26  O   UNL     1     116.387 105.647 107.350  1.00  0.00    -0.508 OA
ATOM     27  H   UNL     1     115.976 104.848 107.819  1.00  0.00     0.293 HD
ENDBRANCH   8  26
TORSDOF 6
ENDMDL
MODEL 9
REMARK VINA RESULT:    -6.030      6.363      7.683
REMARK INTER + INTRA:          -7.463
REMARK INTER:                  -7.156
REMARK INTRA:                  -0.307
REMARK UNBOUND:                -0.200
REMARK SMILES O=c1c(O)c(-c2ccc(O)c(O)c2)oc2cc(O)cc(O)c12
REMARK SMILES IDX 5 1 3 2 2 3 1 4 22 5 20 6 19 7 17 8 16 9 15 10 14 11 6 12
REMARK SMILES IDX 7 13 8 14 9 15 13 16 11 17 10 18 12 20 4 22 21 24 18 26
REMARK H PARENT 10 19 12 21 4 23 21 25 18 27
REMARK Flexibility Score: inf
ROOT
ATOM      1  C   UNL     1     114.241 116.124 110.869  1.00  0.00     0.180 A 
ATOM      2  C   UNL     1     114.915 114.895 110.996  1.00  0.00     0.208 A 
ATOM      3  C   UNL     1     115.466 114.549 112.240  1.00  0.00     0.238 A 
ATOM      4  O   UNL     1     116.063 113.445 112.369  1.00  0.00    -0.285 OA
ATOM      5  C   UNL     1     115.353 115.440 113.326  1.00  0.00     0.111 A 
ATOM      6  C   UNL     1     115.883 115.170 114.610  1.00  0.00     0.134 A 
ATOM      7  C   UNL     1     115.736 116.114 115.637  1.00  0.00     0.093 A 
ATOM      8  C   UNL     1     115.073 117.321 115.405  1.00  0.00     0.123 A 
ATOM      9  C   UNL     1     114.546 117.594 114.139  1.00  0.00     0.094 A 
ATOM     10  C   UNL     1     114.681 116.666 113.102  1.00  0.00     0.146 A 
ATOM     11  O   UNL     1     114.167 116.948 111.911  1.00  0.00    -0.452 OA
ENDROOT
BRANCH   1  12
ATOM     12  C   UNL     1     113.618 116.552 109.596  1.00  0.00     0.025 A 
ATOM     13  C   UNL     1     114.292 117.392 108.696  1.00  0.00     0.016 A 
ATOM     14  C   UNL     1     113.693 117.761 107.491  1.00  0.00     0.051 A 
ATOM     15  C   UNL     1     112.419 117.292 107.152  1.00  0.00     0.157 A 
ATOM     16  C   UNL     1     112.350 116.061 109.249  1.00  0.00     0.062 A 
ATOM     17  C   UNL     1     111.739 116.426 108.042  1.00  0.00     0.158 A 
BRANCH  15  18
ATOM     18  O   UNL     1     111.874 117.702 105.934  1.00  0.00    -0.504 OA
ATOM     19  H   UNL     1     111.060 117.282 105.510  1.00  0.00     0.293 HD
ENDBRANCH  15  18
BRANCH  17  20
ATOM     20  O   UNL     1     110.471 115.909 107.770  1.00  0.00    -0.504 OA
ATOM     21  H   UNL     1     110.300 115.132 107.148  1.00  0.00     0.293 HD
ENDBRANCH  17  20
ENDBRANCH   1  12
BRANCH   2  22
ATOM     22  O   UNL     1     115.057 114.049 109.892  1.00  0.00    -0.502 OA
ATOM     23  H   UNL     1     114.493 113.217 109.771  1.00  0.00     0.293 HD
ENDBRANCH   2  22
BRANCH   6  24
ATOM     24  O   UNL     1     116.551 113.974 114.873  1.00  0.00    -0.507 OA
ATOM     25  H   UNL     1     117.284 113.627 114.264  1.00  0.00     0.293 HD
ENDBRANCH   6  24
BRANCH   8  26
ATOM     26  O   UNL     1     114.942 118.242 116.442  1.00  0.00    -0.508 OA
ATOM     27  H   UNL     1     115.722 118.815 116.744  1.00  0.00     0.293 HD
ENDBRANCH   8  26
TORSDOF 6
ENDMDL
