MODEL 1
REMARK VINA RESULT:    14.735      0.000      0.000
REMARK INTER + INTRA:          17.542
REMARK INTER:                  17.749
REMARK INTRA:                  -0.207
REMARK UNBOUND:                -0.207
REMARK SMILES O=c1c(O)c(-c2ccc(O)c(O)c2)oc2cc(O)cc(O)c12
REMARK SMILES IDX 5 1 3 2 2 3 1 4 22 5 20 6 19 7 17 8 16 9 15 10 14 11 6 12
REMARK SMILES IDX 7 13 8 14 9 15 13 16 11 17 10 18 12 20 4 22 21 24 18 26
REMARK H PARENT 10 19 12 21 4 23 21 25 18 27
REMARK Flexibility Score: inf
ROOT
ATOM      1  C   UNL     1     -42.266  44.684  12.117  1.00  0.00     0.180 A 
ATOM      2  C   UNL     1     -41.081  44.107  11.626  1.00  0.00     0.208 A 
ATOM      3  C   UNL     1     -41.076  42.744  11.289  1.00  0.00     0.238 A 
ATOM      4  O   UNL     1     -39.999  42.222  10.901  1.00  0.00    -0.285 OA
ATOM      5  C   UNL     1     -42.258  41.979  11.431  1.00  0.00     0.111 A 
ATOM      6  C   UNL     1     -42.378  40.599  11.082  1.00  0.00     0.134 A 
ATOM      7  C   UNL     1     -43.557  39.910  11.387  1.00  0.00     0.093 A 
ATOM      8  C   UNL     1     -44.645  40.566  11.970  1.00  0.00     0.123 A 
ATOM      9  C   UNL     1     -44.559  41.925  12.260  1.00  0.00     0.094 A 
ATOM     10  C   UNL     1     -43.383  42.632  12.000  1.00  0.00     0.146 A 
ATOM     11  O   UNL     1     -43.339  43.924  12.302  1.00  0.00    -0.452 OA
ENDROOT
BRANCH   1  12
ATOM     12  C   UNL     1     -42.356  46.119  12.471  1.00  0.00     0.025 A 
ATOM     13  C   UNL     1     -42.607  46.488  13.801  1.00  0.00     0.016 A 
ATOM     14  C   UNL     1     -42.717  47.836  14.153  1.00  0.00     0.051 A 
ATOM     15  C   UNL     1     -42.593  48.833  13.180  1.00  0.00     0.157 A 
ATOM     16  C   UNL     1     -42.252  47.122  11.489  1.00  0.00     0.062 A 
ATOM     17  C   UNL     1     -42.364  48.475  11.841  1.00  0.00     0.158 A 
BRANCH  15  18
ATOM     18  O   UNL     1     -42.705  50.170  13.561  1.00  0.00    -0.504 OA
ATOM     19  H   UNL     1     -43.223  50.844  13.012  1.00  0.00     0.293 HD
ENDBRANCH  15  18
BRANCH  17  20
ATOM     20  O   UNL     1     -42.254  49.464  10.864  1.00  0.00    -0.504 OA
ATOM     21  H   UNL     1     -41.416  50.025  10.768  1.00  0.00     0.293 HD
ENDBRANCH  17  20
ENDBRANCH   1  12
BRANCH   2  22
ATOM     22  O   UNL     1     -39.919  44.876  11.514  1.00  0.00    -0.502 OA
ATOM     23  H   UNL     1     -39.000  44.507  11.726  1.00  0.00     0.293 HD
ENDBRANCH   2  22
BRANCH   6  24
ATOM     24  O   UNL     1     -41.387  39.875  10.415  1.00  0.00    -0.507 OA
ATOM     25  H   UNL     1     -41.361  39.719   9.418  1.00  0.00     0.293 HD
ENDBRANCH   6  24
BRANCH   8  26
ATOM     26  O   UNL     1     -45.821  39.875  12.257  1.00  0.00    -0.508 OA
ATOM     27  H   UNL     1     -45.833  38.866  12.352  1.00  0.00     0.293 HD
ENDBRANCH   8  26
TORSDOF 6
ENDMDL
