MODEL 1
REMARK VINA RESULT:    -3.702      0.000      0.000
REMARK INTER + INTRA:          -3.934
REMARK INTER:                  -3.918
REMARK INTRA:                  -0.016
REMARK UNBOUND:                -0.016
REMARK SMILES O=C([O-])c1cccnc1
REMARK SMILES IDX 4 1 5 2 9 3 6 4 8 5 7 6 2 7 1 8 3 9
REMARK H PARENT
REMARK Flexibility Score: inf
ROOT
ATOM      1  C   UNL     1       6.490  -8.951  -4.582  1.00  0.00     0.016 A 
ATOM      2  C   UNL     1       5.131  -9.299  -4.618  1.00  0.00     0.013 A 
ATOM      3  C   UNL     1       7.356  -9.724  -3.788  1.00  0.00     0.120 A 
ATOM      4  C   UNL     1       4.665 -10.388  -3.877  1.00  0.00     0.021 A 
ATOM      5  N   UNL     1       6.877 -10.779  -3.076  1.00  0.00    -0.264 NA
ATOM      6  C   UNL     1       5.563 -11.124  -3.104  1.00  0.00     0.111 A 
ENDROOT
BRANCH   1   7
ATOM      7  C   UNL     1       6.995  -7.802  -5.362  1.00  0.00     0.073 C 
ATOM      8  O   UNL     1       7.214  -6.694  -4.802  1.00  0.00    -0.545 OA
ATOM      9  O   UNL     1       7.232  -7.925  -6.726  1.00  0.00    -0.545 OA
ENDBRANCH   1   7
TORSDOF 1
ENDMDL
MODEL 2
REMARK VINA RESULT:    -3.542      1.263      1.885
REMARK INTER + INTRA:          -3.766
REMARK INTER:                  -3.746
REMARK INTRA:                  -0.020
REMARK UNBOUND:                -0.016
REMARK SMILES O=C([O-])c1cccnc1
REMARK SMILES IDX 4 1 5 2 9 3 6 4 8 5 7 6 2 7 1 8 3 9
REMARK H PARENT
REMARK Flexibility Score: inf
ROOT
ATOM      1  C   UNL     1       7.112  -8.423  -4.542  1.00  0.00     0.016 A 
ATOM      2  C   UNL     1       8.021  -9.227  -3.838  1.00  0.00     0.013 A 
ATOM      3  C   UNL     1       5.838  -8.945  -4.825  1.00  0.00     0.120 A 
ATOM      4  C   UNL     1       7.655 -10.513  -3.434  1.00  0.00     0.021 A 
ATOM      5  N   UNL     1       5.505 -10.201  -4.420  1.00  0.00    -0.264 NA
ATOM      6  C   UNL     1       6.378 -10.988  -3.738  1.00  0.00     0.111 A 
ENDROOT
BRANCH   1   7
ATOM      7  C   UNL     1       7.489  -7.060  -4.974  1.00  0.00     0.073 C 
ATOM      8  O   UNL     1       8.049  -6.266  -4.172  1.00  0.00    -0.545 OA
ATOM      9  O   UNL     1       7.229  -6.635  -6.272  1.00  0.00    -0.545 OA
ENDBRANCH   1   7
TORSDOF 1
ENDMDL
MODEL 3
REMARK VINA RESULT:    -3.497     10.378     11.399
REMARK INTER + INTRA:          -3.718
REMARK INTER:                  -3.701
REMARK INTRA:                  -0.017
REMARK UNBOUND:                -0.016
REMARK SMILES O=C([O-])c1cccnc1
REMARK SMILES IDX 4 1 5 2 9 3 6 4 8 5 7 6 2 7 1 8 3 9
REMARK H PARENT
REMARK Flexibility Score: inf
ROOT
ATOM      1  C   UNL     1       4.433 -10.294   6.379  1.00  0.00     0.016 A 
ATOM      2  C   UNL     1       4.888 -10.947   5.222  1.00  0.00     0.013 A 
ATOM      3  C   UNL     1       5.316  -9.431   7.050  1.00  0.00     0.120 A 
ATOM      4  C   UNL     1       6.189 -10.734   4.763  1.00  0.00     0.021 A 
ATOM      5  N   UNL     1       6.579  -9.240   6.581  1.00  0.00    -0.264 NA
ATOM      6  C   UNL     1       7.029  -9.868   5.463  1.00  0.00     0.111 A 
ENDROOT
BRANCH   1   7
ATOM      7  C   UNL     1       3.057 -10.512   6.875  1.00  0.00     0.073 C 
ATOM      8  O   UNL     1       2.856 -11.125   7.957  1.00  0.00    -0.545 OA
ATOM      9  O   UNL     1       1.965 -10.045   6.152  1.00  0.00    -0.545 OA
ENDBRANCH   1   7
TORSDOF 1
ENDMDL
MODEL 4
REMARK VINA RESULT:    -3.445     15.529     16.243
REMARK INTER + INTRA:          -3.662
REMARK INTER:                  -3.646
REMARK INTRA:                  -0.016
REMARK UNBOUND:                -0.016
REMARK SMILES O=C([O-])c1cccnc1
REMARK SMILES IDX 4 1 5 2 9 3 6 4 8 5 7 6 2 7 1 8 3 9
REMARK H PARENT
REMARK Flexibility Score: inf
ROOT
ATOM      1  C   UNL     1      -7.328  -0.569  -5.429  1.00  0.00     0.016 A 
ATOM      2  C   UNL     1      -6.115  -1.213  -5.138  1.00  0.00     0.013 A 
ATOM      3  C   UNL     1      -8.268  -1.243  -6.227  1.00  0.00     0.120 A 
ATOM      4  C   UNL     1      -5.863  -2.492  -5.639  1.00  0.00     0.021 A 
ATOM      5  N   UNL     1      -7.998  -2.489  -6.701  1.00  0.00    -0.264 NA
ATOM      6  C   UNL     1      -6.827  -3.121  -6.427  1.00  0.00     0.111 A 
ENDROOT
BRANCH   1   7
ATOM      7  C   UNL     1      -7.606   0.785  -4.904  1.00  0.00     0.073 C 
ATOM      8  O   UNL     1      -8.369   0.945  -3.914  1.00  0.00    -0.545 OA
ATOM      9  O   UNL     1      -7.030   1.903  -5.498  1.00  0.00    -0.545 OA
ENDBRANCH   1   7
TORSDOF 1
ENDMDL
MODEL 5
REMARK VINA RESULT:    -3.410      2.677      4.054
REMARK INTER + INTRA:          -3.625
REMARK INTER:                  -3.607
REMARK INTRA:                  -0.018
REMARK UNBOUND:                -0.016
REMARK SMILES O=C([O-])c1cccnc1
REMARK SMILES IDX 4 1 5 2 9 3 6 4 8 5 7 6 2 7 1 8 3 9
REMARK H PARENT
REMARK Flexibility Score: inf
ROOT
ATOM      1  C   UNL     1       6.967  -8.188  -5.272  1.00  0.00     0.016 A 
ATOM      2  C   UNL     1       7.184  -8.172  -6.659  1.00  0.00     0.013 A 
ATOM      3  C   UNL     1       7.549  -7.171  -4.494  1.00  0.00     0.120 A 
ATOM      4  C   UNL     1       7.960  -7.165  -7.237  1.00  0.00     0.021 A 
ATOM      5  N   UNL     1       8.300  -6.201  -5.081  1.00  0.00    -0.264 NA
ATOM      6  C   UNL     1       8.516  -6.178  -6.423  1.00  0.00     0.111 A 
ENDROOT
BRANCH   1   7
ATOM      7  C   UNL     1       6.147  -9.248  -4.649  1.00  0.00     0.073 C 
ATOM      8  O   UNL     1       6.607  -9.942  -3.703  1.00  0.00    -0.545 OA
ATOM      9  O   UNL     1       4.856  -9.498  -5.102  1.00  0.00    -0.545 OA
ENDBRANCH   1   7
TORSDOF 1
ENDMDL
MODEL 6
REMARK VINA RESULT:    -3.297      9.860     10.645
REMARK INTER + INTRA:          -3.506
REMARK INTER:                  -3.484
REMARK INTRA:                  -0.022
REMARK UNBOUND:                -0.016
REMARK SMILES O=C([O-])c1cccnc1
REMARK SMILES IDX 4 1 5 2 9 3 6 4 8 5 7 6 2 7 1 8 3 9
REMARK H PARENT
REMARK Flexibility Score: inf
ROOT
ATOM      1  C   UNL     1       7.078  -9.445   5.533  1.00  0.00     0.016 A 
ATOM      2  C   UNL     1       6.293  -9.326   6.690  1.00  0.00     0.013 A 
ATOM      3  C   UNL     1       8.116  -8.518   5.331  1.00  0.00     0.120 A 
ATOM      4  C   UNL     1       6.548  -8.305   7.609  1.00  0.00     0.021 A 
ATOM      5  N   UNL     1       8.344  -7.534   6.242  1.00  0.00    -0.264 NA
ATOM      6  C   UNL     1       7.589  -7.409   7.365  1.00  0.00     0.111 A 
ENDROOT
BRANCH   1   7
ATOM      7  C   UNL     1       6.818 -10.522   4.554  1.00  0.00     0.073 C 
ATOM      8  O   UNL     1       7.733 -10.926   3.788  1.00  0.00    -0.545 OA
ATOM      9  O   UNL     1       5.558 -11.102   4.463  1.00  0.00    -0.545 OA
ENDBRANCH   1   7
TORSDOF 1
ENDMDL
MODEL 7
REMARK VINA RESULT:    -3.292     15.402     16.080
REMARK INTER + INTRA:          -3.501
REMARK INTER:                  -3.480
REMARK INTRA:                  -0.020
REMARK UNBOUND:                -0.016
REMARK SMILES O=C([O-])c1cccnc1
REMARK SMILES IDX 4 1 5 2 9 3 6 4 8 5 7 6 2 7 1 8 3 9
REMARK H PARENT
REMARK Flexibility Score: inf
ROOT
ATOM      1  C   UNL     1      -7.560  -2.170  -7.499  1.00  0.00     0.016 A 
ATOM      2  C   UNL     1      -6.878  -2.968  -6.566  1.00  0.00     0.013 A 
ATOM      3  C   UNL     1      -7.652  -0.789  -7.255  1.00  0.00     0.120 A 
ATOM      4  C   UNL     1      -6.312  -2.389  -5.428  1.00  0.00     0.021 A 
ATOM      5  N   UNL     1      -7.091  -0.249  -6.139  1.00  0.00    -0.264 NA
ATOM      6  C   UNL     1      -6.430  -1.013  -5.230  1.00  0.00     0.111 A 
ENDROOT
BRANCH   1   7
ATOM      7  C   UNL     1      -8.162  -2.773  -8.707  1.00  0.00     0.073 C 
ATOM      8  O   UNL     1      -9.275  -2.367  -9.138  1.00  0.00    -0.545 OA
ATOM      9  O   UNL     1      -7.511  -3.798  -9.383  1.00  0.00    -0.545 OA
ENDBRANCH   1   7
TORSDOF 1
ENDMDL
MODEL 8
REMARK VINA RESULT:    -3.222      9.822     10.543
REMARK INTER + INTRA:          -3.427
REMARK INTER:                  -3.403
REMARK INTRA:                  -0.023
REMARK UNBOUND:                -0.016
REMARK SMILES O=C([O-])c1cccnc1
REMARK SMILES IDX 4 1 5 2 9 3 6 4 8 5 7 6 2 7 1 8 3 9
REMARK H PARENT
REMARK Flexibility Score: inf
ROOT
ATOM      1  C   UNL     1       6.159 -10.083   5.677  1.00  0.00     0.016 A 
ATOM      2  C   UNL     1       5.038 -10.846   5.314  1.00  0.00     0.013 A 
ATOM      3  C   UNL     1       6.074  -9.276   6.825  1.00  0.00     0.120 A 
ATOM      4  C   UNL     1       3.874 -10.793   6.084  1.00  0.00     0.021 A 
ATOM      5  N   UNL     1       4.929  -9.243   7.559  1.00  0.00    -0.264 NA
ATOM      6  C   UNL     1       3.838  -9.977   7.216  1.00  0.00     0.111 A 
ENDROOT
BRANCH   1   7
ATOM      7  C   UNL     1       7.396 -10.131   4.870  1.00  0.00     0.073 C 
ATOM      8  O   UNL     1       7.595 -11.075   4.059  1.00  0.00    -0.545 OA
ATOM      9  O   UNL     1       8.359  -9.136   4.995  1.00  0.00    -0.545 OA
ENDBRANCH   1   7
TORSDOF 1
ENDMDL
