MODEL 1
REMARK VINA RESULT:    -3.478      0.000      0.000
REMARK INTER + INTRA:          -7.104
REMARK INTER:                  -5.308
REMARK INTRA:                  -1.796
REMARK UNBOUND:                -1.796
REMARK SMILES OC[C@@H]1O[C@](CO)(O[C@@H]2O[C@H](CO)[C@H](O)[C@@H](O)[C@H]2O)[C@@H](O)[C@@H]1O
REMARK SMILES IDX 8 1 9 2 11 3 14 4 10 5 16 6 18 7 12 8 13 9 15 11 17 13 19 15
REMARK SMILES IDX 5 17 20 18 4 19 22 20 3 21 6 22 7 23 21 25 23 27 2 29 1 30
REMARK H PARENT 13 10 15 12 17 14 19 16 7 24 21 26 23 28 1 31
REMARK Flexibility Score: inf
ROOT
ATOM      1  O   UNL     1     -25.766  57.453 -52.612  1.00  0.00    -0.313 OA
ENDROOT
BRANCH   1   2
ATOM      2  C   UNL     1     -26.626  57.745 -51.518  1.00  0.00     0.285 C 
ATOM      3  C   UNL     1     -28.646  57.855 -52.800  1.00  0.00     0.178 C 
ATOM      4  C   UNL     1     -28.730  59.395 -52.623  1.00  0.00     0.177 C 
ATOM      5  O   UNL     1     -27.930  57.220 -51.744  1.00  0.00    -0.341 OA
ATOM      6  C   UNL     1     -27.343  60.002 -52.399  1.00  0.00     0.179 C 
ATOM      7  C   UNL     1     -26.640  59.264 -51.253  1.00  0.00     0.202 C 
BRANCH   3   8
ATOM      8  C   UNL     1     -28.159  57.397 -54.195  1.00  0.00     0.191 C 
BRANCH   8   9
ATOM      9  O   UNL     1     -27.886  56.020 -54.202  1.00  0.00    -0.394 OA
ATOM     10  H   UNL     1     -27.169  55.875 -54.875  1.00  0.00     0.210 HD
ENDBRANCH   8   9
ENDBRANCH   3   8
BRANCH   4  11
ATOM     11  O   UNL     1     -29.331  60.000 -53.741  1.00  0.00    -0.387 OA
ATOM     12  H   UNL     1     -28.694  60.688 -54.069  1.00  0.00     0.211 HD
ENDBRANCH   4  11
BRANCH   6  13
ATOM     13  O   UNL     1     -27.476  61.366 -52.088  1.00  0.00    -0.387 OA
ATOM     14  H   UNL     1     -28.430  61.513 -51.856  1.00  0.00     0.211 HD
ENDBRANCH   6  13
BRANCH   7  15
ATOM     15  O   UNL     1     -27.298  59.534 -50.040  1.00  0.00    -0.385 OA
ATOM     16  H   UNL     1     -26.616  59.898 -49.416  1.00  0.00     0.211 HD
ENDBRANCH   7  15
ENDBRANCH   1   2
BRANCH   1  17
ATOM     17  C   UNL     1     -24.575  56.765 -52.242  1.00  0.00     0.224 C 
ATOM     18  C   UNL     1     -24.913  55.847 -51.060  1.00  0.00     0.208 C 
ATOM     19  O   UNL     1     -23.584  57.663 -51.767  1.00  0.00    -0.337 OA
ATOM     20  C   UNL     1     -23.600  55.732 -50.317  1.00  0.00     0.180 C 
ATOM     21  C   UNL     1     -22.887  57.042 -50.700  1.00  0.00     0.179 C 
BRANCH  17  22
ATOM     22  C   UNL     1     -24.012  55.989 -53.462  1.00  0.00     0.225 C 
BRANCH  22  23
ATOM     23  O   UNL     1     -25.055  55.407 -54.197  1.00  0.00    -0.391 OA
ATOM     24  H   UNL     1     -24.684  54.574 -54.590  1.00  0.00     0.210 HD
ENDBRANCH  22  23
ENDBRANCH  17  22
BRANCH  18  25
ATOM     25  O   UNL     1     -25.473  54.607 -51.430  1.00  0.00    -0.385 OA
ATOM     26  H   UNL     1     -26.458  54.701 -51.492  1.00  0.00     0.211 HD
ENDBRANCH  18  25
BRANCH  20  27
ATOM     27  O   UNL     1     -23.803  55.598 -48.934  1.00  0.00    -0.387 OA
ATOM     28  H   UNL     1     -22.906  55.639 -48.512  1.00  0.00     0.211 HD
ENDBRANCH  20  27
BRANCH  21  29
ATOM     29  C   UNL     1     -22.726  58.052 -49.552  1.00  0.00     0.191 C 
BRANCH  29  30
ATOM     30  O   UNL     1     -23.974  58.534 -49.129  1.00  0.00    -0.394 OA
ATOM     31  H   UNL     1     -24.435  58.900 -49.928  1.00  0.00     0.210 HD
ENDBRANCH  29  30
ENDBRANCH  21  29
ENDBRANCH   1  17
TORSDOF 13
ENDMDL
MODEL 2
REMARK VINA RESULT:    -3.440      2.581      5.477
REMARK INTER + INTRA:          -7.045
REMARK INTER:                  -5.430
REMARK INTRA:                  -1.615
REMARK UNBOUND:                -1.796
REMARK SMILES OC[C@@H]1O[C@](CO)(O[C@@H]2O[C@H](CO)[C@H](O)[C@@H](O)[C@H]2O)[C@@H](O)[C@@H]1O
REMARK SMILES IDX 8 1 9 2 11 3 14 4 10 5 16 6 18 7 12 8 13 9 15 11 17 13 19 15
REMARK SMILES IDX 5 17 20 18 4 19 22 20 3 21 6 22 7 23 21 25 23 27 2 29 1 30
REMARK H PARENT 13 10 15 12 17 14 19 16 7 24 21 26 23 28 1 31
REMARK Flexibility Score: inf
ROOT
ATOM      1  O   UNL     1     -28.159  61.074 -52.217  1.00  0.00    -0.313 OA
ENDROOT
BRANCH   1   2
ATOM      2  C   UNL     1     -27.295  62.149 -52.560  1.00  0.00     0.285 C 
ATOM      3  C   UNL     1     -26.173  62.264 -50.448  1.00  0.00     0.178 C 
ATOM      4  C   UNL     1     -26.872  63.603 -50.095  1.00  0.00     0.177 C 
ATOM      5  O   UNL     1     -26.063  62.055 -51.853  1.00  0.00    -0.341 OA
ATOM      6  C   UNL     1     -28.214  63.734 -50.821  1.00  0.00     0.179 C 
ATOM      7  C   UNL     1     -28.010  63.494 -52.322  1.00  0.00     0.202 C 
BRANCH   3   8
ATOM      8  C   UNL     1     -26.751  61.029 -49.717  1.00  0.00     0.191 C 
BRANCH   8   9
ATOM      9  O   UNL     1     -26.137  59.849 -50.165  1.00  0.00    -0.394 OA
ATOM     10  H   UNL     1     -26.700  59.496 -50.903  1.00  0.00     0.210 HD
ENDBRANCH   8   9
ENDBRANCH   3   8
BRANCH   4  11
ATOM     11  O   UNL     1     -27.076  63.719 -48.710  1.00  0.00    -0.387 OA
ATOM     12  H   UNL     1     -27.365  64.653 -48.540  1.00  0.00     0.211 HD
ENDBRANCH   4  11
BRANCH   6  13
ATOM     13  O   UNL     1     -28.739  65.019 -50.602  1.00  0.00    -0.387 OA
ATOM     14  H   UNL     1     -29.518  65.116 -51.210  1.00  0.00     0.211 HD
ENDBRANCH   6  13
BRANCH   7  15
ATOM     15  O   UNL     1     -27.256  64.544 -52.873  1.00  0.00    -0.385 OA
ATOM     16  H   UNL     1     -27.110  64.324 -53.830  1.00  0.00     0.211 HD
ENDBRANCH   7  15
ENDBRANCH   1   2
BRANCH   1  17
ATOM     17  C   UNL     1     -28.166  60.013 -53.167  1.00  0.00     0.224 C 
ATOM     18  C   UNL     1     -29.240  59.005 -52.736  1.00  0.00     0.208 C 
ATOM     19  O   UNL     1     -26.939  59.301 -53.159  1.00  0.00    -0.337 OA
ATOM     20  C   UNL     1     -28.734  57.692 -53.292  1.00  0.00     0.180 C 
ATOM     21  C   UNL     1     -27.214  57.925 -53.359  1.00  0.00     0.179 C 
BRANCH  17  22
ATOM     22  C   UNL     1     -28.414  60.580 -54.590  1.00  0.00     0.225 C 
BRANCH  22  23
ATOM     23  O   UNL     1     -29.573  61.367 -54.610  1.00  0.00    -0.391 OA
ATOM     24  H   UNL     1     -30.293  60.809 -54.215  1.00  0.00     0.210 HD
ENDBRANCH  22  23
ENDBRANCH  17  22
BRANCH  18  25
ATOM     25  O   UNL     1     -30.547  59.337 -53.148  1.00  0.00    -0.385 OA
ATOM     26  H   UNL     1     -30.627  59.187 -54.125  1.00  0.00     0.211 HD
ENDBRANCH  18  25
BRANCH  20  27
ATOM     27  O   UNL     1     -29.092  56.614 -52.466  1.00  0.00    -0.387 OA
ATOM     28  H   UNL     1     -29.844  56.930 -51.900  1.00  0.00     0.211 HD
ENDBRANCH  20  27
BRANCH  21  29
ATOM     29  C   UNL     1     -26.386  57.098 -52.361  1.00  0.00     0.191 C 
BRANCH  29  30
ATOM     30  O   UNL     1     -26.765  57.382 -51.040  1.00  0.00    -0.394 OA
ATOM     31  H   UNL     1     -26.286  58.207 -50.767  1.00  0.00     0.210 HD
ENDBRANCH  29  30
ENDBRANCH  21  29
ENDBRANCH   1  17
TORSDOF 13
ENDMDL
MODEL 3
REMARK VINA RESULT:    -3.378      4.498      6.355
REMARK INTER + INTRA:          -6.951
REMARK INTER:                  -5.120
REMARK INTRA:                  -1.832
REMARK UNBOUND:                -1.796
REMARK SMILES OC[C@@H]1O[C@](CO)(O[C@@H]2O[C@H](CO)[C@H](O)[C@@H](O)[C@H]2O)[C@@H](O)[C@@H]1O
REMARK SMILES IDX 8 1 9 2 11 3 14 4 10 5 16 6 18 7 12 8 13 9 15 11 17 13 19 15
REMARK SMILES IDX 5 17 20 18 4 19 22 20 3 21 6 22 7 23 21 25 23 27 2 29 1 30
REMARK H PARENT 13 10 15 12 17 14 19 16 7 24 21 26 23 28 1 31
REMARK Flexibility Score: inf
ROOT
ATOM      1  O   UNL     1     -25.320  62.128 -48.750  1.00  0.00    -0.313 OA
ENDROOT
BRANCH   1   2
ATOM      2  C   UNL     1     -26.438  63.004 -48.823  1.00  0.00     0.285 C 
ATOM      3  C   UNL     1     -27.522  61.885 -50.642  1.00  0.00     0.178 C 
ATOM      4  C   UNL     1     -27.189  63.045 -51.617  1.00  0.00     0.177 C 
ATOM      5  O   UNL     1     -27.594  62.312 -49.284  1.00  0.00    -0.341 OA
ATOM      6  C   UNL     1     -25.937  63.803 -51.167  1.00  0.00     0.179 C 
ATOM      7  C   UNL     1     -26.092  64.224 -49.701  1.00  0.00     0.202 C 
BRANCH   3   8
ATOM      8  C   UNL     1     -26.634  60.630 -50.814  1.00  0.00     0.191 C 
BRANCH   8   9
ATOM      9  O   UNL     1     -26.982  59.639 -49.883  1.00  0.00    -0.394 OA
ATOM     10  H   UNL     1     -27.683  60.030 -49.298  1.00  0.00     0.210 HD
ENDBRANCH   8   9
ENDBRANCH   3   8
BRANCH   4  11
ATOM     11  O   UNL     1     -27.003  62.569 -52.926  1.00  0.00    -0.387 OA
ATOM     12  H   UNL     1     -27.030  63.360 -53.525  1.00  0.00     0.211 HD
ENDBRANCH   4  11
BRANCH   6  13
ATOM     13  O   UNL     1     -25.760  64.935 -51.980  1.00  0.00    -0.387 OA
ATOM     14  H   UNL     1     -26.155  65.703 -51.490  1.00  0.00     0.211 HD
ENDBRANCH   6  13
BRANCH   7  15
ATOM     15  O   UNL     1     -27.101  65.197 -49.590  1.00  0.00    -0.385 OA
ATOM     16  H   UNL     1     -27.109  65.703 -50.444  1.00  0.00     0.211 HD
ENDBRANCH   7  15
ENDBRANCH   1   2
BRANCH   1  17
ATOM     17  C   UNL     1     -25.027  61.676 -47.431  1.00  0.00     0.224 C 
ATOM     18  C   UNL     1     -26.348  61.247 -46.779  1.00  0.00     0.208 C 
ATOM     19  O   UNL     1     -24.517  62.726 -46.623  1.00  0.00    -0.337 OA
ATOM     20  C   UNL     1     -26.101  61.470 -45.303  1.00  0.00     0.180 C 
ATOM     21  C   UNL     1     -25.027  62.573 -45.310  1.00  0.00     0.179 C 
BRANCH  17  22
ATOM     22  C   UNL     1     -23.985  60.528 -47.486  1.00  0.00     0.225 C 
BRANCH  22  23
ATOM     23  O   UNL     1     -24.392  59.538 -48.392  1.00  0.00    -0.391 OA
ATOM     24  H   UNL     1     -25.159  59.921 -48.893  1.00  0.00     0.210 HD
ENDBRANCH  22  23
ENDBRANCH  17  22
BRANCH  18  25
ATOM     25  O   UNL     1     -26.756  59.937 -47.101  1.00  0.00    -0.385 OA
ATOM     26  H   UNL     1     -26.783  59.392 -46.273  1.00  0.00     0.211 HD
ENDBRANCH  18  25
BRANCH  20  27
ATOM     27  O   UNL     1     -27.277  61.849 -44.638  1.00  0.00    -0.387 OA
ATOM     28  H   UNL     1     -27.856  62.287 -45.315  1.00  0.00     0.211 HD
ENDBRANCH  20  27
BRANCH  21  29
ATOM     29  C   UNL     1     -25.500  63.942 -44.794  1.00  0.00     0.191 C 
BRANCH  29  30
ATOM     30  O   UNL     1     -26.493  64.477 -45.629  1.00  0.00    -0.394 OA
ATOM     31  H   UNL     1     -26.453  63.983 -46.489  1.00  0.00     0.210 HD
ENDBRANCH  29  30
ENDBRANCH  21  29
ENDBRANCH   1  17
TORSDOF 13
ENDMDL
MODEL 4
REMARK VINA RESULT:    -3.355      1.833      6.030
REMARK INTER + INTRA:          -6.916
REMARK INTER:                  -4.947
REMARK INTRA:                  -1.969
REMARK UNBOUND:                -1.796
REMARK SMILES OC[C@@H]1O[C@](CO)(O[C@@H]2O[C@H](CO)[C@H](O)[C@@H](O)[C@H]2O)[C@@H](O)[C@@H]1O
REMARK SMILES IDX 8 1 9 2 11 3 14 4 10 5 16 6 18 7 12 8 13 9 15 11 17 13 19 15
REMARK SMILES IDX 5 17 20 18 4 19 22 20 3 21 6 22 7 23 21 25 23 27 2 29 1 30
REMARK H PARENT 13 10 15 12 17 14 19 16 7 24 21 26 23 28 1 31
REMARK Flexibility Score: inf
ROOT
ATOM      1  O   UNL     1     -24.741  56.625 -52.324  1.00  0.00    -0.313 OA
ENDROOT
BRANCH   1   2
ATOM      2  C   UNL     1     -24.993  55.350 -51.746  1.00  0.00     0.285 C 
ATOM      3  C   UNL     1     -23.562  55.641 -49.848  1.00  0.00     0.178 C 
ATOM      4  C   UNL     1     -22.534  54.623 -50.408  1.00  0.00     0.177 C 
ATOM      5  O   UNL     1     -24.883  55.407 -50.328  1.00  0.00    -0.341 OA
ATOM      6  C   UNL     1     -22.605  54.548 -51.935  1.00  0.00     0.179 C 
ATOM      7  C   UNL     1     -24.054  54.297 -52.368  1.00  0.00     0.202 C 
BRANCH   3   8
ATOM      8  C   UNL     1     -23.141  57.122 -49.995  1.00  0.00     0.191 C 
BRANCH   8   9
ATOM      9  O   UNL     1     -24.230  57.977 -49.769  1.00  0.00    -0.394 OA
ATOM     10  H   UNL     1     -24.617  57.722 -48.890  1.00  0.00     0.210 HD
ENDBRANCH   8   9
ENDBRANCH   3   8
BRANCH   4  11
ATOM     11  O   UNL     1     -21.226  54.957 -50.016  1.00  0.00    -0.387 OA
ATOM     12  H   UNL     1     -21.302  55.726 -49.392  1.00  0.00     0.211 HD
ENDBRANCH   4  11
BRANCH   6  13
ATOM     13  O   UNL     1     -21.776  53.508 -52.390  1.00  0.00    -0.387 OA
ATOM     14  H   UNL     1     -22.235  53.098 -53.169  1.00  0.00     0.211 HD
ENDBRANCH   6  13
BRANCH   7  15
ATOM     15  O   UNL     1     -24.452  53.007 -51.975  1.00  0.00    -0.385 OA
ATOM     16  H   UNL     1     -23.627  52.458 -51.911  1.00  0.00     0.211 HD
ENDBRANCH   7  15
ENDBRANCH   1   2
BRANCH   1  17
ATOM     17  C   UNL     1     -25.890  57.229 -52.911  1.00  0.00     0.224 C 
ATOM     18  C   UNL     1     -27.025  57.176 -51.879  1.00  0.00     0.208 C 
ATOM     19  O   UNL     1     -26.348  56.492 -54.033  1.00  0.00    -0.337 OA
ATOM     20  C   UNL     1     -28.274  57.147 -52.733  1.00  0.00     0.180 C 
ATOM     21  C   UNL     1     -27.765  56.522 -54.044  1.00  0.00     0.179 C 
BRANCH  17  22
ATOM     22  C   UNL     1     -25.554  58.677 -53.359  1.00  0.00     0.225 C 
BRANCH  22  23
ATOM     23  O   UNL     1     -24.746  59.311 -52.404  1.00  0.00    -0.391 OA
ATOM     24  H   UNL     1     -24.920  58.848 -51.544  1.00  0.00     0.210 HD
ENDBRANCH  22  23
ENDBRANCH  17  22
BRANCH  18  25
ATOM     25  O   UNL     1     -26.999  58.222 -50.934  1.00  0.00    -0.385 OA
ATOM     26  H   UNL     1     -26.465  58.975 -51.297  1.00  0.00     0.211 HD
ENDBRANCH  18  25
BRANCH  20  27
ATOM     27  O   UNL     1     -29.294  56.400 -52.123  1.00  0.00    -0.387 OA
ATOM     28  H   UNL     1     -28.883  55.948 -51.340  1.00  0.00     0.211 HD
ENDBRANCH  20  27
BRANCH  21  29
ATOM     29  C   UNL     1     -28.294  55.108 -54.335  1.00  0.00     0.191 C 
BRANCH  29  30
ATOM     30  O   UNL     1     -27.796  54.184 -53.404  1.00  0.00    -0.394 OA
ATOM     31  H   UNL     1     -28.535  53.967 -52.779  1.00  0.00     0.210 HD
ENDBRANCH  29  30
ENDBRANCH  21  29
ENDBRANCH   1  17
TORSDOF 13
ENDMDL
MODEL 5
REMARK VINA RESULT:    -3.285      3.760      7.659
REMARK INTER + INTRA:          -6.809
REMARK INTER:                  -4.842
REMARK INTRA:                  -1.966
REMARK UNBOUND:                -1.796
REMARK SMILES OC[C@@H]1O[C@](CO)(O[C@@H]2O[C@H](CO)[C@H](O)[C@@H](O)[C@H]2O)[C@@H](O)[C@@H]1O
REMARK SMILES IDX 8 1 9 2 11 3 14 4 10 5 16 6 18 7 12 8 13 9 15 11 17 13 19 15
REMARK SMILES IDX 5 17 20 18 4 19 22 20 3 21 6 22 7 23 21 25 23 27 2 29 1 30
REMARK H PARENT 13 10 15 12 17 14 19 16 7 24 21 26 23 28 1 31
REMARK Flexibility Score: inf
ROOT
ATOM      1  O   UNL     1     -26.426  62.821 -50.790  1.00  0.00    -0.313 OA
ENDROOT
BRANCH   1   2
ATOM      2  C   UNL     1     -27.192  61.719 -50.322  1.00  0.00     0.285 C 
ATOM      3  C   UNL     1     -26.597  61.953 -48.014  1.00  0.00     0.178 C 
ATOM      4  C   UNL     1     -25.720  60.675 -48.061  1.00  0.00     0.177 C 
ATOM      5  O   UNL     1     -27.638  61.941 -48.988  1.00  0.00    -0.341 OA
ATOM      6  C   UNL     1     -25.202  60.411 -49.477  1.00  0.00     0.179 C 
ATOM      7  C   UNL     1     -26.378  60.417 -50.461  1.00  0.00     0.202 C 
BRANCH   3   8
ATOM      8  C   UNL     1     -25.799  63.279 -48.028  1.00  0.00     0.191 C 
BRANCH   8   9
ATOM      9  O   UNL     1     -26.648  64.372 -48.256  1.00  0.00    -0.394 OA
ATOM     10  H   UNL     1     -27.182  64.498 -47.427  1.00  0.00     0.210 HD
ENDBRANCH   8   9
ENDBRANCH   3   8
BRANCH   4  11
ATOM     11  O   UNL     1     -24.632  60.775 -47.176  1.00  0.00    -0.387 OA
ATOM     12  H   UNL     1     -23.810  60.656 -47.719  1.00  0.00     0.211 HD
ENDBRANCH   4  11
BRANCH   6  13
ATOM     13  O   UNL     1     -24.547  59.168 -49.510  1.00  0.00    -0.387 OA
ATOM     14  H   UNL     1     -24.418  58.889 -48.566  1.00  0.00     0.211 HD
ENDBRANCH   6  13
BRANCH   7  15
ATOM     15  O   UNL     1     -27.204  59.305 -50.221  1.00  0.00    -0.385 OA
ATOM     16  H   UNL     1     -27.112  58.702 -51.004  1.00  0.00     0.211 HD
ENDBRANCH   7  15
ENDBRANCH   1   2
BRANCH   1  17
ATOM     17  C   UNL     1     -27.055  63.559 -51.834  1.00  0.00     0.224 C 
ATOM     18  C   UNL     1     -28.506  63.824 -51.411  1.00  0.00     0.208 C 
ATOM     19  O   UNL     1     -27.130  62.803 -53.032  1.00  0.00    -0.337 OA
ATOM     20  C   UNL     1     -29.242  63.932 -52.728  1.00  0.00     0.180 C 
ATOM     21  C   UNL     1     -28.363  63.089 -53.669  1.00  0.00     0.179 C 
BRANCH  17  22
ATOM     22  C   UNL     1     -26.262  64.865 -52.108  1.00  0.00     0.225 C 
BRANCH  22  23
ATOM     23  O   UNL     1     -25.812  65.428 -50.906  1.00  0.00    -0.391 OA
ATOM     24  H   UNL     1     -25.011  65.966 -51.136  1.00  0.00     0.210 HD
ENDBRANCH  22  23
ENDBRANCH  17  22
BRANCH  18  25
ATOM     25  O   UNL     1     -28.670  64.942 -50.568  1.00  0.00    -0.385 OA
ATOM     26  H   UNL     1     -27.780  65.336 -50.375  1.00  0.00     0.211 HD
ENDBRANCH  18  25
BRANCH  20  27
ATOM     27  O   UNL     1     -30.557  63.452 -52.622  1.00  0.00    -0.387 OA
ATOM     28  H   UNL     1     -30.838  63.608 -51.682  1.00  0.00     0.211 HD
ENDBRANCH  20  27
BRANCH  21  29
ATOM     29  C   UNL     1     -29.000  61.771 -54.143  1.00  0.00     0.191 C 
BRANCH  29  30
ATOM     30  O   UNL     1     -29.075  60.844 -53.092  1.00  0.00    -0.394 OA
ATOM     31  H   UNL     1     -28.144  60.636 -52.816  1.00  0.00     0.210 HD
ENDBRANCH  29  30
ENDBRANCH  21  29
ENDBRANCH   1  17
TORSDOF 13
ENDMDL
MODEL 6
REMARK VINA RESULT:    -3.227      3.142      7.116
REMARK INTER + INTRA:          -6.721
REMARK INTER:                  -5.132
REMARK INTRA:                  -1.589
REMARK UNBOUND:                -1.796
REMARK SMILES OC[C@@H]1O[C@](CO)(O[C@@H]2O[C@H](CO)[C@H](O)[C@@H](O)[C@H]2O)[C@@H](O)[C@@H]1O
REMARK SMILES IDX 8 1 9 2 11 3 14 4 10 5 16 6 18 7 12 8 13 9 15 11 17 13 19 15
REMARK SMILES IDX 5 17 20 18 4 19 22 20 3 21 6 22 7 23 21 25 23 27 2 29 1 30
REMARK H PARENT 13 10 15 12 17 14 19 16 7 24 21 26 23 28 1 31
REMARK Flexibility Score: inf
ROOT
ATOM      1  O   UNL     1     -28.163  61.659 -52.131  1.00  0.00    -0.313 OA
ENDROOT
BRANCH   1   2
ATOM      2  C   UNL     1     -27.245  60.934 -52.938  1.00  0.00     0.285 C 
ATOM      3  C   UNL     1     -28.820  59.315 -53.731  1.00  0.00     0.178 C 
ATOM      4  C   UNL     1     -28.172  58.195 -52.874  1.00  0.00     0.177 C 
ATOM      5  O   UNL     1     -27.903  60.355 -54.059  1.00  0.00    -0.341 OA
ATOM      6  C   UNL     1     -27.470  58.776 -51.644  1.00  0.00     0.179 C 
ATOM      7  C   UNL     1     -26.507  59.886 -52.082  1.00  0.00     0.202 C 
BRANCH   3   8
ATOM      8  C   UNL     1     -30.150  59.865 -53.164  1.00  0.00     0.191 C 
BRANCH   8   9
ATOM      9  O   UNL     1     -30.577  60.988 -53.889  1.00  0.00    -0.394 OA
ATOM     10  H   UNL     1     -31.362  61.359 -53.406  1.00  0.00     0.210 HD
ENDBRANCH   8   9
ENDBRANCH   3   8
BRANCH   4  11
ATOM     11  O   UNL     1     -29.131  57.252 -52.464  1.00  0.00    -0.387 OA
ATOM     12  H   UNL     1     -29.830  57.753 -51.968  1.00  0.00     0.211 HD
ENDBRANCH   4  11
BRANCH   6  13
ATOM     13  O   UNL     1     -26.766  57.755 -50.984  1.00  0.00    -0.387 OA
ATOM     14  H   UNL     1     -27.357  56.958 -50.981  1.00  0.00     0.211 HD
ENDBRANCH   6  13
BRANCH   7  15
ATOM     15  O   UNL     1     -25.443  59.331 -52.813  1.00  0.00    -0.385 OA
ATOM     16  H   UNL     1     -25.318  59.899 -53.618  1.00  0.00     0.211 HD
ENDBRANCH   7  15
ENDBRANCH   1   2
BRANCH   1  17
ATOM     17  C   UNL     1     -28.127  63.068 -52.338  1.00  0.00     0.224 C 
ATOM     18  C   UNL     1     -28.673  63.742 -51.072  1.00  0.00     0.208 C 
ATOM     19  O   UNL     1     -28.994  63.460 -53.392  1.00  0.00    -0.337 OA
ATOM     20  C   UNL     1     -29.250  65.042 -51.586  1.00  0.00     0.180 C 
ATOM     21  C   UNL     1     -29.590  64.698 -53.048  1.00  0.00     0.179 C 
BRANCH  17  22
ATOM     22  C   UNL     1     -26.681  63.514 -52.680  1.00  0.00     0.225 C 
BRANCH  22  23
ATOM     23  O   UNL     1     -26.620  64.027 -53.983  1.00  0.00    -0.391 OA
ATOM     24  H   UNL     1     -25.677  63.929 -54.275  1.00  0.00     0.210 HD
ENDBRANCH  22  23
ENDBRANCH  17  22
BRANCH  18  25
ATOM     25  O   UNL     1     -27.721  63.903 -50.045  1.00  0.00    -0.385 OA
ATOM     26  H   UNL     1     -26.828  63.634 -50.384  1.00  0.00     0.211 HD
ENDBRANCH  18  25
BRANCH  20  27
ATOM     27  O   UNL     1     -30.369  65.438 -50.837  1.00  0.00    -0.387 OA
ATOM     28  H   UNL     1     -30.053  65.566 -49.904  1.00  0.00     0.211 HD
ENDBRANCH  20  27
BRANCH  21  29
ATOM     29  C   UNL     1     -31.094  64.635 -53.365  1.00  0.00     0.191 C 
BRANCH  29  30
ATOM     30  O   UNL     1     -31.675  63.483 -52.814  1.00  0.00    -0.394 OA
ATOM     31  H   UNL     1     -32.338  63.782 -52.138  1.00  0.00     0.210 HD
ENDBRANCH  29  30
ENDBRANCH  21  29
ENDBRANCH   1  17
TORSDOF 13
ENDMDL
MODEL 7
REMARK VINA RESULT:    -3.175      2.456      5.948
REMARK INTER + INTRA:          -6.641
REMARK INTER:                  -5.109
REMARK INTRA:                  -1.532
REMARK UNBOUND:                -1.796
REMARK SMILES OC[C@@H]1O[C@](CO)(O[C@@H]2O[C@H](CO)[C@H](O)[C@@H](O)[C@H]2O)[C@@H](O)[C@@H]1O
REMARK SMILES IDX 8 1 9 2 11 3 14 4 10 5 16 6 18 7 12 8 13 9 15 11 17 13 19 15
REMARK SMILES IDX 5 17 20 18 4 19 22 20 3 21 6 22 7 23 21 25 23 27 2 29 1 30
REMARK H PARENT 13 10 15 12 17 14 19 16 7 24 21 26 23 28 1 31
REMARK Flexibility Score: inf
ROOT
ATOM      1  O   UNL     1     -26.513  60.529 -52.289  1.00  0.00    -0.313 OA
ENDROOT
BRANCH   1   2
ATOM      2  C   UNL     1     -26.394  59.432 -51.393  1.00  0.00     0.285 C 
ATOM      3  C   UNL     1     -26.798  60.687 -49.394  1.00  0.00     0.178 C 
ATOM      4  C   UNL     1     -25.316  60.555 -48.955  1.00  0.00     0.177 C 
ATOM      5  O   UNL     1     -27.215  59.623 -50.246  1.00  0.00    -0.341 OA
ATOM      6  C   UNL     1     -24.395  60.368 -50.164  1.00  0.00     0.179 C 
ATOM      7  C   UNL     1     -24.912  59.211 -51.027  1.00  0.00     0.202 C 
BRANCH   3   8
ATOM      8  C   UNL     1     -27.175  62.075 -49.965  1.00  0.00     0.191 C 
BRANCH   8   9
ATOM      9  O   UNL     1     -27.435  62.987 -48.931  1.00  0.00    -0.394 OA
ATOM     10  H   UNL     1     -27.526  62.455 -48.096  1.00  0.00     0.210 HD
ENDBRANCH   8   9
ENDBRANCH   3   8
BRANCH   4  11
ATOM     11  O   UNL     1     -24.902  61.681 -48.222  1.00  0.00    -0.387 OA
ATOM     12  H   UNL     1     -24.880  61.408 -47.267  1.00  0.00     0.211 HD
ENDBRANCH   4  11
BRANCH   6  13
ATOM     13  O   UNL     1     -23.091  60.095 -49.719  1.00  0.00    -0.387 OA
ATOM     14  H   UNL     1     -22.635  59.608 -50.454  1.00  0.00     0.211 HD
ENDBRANCH   6  13
BRANCH   7  15
ATOM     15  O   UNL     1     -24.764  57.997 -50.333  1.00  0.00    -0.385 OA
ATOM     16  H   UNL     1     -25.406  58.018 -49.576  1.00  0.00     0.211 HD
ENDBRANCH   7  15
ENDBRANCH   1   2
BRANCH   1  17
ATOM     17  C   UNL     1     -27.309  60.252 -53.438  1.00  0.00     0.224 C 
ATOM     18  C   UNL     1     -28.768  60.568 -53.083  1.00  0.00     0.208 C 
ATOM     19  O   UNL     1     -27.278  58.872 -53.770  1.00  0.00    -0.337 OA
ATOM     20  C   UNL     1     -29.557  59.642 -53.983  1.00  0.00     0.180 C 
ATOM     21  C   UNL     1     -28.565  58.490 -54.224  1.00  0.00     0.179 C 
BRANCH  17  22
ATOM     22  C   UNL     1     -26.794  61.076 -54.648  1.00  0.00     0.225 C 
BRANCH  22  23
ATOM     23  O   UNL     1     -26.409  62.360 -54.239  1.00  0.00    -0.391 OA
ATOM     24  H   UNL     1     -27.248  62.879 -54.130  1.00  0.00     0.210 HD
ENDBRANCH  22  23
ENDBRANCH  17  22
BRANCH  18  25
ATOM     25  O   UNL     1     -29.115  61.928 -53.213  1.00  0.00    -0.385 OA
ATOM     26  H   UNL     1     -29.854  62.135 -52.585  1.00  0.00     0.211 HD
ENDBRANCH  18  25
BRANCH  20  27
ATOM     27  O   UNL     1     -30.750  59.226 -53.371  1.00  0.00    -0.387 OA
ATOM     28  H   UNL     1     -31.355  58.934 -54.102  1.00  0.00     0.211 HD
ENDBRANCH  20  27
BRANCH  21  29
ATOM     29  C   UNL     1     -28.951  57.154 -53.567  1.00  0.00     0.191 C 
BRANCH  29  30
ATOM     30  O   UNL     1     -28.969  57.269 -52.168  1.00  0.00    -0.394 OA
ATOM     31  H   UNL     1     -29.901  57.107 -51.871  1.00  0.00     0.210 HD
ENDBRANCH  29  30
ENDBRANCH  21  29
ENDBRANCH   1  17
TORSDOF 13
ENDMDL
MODEL 8
REMARK VINA RESULT:    -3.133      4.184      7.639
REMARK INTER + INTRA:          -6.577
REMARK INTER:                  -4.627
REMARK INTRA:                  -1.950
REMARK UNBOUND:                -1.796
REMARK SMILES OC[C@@H]1O[C@](CO)(O[C@@H]2O[C@H](CO)[C@H](O)[C@@H](O)[C@H]2O)[C@@H](O)[C@@H]1O
REMARK SMILES IDX 8 1 9 2 11 3 14 4 10 5 16 6 18 7 12 8 13 9 15 11 17 13 19 15
REMARK SMILES IDX 5 17 20 18 4 19 22 20 3 21 6 22 7 23 21 25 23 27 2 29 1 30
REMARK H PARENT 13 10 15 12 17 14 19 16 7 24 21 26 23 28 1 31
REMARK Flexibility Score: inf
ROOT
ATOM      1  O   UNL     1     -24.442  61.763 -47.663  1.00  0.00    -0.313 OA
ENDROOT
BRANCH   1   2
ATOM      2  C   UNL     1     -24.317  60.462 -47.103  1.00  0.00     0.285 C 
ATOM      3  C   UNL     1     -24.835  61.099 -44.854  1.00  0.00     0.178 C 
ATOM      4  C   UNL     1     -23.367  60.884 -44.403  1.00  0.00     0.177 C 
ATOM      5  O   UNL     1     -25.185  60.307 -45.985  1.00  0.00    -0.341 OA
ATOM      6  C   UNL     1     -22.397  61.064 -45.575  1.00  0.00     0.179 C 
ATOM      7  C   UNL     1     -22.843  60.183 -46.748  1.00  0.00     0.202 C 
BRANCH   3   8
ATOM      8  C   UNL     1     -25.240  62.582 -45.031  1.00  0.00     0.191 C 
BRANCH   8   9
ATOM      9  O   UNL     1     -26.466  62.690 -45.705  1.00  0.00    -0.394 OA
ATOM     10  H   UNL     1     -26.838  63.583 -45.481  1.00  0.00     0.210 HD
ENDBRANCH   8   9
ENDBRANCH   3   8
BRANCH   4  11
ATOM     11  O   UNL     1     -23.019  61.769 -43.368  1.00  0.00    -0.387 OA
ATOM     12  H   UNL     1     -23.535  61.489 -42.568  1.00  0.00     0.211 HD
ENDBRANCH   4  11
BRANCH   6  13
ATOM     13  O   UNL     1     -21.101  60.708 -45.166  1.00  0.00    -0.387 OA
ATOM     14  H   UNL     1     -20.481  61.361 -45.585  1.00  0.00     0.211 HD
ENDBRANCH   6  13
BRANCH   7  15
ATOM     15  O   UNL     1     -22.678  58.827 -46.414  1.00  0.00    -0.385 OA
ATOM     16  H   UNL     1     -22.348  58.367 -47.229  1.00  0.00     0.211 HD
ENDBRANCH   7  15
ENDBRANCH   1   2
BRANCH   1  17
ATOM     17  C   UNL     1     -25.049  61.781 -48.951  1.00  0.00     0.224 C 
ATOM     18  C   UNL     1     -26.351  60.974 -48.866  1.00  0.00     0.208 C 
ATOM     19  O   UNL     1     -24.243  61.120 -49.915  1.00  0.00    -0.337 OA
ATOM     20  C   UNL     1     -26.536  60.454 -50.275  1.00  0.00     0.180 C 
ATOM     21  C   UNL     1     -25.091  60.418 -50.806  1.00  0.00     0.179 C 
BRANCH  17  22
ATOM     22  C   UNL     1     -25.280  63.247 -49.406  1.00  0.00     0.225 C 
BRANCH  22  23
ATOM     23  O   UNL     1     -25.896  63.985 -48.386  1.00  0.00    -0.391 OA
ATOM     24  H   UNL     1     -26.447  64.676 -48.838  1.00  0.00     0.210 HD
ENDBRANCH  22  23
ENDBRANCH  17  22
BRANCH  18  25
ATOM     25  O   UNL     1     -27.454  61.702 -48.374  1.00  0.00    -0.385 OA
ATOM     26  H   UNL     1     -27.129  62.547 -47.967  1.00  0.00     0.211 HD
ENDBRANCH  18  25
BRANCH  20  27
ATOM     27  O   UNL     1     -27.159  59.196 -50.279  1.00  0.00    -0.387 OA
ATOM     28  H   UNL     1     -28.114  59.354 -50.060  1.00  0.00     0.211 HD
ENDBRANCH  20  27
BRANCH  21  29
ATOM     29  C   UNL     1     -24.521  59.008 -51.035  1.00  0.00     0.191 C 
BRANCH  29  30
ATOM     30  O   UNL     1     -24.327  58.341 -49.815  1.00  0.00    -0.394 OA
ATOM     31  H   UNL     1     -23.554  57.730 -49.933  1.00  0.00     0.210 HD
ENDBRANCH  29  30
ENDBRANCH  21  29
ENDBRANCH   1  17
TORSDOF 13
ENDMDL
MODEL 9
REMARK VINA RESULT:    -3.091      3.084      4.152
REMARK INTER + INTRA:          -6.512
REMARK INTER:                  -4.545
REMARK INTRA:                  -1.967
REMARK UNBOUND:                -1.796
REMARK SMILES OC[C@@H]1O[C@](CO)(O[C@@H]2O[C@H](CO)[C@H](O)[C@@H](O)[C@H]2O)[C@@H](O)[C@@H]1O
REMARK SMILES IDX 8 1 9 2 11 3 14 4 10 5 16 6 18 7 12 8 13 9 15 11 17 13 19 15
REMARK SMILES IDX 5 17 20 18 4 19 22 20 3 21 6 22 7 23 21 25 23 27 2 29 1 30
REMARK H PARENT 13 10 15 12 17 14 19 16 7 24 21 26 23 28 1 31
REMARK Flexibility Score: inf
ROOT
ATOM      1  O   UNL     1     -24.516  61.124 -50.187  1.00  0.00    -0.313 OA
ENDROOT
BRANCH   1   2
ATOM      2  C   UNL     1     -25.619  60.824 -49.342  1.00  0.00     0.285 C 
ATOM      3  C   UNL     1     -27.314  61.594 -50.847  1.00  0.00     0.178 C 
ATOM      4  C   UNL     1     -27.615  62.827 -49.955  1.00  0.00     0.177 C 
ATOM      5  O   UNL     1     -26.773  60.501 -50.110  1.00  0.00    -0.341 OA
ATOM      6  C   UNL     1     -26.389  63.220 -49.125  1.00  0.00     0.179 C 
ATOM      7  C   UNL     1     -25.868  61.993 -48.368  1.00  0.00     0.202 C 
BRANCH   3   8
ATOM      8  C   UNL     1     -26.489  61.909 -52.117  1.00  0.00     0.191 C 
BRANCH   8   9
ATOM      9  O   UNL     1     -25.990  60.732 -52.695  1.00  0.00    -0.394 OA
ATOM     10  H   UNL     1     -25.611  60.985 -53.578  1.00  0.00     0.210 HD
ENDBRANCH   8   9
ENDBRANCH   3   8
BRANCH   4  11
ATOM     11  O   UNL     1     -28.028  63.924 -50.729  1.00  0.00    -0.387 OA
ATOM     12  H   UNL     1     -29.004  63.819 -50.876  1.00  0.00     0.211 HD
ENDBRANCH   4  11
BRANCH   6  13
ATOM     13  O   UNL     1     -26.745  64.234 -48.220  1.00  0.00    -0.387 OA
ATOM     14  H   UNL     1     -27.577  63.933 -47.769  1.00  0.00     0.211 HD
ENDBRANCH   6  13
BRANCH   7  15
ATOM     15  O   UNL     1     -26.798  61.610 -47.386  1.00  0.00    -0.385 OA
ATOM     16  H   UNL     1     -26.949  60.635 -47.495  1.00  0.00     0.211 HD
ENDBRANCH   7  15
ENDBRANCH   1   2
BRANCH   1  17
ATOM     17  C   UNL     1     -23.458  60.173 -50.116  1.00  0.00     0.224 C 
ATOM     18  C   UNL     1     -24.080  58.773 -50.210  1.00  0.00     0.208 C 
ATOM     19  O   UNL     1     -22.799  60.222 -48.859  1.00  0.00    -0.337 OA
ATOM     20  C   UNL     1     -23.102  57.902 -49.454  1.00  0.00     0.180 C 
ATOM     21  C   UNL     1     -22.452  58.902 -48.481  1.00  0.00     0.179 C 
BRANCH  17  22
ATOM     22  C   UNL     1     -22.425  60.447 -51.240  1.00  0.00     0.225 C 
BRANCH  22  23
ATOM     23  O   UNL     1     -23.076  60.808 -52.428  1.00  0.00    -0.391 OA
ATOM     24  H   UNL     1     -23.933  61.228 -52.157  1.00  0.00     0.210 HD
ENDBRANCH  22  23
ENDBRANCH  17  22
BRANCH  18  25
ATOM     25  O   UNL     1     -24.336  58.340 -51.527  1.00  0.00    -0.385 OA
ATOM     26  H   UNL     1     -24.023  57.404 -51.628  1.00  0.00     0.211 HD
ENDBRANCH  18  25
BRANCH  20  27
ATOM     27  O   UNL     1     -23.756  56.843 -48.803  1.00  0.00    -0.387 OA
ATOM     28  H   UNL     1     -23.447  56.008 -49.242  1.00  0.00     0.211 HD
ENDBRANCH  20  27
BRANCH  21  29
ATOM     29  C   UNL     1     -22.812  58.693 -47.000  1.00  0.00     0.191 C 
BRANCH  29  30
ATOM     30  O   UNL     1     -24.155  59.022 -46.760  1.00  0.00    -0.394 OA
ATOM     31  H   UNL     1     -24.693  58.207 -46.935  1.00  0.00     0.210 HD
ENDBRANCH  29  30
ENDBRANCH  21  29
ENDBRANCH   1  17
TORSDOF 13
ENDMDL
