MODEL 1
REMARK VINA RESULT:    -6.104      0.000      0.000
REMARK INTER + INTRA:          -8.843
REMARK INTER:                  -8.245
REMARK INTRA:                  -0.598
REMARK UNBOUND:                -0.598
REMARK SMILES COc1ccc(-c2cc(=O)c3c(OC)c(OC)c(OC)c(OC)c3o2)cc1
REMARK SMILES IDX 7 1 8 2 9 3 10 4 11 5 24 6 25 7 21 8 18 9 15 10 12 11 6 12
REMARK SMILES IDX 3 13 4 14 27 15 5 16 26 17 2 18 1 19 22 20 23 21 13 22 14 23
REMARK SMILES IDX 19 24 20 25 16 26 17 27
REMARK H PARENT
REMARK Flexibility Score: inf
ROOT
ATOM      1  C   UNL     1     -31.965 -19.177  21.319  1.00  0.00     0.138 A 
ATOM      2  C   UNL     1     -30.914 -18.926  20.428  1.00  0.00     0.100 A 
ATOM      3  C   UNL     1     -30.540 -17.611  20.165  1.00  0.00     0.197 A 
ATOM      4  O   UNL     1     -29.587 -17.405  19.365  1.00  0.00    -0.289 OA
ATOM      5  C   UNL     1     -31.225 -16.543  20.793  1.00  0.00     0.115 A 
ATOM      6  C   UNL     1     -32.295 -16.877  21.651  1.00  0.00     0.188 A 
ATOM      7  O   UNL     1     -32.608 -18.153  21.872  1.00  0.00    -0.452 OA
ATOM      8  C   UNL     1     -33.030 -15.877  22.296  1.00  0.00     0.209 A 
ATOM      9  C   UNL     1     -32.658 -14.519  22.165  1.00  0.00     0.211 A 
ATOM     10  C   UNL     1     -31.586 -14.168  21.297  1.00  0.00     0.208 A 
ATOM     11  C   UNL     1     -30.879 -15.185  20.597  1.00  0.00     0.179 A 
ENDROOT
BRANCH   1  12
ATOM     12  C   UNL     1     -32.386 -20.560  21.659  1.00  0.00     0.018 A 
ATOM     13  C   UNL     1     -33.243 -23.181  22.273  1.00  0.00     0.118 A 
ATOM     14  C   UNL     1     -32.623 -22.387  23.255  1.00  0.00     0.047 A 
ATOM     15  C   UNL     1     -33.436 -22.652  20.993  1.00  0.00     0.047 A 
ATOM     16  C   UNL     1     -32.202 -21.089  22.951  1.00  0.00     0.016 A 
ATOM     17  C   UNL     1     -33.019 -21.355  20.689  1.00  0.00     0.016 A 
BRANCH  13  18
ATOM     18  O   UNL     1     -33.683 -24.488  22.529  1.00  0.00    -0.497 OA
ATOM     19  C   UNL     1     -32.994 -25.663  22.113  1.00  0.00     0.278 C 
ENDBRANCH  13  18
ENDBRANCH   1  12
BRANCH   8  20
ATOM     20  O   UNL     1     -34.125 -16.244  23.084  1.00  0.00    -0.490 OA
ATOM     21  C   UNL     1     -34.011 -16.444  24.489  1.00  0.00     0.278 C 
ENDBRANCH   8  20
BRANCH  11  22
ATOM     22  O   UNL     1     -29.820 -14.903  19.705  1.00  0.00    -0.492 OA
ATOM     23  C   UNL     1     -28.553 -14.326  20.006  1.00  0.00     0.278 C 
ENDBRANCH  11  22
BRANCH   9  24
ATOM     24  O   UNL     1     -33.319 -13.491  22.865  1.00  0.00    -0.490 OA
ATOM     25  C   UNL     1     -32.911 -12.869  24.077  1.00  0.00     0.279 C 
ENDBRANCH   9  24
BRANCH  10  26
ATOM     26  O   UNL     1     -31.183 -12.832  21.102  1.00  0.00    -0.490 OA
ATOM     27  C   UNL     1     -31.683 -11.893  20.155  1.00  0.00     0.278 C 
ENDBRANCH  10  26
TORSDOF 6
ENDMDL
MODEL 2
REMARK VINA RESULT:    -6.037      2.416      2.920
REMARK INTER + INTRA:          -8.752
REMARK INTER:                  -8.037
REMARK INTRA:                  -0.715
REMARK UNBOUND:                -0.598
REMARK SMILES COc1ccc(-c2cc(=O)c3c(OC)c(OC)c(OC)c(OC)c3o2)cc1
REMARK SMILES IDX 7 1 8 2 9 3 10 4 11 5 24 6 25 7 21 8 18 9 15 10 12 11 6 12
REMARK SMILES IDX 3 13 4 14 27 15 5 16 26 17 2 18 1 19 22 20 23 21 13 22 14 23
REMARK SMILES IDX 19 24 20 25 16 26 17 27
REMARK H PARENT
REMARK Flexibility Score: inf
ROOT
ATOM      1  C   UNL     1     -31.840 -19.219  21.776  1.00  0.00     0.138 A 
ATOM      2  C   UNL     1     -32.219 -18.410  20.698  1.00  0.00     0.100 A 
ATOM      3  C   UNL     1     -31.707 -17.119  20.598  1.00  0.00     0.197 A 
ATOM      4  O   UNL     1     -32.056 -16.408  19.616  1.00  0.00    -0.289 OA
ATOM      5  C   UNL     1     -30.815 -16.635  21.585  1.00  0.00     0.115 A 
ATOM      6  C   UNL     1     -30.508 -17.498  22.658  1.00  0.00     0.188 A 
ATOM      7  O   UNL     1     -31.023 -18.727  22.703  1.00  0.00    -0.452 OA
ATOM      8  C   UNL     1     -29.647 -17.087  23.680  1.00  0.00     0.209 A 
ATOM      9  C   UNL     1     -29.003 -15.829  23.609  1.00  0.00     0.211 A 
ATOM     10  C   UNL     1     -29.309 -14.947  22.536  1.00  0.00     0.208 A 
ATOM     11  C   UNL     1     -30.231 -15.347  21.530  1.00  0.00     0.179 A 
ENDROOT
BRANCH   1  12
ATOM     12  C   UNL     1     -32.332 -20.612  21.917  1.00  0.00     0.018 A 
ATOM     13  C   UNL     1     -33.322 -23.248  22.153  1.00  0.00     0.118 A 
ATOM     14  C   UNL     1     -32.715 -22.616  23.253  1.00  0.00     0.047 A 
ATOM     15  C   UNL     1     -33.435 -22.553  20.945  1.00  0.00     0.047 A 
ATOM     16  C   UNL     1     -32.228 -21.310  23.136  1.00  0.00     0.016 A 
ATOM     17  C   UNL     1     -32.952 -21.247  20.828  1.00  0.00     0.016 A 
BRANCH  13  18
ATOM     18  O   UNL     1     -33.825 -24.556  22.220  1.00  0.00    -0.497 OA
ATOM     19  C   UNL     1     -33.021 -25.729  22.169  1.00  0.00     0.278 C 
ENDBRANCH  13  18
ENDBRANCH   1  12
BRANCH   8  20
ATOM     20  O   UNL     1     -29.421 -17.944  24.761  1.00  0.00    -0.490 OA
ATOM     21  C   UNL     1     -30.167 -17.846  25.970  1.00  0.00     0.278 C 
ENDBRANCH   8  20
BRANCH  11  22
ATOM     22  O   UNL     1     -30.595 -14.511  20.450  1.00  0.00    -0.492 OA
ATOM     23  C   UNL     1     -31.342 -13.299  20.496  1.00  0.00     0.278 C 
ENDBRANCH  11  22
BRANCH   9  24
ATOM     24  O   UNL     1     -28.065 -15.414  24.573  1.00  0.00    -0.490 OA
ATOM     25  C   UNL     1     -26.670 -15.690  24.599  1.00  0.00     0.279 C 
ENDBRANCH   9  24
BRANCH  10  26
ATOM     26  O   UNL     1     -28.723 -13.670  22.422  1.00  0.00    -0.490 OA
ATOM     27  C   UNL     1     -27.514 -13.315  21.758  1.00  0.00     0.278 C 
ENDBRANCH  10  26
TORSDOF 6
ENDMDL
MODEL 3
REMARK VINA RESULT:    -5.848      1.002      1.401
REMARK INTER + INTRA:          -8.497
REMARK INTER:                  -7.865
REMARK INTRA:                  -0.632
REMARK UNBOUND:                -0.598
REMARK SMILES COc1ccc(-c2cc(=O)c3c(OC)c(OC)c(OC)c(OC)c3o2)cc1
REMARK SMILES IDX 7 1 8 2 9 3 10 4 11 5 24 6 25 7 21 8 18 9 15 10 12 11 6 12
REMARK SMILES IDX 3 13 4 14 27 15 5 16 26 17 2 18 1 19 22 20 23 21 13 22 14 23
REMARK SMILES IDX 19 24 20 25 16 26 17 27
REMARK H PARENT
REMARK Flexibility Score: inf
ROOT
ATOM      1  C   UNL     1     -31.695 -19.081  21.688  1.00  0.00     0.138 A 
ATOM      2  C   UNL     1     -30.473 -18.850  21.044  1.00  0.00     0.100 A 
ATOM      3  C   UNL     1     -29.958 -17.557  20.996  1.00  0.00     0.197 A 
ATOM      4  O   UNL     1     -28.853 -17.371  20.417  1.00  0.00    -0.289 OA
ATOM      5  C   UNL     1     -30.673 -16.490  21.591  1.00  0.00     0.115 A 
ATOM      6  C   UNL     1     -31.914 -16.798  22.191  1.00  0.00     0.188 A 
ATOM      7  O   UNL     1     -32.358 -18.054  22.213  1.00  0.00    -0.452 OA
ATOM      8  C   UNL     1     -32.686 -15.796  22.786  1.00  0.00     0.209 A 
ATOM      9  C   UNL     1     -32.196 -14.471  22.870  1.00  0.00     0.211 A 
ATOM     10  C   UNL     1     -30.951 -14.146  22.264  1.00  0.00     0.208 A 
ATOM     11  C   UNL     1     -30.196 -15.158  21.608  1.00  0.00     0.179 A 
ENDROOT
BRANCH   1  12
ATOM     12  C   UNL     1     -32.275 -20.443  21.795  1.00  0.00     0.018 A 
ATOM     13  C   UNL     1     -33.329 -23.054  22.035  1.00  0.00     0.118 A 
ATOM     14  C   UNL     1     -33.376 -22.378  20.802  1.00  0.00     0.047 A 
ATOM     15  C   UNL     1     -32.748 -22.418  23.137  1.00  0.00     0.047 A 
ATOM     16  C   UNL     1     -32.851 -21.088  20.683  1.00  0.00     0.016 A 
ATOM     17  C   UNL     1     -32.221 -21.131  23.020  1.00  0.00     0.016 A 
BRANCH  13  18
ATOM     18  O   UNL     1     -33.842 -24.348  22.204  1.00  0.00    -0.497 OA
ATOM     19  C   UNL     1     -33.049 -25.530  22.222  1.00  0.00     0.278 C 
ENDBRANCH  13  18
ENDBRANCH   1  12
BRANCH   8  20
ATOM     20  O   UNL     1     -33.939 -16.128  23.308  1.00  0.00    -0.490 OA
ATOM     21  C   UNL     1     -34.125 -16.440  24.685  1.00  0.00     0.278 C 
ENDBRANCH   8  20
BRANCH  11  22
ATOM     22  O   UNL     1     -28.964 -14.898  20.968  1.00  0.00    -0.492 OA
ATOM     23  C   UNL     1     -28.742 -14.180  19.758  1.00  0.00     0.278 C 
ENDBRANCH  11  22
BRANCH   9  24
ATOM     24  O   UNL     1     -32.905 -13.453  23.536  1.00  0.00    -0.490 OA
ATOM     25  C   UNL     1     -32.823 -13.098  24.911  1.00  0.00     0.279 C 
ENDBRANCH   9  24
BRANCH  10  26
ATOM     26  O   UNL     1     -30.420 -12.841  22.290  1.00  0.00    -0.490 OA
ATOM     27  C   UNL     1     -29.534 -12.272  23.249  1.00  0.00     0.278 C 
ENDBRANCH  10  26
TORSDOF 6
ENDMDL
MODEL 4
REMARK VINA RESULT:    -5.646      1.932      2.801
REMARK INTER + INTRA:          -8.224
REMARK INTER:                  -7.653
REMARK INTRA:                  -0.571
REMARK UNBOUND:                -0.598
REMARK SMILES COc1ccc(-c2cc(=O)c3c(OC)c(OC)c(OC)c(OC)c3o2)cc1
REMARK SMILES IDX 7 1 8 2 9 3 10 4 11 5 24 6 25 7 21 8 18 9 15 10 12 11 6 12
REMARK SMILES IDX 3 13 4 14 27 15 5 16 26 17 2 18 1 19 22 20 23 21 13 22 14 23
REMARK SMILES IDX 19 24 20 25 16 26 17 27
REMARK H PARENT
REMARK Flexibility Score: inf
ROOT
ATOM      1  C   UNL     1     -31.793 -19.202  22.117  1.00  0.00     0.138 A 
ATOM      2  C   UNL     1     -31.027 -18.777  23.209  1.00  0.00     0.100 A 
ATOM      3  C   UNL     1     -30.558 -17.467  23.248  1.00  0.00     0.197 A 
ATOM      4  O   UNL     1     -29.876 -17.102  24.243  1.00  0.00    -0.289 OA
ATOM      5  C   UNL     1     -30.853 -16.580  22.185  1.00  0.00     0.115 A 
ATOM      6  C   UNL     1     -31.601 -17.093  21.103  1.00  0.00     0.188 A 
ATOM      7  O   UNL     1     -32.030 -18.354  21.119  1.00  0.00    -0.452 OA
ATOM      8  C   UNL     1     -31.919 -16.283  20.009  1.00  0.00     0.209 A 
ATOM      9  C   UNL     1     -31.568 -14.912  20.008  1.00  0.00     0.211 A 
ATOM     10  C   UNL     1     -30.808 -14.384  21.089  1.00  0.00     0.208 A 
ATOM     11  C   UNL     1     -30.436 -15.227  22.172  1.00  0.00     0.179 A 
ENDROOT
BRANCH   1  12
ATOM     12  C   UNL     1     -32.344 -20.578  22.037  1.00  0.00     0.018 A 
ATOM     13  C   UNL     1     -33.341 -23.219  21.920  1.00  0.00     0.118 A 
ATOM     14  C   UNL     1     -33.379 -22.393  20.782  1.00  0.00     0.047 A 
ATOM     15  C   UNL     1     -32.796 -22.717  23.107  1.00  0.00     0.047 A 
ATOM     16  C   UNL     1     -32.883 -21.088  20.840  1.00  0.00     0.016 A 
ATOM     17  C   UNL     1     -32.297 -21.415  23.165  1.00  0.00     0.016 A 
BRANCH  13  18
ATOM     18  O   UNL     1     -33.826 -24.535  21.913  1.00  0.00    -0.497 OA
ATOM     19  C   UNL     1     -33.058 -25.677  22.276  1.00  0.00     0.278 C 
ENDBRANCH  13  18
ENDBRANCH   1  12
BRANCH   8  20
ATOM     20  O   UNL     1     -32.601 -16.845  18.927  1.00  0.00    -0.490 OA
ATOM     21  C   UNL     1     -34.023 -16.917  18.885  1.00  0.00     0.278 C 
ENDBRANCH   8  20
BRANCH  11  22
ATOM     22  O   UNL     1     -29.664 -14.772  23.265  1.00  0.00    -0.492 OA
ATOM     23  C   UNL     1     -28.259 -14.542  23.307  1.00  0.00     0.278 C 
ENDBRANCH  11  22
BRANCH   9  24
ATOM     24  O   UNL     1     -31.944 -14.045  18.965  1.00  0.00    -0.490 OA
ATOM     25  C   UNL     1     -33.038 -13.135  18.947  1.00  0.00     0.279 C 
ENDBRANCH   9  24
BRANCH  10  26
ATOM     26  O   UNL     1     -30.404 -13.035  21.135  1.00  0.00    -0.490 OA
ATOM     27  C   UNL     1     -29.251 -12.442  20.545  1.00  0.00     0.278 C 
ENDBRANCH  10  26
TORSDOF 6
ENDMDL
MODEL 5
REMARK VINA RESULT:    -5.580      3.787      4.037
REMARK INTER + INTRA:          -8.136
REMARK INTER:                  -7.457
REMARK INTRA:                  -0.679
REMARK UNBOUND:                -0.598
REMARK SMILES COc1ccc(-c2cc(=O)c3c(OC)c(OC)c(OC)c(OC)c3o2)cc1
REMARK SMILES IDX 7 1 8 2 9 3 10 4 11 5 24 6 25 7 21 8 18 9 15 10 12 11 6 12
REMARK SMILES IDX 3 13 4 14 27 15 5 16 26 17 2 18 1 19 22 20 23 21 13 22 14 23
REMARK SMILES IDX 19 24 20 25 16 26 17 27
REMARK H PARENT
REMARK Flexibility Score: inf
ROOT
ATOM      1  C   UNL     1     -30.856 -18.492  22.793  1.00  0.00     0.138 A 
ATOM      2  C   UNL     1     -30.117 -17.734  21.876  1.00  0.00     0.100 A 
ATOM      3  C   UNL     1     -29.410 -16.620  22.321  1.00  0.00     0.197 A 
ATOM      4  O   UNL     1     -28.746 -15.954  21.480  1.00  0.00    -0.289 OA
ATOM      5  C   UNL     1     -29.448 -16.261  23.689  1.00  0.00     0.115 A 
ATOM      6  C   UNL     1     -30.242 -17.054  24.545  1.00  0.00     0.188 A 
ATOM      7  O   UNL     1     -30.895 -18.113  24.067  1.00  0.00    -0.452 OA
ATOM      8  C   UNL     1     -30.342 -16.754  25.907  1.00  0.00     0.209 A 
ATOM      9  C   UNL     1     -29.581 -15.700  26.464  1.00  0.00     0.211 A 
ATOM     10  C   UNL     1     -28.782 -14.888  25.612  1.00  0.00     0.208 A 
ATOM     11  C   UNL     1     -28.729 -15.161  24.217  1.00  0.00     0.179 A 
ENDROOT
BRANCH   1  12
ATOM     12  C   UNL     1     -31.603 -19.706  22.380  1.00  0.00     0.018 A 
ATOM     13  C   UNL     1     -33.063 -21.979  21.552  1.00  0.00     0.118 A 
ATOM     14  C   UNL     1     -32.767 -21.780  22.913  1.00  0.00     0.047 A 
ATOM     15  C   UNL     1     -32.630 -21.034  20.617  1.00  0.00     0.047 A 
ATOM     16  C   UNL     1     -32.048 -20.653  23.322  1.00  0.00     0.016 A 
ATOM     17  C   UNL     1     -31.915 -19.906  21.024  1.00  0.00     0.016 A 
BRANCH  13  18
ATOM     18  O   UNL     1     -33.780 -23.093  21.092  1.00  0.00    -0.497 OA
ATOM     19  C   UNL     1     -33.852 -24.340  21.775  1.00  0.00     0.278 C 
ENDBRANCH  13  18
ENDBRANCH   1  12
BRANCH   8  20
ATOM     20  O   UNL     1     -31.192 -17.521  26.708  1.00  0.00    -0.490 OA
ATOM     21  C   UNL     1     -30.724 -18.646  27.446  1.00  0.00     0.278 C 
ENDBRANCH   8  20
BRANCH  11  22
ATOM     22  O   UNL     1     -27.974 -14.381  23.313  1.00  0.00    -0.492 OA
ATOM     23  C   UNL     1     -28.199 -13.030  22.925  1.00  0.00     0.278 C 
ENDBRANCH  11  22
BRANCH   9  24
ATOM     24  O   UNL     1     -29.589 -15.420  27.844  1.00  0.00    -0.490 OA
ATOM     25  C   UNL     1     -28.715 -15.943  28.838  1.00  0.00     0.279 C 
ENDBRANCH   9  24
BRANCH  10  26
ATOM     26  O   UNL     1     -28.021 -13.807  26.100  1.00  0.00    -0.490 OA
ATOM     27  C   UNL     1     -26.665 -13.813  26.535  1.00  0.00     0.278 C 
ENDBRANCH  10  26
TORSDOF 6
ENDMDL
MODEL 6
REMARK VINA RESULT:    -5.541      2.076      3.872
REMARK INTER + INTRA:          -8.082
REMARK INTER:                  -7.466
REMARK INTRA:                  -0.616
REMARK UNBOUND:                -0.598
REMARK SMILES COc1ccc(-c2cc(=O)c3c(OC)c(OC)c(OC)c(OC)c3o2)cc1
REMARK SMILES IDX 7 1 8 2 9 3 10 4 11 5 24 6 25 7 21 8 18 9 15 10 12 11 6 12
REMARK SMILES IDX 3 13 4 14 27 15 5 16 26 17 2 18 1 19 22 20 23 21 13 22 14 23
REMARK SMILES IDX 19 24 20 25 16 26 17 27
REMARK H PARENT
REMARK Flexibility Score: inf
ROOT
ATOM      1  C   UNL     1     -31.853 -18.733  22.499  1.00  0.00     0.138 A 
ATOM      2  C   UNL     1     -32.745 -17.777  23.001  1.00  0.00     0.100 A 
ATOM      3  C   UNL     1     -32.325 -16.458  23.144  1.00  0.00     0.197 A 
ATOM      4  O   UNL     1     -33.146 -15.611  23.592  1.00  0.00    -0.289 OA
ATOM      5  C   UNL     1     -31.004 -16.095  22.789  1.00  0.00     0.115 A 
ATOM      6  C   UNL     1     -30.154 -17.121  22.324  1.00  0.00     0.188 A 
ATOM      7  O   UNL     1     -30.609 -18.368  22.201  1.00  0.00    -0.452 OA
ATOM      8  C   UNL     1     -28.831 -16.844  21.968  1.00  0.00     0.209 A 
ATOM      9  C   UNL     1     -28.348 -15.515  21.989  1.00  0.00     0.211 A 
ATOM     10  C   UNL     1     -29.192 -14.472  22.463  1.00  0.00     0.208 A 
ATOM     11  C   UNL     1     -30.519 -14.768  22.880  1.00  0.00     0.179 A 
ENDROOT
BRANCH   1  12
ATOM     12  C   UNL     1     -32.256 -20.147  22.297  1.00  0.00     0.018 A 
ATOM     13  C   UNL     1     -33.072 -22.819  21.874  1.00  0.00     0.118 A 
ATOM     14  C   UNL     1     -32.674 -22.391  23.153  1.00  0.00     0.047 A 
ATOM     15  C   UNL     1     -33.065 -21.903  20.818  1.00  0.00     0.047 A 
ATOM     16  C   UNL     1     -32.273 -21.068  23.362  1.00  0.00     0.016 A 
ATOM     17  C   UNL     1     -32.669 -20.580  21.025  1.00  0.00     0.016 A 
BRANCH  13  18
ATOM     18  O   UNL     1     -33.482 -24.135  21.614  1.00  0.00    -0.497 OA
ATOM     19  C   UNL     1     -32.943 -25.285  22.256  1.00  0.00     0.278 C 
ENDBRANCH  13  18
ENDBRANCH   1  12
BRANCH   8  20
ATOM     20  O   UNL     1     -28.001 -17.899  21.577  1.00  0.00    -0.490 OA
ATOM     21  C   UNL     1     -27.855 -18.279  20.213  1.00  0.00     0.278 C 
ENDBRANCH   8  20
BRANCH  11  22
ATOM     22  O   UNL     1     -31.401 -13.784  23.380  1.00  0.00    -0.492 OA
ATOM     23  C   UNL     1     -31.998 -12.703  22.671  1.00  0.00     0.278 C 
ENDBRANCH  11  22
BRANCH   9  24
ATOM     24  O   UNL     1     -27.049 -15.184  21.558  1.00  0.00    -0.490 OA
ATOM     25  C   UNL     1     -25.845 -15.242  22.313  1.00  0.00     0.279 C 
ENDBRANCH   9  24
BRANCH  10  26
ATOM     26  O   UNL     1     -28.763 -13.131  22.534  1.00  0.00    -0.490 OA
ATOM     27  C   UNL     1     -28.106 -12.475  23.614  1.00  0.00     0.278 C 
ENDBRANCH  10  26
TORSDOF 6
ENDMDL
MODEL 7
REMARK VINA RESULT:    -5.477      2.415      4.054
REMARK INTER + INTRA:          -7.996
REMARK INTER:                  -7.364
REMARK INTRA:                  -0.632
REMARK UNBOUND:                -0.598
REMARK SMILES COc1ccc(-c2cc(=O)c3c(OC)c(OC)c(OC)c(OC)c3o2)cc1
REMARK SMILES IDX 7 1 8 2 9 3 10 4 11 5 24 6 25 7 21 8 18 9 15 10 12 11 6 12
REMARK SMILES IDX 3 13 4 14 27 15 5 16 26 17 2 18 1 19 22 20 23 21 13 22 14 23
REMARK SMILES IDX 19 24 20 25 16 26 17 27
REMARK H PARENT
REMARK Flexibility Score: inf
ROOT
ATOM      1  C   UNL     1     -31.208 -18.882  22.551  1.00  0.00     0.138 A 
ATOM      2  C   UNL     1     -31.127 -18.382  23.857  1.00  0.00     0.100 A 
ATOM      3  C   UNL     1     -30.445 -17.190  24.092  1.00  0.00     0.197 A 
ATOM      4  O   UNL     1     -30.388 -16.753  25.273  1.00  0.00    -0.289 OA
ATOM      5  C   UNL     1     -29.838 -16.500  23.015  1.00  0.00     0.115 A 
ATOM      6  C   UNL     1     -29.935 -17.087  21.734  1.00  0.00     0.188 A 
ATOM      7  O   UNL     1     -30.604 -18.227  21.564  1.00  0.00    -0.452 OA
ATOM      8  C   UNL     1     -29.349 -16.473  20.623  1.00  0.00     0.209 A 
ATOM      9  C   UNL     1     -28.721 -15.211  20.752  1.00  0.00     0.211 A 
ATOM     10  C   UNL     1     -28.610 -14.613  22.038  1.00  0.00     0.208 A 
ATOM     11  C   UNL     1     -29.158 -15.270  23.175  1.00  0.00     0.179 A 
ENDROOT
BRANCH   1  12
ATOM     12  C   UNL     1     -31.947 -20.131  22.239  1.00  0.00     0.018 A 
ATOM     13  C   UNL     1     -33.313 -22.541  21.685  1.00  0.00     0.118 A 
ATOM     14  C   UNL     1     -33.000 -21.646  20.646  1.00  0.00     0.047 A 
ATOM     15  C   UNL     1     -32.933 -22.225  22.993  1.00  0.00     0.047 A 
ATOM     16  C   UNL     1     -32.321 -20.456  20.920  1.00  0.00     0.016 A 
ATOM     17  C   UNL     1     -32.252 -21.038  23.268  1.00  0.00     0.016 A 
BRANCH  13  18
ATOM     18  O   UNL     1     -33.993 -23.748  21.460  1.00  0.00    -0.497 OA
ATOM     19  C   UNL     1     -33.523 -25.024  21.880  1.00  0.00     0.278 C 
ENDBRANCH  13  18
ENDBRANCH   1  12
BRANCH   8  20
ATOM     20  O   UNL     1     -29.407 -17.118  19.385  1.00  0.00    -0.490 OA
ATOM     21  C   UNL     1     -28.314 -17.877  18.877  1.00  0.00     0.278 C 
ENDBRANCH   8  20
BRANCH  11  22
ATOM     22  O   UNL     1     -29.063 -14.741  24.481  1.00  0.00    -0.492 OA
ATOM     23  C   UNL     1     -29.684 -13.568  24.997  1.00  0.00     0.278 C 
ENDBRANCH  11  22
BRANCH   9  24
ATOM     24  O   UNL     1     -28.194 -14.522  19.643  1.00  0.00    -0.490 OA
ATOM     25  C   UNL     1     -28.819 -13.492  18.886  1.00  0.00     0.279 C 
ENDBRANCH   9  24
BRANCH  10  26
ATOM     26  O   UNL     1     -27.974 -13.371  22.237  1.00  0.00    -0.490 OA
ATOM     27  C   UNL     1     -26.607 -13.125  22.549  1.00  0.00     0.278 C 
ENDBRANCH  10  26
TORSDOF 6
ENDMDL
MODEL 8
REMARK VINA RESULT:    -4.764      4.679      6.954
REMARK INTER + INTRA:          -7.033
REMARK INTER:                  -6.431
REMARK INTRA:                  -0.603
REMARK UNBOUND:                -0.598
REMARK SMILES COc1ccc(-c2cc(=O)c3c(OC)c(OC)c(OC)c(OC)c3o2)cc1
REMARK SMILES IDX 7 1 8 2 9 3 10 4 11 5 24 6 25 7 21 8 18 9 15 10 12 11 6 12
REMARK SMILES IDX 3 13 4 14 27 15 5 16 26 17 2 18 1 19 22 20 23 21 13 22 14 23
REMARK SMILES IDX 19 24 20 25 16 26 17 27
REMARK H PARENT
REMARK Flexibility Score: inf
ROOT
ATOM      1  C   UNL     1     -29.113 -16.582  25.495  1.00  0.00     0.138 A 
ATOM      2  C   UNL     1     -28.075 -17.073  24.692  1.00  0.00     0.100 A 
ATOM      3  C   UNL     1     -28.341 -17.432  23.374  1.00  0.00     0.197 A 
ATOM      4  O   UNL     1     -27.392 -17.865  22.665  1.00  0.00    -0.289 OA
ATOM      5  C   UNL     1     -29.654 -17.305  22.859  1.00  0.00     0.115 A 
ATOM      6  C   UNL     1     -30.651 -16.836  23.740  1.00  0.00     0.188 A 
ATOM      7  O   UNL     1     -30.341 -16.501  24.992  1.00  0.00    -0.452 OA
ATOM      8  C   UNL     1     -31.974 -16.697  23.309  1.00  0.00     0.209 A 
ATOM      9  C   UNL     1     -32.317 -16.945  21.959  1.00  0.00     0.211 A 
ATOM     10  C   UNL     1     -31.322 -17.425  21.062  1.00  0.00     0.208 A 
ATOM     11  C   UNL     1     -29.989 -17.621  21.520  1.00  0.00     0.179 A 
ENDROOT
BRANCH   1  12
ATOM     12  C   UNL     1     -28.880 -16.157  26.897  1.00  0.00     0.018 A 
ATOM     13  C   UNL     1     -28.377 -15.325  29.551  1.00  0.00     0.118 A 
ATOM     14  C   UNL     1     -29.011 -16.555  29.299  1.00  0.00     0.047 A 
ATOM     15  C   UNL     1     -27.993 -14.524  28.471  1.00  0.00     0.047 A 
ATOM     16  C   UNL     1     -29.257 -16.967  27.986  1.00  0.00     0.016 A 
ATOM     17  C   UNL     1     -28.234 -14.936  27.158  1.00  0.00     0.016 A 
BRANCH  13  18
ATOM     18  O   UNL     1     -28.109 -14.868  30.849  1.00  0.00    -0.497 OA
ATOM     19  C   UNL     1     -26.989 -15.274  31.629  1.00  0.00     0.278 C 
ENDBRANCH  13  18
ENDBRANCH   1  12
BRANCH   8  20
ATOM     20  O   UNL     1     -32.947 -16.295  24.229  1.00  0.00    -0.490 OA
ATOM     21  C   UNL     1     -33.297 -14.927  24.409  1.00  0.00     0.278 C 
ENDBRANCH   8  20
BRANCH  11  22
ATOM     22  O   UNL     1     -28.960 -18.115  20.688  1.00  0.00    -0.492 OA
ATOM     23  C   UNL     1     -28.382 -17.489  19.547  1.00  0.00     0.278 C 
ENDBRANCH  11  22
BRANCH   9  24
ATOM     24  O   UNL     1     -33.619 -16.736  21.467  1.00  0.00    -0.490 OA
ATOM     25  C   UNL     1     -34.125 -15.572  20.824  1.00  0.00     0.279 C 
ENDBRANCH   9  24
BRANCH  10  26
ATOM     26  O   UNL     1     -31.604 -17.716  19.713  1.00  0.00    -0.490 OA
ATOM     27  C   UNL     1     -32.096 -18.934  19.161  1.00  0.00     0.278 C 
ENDBRANCH  10  26
TORSDOF 6
ENDMDL
