MODEL 1
REMARK VINA RESULT:    -5.995      0.000      0.000
REMARK INTER + INTRA:          -8.952
REMARK INTER:                  -8.098
REMARK INTRA:                  -0.854
REMARK UNBOUND:                -0.854
REMARK SMILES CC(=O)CCC=C(C)CCC=C(C)C
REMARK SMILES IDX 7 1 6 2 8 3 9 4 10 5 11 6 13 7 12 8 14 9 5 10 4 11 2 12 3 13
REMARK SMILES IDX 1 14
REMARK H PARENT
REMARK Flexibility Score: inf
ROOT
ATOM      1  C   UNL     1     -10.189  74.566  31.837  1.00  0.00    -0.077 C 
ATOM      2  C   UNL     1     -10.437  73.355  32.382  1.00  0.00    -0.028 C 
ATOM      3  C   UNL     1     -10.911  75.805  32.308  1.00  0.00     0.039 C 
ENDROOT
BRANCH   1   4
ATOM      4  C   UNL     1      -9.166  74.682  30.726  1.00  0.00     0.034 C 
BRANCH   4   5
ATOM      5  C   UNL     1      -9.438  73.649  29.627  1.00  0.00     0.032 C 
BRANCH   5   6
ATOM      6  C   UNL     1     -10.667  74.021  28.836  1.00  0.00    -0.028 C 
ATOM      7  C   UNL     1     -11.827  71.853  29.312  1.00  0.00     0.039 C 
ATOM      8  C   UNL     1     -11.738  73.215  28.663  1.00  0.00    -0.080 C 
ATOM      9  C   UNL     1     -12.878  73.708  27.811  1.00  0.00     0.039 C 
ENDBRANCH   5   6
ENDBRANCH   4   5
ENDBRANCH   1   4
BRANCH   2  10
ATOM     10  C   UNL     1     -11.437  73.143  33.494  1.00  0.00     0.035 C 
BRANCH  10  11
ATOM     11  C   UNL     1     -10.869  72.220  34.581  1.00  0.00     0.079 C 
BRANCH  11  12
ATOM     12  C   UNL     1     -10.997  72.760  35.988  1.00  0.00     0.130 C 
ATOM     13  O   UNL     1     -10.610  73.898  36.210  1.00  0.00    -0.300 OA
ATOM     14  C   UNL     1     -11.579  71.961  37.122  1.00  0.00     0.087 C 
ENDBRANCH  11  12
ENDBRANCH  10  11
ENDBRANCH   2  10
TORSDOF 6
ENDMDL
MODEL 2
REMARK VINA RESULT:    -5.833      4.172      7.405
REMARK INTER + INTRA:          -8.733
REMARK INTER:                  -7.778
REMARK INTRA:                  -0.955
REMARK UNBOUND:                -0.854
REMARK SMILES CC(=O)CCC=C(C)CCC=C(C)C
REMARK SMILES IDX 7 1 6 2 8 3 9 4 10 5 11 6 13 7 12 8 14 9 5 10 4 11 2 12 3 13
REMARK SMILES IDX 1 14
REMARK H PARENT
REMARK Flexibility Score: inf
ROOT
ATOM      1  C   UNL     1     -11.276  72.962  28.335  1.00  0.00    -0.077 C 
ATOM      2  C   UNL     1     -10.000  73.024  27.893  1.00  0.00    -0.028 C 
ATOM      3  C   UNL     1     -12.355  73.844  27.752  1.00  0.00     0.039 C 
ENDROOT
BRANCH   1   4
ATOM      4  C   UNL     1     -11.631  71.991  29.440  1.00  0.00     0.034 C 
BRANCH   4   5
ATOM      5  C   UNL     1     -10.777  72.248  30.685  1.00  0.00     0.032 C 
BRANCH   5   6
ATOM      6  C   UNL     1     -11.221  73.508  31.387  1.00  0.00    -0.028 C 
ATOM      7  C   UNL     1      -9.108  74.743  30.852  1.00  0.00     0.039 C 
ATOM      8  C   UNL     1     -10.472  74.628  31.493  1.00  0.00    -0.080 C 
ATOM      9  C   UNL     1     -11.033  75.798  32.261  1.00  0.00     0.039 C 
ENDBRANCH   5   6
ENDBRANCH   4   5
ENDBRANCH   1   4
BRANCH   2  10
ATOM     10  C   UNL     1      -9.554  73.959  26.795  1.00  0.00     0.035 C 
BRANCH  10  11
ATOM     11  C   UNL     1      -8.873  73.189  25.655  1.00  0.00     0.079 C 
BRANCH  11  12
ATOM     12  C   UNL     1      -9.341  73.581  24.270  1.00  0.00     0.130 C 
ATOM     13  O   UNL     1      -8.643  74.342  23.616  1.00  0.00    -0.300 OA
ATOM     14  C   UNL     1     -10.621  73.075  23.665  1.00  0.00     0.087 C 
ENDBRANCH  11  12
ENDBRANCH  10  11
ENDBRANCH   2  10
TORSDOF 6
ENDMDL
MODEL 3
REMARK VINA RESULT:    -5.687      3.611      7.023
REMARK INTER + INTRA:          -8.536
REMARK INTER:                  -7.736
REMARK INTRA:                  -0.800
REMARK UNBOUND:                -0.854
REMARK SMILES CC(=O)CCC=C(C)CCC=C(C)C
REMARK SMILES IDX 7 1 6 2 8 3 9 4 10 5 11 6 13 7 12 8 14 9 5 10 4 11 2 12 3 13
REMARK SMILES IDX 1 14
REMARK H PARENT
REMARK Flexibility Score: inf
ROOT
ATOM      1  C   UNL     1     -11.350  73.112  28.974  1.00  0.00    -0.077 C 
ATOM      2  C   UNL     1     -10.121  73.665  28.873  1.00  0.00    -0.028 C 
ATOM      3  C   UNL     1     -12.449  73.451  27.995  1.00  0.00     0.039 C 
ENDROOT
BRANCH   1   4
ATOM      4  C   UNL     1     -11.633  72.133  30.093  1.00  0.00     0.034 C 
BRANCH   4   5
ATOM      5  C   UNL     1     -10.434  72.032  31.043  1.00  0.00     0.032 C 
BRANCH   5   6
ATOM      6  C   UNL     1     -10.888  72.052  32.481  1.00  0.00    -0.028 C 
ATOM      7  C   UNL     1     -10.958  74.553  32.594  1.00  0.00     0.039 C 
ATOM      8  C   UNL     1     -11.103  73.176  33.199  1.00  0.00    -0.080 C 
ATOM      9  C   UNL     1     -11.517  73.039  34.642  1.00  0.00     0.039 C 
ENDBRANCH   5   6
ENDBRANCH   4   5
ENDBRANCH   1   4
BRANCH   2  10
ATOM     10  C   UNL     1      -9.748  74.648  27.790  1.00  0.00     0.035 C 
BRANCH  10  11
ATOM     11  C   UNL     1      -8.961  73.960  26.665  1.00  0.00     0.079 C 
BRANCH  11  12
ATOM     12  C   UNL     1      -9.683  73.910  25.337  1.00  0.00     0.130 C 
ATOM     13  O   UNL     1     -10.240  74.924  24.942  1.00  0.00    -0.300 OA
ATOM     14  C   UNL     1      -9.746  72.673  24.485  1.00  0.00     0.087 C 
ENDBRANCH  11  12
ENDBRANCH  10  11
ENDBRANCH   2  10
TORSDOF 6
ENDMDL
MODEL 4
REMARK VINA RESULT:    -5.676      1.864      2.217
REMARK INTER + INTRA:          -8.520
REMARK INTER:                  -8.119
REMARK INTRA:                  -0.402
REMARK UNBOUND:                -0.854
REMARK SMILES CC(=O)CCC=C(C)CCC=C(C)C
REMARK SMILES IDX 7 1 6 2 8 3 9 4 10 5 11 6 13 7 12 8 14 9 5 10 4 11 2 12 3 13
REMARK SMILES IDX 1 14
REMARK H PARENT
REMARK Flexibility Score: inf
ROOT
ATOM      1  C   UNL     1     -10.941  73.889  30.923  1.00  0.00    -0.077 C 
ATOM      2  C   UNL     1     -11.573  72.980  31.699  1.00  0.00    -0.028 C 
ATOM      3  C   UNL     1     -10.361  75.155  31.507  1.00  0.00     0.039 C 
ENDROOT
BRANCH   1   4
ATOM      4  C   UNL     1     -10.815  73.634  29.436  1.00  0.00     0.034 C 
BRANCH   4   5
ATOM      5  C   UNL     1      -9.770  74.565  28.812  1.00  0.00     0.032 C 
BRANCH   5   6
ATOM      6  C   UNL     1     -10.109  74.860  27.372  1.00  0.00    -0.028 C 
ATOM      7  C   UNL     1      -8.725  72.966  26.490  1.00  0.00     0.039 C 
ATOM      8  C   UNL     1      -9.627  74.166  26.316  1.00  0.00    -0.080 C 
ATOM      9  C   UNL     1     -10.022  74.603  24.929  1.00  0.00     0.039 C 
ENDBRANCH   5   6
ENDBRANCH   4   5
ENDBRANCH   1   4
BRANCH   2  10
ATOM     10  C   UNL     1     -11.744  73.148  33.189  1.00  0.00     0.035 C 
BRANCH  10  11
ATOM     11  C   UNL     1     -10.948  72.087  33.961  1.00  0.00     0.079 C 
BRANCH  11  12
ATOM     12  C   UNL     1     -10.930  72.287  35.461  1.00  0.00     0.130 C 
ATOM     13  O   UNL     1     -11.748  73.051  35.953  1.00  0.00    -0.300 OA
ATOM     14  C   UNL     1      -9.956  71.589  36.369  1.00  0.00     0.087 C 
ENDBRANCH  11  12
ENDBRANCH  10  11
ENDBRANCH   2  10
TORSDOF 6
ENDMDL
MODEL 5
REMARK VINA RESULT:    -5.622      4.848      8.250
REMARK INTER + INTRA:          -8.448
REMARK INTER:                  -7.684
REMARK INTRA:                  -0.764
REMARK UNBOUND:                -0.854
REMARK SMILES CC(=O)CCC=C(C)CCC=C(C)C
REMARK SMILES IDX 7 1 6 2 8 3 9 4 10 5 11 6 13 7 12 8 14 9 5 10 4 11 2 12 3 13
REMARK SMILES IDX 1 14
REMARK H PARENT
REMARK Flexibility Score: inf
ROOT
ATOM      1  C   UNL     1     -10.717  73.917  27.443  1.00  0.00    -0.077 C 
ATOM      2  C   UNL     1     -10.538  73.302  26.253  1.00  0.00    -0.028 C 
ATOM      3  C   UNL     1      -9.742  74.953  27.948  1.00  0.00     0.039 C 
ENDROOT
BRANCH   1   4
ATOM      4  C   UNL     1     -11.918  73.556  28.290  1.00  0.00     0.034 C 
BRANCH   4   5
ATOM      5  C   UNL     1     -11.769  72.146  28.872  1.00  0.00     0.032 C 
BRANCH   5   6
ATOM      6  C   UNL     1     -11.605  72.200  30.371  1.00  0.00    -0.028 C 
ATOM      7  C   UNL     1      -9.113  71.962  30.268  1.00  0.00     0.039 C 
ATOM      8  C   UNL     1     -10.421  72.093  31.014  1.00  0.00    -0.080 C 
ATOM      9  C   UNL     1     -10.417  72.125  32.521  1.00  0.00     0.039 C 
ENDBRANCH   5   6
ENDBRANCH   4   5
ENDBRANCH   1   4
BRANCH   2  10
ATOM     10  C   UNL     1      -9.372  73.598  25.341  1.00  0.00     0.035 C 
BRANCH  10  11
ATOM     11  C   UNL     1      -9.779  74.565  24.219  1.00  0.00     0.079 C 
BRANCH  11  12
ATOM     12  C   UNL     1      -9.066  74.332  22.905  1.00  0.00     0.130 C 
ATOM     13  O   UNL     1      -7.861  74.124  22.928  1.00  0.00    -0.300 OA
ATOM     14  C   UNL     1      -9.771  74.344  21.577  1.00  0.00     0.087 C 
ENDBRANCH  11  12
ENDBRANCH  10  11
ENDBRANCH   2  10
TORSDOF 6
ENDMDL
MODEL 6
REMARK VINA RESULT:    -5.620      3.019      6.681
REMARK INTER + INTRA:          -8.446
REMARK INTER:                  -7.739
REMARK INTRA:                  -0.707
REMARK UNBOUND:                -0.854
REMARK SMILES CC(=O)CCC=C(C)CCC=C(C)C
REMARK SMILES IDX 7 1 6 2 8 3 9 4 10 5 11 6 13 7 12 8 14 9 5 10 4 11 2 12 3 13
REMARK SMILES IDX 1 14
REMARK H PARENT
REMARK Flexibility Score: inf
ROOT
ATOM      1  C   UNL     1     -10.350  72.482  30.982  1.00  0.00    -0.077 C 
ATOM      2  C   UNL     1     -11.577  72.530  30.419  1.00  0.00    -0.028 C 
ATOM      3  C   UNL     1      -9.143  72.017  30.203  1.00  0.00     0.039 C 
ENDROOT
BRANCH   1   4
ATOM      4  C   UNL     1     -10.181  72.901  32.427  1.00  0.00     0.034 C 
BRANCH   4   5
ATOM      5  C   UNL     1     -11.072  72.057  33.345  1.00  0.00     0.032 C 
BRANCH   5   6
ATOM      6  C   UNL     1     -11.256  72.733  34.681  1.00  0.00    -0.028 C 
ATOM      7  C   UNL     1      -9.545  71.300  35.822  1.00  0.00     0.039 C 
ATOM      8  C   UNL     1     -10.596  72.387  35.809  1.00  0.00    -0.080 C 
ATOM      9  C   UNL     1     -10.913  73.128  37.083  1.00  0.00     0.039 C 
ENDBRANCH   5   6
ENDBRANCH   4   5
ENDBRANCH   1   4
BRANCH   2  10
ATOM     10  C   UNL     1     -11.841  72.134  28.986  1.00  0.00     0.035 C 
BRANCH  10  11
ATOM     11  C   UNL     1     -12.007  73.371  28.092  1.00  0.00     0.079 C 
BRANCH  11  12
ATOM     12  C   UNL     1     -10.754  73.776  27.347  1.00  0.00     0.130 C 
ATOM     13  O   UNL     1     -10.454  73.155  26.337  1.00  0.00    -0.300 OA
ATOM     14  C   UNL     1      -9.865  74.903  27.792  1.00  0.00     0.087 C 
ENDBRANCH  11  12
ENDBRANCH  10  11
ENDBRANCH   2  10
TORSDOF 6
ENDMDL
MODEL 7
REMARK VINA RESULT:    -5.601      3.201      6.951
REMARK INTER + INTRA:          -8.420
REMARK INTER:                  -7.954
REMARK INTRA:                  -0.467
REMARK UNBOUND:                -0.854
REMARK SMILES CC(=O)CCC=C(C)CCC=C(C)C
REMARK SMILES IDX 7 1 6 2 8 3 9 4 10 5 11 6 13 7 12 8 14 9 5 10 4 11 2 12 3 13
REMARK SMILES IDX 1 14
REMARK H PARENT
REMARK Flexibility Score: inf
ROOT
ATOM      1  C   UNL     1     -10.983  73.744  31.035  1.00  0.00    -0.077 C 
ATOM      2  C   UNL     1     -11.106  73.554  29.702  1.00  0.00    -0.028 C 
ATOM      3  C   UNL     1     -10.130  74.856  31.596  1.00  0.00     0.039 C 
ENDROOT
BRANCH   1   4
ATOM      4  C   UNL     1     -11.713  72.819  31.985  1.00  0.00     0.034 C 
BRANCH   4   5
ATOM      5  C   UNL     1     -11.427  73.200  33.441  1.00  0.00     0.032 C 
BRANCH   5   6
ATOM      6  C   UNL     1     -10.601  72.136  34.120  1.00  0.00    -0.028 C 
ATOM      7  C   UNL     1     -10.631  73.299  36.338  1.00  0.00     0.039 C 
ATOM      8  C   UNL     1     -10.213  72.178  35.414  1.00  0.00    -0.080 C 
ATOM      9  C   UNL     1      -9.354  71.060  35.944  1.00  0.00     0.039 C 
ENDBRANCH   5   6
ENDBRANCH   4   5
ENDBRANCH   1   4
BRANCH   2  10
ATOM     10  C   UNL     1     -10.417  74.427  28.680  1.00  0.00     0.035 C 
BRANCH  10  11
ATOM     11  C   UNL     1      -9.214  73.704  28.057  1.00  0.00     0.079 C 
BRANCH  11  12
ATOM     12  C   UNL     1      -9.236  73.643  26.545  1.00  0.00     0.130 C 
ATOM     13  O   UNL     1      -8.507  72.836  25.987  1.00  0.00    -0.300 OA
ATOM     14  C   UNL     1     -10.114  74.527  25.703  1.00  0.00     0.087 C 
ENDBRANCH  11  12
ENDBRANCH  10  11
ENDBRANCH   2  10
TORSDOF 6
ENDMDL
MODEL 8
REMARK VINA RESULT:    -5.556      6.173      9.460
REMARK INTER + INTRA:          -8.359
REMARK INTER:                  -7.716
REMARK INTRA:                  -0.643
REMARK UNBOUND:                -0.854
REMARK SMILES CC(=O)CCC=C(C)CCC=C(C)C
REMARK SMILES IDX 7 1 6 2 8 3 9 4 10 5 11 6 13 7 12 8 14 9 5 10 4 11 2 12 3 13
REMARK SMILES IDX 1 14
REMARK H PARENT
REMARK Flexibility Score: inf
ROOT
ATOM      1  C   UNL     1      -9.009  72.924  25.364  1.00  0.00    -0.077 C 
ATOM      2  C   UNL     1     -10.101  73.274  24.649  1.00  0.00    -0.028 C 
ATOM      3  C   UNL     1      -7.788  72.334  24.699  1.00  0.00     0.039 C 
ENDROOT
BRANCH   1   4
ATOM      4  C   UNL     1      -9.011  73.123  26.864  1.00  0.00     0.034 C 
BRANCH   4   5
ATOM      5  C   UNL     1      -9.571  74.502  27.229  1.00  0.00     0.032 C 
BRANCH   5   6
ATOM      6  C   UNL     1      -9.749  74.629  28.722  1.00  0.00    -0.028 C 
ATOM      7  C   UNL     1     -12.013  73.556  28.706  1.00  0.00     0.039 C 
ATOM      8  C   UNL     1     -10.851  74.232  29.397  1.00  0.00    -0.080 C 
ATOM      9  C   UNL     1     -10.903  74.461  30.886  1.00  0.00     0.039 C 
ENDBRANCH   5   6
ENDBRANCH   4   5
ENDBRANCH   1   4
BRANCH   2  10
ATOM     10  C   UNL     1     -10.189  73.114  23.150  1.00  0.00     0.035 C 
BRANCH  10  11
ATOM     11  C   UNL     1      -9.836  74.425  22.432  1.00  0.00     0.079 C 
BRANCH  11  12
ATOM     12  C   UNL     1      -9.037  74.244  21.160  1.00  0.00     0.130 C 
ATOM     13  O   UNL     1      -9.530  74.621  20.107  1.00  0.00    -0.300 OA
ATOM     14  C   UNL     1      -7.667  73.625  21.135  1.00  0.00     0.087 C 
ENDBRANCH  11  12
ENDBRANCH  10  11
ENDBRANCH   2  10
TORSDOF 6
ENDMDL
MODEL 9
REMARK VINA RESULT:    -5.513      2.480      3.395
REMARK INTER + INTRA:          -8.301
REMARK INTER:                  -7.753
REMARK INTRA:                  -0.547
REMARK UNBOUND:                -0.854
REMARK SMILES CC(=O)CCC=C(C)CCC=C(C)C
REMARK SMILES IDX 7 1 6 2 8 3 9 4 10 5 11 6 13 7 12 8 14 9 5 10 4 11 2 12 3 13
REMARK SMILES IDX 1 14
REMARK H PARENT
REMARK Flexibility Score: inf
ROOT
ATOM      1  C   UNL     1     -10.526  73.468  29.643  1.00  0.00    -0.077 C 
ATOM      2  C   UNL     1     -10.993  74.310  30.592  1.00  0.00    -0.028 C 
ATOM      3  C   UNL     1      -9.521  72.390  29.972  1.00  0.00     0.039 C 
ENDROOT
BRANCH   1   4
ATOM      4  C   UNL     1     -11.019  73.610  28.219  1.00  0.00     0.034 C 
BRANCH   4   5
ATOM      5  C   UNL     1     -10.105  74.544  27.418  1.00  0.00     0.032 C 
BRANCH   5   6
ATOM      6  C   UNL     1      -9.052  73.757  26.679  1.00  0.00    -0.028 C 
ATOM      7  C   UNL     1     -10.439  73.540  24.605  1.00  0.00     0.039 C 
ATOM      8  C   UNL     1      -9.197  73.277  25.424  1.00  0.00    -0.080 C 
ATOM      9  C   UNL     1      -8.071  72.471  24.829  1.00  0.00     0.039 C 
ENDBRANCH   5   6
ENDBRANCH   4   5
ENDBRANCH   1   4
BRANCH   2  10
ATOM     10  C   UNL     1     -10.560  74.242  32.037  1.00  0.00     0.035 C 
BRANCH  10  11
ATOM     11  C   UNL     1     -11.589  73.483  32.887  1.00  0.00     0.079 C 
BRANCH  11  12
ATOM     12  C   UNL     1     -10.986  72.509  33.875  1.00  0.00     0.130 C 
ATOM     13  O   UNL     1     -10.223  71.653  33.452  1.00  0.00    -0.300 OA
ATOM     14  C   UNL     1     -11.283  72.547  35.348  1.00  0.00     0.087 C 
ENDBRANCH  11  12
ENDBRANCH  10  11
ENDBRANCH   2  10
TORSDOF 6
ENDMDL
