MODEL 1
REMARK VINA RESULT:    -4.744      0.000      0.000
REMARK INTER + INTRA:          -5.785
REMARK INTER:                  -5.714
REMARK INTRA:                  -0.071
REMARK UNBOUND:                -0.071
REMARK SMILES CC[C@H](C)[C@@H]([NH3+])C(=O)[O-]
REMARK SMILES IDX 3 1 4 2 5 3 6 4 7 8 8 9 9 10 2 11 1 12
REMARK H PARENT 6 5 6 6 6 7
REMARK Flexibility Score: inf
ROOT
ATOM      1  C   UNL     1      28.457  14.604  21.000  1.00  0.00     0.050 C 
ATOM      2  C   UNL     1      27.974  15.322  22.276  1.00  0.00     0.014 C 
ENDROOT
BRANCH   1   3
ATOM      3  C   UNL     1      28.622  15.574  19.784  1.00  0.00     0.230 C 
BRANCH   3   4
ATOM      4  N   UNL     1      27.717  16.732  19.845  1.00  0.00    -0.350 N 
ATOM      5  H   UNL     1      27.597  17.151  18.896  1.00  0.00     0.345 HD
ATOM      6  H   UNL     1      26.783  16.468  20.232  1.00  0.00     0.345 HD
ATOM      7  H   UNL     1      28.136  17.469  20.460  1.00  0.00     0.345 HD
ENDBRANCH   3   4
BRANCH   3   8
ATOM      8  C   UNL     1      30.056  16.023  19.641  1.00  0.00     0.099 C 
ATOM      9  O   UNL     1      30.993  15.233  19.932  1.00  0.00    -0.544 OA
ATOM     10  O   UNL     1      30.359  17.317  19.235  1.00  0.00    -0.544 OA
ENDBRANCH   3   8
ENDBRANCH   1   3
BRANCH   1  11
ATOM     11  C   UNL     1      27.535  13.393  20.714  1.00  0.00     0.006 C 
ATOM     12  C   UNL     1      27.986  12.106  21.405  1.00  0.00     0.004 C 
ENDBRANCH   1  11
TORSDOF 4
ENDMDL
MODEL 2
REMARK VINA RESULT:    -4.662      2.145      2.697
REMARK INTER + INTRA:          -5.686
REMARK INTER:                  -5.560
REMARK INTRA:                  -0.126
REMARK UNBOUND:                -0.071
REMARK SMILES CC[C@H](C)[C@@H]([NH3+])C(=O)[O-]
REMARK SMILES IDX 3 1 4 2 5 3 6 4 7 8 8 9 9 10 2 11 1 12
REMARK H PARENT 6 5 6 6 6 7
REMARK Flexibility Score: inf
ROOT
ATOM      1  C   UNL     1      29.175  17.094  22.455  1.00  0.00     0.050 C 
ATOM      2  C   UNL     1      29.289  17.866  23.784  1.00  0.00     0.014 C 
ENDROOT
BRANCH   1   3
ATOM      3  C   UNL     1      29.357  18.012  21.202  1.00  0.00     0.230 C 
BRANCH   3   4
ATOM      4  N   UNL     1      30.073  19.261  21.504  1.00  0.00    -0.350 N 
ATOM      5  H   UNL     1      30.961  19.057  22.017  1.00  0.00     0.345 HD
ATOM      6  H   UNL     1      30.287  19.800  20.636  1.00  0.00     0.345 HD
ATOM      7  H   UNL     1      29.483  19.858  22.130  1.00  0.00     0.345 HD
ENDBRANCH   3   4
BRANCH   3   8
ATOM      8  C   UNL     1      30.035  17.266  20.078  1.00  0.00     0.099 C 
ATOM      9  O   UNL     1      30.657  16.198  20.320  1.00  0.00    -0.544 OA
ATOM     10  O   UNL     1      30.022  17.768  18.782  1.00  0.00    -0.544 OA
ENDBRANCH   3   8
ENDBRANCH   1   3
BRANCH   1  11
ATOM     11  C   UNL     1      27.859  16.278  22.448  1.00  0.00     0.006 C 
ATOM     12  C   UNL     1      28.078  14.766  22.384  1.00  0.00     0.004 C 
ENDBRANCH   1  11
TORSDOF 4
ENDMDL
MODEL 3
REMARK VINA RESULT:    -4.638      2.792      3.773
REMARK INTER + INTRA:          -5.658
REMARK INTER:                  -5.527
REMARK INTRA:                  -0.130
REMARK UNBOUND:                -0.071
REMARK SMILES CC[C@H](C)[C@@H]([NH3+])C(=O)[O-]
REMARK SMILES IDX 3 1 4 2 5 3 6 4 7 8 8 9 9 10 2 11 1 12
REMARK H PARENT 6 5 6 6 6 7
REMARK Flexibility Score: inf
ROOT
ATOM      1  C   UNL     1      28.549  16.146  21.247  1.00  0.00     0.050 C 
ATOM      2  C   UNL     1      27.816  14.820  21.528  1.00  0.00     0.014 C 
ENDROOT
BRANCH   1   3
ATOM      3  C   UNL     1      28.118  17.295  22.218  1.00  0.00     0.230 C 
BRANCH   3   4
ATOM      4  N   UNL     1      26.909  16.971  22.990  1.00  0.00    -0.350 N 
ATOM      5  H   UNL     1      26.562  16.017  22.740  1.00  0.00     0.345 HD
ATOM      6  H   UNL     1      27.087  17.019  24.018  1.00  0.00     0.345 HD
ATOM      7  H   UNL     1      26.149  17.650  22.752  1.00  0.00     0.345 HD
ENDBRANCH   3   4
BRANCH   3   8
ATOM      8  C   UNL     1      29.251  17.683  23.136  1.00  0.00     0.099 C 
ATOM      9  O   UNL     1      30.438  17.649  22.716  1.00  0.00    -0.544 OA
ATOM     10  O   UNL     1      29.007  18.033  24.459  1.00  0.00    -0.544 OA
ENDBRANCH   3   8
ENDBRANCH   1   3
BRANCH   1  11
ATOM     11  C   UNL     1      28.403  16.506  19.748  1.00  0.00     0.006 C 
ATOM     12  C   UNL     1      29.574  17.321  19.200  1.00  0.00     0.004 C 
ENDBRANCH   1  11
TORSDOF 4
ENDMDL
MODEL 4
REMARK VINA RESULT:    -4.615      1.235      2.020
REMARK INTER + INTRA:          -5.630
REMARK INTER:                  -5.540
REMARK INTRA:                  -0.090
REMARK UNBOUND:                -0.071
REMARK SMILES CC[C@H](C)[C@@H]([NH3+])C(=O)[O-]
REMARK SMILES IDX 3 1 4 2 5 3 6 4 7 8 8 9 9 10 2 11 1 12
REMARK H PARENT 6 5 6 6 6 7
REMARK Flexibility Score: inf
ROOT
ATOM      1  C   UNL     1      27.760  14.315  21.245  1.00  0.00     0.050 C 
ATOM      2  C   UNL     1      27.810  12.797  20.990  1.00  0.00     0.014 C 
ENDROOT
BRANCH   1   3
ATOM      3  C   UNL     1      28.547  15.138  20.172  1.00  0.00     0.230 C 
BRANCH   3   4
ATOM      4  N   UNL     1      27.907  16.423  19.850  1.00  0.00    -0.350 N 
ATOM      5  H   UNL     1      28.626  17.177  19.766  1.00  0.00     0.345 HD
ATOM      6  H   UNL     1      27.356  16.365  18.965  1.00  0.00     0.345 HD
ATOM      7  H   UNL     1      27.261  16.695  20.628  1.00  0.00     0.345 HD
ENDBRANCH   3   4
BRANCH   3   8
ATOM      8  C   UNL     1      29.981  15.346  20.594  1.00  0.00     0.099 C 
ATOM      9  O   UNL     1      30.368  16.489  20.955  1.00  0.00    -0.544 OA
ATOM     10  O   UNL     1      30.896  14.301  20.546  1.00  0.00    -0.544 OA
ENDBRANCH   3   8
ENDBRANCH   1   3
BRANCH   1  11
ATOM     11  C   UNL     1      28.199  14.605  22.701  1.00  0.00     0.006 C 
ATOM     12  C   UNL     1      28.593  13.350  23.481  1.00  0.00     0.004 C 
ENDBRANCH   1  11
TORSDOF 4
ENDMDL
MODEL 5
REMARK VINA RESULT:    -4.593      2.144      2.530
REMARK INTER + INTRA:          -5.603
REMARK INTER:                  -5.513
REMARK INTRA:                  -0.090
REMARK UNBOUND:                -0.071
REMARK SMILES CC[C@H](C)[C@@H]([NH3+])C(=O)[O-]
REMARK SMILES IDX 3 1 4 2 5 3 6 4 7 8 8 9 9 10 2 11 1 12
REMARK H PARENT 6 5 6 6 6 7
REMARK Flexibility Score: inf
ROOT
ATOM      1  C   UNL     1      27.686  14.473  21.546  1.00  0.00     0.050 C 
ATOM      2  C   UNL     1      27.325  13.504  20.404  1.00  0.00     0.014 C 
ENDROOT
BRANCH   1   3
ATOM      3  C   UNL     1      28.462  15.736  21.048  1.00  0.00     0.230 C 
BRANCH   3   4
ATOM      4  N   UNL     1      27.843  16.362  19.869  1.00  0.00    -0.350 N 
ATOM      5  H   UNL     1      28.575  16.791  19.258  1.00  0.00     0.345 HD
ATOM      6  H   UNL     1      27.287  15.672  19.317  1.00  0.00     0.345 HD
ATOM      7  H   UNL     1      27.206  17.133  20.178  1.00  0.00     0.345 HD
ENDBRANCH   3   4
BRANCH   3   8
ATOM      8  C   UNL     1      28.630  16.743  22.161  1.00  0.00     0.099 C 
ATOM      9  O   UNL     1      29.783  17.131  22.485  1.00  0.00    -0.544 OA
ATOM     10  O   UNL     1      27.529  17.214  22.866  1.00  0.00    -0.544 OA
ENDBRANCH   3   8
ENDBRANCH   1   3
BRANCH   1  11
ATOM     11  C   UNL     1      28.416  13.693  22.668  1.00  0.00     0.006 C 
ATOM     12  C   UNL     1      28.425  12.179  22.452  1.00  0.00     0.004 C 
ENDBRANCH   1  11
TORSDOF 4
ENDMDL
MODEL 6
REMARK VINA RESULT:    -4.564      2.343      2.721
REMARK INTER + INTRA:          -5.569
REMARK INTER:                  -5.499
REMARK INTRA:                  -0.070
REMARK UNBOUND:                -0.071
REMARK SMILES CC[C@H](C)[C@@H]([NH3+])C(=O)[O-]
REMARK SMILES IDX 3 1 4 2 5 3 6 4 7 8 8 9 9 10 2 11 1 12
REMARK H PARENT 6 5 6 6 6 7
REMARK Flexibility Score: inf
ROOT
ATOM      1  C   UNL     1      28.506  15.465  21.656  1.00  0.00     0.050 C 
ATOM      2  C   UNL     1      28.127  14.474  22.774  1.00  0.00     0.014 C 
ENDROOT
BRANCH   1   3
ATOM      3  C   UNL     1      27.939  16.902  21.900  1.00  0.00     0.230 C 
BRANCH   3   4
ATOM      4  N   UNL     1      26.835  16.926  22.873  1.00  0.00    -0.350 N 
ATOM      5  H   UNL     1      25.981  17.348  22.443  1.00  0.00     0.345 HD
ATOM      6  H   UNL     1      26.613  15.968  23.223  1.00  0.00     0.345 HD
ATOM      7  H   UNL     1      27.101  17.526  23.688  1.00  0.00     0.345 HD
ENDBRANCH   3   4
BRANCH   3   8
ATOM      8  C   UNL     1      29.035  17.854  22.314  1.00  0.00     0.099 C 
ATOM      9  O   UNL     1      29.332  17.978  23.532  1.00  0.00    -0.544 OA
ATOM     10  O   UNL     1      29.694  18.634  21.370  1.00  0.00    -0.544 OA
ENDBRANCH   3   8
ENDBRANCH   1   3
BRANCH   1  11
ATOM     11  C   UNL     1      28.115  14.864  20.284  1.00  0.00     0.006 C 
ATOM     12  C   UNL     1      27.320  13.562  20.392  1.00  0.00     0.004 C 
ENDBRANCH   1  11
TORSDOF 4
ENDMDL
MODEL 7
REMARK VINA RESULT:    -4.479      2.989      3.812
REMARK INTER + INTRA:          -5.466
REMARK INTER:                  -5.393
REMARK INTRA:                  -0.073
REMARK UNBOUND:                -0.071
REMARK SMILES CC[C@H](C)[C@@H]([NH3+])C(=O)[O-]
REMARK SMILES IDX 3 1 4 2 5 3 6 4 7 8 8 9 9 10 2 11 1 12
REMARK H PARENT 6 5 6 6 6 7
REMARK Flexibility Score: inf
ROOT
ATOM      1  C   UNL     1      29.190  17.089  20.380  1.00  0.00     0.050 C 
ATOM      2  C   UNL     1      29.791  17.640  19.073  1.00  0.00     0.014 C 
ENDROOT
BRANCH   1   3
ATOM      3  C   UNL     1      29.704  17.845  21.650  1.00  0.00     0.230 C 
BRANCH   3   4
ATOM      4  N   UNL     1      30.073  19.242  21.377  1.00  0.00    -0.350 N 
ATOM      5  H   UNL     1      29.510  19.618  20.581  1.00  0.00     0.345 HD
ATOM      6  H   UNL     1      29.936  19.846  22.218  1.00  0.00     0.345 HD
ATOM      7  H   UNL     1      31.080  19.288  21.095  1.00  0.00     0.345 HD
ENDBRANCH   3   4
BRANCH   3   8
ATOM      8  C   UNL     1      28.696  17.768  22.771  1.00  0.00     0.099 C 
ATOM      9  O   UNL     1      27.517  17.399  22.530  1.00  0.00    -0.544 OA
ATOM     10  O   UNL     1      29.041  18.143  24.064  1.00  0.00    -0.544 OA
ENDBRANCH   3   8
ENDBRANCH   1   3
BRANCH   1  11
ATOM     11  C   UNL     1      29.402  15.556  20.436  1.00  0.00     0.006 C 
ATOM     12  C   UNL     1      28.127  14.754  20.175  1.00  0.00     0.004 C 
ENDBRANCH   1  11
TORSDOF 4
ENDMDL
MODEL 8
REMARK VINA RESULT:    -4.343      2.463      3.574
REMARK INTER + INTRA:          -5.302
REMARK INTER:                  -5.276
REMARK INTRA:                  -0.026
REMARK UNBOUND:                -0.071
REMARK SMILES CC[C@H](C)[C@@H]([NH3+])C(=O)[O-]
REMARK SMILES IDX 3 1 4 2 5 3 6 4 7 8 8 9 9 10 2 11 1 12
REMARK H PARENT 6 5 6 6 6 7
REMARK Flexibility Score: inf
ROOT
ATOM      1  C   UNL     1      28.614  17.616  22.117  1.00  0.00     0.050 C 
ATOM      2  C   UNL     1      27.781  16.406  22.582  1.00  0.00     0.014 C 
ENDROOT
BRANCH   1   3
ATOM      3  C   UNL     1      28.996  17.543  20.602  1.00  0.00     0.230 C 
BRANCH   3   4
ATOM      4  N   UNL     1      30.067  18.483  20.234  1.00  0.00    -0.350 N 
ATOM      5  H   UNL     1      30.188  19.207  20.978  1.00  0.00     0.345 HD
ATOM      6  H   UNL     1      30.973  17.988  20.077  1.00  0.00     0.345 HD
ATOM      7  H   UNL     1      29.804  18.984  19.353  1.00  0.00     0.345 HD
ENDBRANCH   3   4
BRANCH   3   8
ATOM      8  C   UNL     1      29.360  16.135  20.202  1.00  0.00     0.099 C 
ATOM      9  O   UNL     1      30.499  15.678  20.484  1.00  0.00    -0.544 OA
ATOM     10  O   UNL     1      28.470  15.346  19.482  1.00  0.00    -0.544 OA
ENDBRANCH   3   8
ENDBRANCH   1   3
BRANCH   1  11
ATOM     11  C   UNL     1      29.829  17.795  23.060  1.00  0.00     0.006 C 
ATOM     12  C   UNL     1      29.462  18.384  24.423  1.00  0.00     0.004 C 
ENDBRANCH   1  11
TORSDOF 4
ENDMDL
MODEL 9
REMARK VINA RESULT:    -4.293      2.673      3.969
REMARK INTER + INTRA:          -5.241
REMARK INTER:                  -5.143
REMARK INTRA:                  -0.098
REMARK UNBOUND:                -0.071
REMARK SMILES CC[C@H](C)[C@@H]([NH3+])C(=O)[O-]
REMARK SMILES IDX 3 1 4 2 5 3 6 4 7 8 8 9 9 10 2 11 1 12
REMARK H PARENT 6 5 6 6 6 7
REMARK Flexibility Score: inf
ROOT
ATOM      1  C   UNL     1      29.620  16.317  20.935  1.00  0.00     0.050 C 
ATOM      2  C   UNL     1      30.612  15.396  20.199  1.00  0.00     0.014 C 
ENDROOT
BRANCH   1   3
ATOM      3  C   UNL     1      28.203  15.675  21.101  1.00  0.00     0.230 C 
BRANCH   3   4
ATOM      4  N   UNL     1      27.739  14.988  19.885  1.00  0.00    -0.350 N 
ATOM      5  H   UNL     1      26.927  15.496  19.467  1.00  0.00     0.345 HD
ATOM      6  H   UNL     1      28.502  14.906  19.177  1.00  0.00     0.345 HD
ATOM      7  H   UNL     1      27.409  14.026  20.133  1.00  0.00     0.345 HD
ENDBRANCH   3   4
BRANCH   3   8
ATOM      8  C   UNL     1      28.165  14.744  22.288  1.00  0.00     0.099 C 
ATOM      9  O   UNL     1      28.003  13.508  22.110  1.00  0.00    -0.544 OA
ATOM     10  O   UNL     1      28.260  15.239  23.583  1.00  0.00    -0.544 OA
ENDBRANCH   3   8
ENDBRANCH   1   3
BRANCH   1  11
ATOM     11  C   UNL     1      29.602  17.705  20.248  1.00  0.00     0.006 C 
ATOM     12  C   UNL     1      29.965  17.655  18.764  1.00  0.00     0.004 C 
ENDBRANCH   1  11
TORSDOF 4
ENDMDL
