MODEL 1
REMARK VINA RESULT:     8.784      0.000      0.000
REMARK INTER + INTRA:          13.987
REMARK INTER:                  13.405
REMARK INTRA:                   0.582
REMARK UNBOUND:                 0.582
REMARK SMILES OC[C@@H]1O[C@@H](O[C@@]2(CO)O[C@H](CO)[C@@H](O)[C@@H]2O)[C@H](O)[C@H](O)[C@@H]1O
REMARK SMILES IDX 6 1 5 2 3 3 22 4 4 5 20 6 18 7 2 8 1 9 23 11 21 13 19 15
REMARK SMILES IDX 7 17 16 18 10 19 14 20 11 21 8 22 9 23 17 25 15 27 12 29
REMARK SMILES IDX 13 30
REMARK H PARENT 1 10 23 12 21 14 19 16 9 24 17 26 15 28 13 31
REMARK Flexibility Score: inf
ROOT
ATOM      1  O   UNL     1      -3.284  -0.268  18.367  1.00  0.00    -0.313 OA
ENDROOT
BRANCH   1   2
ATOM      2  C   UNL     1      -4.310  -0.285  19.361  1.00  0.00     0.285 C 
ATOM      3  C   UNL     1      -2.989   0.976  20.845  1.00  0.00     0.178 C 
ATOM      4  C   UNL     1      -2.878  -0.162  21.885  1.00  0.00     0.177 C 
ATOM      5  O   UNL     1      -4.224   0.895  20.147  1.00  0.00    -0.341 OA
ATOM      6  C   UNL     1      -3.010  -1.512  21.166  1.00  0.00     0.179 C 
ATOM      7  C   UNL     1      -4.269  -1.538  20.275  1.00  0.00     0.202 C 
BRANCH   3   8
ATOM      8  C   UNL     1      -2.882   2.353  21.513  1.00  0.00     0.191 C 
BRANCH   8   9
ATOM      9  O   UNL     1      -3.175   3.368  20.590  1.00  0.00    -0.394 OA
ATOM     10  H   UNL     1      -2.720   4.189  20.913  1.00  0.00     0.210 HD
ENDBRANCH   8   9
ENDBRANCH   3   8
BRANCH   4  11
ATOM     11  O   UNL     1      -3.884  -0.040  22.861  1.00  0.00    -0.387 OA
ATOM     12  H   UNL     1      -4.481   0.700  22.577  1.00  0.00     0.211 HD
ENDBRANCH   4  11
BRANCH   6  13
ATOM     13  O   UNL     1      -3.054  -2.550  22.112  1.00  0.00    -0.387 OA
ATOM     14  H   UNL     1      -3.007  -2.122  23.007  1.00  0.00     0.211 HD
ENDBRANCH   6  13
BRANCH   7  15
ATOM     15  O   UNL     1      -5.416  -1.566  21.087  1.00  0.00    -0.385 OA
ATOM     16  H   UNL     1      -5.655  -2.521  21.217  1.00  0.00     0.211 HD
ENDBRANCH   7  15
ENDBRANCH   1   2
BRANCH   1  17
ATOM     17  C   UNL     1      -3.628   0.079  17.015  1.00  0.00     0.224 C 
ATOM     18  C   UNL     1      -3.088   1.496  16.705  1.00  0.00     0.208 C 
ATOM     19  O   UNL     1      -5.037   0.178  16.971  1.00  0.00    -0.337 OA
ATOM     20  C   UNL     1      -4.178   2.407  17.231  1.00  0.00     0.180 C 
ATOM     21  C   UNL     1      -5.404   1.490  17.338  1.00  0.00     0.179 C 
BRANCH  17  22
ATOM     22  C   UNL     1      -3.241  -0.963  15.926  1.00  0.00     0.225 C 
BRANCH  22  23
ATOM     23  O   UNL     1      -4.243  -1.039  14.948  1.00  0.00    -0.391 OA
ATOM     24  H   UNL     1      -5.079  -1.280  15.426  1.00  0.00     0.210 HD
ENDBRANCH  22  23
ENDBRANCH  17  22
BRANCH  18  25
ATOM     25  O   UNL     1      -2.941   1.714  15.322  1.00  0.00    -0.385 OA
ATOM     26  H   UNL     1      -1.972   1.633  15.119  1.00  0.00     0.211 HD
ENDBRANCH  18  25
BRANCH  20  27
ATOM     27  O   UNL     1      -3.835   2.959  18.481  1.00  0.00    -0.387 OA
ATOM     28  H   UNL     1      -4.285   3.841  18.567  1.00  0.00     0.211 HD
ENDBRANCH  20  27
BRANCH  21  29
ATOM     29  C   UNL     1      -6.564   1.962  16.447  1.00  0.00     0.191 C 
BRANCH  29  30
ATOM     30  O   UNL     1      -6.736   3.352  16.534  1.00  0.00    -0.394 OA
ATOM     31  H   UNL     1      -5.876   3.764  16.260  1.00  0.00     0.210 HD
ENDBRANCH  29  30
ENDBRANCH  21  29
ENDBRANCH   1  17
TORSDOF 13
ENDMDL
MODEL 2
REMARK VINA RESULT:     9.993      1.327      2.742
REMARK INTER + INTRA:          15.832
REMARK INTER:                  15.989
REMARK INTRA:                  -0.157
REMARK UNBOUND:                 0.582
REMARK SMILES OC[C@@H]1O[C@@H](O[C@@]2(CO)O[C@H](CO)[C@@H](O)[C@@H]2O)[C@H](O)[C@H](O)[C@@H]1O
REMARK SMILES IDX 6 1 5 2 3 3 22 4 4 5 20 6 18 7 2 8 1 9 23 11 21 13 19 15
REMARK SMILES IDX 7 17 16 18 10 19 14 20 11 21 8 22 9 23 17 25 15 27 12 29
REMARK SMILES IDX 13 30
REMARK H PARENT 1 10 23 12 21 14 19 16 9 24 17 26 15 28 13 31
REMARK Flexibility Score: inf
ROOT
ATOM      1  O   UNL     1      -3.473   0.288  18.986  1.00  0.00    -0.313 OA
ENDROOT
BRANCH   1   2
ATOM      2  C   UNL     1      -4.440  -0.158  19.939  1.00  0.00     0.285 C 
ATOM      3  C   UNL     1      -3.121   0.602  21.733  1.00  0.00     0.178 C 
ATOM      4  C   UNL     1      -2.879  -0.815  22.299  1.00  0.00     0.177 C 
ATOM      5  O   UNL     1      -4.385   0.674  21.089  1.00  0.00    -0.341 OA
ATOM      6  C   UNL     1      -2.965  -1.833  21.153  1.00  0.00     0.179 C 
ATOM      7  C   UNL     1      -4.268  -1.644  20.348  1.00  0.00     0.202 C 
BRANCH   3   8
ATOM      8  C   UNL     1      -3.063   1.662  22.842  1.00  0.00     0.191 C 
BRANCH   8   9
ATOM      9  O   UNL     1      -4.207   1.585  23.650  1.00  0.00    -0.394 OA
ATOM     10  H   UNL     1      -3.939   1.893  24.556  1.00  0.00     0.210 HD
ENDBRANCH   8   9
ENDBRANCH   3   8
BRANCH   4  11
ATOM     11  O   UNL     1      -3.835  -1.124  23.285  1.00  0.00    -0.387 OA
ATOM     12  H   UNL     1      -4.600  -0.506  23.156  1.00  0.00     0.211 HD
ENDBRANCH   4  11
BRANCH   6  13
ATOM     13  O   UNL     1      -2.890  -3.138  21.671  1.00  0.00    -0.387 OA
ATOM     14  H   UNL     1      -3.092  -3.754  20.919  1.00  0.00     0.211 HD
ENDBRANCH   6  13
BRANCH   7  15
ATOM     15  O   UNL     1      -5.364  -2.046  21.132  1.00  0.00    -0.385 OA
ATOM     16  H   UNL     1      -5.506  -3.013  20.956  1.00  0.00     0.211 HD
ENDBRANCH   7  15
ENDBRANCH   1   2
BRANCH   1  17
ATOM     17  C   UNL     1      -3.558   1.633  18.485  1.00  0.00     0.224 C 
ATOM     18  C   UNL     1      -5.037   1.959  18.165  1.00  0.00     0.208 C 
ATOM     19  O   UNL     1      -2.877   1.646  17.247  1.00  0.00    -0.337 OA
ATOM     20  C   UNL     1      -5.220   1.411  16.765  1.00  0.00     0.180 C 
ATOM     21  C   UNL     1      -3.787   1.274  16.234  1.00  0.00     0.179 C 
BRANCH  17  22
ATOM     22  C   UNL     1      -2.877   2.728  19.355  1.00  0.00     0.225 C 
BRANCH  22  23
ATOM     23  O   UNL     1      -3.838   3.416  20.111  1.00  0.00    -0.391 OA
ATOM     24  H   UNL     1      -4.720   3.172  19.726  1.00  0.00     0.210 HD
ENDBRANCH  22  23
ENDBRANCH  17  22
BRANCH  18  25
ATOM     25  O   UNL     1      -5.281   3.346  18.146  1.00  0.00    -0.385 OA
ATOM     26  H   UNL     1      -4.446   3.789  18.451  1.00  0.00     0.211 HD
ENDBRANCH  18  25
BRANCH  20  27
ATOM     27  O   UNL     1      -5.888   0.170  16.775  1.00  0.00    -0.387 OA
ATOM     28  H   UNL     1      -5.812  -0.219  17.687  1.00  0.00     0.211 HD
ENDBRANCH  20  27
BRANCH  21  29
ATOM     29  C   UNL     1      -3.542   2.139  14.987  1.00  0.00     0.191 C 
BRANCH  29  30
ATOM     30  O   UNL     1      -4.565   1.966  14.042  1.00  0.00    -0.394 OA
ATOM     31  H   UNL     1      -4.683   2.839  13.585  1.00  0.00     0.210 HD
ENDBRANCH  29  30
ENDBRANCH  21  29
ENDBRANCH   1  17
TORSDOF 13
ENDMDL
MODEL 3
REMARK VINA RESULT:    10.794      1.587      3.828
REMARK INTER + INTRA:          17.054
REMARK INTER:                  17.839
REMARK INTRA:                  -0.785
REMARK UNBOUND:                 0.582
REMARK SMILES OC[C@@H]1O[C@@H](O[C@@]2(CO)O[C@H](CO)[C@@H](O)[C@@H]2O)[C@H](O)[C@H](O)[C@@H]1O
REMARK SMILES IDX 6 1 5 2 3 3 22 4 4 5 20 6 18 7 2 8 1 9 23 11 21 13 19 15
REMARK SMILES IDX 7 17 16 18 10 19 14 20 11 21 8 22 9 23 17 25 15 27 12 29
REMARK SMILES IDX 13 30
REMARK H PARENT 1 10 23 12 21 14 19 16 9 24 17 26 15 28 13 31
REMARK Flexibility Score: inf
ROOT
ATOM      1  O   UNL     1      -4.081   1.187  19.916  1.00  0.00    -0.313 OA
ENDROOT
BRANCH   1   2
ATOM      2  C   UNL     1      -3.227   1.047  21.053  1.00  0.00     0.285 C 
ATOM      3  C   UNL     1      -4.013  -1.133  21.460  1.00  0.00     0.178 C 
ATOM      4  C   UNL     1      -4.659  -0.765  22.815  1.00  0.00     0.177 C 
ATOM      5  O   UNL     1      -2.875  -0.320  21.212  1.00  0.00    -0.341 OA
ATOM      6  C   UNL     1      -5.045   0.721  22.799  1.00  0.00     0.179 C 
ATOM      7  C   UNL     1      -3.848   1.594  22.365  1.00  0.00     0.202 C 
BRANCH   3   8
ATOM      8  C   UNL     1      -3.591  -2.608  21.427  1.00  0.00     0.191 C 
BRANCH   8   9
ATOM      9  O   UNL     1      -4.157  -3.302  22.506  1.00  0.00    -0.394 OA
ATOM     10  H   UNL     1      -4.579  -4.120  22.131  1.00  0.00     0.210 HD
ENDBRANCH   8   9
ENDBRANCH   3   8
BRANCH   4  11
ATOM     11  O   UNL     1      -3.765  -1.014  23.873  1.00  0.00    -0.387 OA
ATOM     12  H   UNL     1      -3.380  -1.917  23.726  1.00  0.00     0.211 HD
ENDBRANCH   4  11
BRANCH   6  13
ATOM     13  O   UNL     1      -5.501   1.107  24.070  1.00  0.00    -0.387 OA
ATOM     14  H   UNL     1      -6.118   1.872  23.931  1.00  0.00     0.211 HD
ENDBRANCH   6  13
BRANCH   7  15
ATOM     15  O   UNL     1      -2.876   1.592  23.382  1.00  0.00    -0.385 OA
ATOM     16  H   UNL     1      -3.275   2.056  24.164  1.00  0.00     0.211 HD
ENDBRANCH   7  15
ENDBRANCH   1   2
BRANCH   1  17
ATOM     17  C   UNL     1      -3.763   2.176  18.923  1.00  0.00     0.224 C 
ATOM     18  C   UNL     1      -5.071   2.647  18.244  1.00  0.00     0.208 C 
ATOM     19  O   UNL     1      -3.016   1.517  17.921  1.00  0.00    -0.337 OA
ATOM     20  C   UNL     1      -5.293   1.612  17.161  1.00  0.00     0.180 C 
ATOM     21  C   UNL     1      -3.915   0.958  16.989  1.00  0.00     0.179 C 
BRANCH  17  22
ATOM     22  C   UNL     1      -2.877   3.362  19.403  1.00  0.00     0.225 C 
BRANCH  22  23
ATOM     23  O   UNL     1      -3.555   4.114  20.373  1.00  0.00    -0.391 OA
ATOM     24  H   UNL     1      -3.359   3.683  21.245  1.00  0.00     0.210 HD
ENDBRANCH  22  23
ENDBRANCH  17  22
BRANCH  18  25
ATOM     25  O   UNL     1      -4.930   3.912  17.642  1.00  0.00    -0.385 OA
ATOM     26  H   UNL     1      -3.961   4.132  17.657  1.00  0.00     0.211 HD
ENDBRANCH  18  25
BRANCH  20  27
ATOM     27  O   UNL     1      -6.270   0.668  17.535  1.00  0.00    -0.387 OA
ATOM     28  H   UNL     1      -6.574   0.881  18.457  1.00  0.00     0.211 HD
ENDBRANCH  20  27
BRANCH  21  29
ATOM     29  C   UNL     1      -3.356   1.139  15.569  1.00  0.00     0.191 C 
BRANCH  29  30
ATOM     30  O   UNL     1      -4.286   1.781  14.737  1.00  0.00    -0.394 OA
ATOM     31  H   UNL     1      -5.126   1.255  14.788  1.00  0.00     0.210 HD
ENDBRANCH  29  30
ENDBRANCH  21  29
ENDBRANCH   1  17
TORSDOF 13
ENDMDL
MODEL 4
REMARK VINA RESULT:    11.338      1.502      2.852
REMARK INTER + INTRA:          17.886
REMARK INTER:                  18.997
REMARK INTRA:                  -1.111
REMARK UNBOUND:                 0.582
REMARK SMILES OC[C@@H]1O[C@@H](O[C@@]2(CO)O[C@H](CO)[C@@H](O)[C@@H]2O)[C@H](O)[C@H](O)[C@@H]1O
REMARK SMILES IDX 6 1 5 2 3 3 22 4 4 5 20 6 18 7 2 8 1 9 23 11 21 13 19 15
REMARK SMILES IDX 7 17 16 18 10 19 14 20 11 21 8 22 9 23 17 25 15 27 12 29
REMARK SMILES IDX 13 30
REMARK H PARENT 1 10 23 12 21 14 19 16 9 24 17 26 15 28 13 31
REMARK Flexibility Score: inf
ROOT
ATOM      1  O   UNL     1      -4.338   0.580  19.345  1.00  0.00    -0.313 OA
ENDROOT
BRANCH   1   2
ATOM      2  C   UNL     1      -3.377   0.809  20.377  1.00  0.00     0.285 C 
ATOM      3  C   UNL     1      -3.898  -1.240  21.410  1.00  0.00     0.178 C 
ATOM      4  C   UNL     1      -4.454  -0.577  22.690  1.00  0.00     0.177 C 
ATOM      5  O   UNL     1      -2.875  -0.438  20.837  1.00  0.00    -0.341 OA
ATOM      6  C   UNL     1      -4.988   0.819  22.341  1.00  0.00     0.179 C 
ATOM      7  C   UNL     1      -3.930   1.634  21.568  1.00  0.00     0.202 C 
BRANCH   3   8
ATOM      8  C   UNL     1      -3.333  -2.636  21.706  1.00  0.00     0.191 C 
BRANCH   8   9
ATOM      9  O   UNL     1      -4.254  -3.388  22.450  1.00  0.00    -0.394 OA
ATOM     10  H   UNL     1      -4.136  -3.126  23.401  1.00  0.00     0.210 HD
ENDBRANCH   8   9
ENDBRANCH   3   8
BRANCH   4  11
ATOM     11  O   UNL     1      -3.449  -0.472  23.670  1.00  0.00    -0.387 OA
ATOM     12  H   UNL     1      -2.833  -1.239  23.543  1.00  0.00     0.211 HD
ENDBRANCH   4  11
BRANCH   6  13
ATOM     13  O   UNL     1      -5.366   1.491  23.516  1.00  0.00    -0.387 OA
ATOM     14  H   UNL     1      -4.563   1.982  23.833  1.00  0.00     0.211 HD
ENDBRANCH   6  13
BRANCH   7  15
ATOM     15  O   UNL     1      -2.876   1.972  22.436  1.00  0.00    -0.385 OA
ATOM     16  H   UNL     1      -2.218   1.229  22.395  1.00  0.00     0.211 HD
ENDBRANCH   7  15
ENDBRANCH   1   2
BRANCH   1  17
ATOM     17  C   UNL     1      -3.993   0.901  17.986  1.00  0.00     0.224 C 
ATOM     18  C   UNL     1      -3.670   2.412  17.893  1.00  0.00     0.208 C 
ATOM     19  O   UNL     1      -5.160   0.700  17.216  1.00  0.00    -0.337 OA
ATOM     20  C   UNL     1      -5.033   3.048  17.712  1.00  0.00     0.180 C 
ATOM     21  C   UNL     1      -5.921   1.888  17.240  1.00  0.00     0.179 C 
BRANCH  17  22
ATOM     22  C   UNL     1      -2.894   0.013  17.335  1.00  0.00     0.225 C 
BRANCH  22  23
ATOM     23  O   UNL     1      -3.448  -0.778  16.318  1.00  0.00    -0.391 OA
ATOM     24  H   UNL     1      -3.685  -1.645  16.738  1.00  0.00     0.210 HD
ENDBRANCH  22  23
ENDBRANCH  17  22
BRANCH  18  25
ATOM     25  O   UNL     1      -2.875   2.715  16.771  1.00  0.00    -0.385 OA
ATOM     26  H   UNL     1      -2.034   3.116  17.114  1.00  0.00     0.211 HD
ENDBRANCH  18  25
BRANCH  20  27
ATOM     27  O   UNL     1      -5.510   3.608  18.913  1.00  0.00    -0.387 OA
ATOM     28  H   UNL     1      -5.795   2.868  19.512  1.00  0.00     0.211 HD
ENDBRANCH  20  27
BRANCH  21  29
ATOM     29  C   UNL     1      -6.518   2.139  15.847  1.00  0.00     0.191 C 
BRANCH  29  30
ATOM     30  O   UNL     1      -5.509   2.312  14.887  1.00  0.00    -0.394 OA
ATOM     31  H   UNL     1      -5.913   2.818  14.135  1.00  0.00     0.210 HD
ENDBRANCH  29  30
ENDBRANCH  21  29
ENDBRANCH   1  17
TORSDOF 13
ENDMDL
MODEL 5
REMARK VINA RESULT:    11.761      1.683      3.308
REMARK INTER + INTRA:          18.530
REMARK INTER:                  15.283
REMARK INTRA:                   3.248
REMARK UNBOUND:                 0.582
REMARK SMILES OC[C@@H]1O[C@@H](O[C@@]2(CO)O[C@H](CO)[C@@H](O)[C@@H]2O)[C@H](O)[C@H](O)[C@@H]1O
REMARK SMILES IDX 6 1 5 2 3 3 22 4 4 5 20 6 18 7 2 8 1 9 23 11 21 13 19 15
REMARK SMILES IDX 7 17 16 18 10 19 14 20 11 21 8 22 9 23 17 25 15 27 12 29
REMARK SMILES IDX 13 30
REMARK H PARENT 1 10 23 12 21 14 19 16 9 24 17 26 15 28 13 31
REMARK Flexibility Score: inf
ROOT
ATOM      1  O   UNL     1      -4.877   0.686  17.210  1.00  0.00    -0.313 OA
ENDROOT
BRANCH   1   2
ATOM      2  C   UNL     1      -3.727   1.397  17.672  1.00  0.00     0.285 C 
ATOM      3  C   UNL     1      -3.769   0.264  19.733  1.00  0.00     0.178 C 
ATOM      4  C   UNL     1      -4.070   1.539  20.552  1.00  0.00     0.177 C 
ATOM      5  O   UNL     1      -3.002   0.580  18.580  1.00  0.00    -0.341 OA
ATOM      6  C   UNL     1      -4.816   2.542  19.661  1.00  0.00     0.179 C 
ATOM      7  C   UNL     1      -4.064   2.760  18.332  1.00  0.00     0.202 C 
BRANCH   3   8
ATOM      8  C   UNL     1      -3.006  -0.770  20.573  1.00  0.00     0.191 C 
BRANCH   8   9
ATOM      9  O   UNL     1      -3.707  -1.984  20.608  1.00  0.00    -0.394 OA
ATOM     10  H   UNL     1      -4.368  -1.954  19.867  1.00  0.00     0.210 HD
ENDBRANCH   8   9
ENDBRANCH   3   8
BRANCH   4  11
ATOM     11  O   UNL     1      -2.877   2.116  21.026  1.00  0.00    -0.387 OA
ATOM     12  H   UNL     1      -2.723   1.764  21.940  1.00  0.00     0.211 HD
ENDBRANCH   4  11
BRANCH   6  13
ATOM     13  O   UNL     1      -4.971   3.760  20.345  1.00  0.00    -0.387 OA
ATOM     14  H   UNL     1      -4.058   4.081  20.565  1.00  0.00     0.211 HD
ENDBRANCH   6  13
BRANCH   7  15
ATOM     15  O   UNL     1      -2.875   3.470  18.578  1.00  0.00    -0.385 OA
ATOM     16  H   UNL     1      -2.548   3.799  17.700  1.00  0.00     0.211 HD
ENDBRANCH   7  15
ENDBRANCH   1   2
BRANCH   1  17
ATOM     17  C   UNL     1      -5.360   0.929  15.878  1.00  0.00     0.224 C 
ATOM     18  C   UNL     1      -4.606   2.142  15.282  1.00  0.00     0.208 C 
ATOM     19  O   UNL     1      -6.709   1.329  16.005  1.00  0.00    -0.337 OA
ATOM     20  C   UNL     1      -5.392   3.329  15.799  1.00  0.00     0.180 C 
ATOM     21  C   UNL     1      -6.743   2.725  16.208  1.00  0.00     0.179 C 
BRANCH  17  22
ATOM     22  C   UNL     1      -5.370  -0.300  14.923  1.00  0.00     0.225 C 
BRANCH  22  23
ATOM     23  O   UNL     1      -4.110  -0.463  14.329  1.00  0.00    -0.391 OA
ATOM     24  H   UNL     1      -4.209  -0.175  13.385  1.00  0.00     0.210 HD
ENDBRANCH  22  23
ENDBRANCH  17  22
BRANCH  18  25
ATOM     25  O   UNL     1      -4.644   2.149  13.875  1.00  0.00    -0.385 OA
ATOM     26  H   UNL     1      -4.021   1.440  13.566  1.00  0.00     0.211 HD
ENDBRANCH  18  25
BRANCH  20  27
ATOM     27  O   UNL     1      -4.749   3.943  16.892  1.00  0.00    -0.387 OA
ATOM     28  H   UNL     1      -4.534   3.243  17.563  1.00  0.00     0.211 HD
ENDBRANCH  20  27
BRANCH  21  29
ATOM     29  C   UNL     1      -7.914   3.327  15.416  1.00  0.00     0.191 C 
BRANCH  29  30
ATOM     30  O   UNL     1      -7.457   4.021  14.285  1.00  0.00    -0.394 OA
ATOM     31  H   UNL     1      -6.702   3.496  13.913  1.00  0.00     0.210 HD
ENDBRANCH  29  30
ENDBRANCH  21  29
ENDBRANCH   1  17
TORSDOF 13
ENDMDL
