MODEL 1
REMARK VINA RESULT:     6.600      0.000      0.000
REMARK INTER + INTRA:          11.216
REMARK INTER:                  11.615
REMARK INTRA:                  -0.400
REMARK UNBOUND:                -0.400
REMARK SMILES CCCCCCCCCCCCCCC(=O)[O-]
REMARK SMILES IDX 9 1 10 2 11 3 12 4 13 5 14 6 15 7 16 8 17 9 8 10 7 11 6 12
REMARK SMILES IDX 5 13 4 14 3 15 2 16 1 17
REMARK H PARENT
REMARK Flexibility Score: inf
ROOT
ATOM      1  C   UNL     1     -33.310  13.819  17.144  1.00  0.00     0.000 C 
ENDROOT
BRANCH   1   2
ATOM      2  C   UNL     1     -34.356  14.803  17.706  1.00  0.00     0.000 C 
BRANCH   2   3
ATOM      3  C   UNL     1     -34.815  15.894  16.722  1.00  0.00     0.000 C 
BRANCH   3   4
ATOM      4  C   UNL     1     -35.055  17.251  17.405  1.00  0.00     0.000 C 
BRANCH   4   5
ATOM      5  C   UNL     1     -36.526  17.446  17.827  1.00  0.00     0.006 C 
BRANCH   5   6
ATOM      6  C   UNL     1     -37.438  16.272  17.432  1.00  0.00     0.053 C 
BRANCH   6   7
ATOM      7  C   UNL     1     -38.729  16.275  18.190  1.00  0.00     0.041 C 
ATOM      8  O   UNL     1     -38.832  15.629  19.266  1.00  0.00    -0.550 OA
ATOM      9  O   UNL     1     -39.809  17.013  17.723  1.00  0.00    -0.550 OA
ENDBRANCH   6   7
ENDBRANCH   5   6
ENDBRANCH   4   5
ENDBRANCH   3   4
ENDBRANCH   2   3
ENDBRANCH   1   2
BRANCH   1  10
ATOM     10  C   UNL     1     -33.276  12.441  17.834  1.00  0.00     0.000 C 
BRANCH  10  11
ATOM     11  C   UNL     1     -32.659  12.433  19.247  1.00  0.00    -0.000 C 
BRANCH  11  12
ATOM     12  C   UNL     1     -33.628  12.053  20.381  1.00  0.00    -0.000 C 
BRANCH  12  13
ATOM     13  C   UNL     1     -33.965  10.552  20.401  1.00  0.00    -0.000 C 
BRANCH  13  14
ATOM     14  C   UNL     1     -33.979   9.969  21.823  1.00  0.00    -0.000 C 
BRANCH  14  15
ATOM     15  C   UNL     1     -33.348   8.567  21.893  1.00  0.00    -0.000 C 
BRANCH  15  16
ATOM     16  C   UNL     1     -34.351   7.493  22.343  1.00  0.00    -0.003 C 
ATOM     17  C   UNL     1     -34.484   7.406  23.863  1.00  0.00     0.004 C 
ENDBRANCH  15  16
ENDBRANCH  14  15
ENDBRANCH  13  14
ENDBRANCH  12  13
ENDBRANCH  11  12
ENDBRANCH  10  11
ENDBRANCH   1  10
TORSDOF 13
ENDMDL
MODEL 2
REMARK VINA RESULT:     7.282      3.861      8.533
REMARK INTER + INTRA:          12.417
REMARK INTER:                  12.976
REMARK INTRA:                  -0.558
REMARK UNBOUND:                -0.400
REMARK SMILES CCCCCCCCCCCCCCC(=O)[O-]
REMARK SMILES IDX 9 1 10 2 11 3 12 4 13 5 14 6 15 7 16 8 17 9 8 10 7 11 6 12
REMARK SMILES IDX 5 13 4 14 3 15 2 16 1 17
REMARK H PARENT
REMARK Flexibility Score: inf
ROOT
ATOM      1  C   UNL     1     -32.722  12.485  19.233  1.00  0.00     0.000 C 
ENDROOT
BRANCH   1   2
ATOM      2  C   UNL     1     -33.707  11.924  20.278  1.00  0.00     0.000 C 
BRANCH   2   3
ATOM      3  C   UNL     1     -33.741  10.389  20.379  1.00  0.00     0.000 C 
BRANCH   3   4
ATOM      4  C   UNL     1     -34.107   9.891  21.788  1.00  0.00     0.000 C 
BRANCH   4   5
ATOM      5  C   UNL     1     -33.469   8.524  22.113  1.00  0.00     0.006 C 
BRANCH   5   6
ATOM      6  C   UNL     1     -34.498   7.402  22.328  1.00  0.00     0.053 C 
BRANCH   6   7
ATOM      7  C   UNL     1     -34.797   7.174  23.776  1.00  0.00     0.041 C 
ATOM      8  O   UNL     1     -33.867   6.891  24.578  1.00  0.00    -0.550 OA
ATOM      9  O   UNL     1     -36.097   7.301  24.247  1.00  0.00    -0.550 OA
ENDBRANCH   6   7
ENDBRANCH   5   6
ENDBRANCH   4   5
ENDBRANCH   3   4
ENDBRANCH   2   3
ENDBRANCH   1   2
BRANCH   1  10
ATOM     10  C   UNL     1     -33.220  12.437  17.775  1.00  0.00     0.000 C 
BRANCH  10  11
ATOM     11  C   UNL     1     -33.367  13.810  17.088  1.00  0.00    -0.000 C 
BRANCH  11  12
ATOM     12  C   UNL     1     -34.285  14.809  17.815  1.00  0.00    -0.000 C 
BRANCH  12  13
ATOM     13  C   UNL     1     -35.068  15.713  16.848  1.00  0.00    -0.000 C 
BRANCH  13  14
ATOM     14  C   UNL     1     -35.228  17.147  17.379  1.00  0.00    -0.000 C 
BRANCH  14  15
ATOM     15  C   UNL     1     -36.667  17.455  17.825  1.00  0.00    -0.000 C 
BRANCH  15  16
ATOM     16  C   UNL     1     -37.645  16.320  17.483  1.00  0.00    -0.003 C 
ATOM     17  C   UNL     1     -38.496  15.891  18.677  1.00  0.00     0.004 C 
ENDBRANCH  15  16
ENDBRANCH  14  15
ENDBRANCH  13  14
ENDBRANCH  12  13
ENDBRANCH  11  12
ENDBRANCH  10  11
ENDBRANCH   1  10
TORSDOF 13
ENDMDL
MODEL 3
REMARK VINA RESULT:     7.393      3.728      8.027
REMARK INTER + INTRA:          12.612
REMARK INTER:                  13.060
REMARK INTRA:                  -0.449
REMARK UNBOUND:                -0.400
REMARK SMILES CCCCCCCCCCCCCCC(=O)[O-]
REMARK SMILES IDX 9 1 10 2 11 3 12 4 13 5 14 6 15 7 16 8 17 9 8 10 7 11 6 12
REMARK SMILES IDX 5 13 4 14 3 15 2 16 1 17
REMARK H PARENT
REMARK Flexibility Score: inf
ROOT
ATOM      1  C   UNL     1     -33.655  13.999  16.596  1.00  0.00     0.000 C 
ENDROOT
BRANCH   1   2
ATOM      2  C   UNL     1     -33.358  12.663  17.306  1.00  0.00     0.000 C 
BRANCH   2   3
ATOM      3  C   UNL     1     -32.446  12.773  18.541  1.00  0.00     0.000 C 
BRANCH   3   4
ATOM      4  C   UNL     1     -33.162  12.393  19.848  1.00  0.00     0.000 C 
BRANCH   4   5
ATOM      5  C   UNL     1     -33.641  10.927  19.852  1.00  0.00     0.006 C 
BRANCH   5   6
ATOM      6  C   UNL     1     -34.083  10.429  21.238  1.00  0.00     0.053 C 
BRANCH   6   7
ATOM      7  C   UNL     1     -33.429   9.136  21.614  1.00  0.00     0.041 C 
ATOM      8  O   UNL     1     -32.239   8.905  21.272  1.00  0.00    -0.550 OA
ATOM      9  O   UNL     1     -34.123   8.198  22.367  1.00  0.00    -0.550 OA
ENDBRANCH   6   7
ENDBRANCH   5   6
ENDBRANCH   4   5
ENDBRANCH   3   4
ENDBRANCH   2   3
ENDBRANCH   1   2
BRANCH   1  10
ATOM     10  C   UNL     1     -34.423  15.031  17.444  1.00  0.00     0.000 C 
BRANCH  10  11
ATOM     11  C   UNL     1     -34.831  16.317  16.697  1.00  0.00    -0.000 C 
BRANCH  11  12
ATOM     12  C   UNL     1     -35.201  17.508  17.600  1.00  0.00    -0.000 C 
BRANCH  12  13
ATOM     13  C   UNL     1     -36.720  17.679  17.771  1.00  0.00    -0.000 C 
BRANCH  13  14
ATOM     14  C   UNL     1     -37.504  16.414  17.385  1.00  0.00    -0.000 C 
BRANCH  14  15
ATOM     15  C   UNL     1     -38.449  15.941  18.503  1.00  0.00    -0.000 C 
BRANCH  15  16
ATOM     16  C   UNL     1     -39.875  16.489  18.339  1.00  0.00    -0.003 C 
ATOM     17  C   UNL     1     -40.076  17.233  17.018  1.00  0.00     0.004 C 
ENDBRANCH  15  16
ENDBRANCH  14  15
ENDBRANCH  13  14
ENDBRANCH  12  13
ENDBRANCH  11  12
ENDBRANCH  10  11
ENDBRANCH   1  10
TORSDOF 13
ENDMDL
MODEL 4
REMARK VINA RESULT:     7.434      3.127      7.704
REMARK INTER + INTRA:          12.685
REMARK INTER:                  13.295
REMARK INTRA:                  -0.610
REMARK UNBOUND:                -0.400
REMARK SMILES CCCCCCCCCCCCCCC(=O)[O-]
REMARK SMILES IDX 9 1 10 2 11 3 12 4 13 5 14 6 15 7 16 8 17 9 8 10 7 11 6 12
REMARK SMILES IDX 5 13 4 14 3 15 2 16 1 17
REMARK H PARENT
REMARK Flexibility Score: inf
ROOT
ATOM      1  C   UNL     1     -34.403  15.101  17.241  1.00  0.00     0.000 C 
ENDROOT
BRANCH   1   2
ATOM      2  C   UNL     1     -34.028  13.962  16.271  1.00  0.00     0.000 C 
BRANCH   2   3
ATOM      3  C   UNL     1     -33.422  12.714  16.938  1.00  0.00     0.000 C 
BRANCH   3   4
ATOM      4  C   UNL     1     -32.216  13.042  17.833  1.00  0.00     0.000 C 
BRANCH   4   5
ATOM      5  C   UNL     1     -32.434  12.605  19.297  1.00  0.00     0.006 C 
BRANCH   5   6
ATOM      6  C   UNL     1     -33.394  11.414  19.445  1.00  0.00     0.053 C 
BRANCH   6   7
ATOM      7  C   UNL     1     -33.936  11.288  20.835  1.00  0.00     0.041 C 
ATOM      8  O   UNL     1     -34.254  10.158  21.291  1.00  0.00    -0.550 OA
ATOM      9  O   UNL     1     -34.062  12.415  21.637  1.00  0.00    -0.550 OA
ENDBRANCH   6   7
ENDBRANCH   5   6
ENDBRANCH   4   5
ENDBRANCH   3   4
ENDBRANCH   2   3
ENDBRANCH   1   2
BRANCH   1  10
ATOM     10  C   UNL     1     -34.812  16.424  16.564  1.00  0.00     0.000 C 
BRANCH  10  11
ATOM     11  C   UNL     1     -35.169  17.570  17.532  1.00  0.00    -0.000 C 
BRANCH  11  12
ATOM     12  C   UNL     1     -36.670  17.722  17.839  1.00  0.00    -0.000 C 
BRANCH  12  13
ATOM     13  C   UNL     1     -37.484  16.469  17.474  1.00  0.00    -0.000 C 
BRANCH  13  14
ATOM     14  C   UNL     1     -38.437  16.036  18.599  1.00  0.00    -0.000 C 
BRANCH  14  15
ATOM     15  C   UNL     1     -39.912  16.324  18.268  1.00  0.00    -0.000 C 
BRANCH  15  16
ATOM     16  C   UNL     1     -40.077  17.507  17.302  1.00  0.00    -0.003 C 
ATOM     17  C   UNL     1     -41.042  17.206  16.155  1.00  0.00     0.004 C 
ENDBRANCH  15  16
ENDBRANCH  14  15
ENDBRANCH  13  14
ENDBRANCH  12  13
ENDBRANCH  11  12
ENDBRANCH  10  11
ENDBRANCH   1  10
TORSDOF 13
ENDMDL
MODEL 5
REMARK VINA RESULT:     7.999      1.690      2.146
REMARK INTER + INTRA:          13.678
REMARK INTER:                  14.328
REMARK INTRA:                  -0.650
REMARK UNBOUND:                -0.400
REMARK SMILES CCCCCCCCCCCCCCC(=O)[O-]
REMARK SMILES IDX 9 1 10 2 11 3 12 4 13 5 14 6 15 7 16 8 17 9 8 10 7 11 6 12
REMARK SMILES IDX 5 13 4 14 3 15 2 16 1 17
REMARK H PARENT
REMARK Flexibility Score: inf
ROOT
ATOM      1  C   UNL     1     -33.792  13.762  16.961  1.00  0.00     0.000 C 
ENDROOT
BRANCH   1   2
ATOM      2  C   UNL     1     -34.337  14.971  17.749  1.00  0.00     0.000 C 
BRANCH   2   3
ATOM      3  C   UNL     1     -34.735  16.182  16.886  1.00  0.00     0.000 C 
BRANCH   3   4
ATOM      4  C   UNL     1     -35.123  17.411  17.725  1.00  0.00     0.000 C 
BRANCH   4   5
ATOM      5  C   UNL     1     -36.648  17.648  17.750  1.00  0.00     0.006 C 
BRANCH   5   6
ATOM      6  C   UNL     1     -37.469  16.397  17.395  1.00  0.00     0.053 C 
BRANCH   6   7
ATOM      7  C   UNL     1     -38.756  16.326  18.157  1.00  0.00     0.041 C 
ATOM      8  O   UNL     1     -39.764  16.966  17.757  1.00  0.00    -0.550 OA
ATOM      9  O   UNL     1     -38.850  15.531  19.292  1.00  0.00    -0.550 OA
ENDBRANCH   6   7
ENDBRANCH   5   6
ENDBRANCH   4   5
ENDBRANCH   3   4
ENDBRANCH   2   3
ENDBRANCH   1   2
BRANCH   1  10
ATOM     10  C   UNL     1     -32.642  13.002  17.650  1.00  0.00     0.000 C 
BRANCH  10  11
ATOM     11  C   UNL     1     -32.848  12.727  19.153  1.00  0.00    -0.000 C 
BRANCH  11  12
ATOM     12  C   UNL     1     -33.449  11.350  19.489  1.00  0.00    -0.000 C 
BRANCH  12  13
ATOM     13  C   UNL     1     -33.995  11.270  20.925  1.00  0.00    -0.000 C 
BRANCH  13  14
ATOM     14  C   UNL     1     -33.995  12.635  21.632  1.00  0.00    -0.000 C 
BRANCH  14  15
ATOM     15  C   UNL     1     -34.564  12.560  23.060  1.00  0.00    -0.000 C 
BRANCH  15  16
ATOM     16  C   UNL     1     -33.717  11.672  23.984  1.00  0.00    -0.003 C 
ATOM     17  C   UNL     1     -34.417  11.352  25.304  1.00  0.00     0.004 C 
ENDBRANCH  15  16
ENDBRANCH  14  15
ENDBRANCH  13  14
ENDBRANCH  12  13
ENDBRANCH  11  12
ENDBRANCH  10  11
ENDBRANCH   1  10
TORSDOF 13
ENDMDL
MODEL 6
REMARK VINA RESULT:     9.388      1.906      3.559
REMARK INTER + INTRA:          16.124
REMARK INTER:                  16.404
REMARK INTRA:                  -0.280
REMARK UNBOUND:                -0.400
REMARK SMILES CCCCCCCCCCCCCCC(=O)[O-]
REMARK SMILES IDX 9 1 10 2 11 3 12 4 13 5 14 6 15 7 16 8 17 9 8 10 7 11 6 12
REMARK SMILES IDX 5 13 4 14 3 15 2 16 1 17
REMARK H PARENT
REMARK Flexibility Score: inf
ROOT
ATOM      1  C   UNL     1     -33.211  11.298  19.438  1.00  0.00     0.000 C 
ENDROOT
BRANCH   1   2
ATOM      2  C   UNL     1     -33.123  12.817  19.189  1.00  0.00     0.000 C 
BRANCH   2   3
ATOM      3  C   UNL     1     -32.728  13.219  17.757  1.00  0.00     0.000 C 
BRANCH   3   4
ATOM      4  C   UNL     1     -33.890  13.852  16.972  1.00  0.00     0.000 C 
BRANCH   4   5
ATOM      5  C   UNL     1     -34.503  15.063  17.704  1.00  0.00     0.006 C 
BRANCH   5   6
ATOM      6  C   UNL     1     -35.062  16.136  16.755  1.00  0.00     0.053 C 
BRANCH   6   7
ATOM      7  C   UNL     1     -35.684  17.280  17.491  1.00  0.00     0.041 C 
ATOM      8  O   UNL     1     -36.919  17.275  17.741  1.00  0.00    -0.550 OA
ATOM      9  O   UNL     1     -34.898  18.339  17.927  1.00  0.00    -0.550 OA
ENDBRANCH   6   7
ENDBRANCH   5   6
ENDBRANCH   4   5
ENDBRANCH   3   4
ENDBRANCH   2   3
ENDBRANCH   1   2
BRANCH   1  10
ATOM     10  C   UNL     1     -33.831  10.894  20.790  1.00  0.00     0.000 C 
BRANCH  10  11
ATOM     11  C   UNL     1     -33.967   9.375  21.019  1.00  0.00    -0.000 C 
BRANCH  11  12
ATOM     12  C   UNL     1     -33.945   8.933  22.494  1.00  0.00    -0.000 C 
BRANCH  12  13
ATOM     13  C   UNL     1     -34.312   7.450  22.678  1.00  0.00    -0.000 C 
BRANCH  13  14
ATOM     14  C   UNL     1     -34.945   7.165  24.050  1.00  0.00    -0.000 C 
BRANCH  14  15
ATOM     15  C   UNL     1     -34.078   7.671  25.216  1.00  0.00    -0.000 C 
BRANCH  15  16
ATOM     16  C   UNL     1     -34.571   9.015  25.775  1.00  0.00    -0.003 C 
ATOM     17  C   UNL     1     -33.524   9.717  26.639  1.00  0.00     0.004 C 
ENDBRANCH  15  16
ENDBRANCH  14  15
ENDBRANCH  13  14
ENDBRANCH  12  13
ENDBRANCH  11  12
ENDBRANCH  10  11
ENDBRANCH   1  10
TORSDOF 13
ENDMDL
