MODEL 1
REMARK VINA RESULT:    -2.861      0.000      0.000
REMARK INTER + INTRA:          -4.144
REMARK INTER:                  -3.698
REMARK INTRA:                  -0.447
REMARK UNBOUND:                -0.447
REMARK SMILES CCCCCCC(=O)[O-]
REMARK SMILES IDX 5 1 6 2 7 3 8 4 9 5 4 6 3 7 2 8 1 9
REMARK H PARENT
REMARK Flexibility Score: inf
ROOT
ATOM      1  C   UNL     1       1.156   0.823   8.334  1.00  0.00     0.006 C 
ENDROOT
BRANCH   1   2
ATOM      2  C   UNL     1       0.282   1.996   7.881  1.00  0.00     0.053 C 
BRANCH   2   3
ATOM      3  C   UNL     1      -0.234   1.762   6.497  1.00  0.00     0.041 C 
ATOM      4  O   UNL     1      -1.421   2.063   6.203  1.00  0.00    -0.550 OA
ATOM      5  O   UNL     1       0.610   1.256   5.516  1.00  0.00    -0.550 OA
ENDBRANCH   2   3
ENDBRANCH   1   2
BRANCH   1   6
ATOM      6  C   UNL     1       0.298  -0.315   8.900  1.00  0.00     0.000 C 
BRANCH   6   7
ATOM      7  C   UNL     1       0.744  -1.671   8.339  1.00  0.00    -0.000 C 
BRANCH   7   8
ATOM      8  C   UNL     1      -0.023  -2.014   7.056  1.00  0.00    -0.003 C 
ATOM      9  C   UNL     1      -1.497  -1.633   7.177  1.00  0.00     0.004 C 
ENDBRANCH   7   8
ENDBRANCH   6   7
ENDBRANCH   1   6
TORSDOF 5
ENDMDL
MODEL 2
REMARK VINA RESULT:    -2.777      1.587      2.452
REMARK INTER + INTRA:          -4.036
REMARK INTER:                  -3.894
REMARK INTRA:                  -0.142
REMARK UNBOUND:                -0.447
REMARK SMILES CCCCCCC(=O)[O-]
REMARK SMILES IDX 5 1 6 2 7 3 8 4 9 5 4 6 3 7 2 8 1 9
REMARK H PARENT
REMARK Flexibility Score: inf
ROOT
ATOM      1  C   UNL     1       0.385  -0.750   7.063  1.00  0.00     0.006 C 
ENDROOT
BRANCH   1   2
ATOM      2  C   UNL     1      -0.802   0.213   7.147  1.00  0.00     0.053 C 
BRANCH   2   3
ATOM      3  C   UNL     1      -0.590   1.387   6.244  1.00  0.00     0.041 C 
ATOM      4  O   UNL     1       0.411   1.426   5.481  1.00  0.00    -0.550 OA
ATOM      5  O   UNL     1      -1.523   2.416   6.209  1.00  0.00    -0.550 OA
ENDBRANCH   2   3
ENDBRANCH   1   2
BRANCH   1   6
ATOM      6  C   UNL     1       0.115  -2.028   7.866  1.00  0.00     0.000 C 
BRANCH   6   7
ATOM      7  C   UNL     1      -0.423  -3.143   6.961  1.00  0.00    -0.000 C 
BRANCH   7   8
ATOM      8  C   UNL     1       0.053  -4.519   7.442  1.00  0.00    -0.003 C 
ATOM      9  C   UNL     1       1.515  -4.474   7.879  1.00  0.00     0.004 C 
ENDBRANCH   7   8
ENDBRANCH   6   7
ENDBRANCH   1   6
TORSDOF 5
ENDMDL
MODEL 3
REMARK VINA RESULT:    -2.756      1.199      3.009
REMARK INTER + INTRA:          -4.008
REMARK INTER:                  -3.634
REMARK INTRA:                  -0.374
REMARK UNBOUND:                -0.447
REMARK SMILES CCCCCCC(=O)[O-]
REMARK SMILES IDX 5 1 6 2 7 3 8 4 9 5 4 6 3 7 2 8 1 9
REMARK H PARENT
REMARK Flexibility Score: inf
ROOT
ATOM      1  C   UNL     1       0.343  -0.704   7.261  1.00  0.00     0.006 C 
ENDROOT
BRANCH   1   2
ATOM      2  C   UNL     1      -0.946   0.054   6.931  1.00  0.00     0.053 C 
BRANCH   2   3
ATOM      3  C   UNL     1      -0.634   1.345   6.242  1.00  0.00     0.041 C 
ATOM      4  O   UNL     1       0.473   1.502   5.664  1.00  0.00    -0.550 OA
ATOM      5  O   UNL     1      -1.584   2.357   6.196  1.00  0.00    -0.550 OA
ENDBRANCH   2   3
ENDBRANCH   1   2
BRANCH   1   6
ATOM      6  C   UNL     1       0.689  -0.579   8.750  1.00  0.00     0.000 C 
BRANCH   6   7
ATOM      7  C   UNL     1       1.539   0.669   9.015  1.00  0.00    -0.000 C 
BRANCH   7   8
ATOM      8  C   UNL     1       0.778   1.679   9.882  1.00  0.00    -0.003 C 
ATOM      9  C   UNL     1       0.724   3.050   9.214  1.00  0.00     0.004 C 
ENDBRANCH   7   8
ENDBRANCH   6   7
ENDBRANCH   1   6
TORSDOF 5
ENDMDL
MODEL 4
REMARK VINA RESULT:    -2.752      0.948      1.844
REMARK INTER + INTRA:          -4.003
REMARK INTER:                  -3.778
REMARK INTRA:                  -0.226
REMARK UNBOUND:                -0.447
REMARK SMILES CCCCCCC(=O)[O-]
REMARK SMILES IDX 5 1 6 2 7 3 8 4 9 5 4 6 3 7 2 8 1 9
REMARK H PARENT
REMARK Flexibility Score: inf
ROOT
ATOM      1  C   UNL     1       1.148   0.348   7.895  1.00  0.00     0.006 C 
ENDROOT
BRANCH   1   2
ATOM      2  C   UNL     1      -0.022   1.337   7.885  1.00  0.00     0.053 C 
BRANCH   2   3
ATOM      3  C   UNL     1      -0.353   1.744   6.485  1.00  0.00     0.041 C 
ATOM      4  O   UNL     1       0.382   1.382   5.529  1.00  0.00    -0.550 OA
ATOM      5  O   UNL     1      -1.501   2.483   6.228  1.00  0.00    -0.550 OA
ENDBRANCH   2   3
ENDBRANCH   1   2
BRANCH   1   6
ATOM      6  C   UNL     1       0.725  -1.000   8.488  1.00  0.00     0.000 C 
BRANCH   6   7
ATOM      7  C   UNL     1       0.008  -1.861   7.442  1.00  0.00    -0.000 C 
BRANCH   7   8
ATOM      8  C   UNL     1       0.451  -3.326   7.538  1.00  0.00    -0.003 C 
ATOM      9  C   UNL     1       1.492  -3.516   8.638  1.00  0.00     0.004 C 
ENDBRANCH   7   8
ENDBRANCH   6   7
ENDBRANCH   1   6
TORSDOF 5
ENDMDL
MODEL 5
REMARK VINA RESULT:    -2.568     12.484     13.656
REMARK INTER + INTRA:          -3.765
REMARK INTER:                  -3.537
REMARK INTRA:                  -0.228
REMARK UNBOUND:                -0.447
REMARK SMILES CCCCCCC(=O)[O-]
REMARK SMILES IDX 5 1 6 2 7 3 8 4 9 5 4 6 3 7 2 8 1 9
REMARK H PARENT
REMARK Flexibility Score: inf
ROOT
ATOM      1  C   UNL     1      -5.838  -1.128  -4.747  1.00  0.00     0.006 C 
ENDROOT
BRANCH   1   2
ATOM      2  C   UNL     1      -5.874  -2.559  -4.201  1.00  0.00     0.053 C 
BRANCH   2   3
ATOM      3  C   UNL     1      -5.959  -3.546  -5.322  1.00  0.00     0.041 C 
ATOM      4  O   UNL     1      -7.040  -3.704  -5.946  1.00  0.00    -0.550 OA
ATOM      5  O   UNL     1      -4.830  -4.256  -5.711  1.00  0.00    -0.550 OA
ENDBRANCH   2   3
ENDBRANCH   1   2
BRANCH   1   6
ATOM      6  C   UNL     1      -6.484  -0.147  -3.763  1.00  0.00     0.000 C 
BRANCH   6   7
ATOM      7  C   UNL     1      -7.683  -0.789  -3.054  1.00  0.00    -0.000 C 
BRANCH   7   8
ATOM      8  C   UNL     1      -7.734  -0.376  -1.578  1.00  0.00    -0.003 C 
ATOM      9  C   UNL     1      -8.147  -1.548  -0.692  1.00  0.00     0.004 C 
ENDBRANCH   7   8
ENDBRANCH   6   7
ENDBRANCH   1   6
TORSDOF 5
ENDMDL
MODEL 6
REMARK VINA RESULT:    -2.518      2.139      3.543
REMARK INTER + INTRA:          -3.701
REMARK INTER:                  -3.424
REMARK INTRA:                  -0.276
REMARK UNBOUND:                -0.447
REMARK SMILES CCCCCCC(=O)[O-]
REMARK SMILES IDX 5 1 6 2 7 3 8 4 9 5 4 6 3 7 2 8 1 9
REMARK H PARENT
REMARK Flexibility Score: inf
ROOT
ATOM      1  C   UNL     1       0.032   2.563   8.090  1.00  0.00     0.006 C 
ENDROOT
BRANCH   1   2
ATOM      2  C   UNL     1       0.901   1.318   7.886  1.00  0.00     0.053 C 
BRANCH   2   3
ATOM      3  C   UNL     1       0.562   0.648   6.593  1.00  0.00     0.041 C 
ATOM      4  O   UNL     1       0.574   1.302   5.518  1.00  0.00    -0.550 OA
ATOM      5  O   UNL     1       0.280  -0.713   6.568  1.00  0.00    -0.550 OA
ENDBRANCH   2   3
ENDBRANCH   1   2
BRANCH   1   6
ATOM      6  C   UNL     1      -1.369   2.180   8.581  1.00  0.00     0.000 C 
BRANCH   6   7
ATOM      7  C   UNL     1      -2.444   3.035   7.898  1.00  0.00    -0.000 C 
BRANCH   7   8
ATOM      8  C   UNL     1      -2.565   2.680   6.411  1.00  0.00    -0.003 C 
ATOM      9  C   UNL     1      -4.027   2.542   5.996  1.00  0.00     0.004 C 
ENDBRANCH   7   8
ENDBRANCH   6   7
ENDBRANCH   1   6
TORSDOF 5
ENDMDL
MODEL 7
REMARK VINA RESULT:    -2.449     10.359     11.246
REMARK INTER + INTRA:          -3.611
REMARK INTER:                  -3.238
REMARK INTRA:                  -0.373
REMARK UNBOUND:                -0.447
REMARK SMILES CCCCCCC(=O)[O-]
REMARK SMILES IDX 5 1 6 2 7 3 8 4 9 5 4 6 3 7 2 8 1 9
REMARK H PARENT
REMARK Flexibility Score: inf
ROOT
ATOM      1  C   UNL     1       1.440   6.359  -0.330  1.00  0.00     0.006 C 
ENDROOT
BRANCH   1   2
ATOM      2  C   UNL     1       1.472   7.441  -1.413  1.00  0.00     0.053 C 
BRANCH   2   3
ATOM      3  C   UNL     1       0.331   7.266  -2.363  1.00  0.00     0.041 C 
ATOM      4  O   UNL     1      -0.767   7.843  -2.147  1.00  0.00    -0.550 OA
ATOM      5  O   UNL     1       0.494   6.505  -3.514  1.00  0.00    -0.550 OA
ENDBRANCH   2   3
ENDBRANCH   1   2
BRANCH   1   6
ATOM      6  C   UNL     1       2.258   5.133  -0.752  1.00  0.00     0.000 C 
BRANCH   6   7
ATOM      7  C   UNL     1       3.691   5.530  -1.127  1.00  0.00    -0.000 C 
BRANCH   7   8
ATOM      8  C   UNL     1       4.039   5.061  -2.545  1.00  0.00    -0.003 C 
ATOM      9  C   UNL     1       3.006   4.064  -3.063  1.00  0.00     0.004 C 
ENDBRANCH   7   8
ENDBRANCH   6   7
ENDBRANCH   1   6
TORSDOF 5
ENDMDL
MODEL 8
REMARK VINA RESULT:    -2.428     13.466     14.402
REMARK INTER + INTRA:          -3.585
REMARK INTER:                  -3.352
REMARK INTRA:                  -0.233
REMARK UNBOUND:                -0.447
REMARK SMILES CCCCCCC(=O)[O-]
REMARK SMILES IDX 5 1 6 2 7 3 8 4 9 5 4 6 3 7 2 8 1 9
REMARK H PARENT
REMARK Flexibility Score: inf
ROOT
ATOM      1  C   UNL     1      -7.245  -2.278  -3.899  1.00  0.00     0.006 C 
ENDROOT
BRANCH   1   2
ATOM      2  C   UNL     1      -6.487  -3.608  -3.846  1.00  0.00     0.053 C 
BRANCH   2   3
ATOM      3  C   UNL     1      -6.149  -4.074  -5.226  1.00  0.00     0.041 C 
ATOM      4  O   UNL     1      -7.065  -4.384  -6.032  1.00  0.00    -0.550 OA
ATOM      5  O   UNL     1      -4.823  -4.120  -5.640  1.00  0.00    -0.550 OA
ENDBRANCH   2   3
ENDBRANCH   1   2
BRANCH   1   6
ATOM      6  C   UNL     1      -6.274  -1.092  -3.909  1.00  0.00     0.000 C 
BRANCH   6   7
ATOM      7  C   UNL     1      -6.343  -0.336  -5.241  1.00  0.00    -0.000 C 
BRANCH   7   8
ATOM      8  C   UNL     1      -7.137   0.968  -5.093  1.00  0.00    -0.003 C 
ATOM      9  C   UNL     1      -7.008   1.534  -3.682  1.00  0.00     0.004 C 
ENDBRANCH   7   8
ENDBRANCH   6   7
ENDBRANCH   1   6
TORSDOF 5
ENDMDL
MODEL 9
REMARK VINA RESULT:    -2.370      3.289      4.540
REMARK INTER + INTRA:          -3.510
REMARK INTER:                  -3.306
REMARK INTRA:                  -0.204
REMARK UNBOUND:                -0.447
REMARK SMILES CCCCCCC(=O)[O-]
REMARK SMILES IDX 5 1 6 2 7 3 8 4 9 5 4 6 3 7 2 8 1 9
REMARK H PARENT
REMARK Flexibility Score: inf
ROOT
ATOM      1  C   UNL     1      -1.816   2.628   6.755  1.00  0.00     0.006 C 
ENDROOT
BRANCH   1   2
ATOM      2  C   UNL     1      -1.566   1.123   6.887  1.00  0.00     0.053 C 
BRANCH   2   3
ATOM      3  C   UNL     1      -0.233   0.761   6.312  1.00  0.00     0.041 C 
ATOM      4  O   UNL     1       0.385   1.579   5.582  1.00  0.00    -0.550 OA
ATOM      5  O   UNL     1       0.350  -0.462   6.623  1.00  0.00    -0.550 OA
ENDBRANCH   2   3
ENDBRANCH   1   2
BRANCH   1   6
ATOM      6  C   UNL     1      -3.182   2.906   6.119  1.00  0.00     0.000 C 
BRANCH   6   7
ATOM      7  C   UNL     1      -3.978   1.607   5.935  1.00  0.00    -0.000 C 
BRANCH   7   8
ATOM      8  C   UNL     1      -4.913   1.702   4.724  1.00  0.00    -0.003 C 
ATOM      9  C   UNL     1      -6.018   2.728   4.960  1.00  0.00     0.004 C 
ENDBRANCH   7   8
ENDBRANCH   6   7
ENDBRANCH   1   6
TORSDOF 5
ENDMDL
