MODEL 1
REMARK VINA RESULT:     3.320      0.000      0.000
REMARK INTER + INTRA:           3.813
REMARK INTER:                   4.096
REMARK INTRA:                  -0.283
REMARK UNBOUND:                -0.283
REMARK SMILES O=c1c(O)c(-c2cc(O)c(O)c(O)c2)oc2cc(O)cc(O)c12
REMARK SMILES IDX 5 1 3 2 2 3 1 4 23 5 21 6 20 7 18 8 17 9 16 10 15 11 6 12
REMARK SMILES IDX 7 13 8 14 14 15 10 16 12 17 9 18 11 20 13 22 4 24 22 26
REMARK SMILES IDX 19 28
REMARK H PARENT 9 19 11 21 13 23 4 25 22 27 19 29
REMARK Flexibility Score: inf
ROOT
ATOM      1  C   UNL     1     167.326 163.664 153.692  1.00  0.00     0.180 A 
ATOM      2  C   UNL     1     167.421 164.849 154.441  1.00  0.00     0.208 A 
ATOM      3  C   UNL     1     167.364 164.775 155.842  1.00  0.00     0.238 A 
ATOM      4  O   UNL     1     167.396 165.844 156.506  1.00  0.00    -0.285 OA
ATOM      5  C   UNL     1     167.230 163.517 156.476  1.00  0.00     0.111 A 
ATOM      6  C   UNL     1     167.204 163.320 157.889  1.00  0.00     0.134 A 
ATOM      7  C   UNL     1     166.935 162.046 158.405  1.00  0.00     0.093 A 
ATOM      8  C   UNL     1     166.759 160.950 157.560  1.00  0.00     0.123 A 
ATOM      9  C   UNL     1     166.843 161.120 156.178  1.00  0.00     0.094 A 
ATOM     10  C   UNL     1     167.073 162.386 155.633  1.00  0.00     0.146 A 
ATOM     11  O   UNL     1     167.135 162.507 154.313  1.00  0.00    -0.452 OA
ENDROOT
BRANCH   1  12
ATOM     12  C   UNL     1     167.402 163.660 152.213  1.00  0.00     0.029 A 
ATOM     13  C   UNL     1     168.586 163.244 151.583  1.00  0.00     0.062 A 
ATOM     14  C   UNL     1     168.690 163.251 150.185  1.00  0.00     0.162 A 
ATOM     15  C   UNL     1     166.334 164.119 151.424  1.00  0.00     0.062 A 
ATOM     16  C   UNL     1     167.614 163.690 149.405  1.00  0.00     0.200 A 
ATOM     17  C   UNL     1     166.433 164.130 150.026  1.00  0.00     0.162 A 
BRANCH  14  18
ATOM     18  O   UNL     1     169.863 162.823 149.565  1.00  0.00    -0.504 OA
ATOM     19  H   UNL     1     169.847 162.139 148.817  1.00  0.00     0.293 HD
ENDBRANCH  14  18
BRANCH  16  20
ATOM     20  O   UNL     1     167.735 163.688 148.014  1.00  0.00    -0.502 OA
ATOM     21  H   UNL     1     167.113 163.153 147.421  1.00  0.00     0.293 HD
ENDBRANCH  16  20
BRANCH  17  22
ATOM     22  O   UNL     1     165.365 164.582 149.252  1.00  0.00    -0.504 OA
ATOM     23  H   UNL     1     164.543 165.000 149.673  1.00  0.00     0.293 HD
ENDBRANCH  17  22
ENDBRANCH   1  12
BRANCH   2  24
ATOM     24  O   UNL     1     167.531 166.083 153.794  1.00  0.00    -0.502 OA
ATOM     25  H   UNL     1     168.086 166.212 152.956  1.00  0.00     0.293 HD
ENDBRANCH   2  24
BRANCH   6  26
ATOM     26  O   UNL     1     167.458 164.330 158.823  1.00  0.00    -0.507 OA
ATOM     27  H   UNL     1     168.122 164.260 159.579  1.00  0.00     0.293 HD
ENDBRANCH   6  26
BRANCH   8  28
ATOM     28  O   UNL     1     166.510 159.693 158.108  1.00  0.00    -0.508 OA
ATOM     29  H   UNL     1     166.224 159.584 159.074  1.00  0.00     0.293 HD
ENDBRANCH   8  28
TORSDOF 7
ENDMDL
MODEL 2
REMARK VINA RESULT:     4.330      1.565      7.596
REMARK INTER + INTRA:           5.059
REMARK INTER:                   5.106
REMARK INTRA:                  -0.047
REMARK UNBOUND:                -0.283
REMARK SMILES O=c1c(O)c(-c2cc(O)c(O)c(O)c2)oc2cc(O)cc(O)c12
REMARK SMILES IDX 5 1 3 2 2 3 1 4 23 5 21 6 20 7 18 8 17 9 16 10 15 11 6 12
REMARK SMILES IDX 7 13 8 14 14 15 10 16 12 17 9 18 11 20 13 22 4 24 22 26
REMARK SMILES IDX 19 28
REMARK H PARENT 9 19 11 21 13 23 4 25 22 27 19 29
REMARK Flexibility Score: inf
ROOT
ATOM      1  C   UNL     1     167.454 164.044 152.066  1.00  0.00     0.180 A 
ATOM      2  C   UNL     1     168.434 163.289 151.400  1.00  0.00     0.208 A 
ATOM      3  C   UNL     1     168.471 163.309 149.996  1.00  0.00     0.238 A 
ATOM      4  O   UNL     1     169.316 162.589 149.403  1.00  0.00    -0.285 OA
ATOM      5  C   UNL     1     167.540 164.096 149.277  1.00  0.00     0.111 A 
ATOM      6  C   UNL     1     167.511 164.224 147.857  1.00  0.00     0.134 A 
ATOM      7  C   UNL     1     166.464 164.925 147.246  1.00  0.00     0.093 A 
ATOM      8  C   UNL     1     165.483 165.560 148.007  1.00  0.00     0.123 A 
ATOM      9  C   UNL     1     165.535 165.492 149.400  1.00  0.00     0.094 A 
ATOM     10  C   UNL     1     166.546 164.769 150.036  1.00  0.00     0.146 A 
ATOM     11  O   UNL     1     166.554 164.720 151.363  1.00  0.00    -0.452 OA
ENDROOT
BRANCH   1  12
ATOM     12  C   UNL     1     167.367 164.092 153.544  1.00  0.00     0.029 A 
ATOM     13  C   UNL     1     167.411 165.333 154.198  1.00  0.00     0.062 A 
ATOM     14  C   UNL     1     167.352 165.404 155.597  1.00  0.00     0.162 A 
ATOM     15  C   UNL     1     167.302 162.917 154.311  1.00  0.00     0.062 A 
ATOM     16  C   UNL     1     167.265 164.230 156.354  1.00  0.00     0.200 A 
ATOM     17  C   UNL     1     167.245 162.981 155.710  1.00  0.00     0.162 A 
BRANCH  14  18
ATOM     18  O   UNL     1     167.379 166.640 156.241  1.00  0.00    -0.504 OA
ATOM     19  H   UNL     1     166.641 166.925 156.873  1.00  0.00     0.293 HD
ENDBRANCH  14  18
BRANCH  16  20
ATOM     20  O   UNL     1     167.205 164.320 157.746  1.00  0.00    -0.502 OA
ATOM     21  H   UNL     1     167.349 163.516 158.344  1.00  0.00     0.293 HD
ENDBRANCH  16  20
BRANCH  17  22
ATOM     22  O   UNL     1     167.173 161.810 156.463  1.00  0.00    -0.504 OA
ATOM     23  H   UNL     1     166.307 161.508 156.894  1.00  0.00     0.293 HD
ENDBRANCH  17  22
ENDBRANCH   1  12
BRANCH   2  24
ATOM     24  O   UNL     1     169.330 162.501 152.127  1.00  0.00    -0.502 OA
ATOM     25  H   UNL     1     169.028 161.726 152.706  1.00  0.00     0.293 HD
ENDBRANCH   2  24
BRANCH   6  26
ATOM     26  O   UNL     1     168.494 163.706 147.007  1.00  0.00    -0.507 OA
ATOM     27  H   UNL     1     169.487 163.768 147.172  1.00  0.00     0.293 HD
ENDBRANCH   6  26
BRANCH   8  28
ATOM     28  O   UNL     1     164.464 166.263 147.367  1.00  0.00    -0.508 OA
ATOM     29  H   UNL     1     164.650 167.125 146.867  1.00  0.00     0.293 HD
ENDBRANCH   8  28
TORSDOF 7
ENDMDL
MODEL 3
REMARK VINA RESULT:     4.661      2.058      4.078
REMARK INTER + INTRA:           5.467
REMARK INTER:                   5.466
REMARK INTRA:                   0.001
REMARK UNBOUND:                -0.283
REMARK SMILES O=c1c(O)c(-c2cc(O)c(O)c(O)c2)oc2cc(O)cc(O)c12
REMARK SMILES IDX 5 1 3 2 2 3 1 4 23 5 21 6 20 7 18 8 17 9 16 10 15 11 6 12
REMARK SMILES IDX 7 13 8 14 14 15 10 16 12 17 9 18 11 20 13 22 4 24 22 26
REMARK SMILES IDX 19 28
REMARK H PARENT 9 19 11 21 13 23 4 25 22 27 19 29
REMARK Flexibility Score: inf
ROOT
ATOM      1  C   UNL     1     167.094 164.653 152.274  1.00  0.00     0.180 A 
ATOM      2  C   UNL     1     167.126 163.523 153.108  1.00  0.00     0.208 A 
ATOM      3  C   UNL     1     167.226 163.704 154.498  1.00  0.00     0.238 A 
ATOM      4  O   UNL     1     167.309 162.688 155.236  1.00  0.00    -0.285 OA
ATOM      5  C   UNL     1     167.277 165.012 155.035  1.00  0.00     0.111 A 
ATOM      6  C   UNL     1     167.337 165.314 156.428  1.00  0.00     0.134 A 
ATOM      7  C   UNL     1     167.516 166.641 156.841  1.00  0.00     0.093 A 
ATOM      8  C   UNL     1     167.569 167.682 155.915  1.00  0.00     0.123 A 
ATOM      9  C   UNL     1     167.450 167.404 154.552  1.00  0.00     0.094 A 
ATOM     10  C   UNL     1     167.308 166.087 154.109  1.00  0.00     0.146 A 
ATOM     11  O   UNL     1     167.209 165.865 152.804  1.00  0.00    -0.452 OA
ENDROOT
BRANCH   1  12
ATOM     12  C   UNL     1     166.965 164.542 150.803  1.00  0.00     0.029 A 
ATOM     13  C   UNL     1     165.962 165.268 150.141  1.00  0.00     0.062 A 
ATOM     14  C   UNL     1     165.806 165.164 148.752  1.00  0.00     0.162 A 
ATOM     15  C   UNL     1     167.787 163.678 150.060  1.00  0.00     0.062 A 
ATOM     16  C   UNL     1     166.643 164.318 148.014  1.00  0.00     0.200 A 
ATOM     17  C   UNL     1     167.634 163.568 148.671  1.00  0.00     0.162 A 
BRANCH  14  18
ATOM     18  O   UNL     1     164.819 165.900 148.098  1.00  0.00    -0.504 OA
ATOM     19  H   UNL     1     165.042 166.512 147.322  1.00  0.00     0.293 HD
ENDBRANCH  14  18
BRANCH  16  20
ATOM     20  O   UNL     1     166.474 164.229 146.632  1.00  0.00    -0.502 OA
ATOM     21  H   UNL     1     165.616 163.889 146.215  1.00  0.00     0.293 HD
ENDBRANCH  16  20
BRANCH  17  22
ATOM     22  O   UNL     1     168.460 162.714 147.941  1.00  0.00    -0.504 OA
ATOM     23  H   UNL     1     168.474 161.715 148.112  1.00  0.00     0.293 HD
ENDBRANCH  17  22
ENDBRANCH   1  12
BRANCH   2  24
ATOM     24  O   UNL     1     167.097 162.239 152.556  1.00  0.00    -0.502 OA
ATOM     25  H   UNL     1     167.383 161.417 153.074  1.00  0.00     0.293 HD
ENDBRANCH   2  24
BRANCH   6  26
ATOM     26  O   UNL     1     167.202 164.359 157.440  1.00  0.00    -0.507 OA
ATOM     27  H   UNL     1     167.955 164.030 158.025  1.00  0.00     0.293 HD
ENDBRANCH   6  26
BRANCH   8  28
ATOM     28  O   UNL     1     167.731 168.992 156.362  1.00  0.00    -0.508 OA
ATOM     29  H   UNL     1     168.040 169.195 157.305  1.00  0.00     0.293 HD
ENDBRANCH   8  28
TORSDOF 7
ENDMDL
MODEL 4
REMARK VINA RESULT:     4.842      2.024      3.673
REMARK INTER + INTRA:           5.690
REMARK INTER:                   5.709
REMARK INTRA:                  -0.018
REMARK UNBOUND:                -0.283
REMARK SMILES O=c1c(O)c(-c2cc(O)c(O)c(O)c2)oc2cc(O)cc(O)c12
REMARK SMILES IDX 5 1 3 2 2 3 1 4 23 5 21 6 20 7 18 8 17 9 16 10 15 11 6 12
REMARK SMILES IDX 7 13 8 14 14 15 10 16 12 17 9 18 11 20 13 22 4 24 22 26
REMARK SMILES IDX 19 28
REMARK H PARENT 9 19 11 21 13 23 4 25 22 27 19 29
REMARK Flexibility Score: inf
ROOT
ATOM      1  C   UNL     1     167.045 164.595 152.294  1.00  0.00     0.180 A 
ATOM      2  C   UNL     1     167.091 163.460 153.121  1.00  0.00     0.208 A 
ATOM      3  C   UNL     1     167.212 163.633 154.510  1.00  0.00     0.238 A 
ATOM      4  O   UNL     1     167.307 162.613 155.240  1.00  0.00    -0.285 OA
ATOM      5  C   UNL     1     167.268 164.938 155.054  1.00  0.00     0.111 A 
ATOM      6  C   UNL     1     167.348 165.232 156.448  1.00  0.00     0.134 A 
ATOM      7  C   UNL     1     167.530 166.556 156.867  1.00  0.00     0.093 A 
ATOM      8  C   UNL     1     167.567 167.603 155.946  1.00  0.00     0.123 A 
ATOM      9  C   UNL     1     167.430 167.333 154.584  1.00  0.00     0.094 A 
ATOM     10  C   UNL     1     167.283 166.019 154.134  1.00  0.00     0.146 A 
ATOM     11  O   UNL     1     167.166 165.804 152.829  1.00  0.00    -0.452 OA
ENDROOT
BRANCH   1  12
ATOM     12  C   UNL     1     166.895 164.493 150.824  1.00  0.00     0.029 A 
ATOM     13  C   UNL     1     167.783 163.687 150.094  1.00  0.00     0.062 A 
ATOM     14  C   UNL     1     167.674 163.590 148.700  1.00  0.00     0.162 A 
ATOM     15  C   UNL     1     165.919 165.232 150.135  1.00  0.00     0.062 A 
ATOM     16  C   UNL     1     166.685 164.313 148.022  1.00  0.00     0.200 A 
ATOM     17  C   UNL     1     165.807 165.141 148.742  1.00  0.00     0.162 A 
BRANCH  14  18
ATOM     18  O   UNL     1     168.548 162.776 147.981  1.00  0.00    -0.504 OA
ATOM     19  H   UNL     1     169.173 162.127 148.447  1.00  0.00     0.293 HD
ENDBRANCH  14  18
BRANCH  16  20
ATOM     20  O   UNL     1     166.592 164.202 146.634  1.00  0.00    -0.502 OA
ATOM     21  H   UNL     1     165.913 164.728 146.096  1.00  0.00     0.293 HD
ENDBRANCH  16  20
BRANCH  17  22
ATOM     22  O   UNL     1     164.831 165.874 148.068  1.00  0.00    -0.504 OA
ATOM     23  H   UNL     1     164.934 166.867 147.899  1.00  0.00     0.293 HD
ENDBRANCH  17  22
ENDBRANCH   1  12
BRANCH   2  24
ATOM     24  O   UNL     1     167.057 162.180 152.561  1.00  0.00    -0.502 OA
ATOM     25  H   UNL     1     166.215 161.782 152.163  1.00  0.00     0.293 HD
ENDBRANCH   2  24
BRANCH   6  26
ATOM     26  O   UNL     1     167.229 164.270 157.456  1.00  0.00    -0.507 OA
ATOM     27  H   UNL     1     166.629 164.353 158.263  1.00  0.00     0.293 HD
ENDBRANCH   6  26
BRANCH   8  28
ATOM     28  O   UNL     1     167.733 168.911 156.398  1.00  0.00    -0.508 OA
ATOM     29  H   UNL     1     167.437 169.705 155.843  1.00  0.00     0.293 HD
ENDBRANCH   8  28
TORSDOF 7
ENDMDL
