MODEL 1
REMARK VINA RESULT:    -4.817      0.000      0.000
REMARK INTER + INTRA:         -12.240
REMARK INTER:                  -9.323
REMARK INTRA:                  -2.917
REMARK UNBOUND:                -2.917
REMARK SMILES CCCCCCCCCCCCCCCCCC(=O)[O-]
REMARK SMILES IDX 10 1 11 2 12 3 13 4 14 5 15 6 16 7 17 8 18 9 19 10 20 11
REMARK SMILES IDX 9 12 8 13 7 14 6 15 5 16 4 17 3 18 2 19 1 20
REMARK H PARENT
REMARK Flexibility Score: inf
ROOT
ATOM      1  C   UNL     1     -48.213  26.026 -15.081  1.00  0.00     0.000 C 
ENDROOT
BRANCH   1   2
ATOM      2  C   UNL     1     -47.562  25.154 -13.996  1.00  0.00     0.000 C 
BRANCH   2   3
ATOM      3  C   UNL     1     -46.130  25.616 -13.704  1.00  0.00     0.000 C 
BRANCH   3   4
ATOM      4  C   UNL     1     -46.009  27.140 -13.818  1.00  0.00     0.000 C 
BRANCH   4   5
ATOM      5  C   UNL     1     -44.938  27.531 -14.847  1.00  0.00     0.000 C 
BRANCH   5   6
ATOM      6  C   UNL     1     -45.455  28.538 -15.887  1.00  0.00     0.000 C 
BRANCH   6   7
ATOM      7  C   UNL     1     -45.447  27.967 -17.316  1.00  0.00     0.006 C 
BRANCH   7   8
ATOM      8  C   UNL     1     -44.817  26.569 -17.378  1.00  0.00     0.053 C 
BRANCH   8   9
ATOM      9  C   UNL     1     -44.945  25.963 -18.742  1.00  0.00     0.041 C 
ATOM     10  O   UNL     1     -45.558  24.875 -18.898  1.00  0.00    -0.550 OA
ATOM     11  O   UNL     1     -44.409  26.615 -19.846  1.00  0.00    -0.550 OA
ENDBRANCH   8   9
ENDBRANCH   7   8
ENDBRANCH   6   7
ENDBRANCH   5   6
ENDBRANCH   4   5
ENDBRANCH   3   4
ENDBRANCH   2   3
ENDBRANCH   1   2
BRANCH   1  12
ATOM     12  C   UNL     1     -48.199  25.351 -16.469  1.00  0.00     0.000 C 
BRANCH  12  13
ATOM     13  C   UNL     1     -48.688  26.264 -17.609  1.00  0.00    -0.000 C 
BRANCH  13  14
ATOM     14  C   UNL     1     -49.187  27.653 -17.168  1.00  0.00    -0.000 C 
BRANCH  14  15
ATOM     15  C   UNL     1     -50.718  27.811 -17.121  1.00  0.00    -0.000 C 
BRANCH  15  16
ATOM     16  C   UNL     1     -51.221  28.348 -15.770  1.00  0.00    -0.000 C 
BRANCH  16  17
ATOM     17  C   UNL     1     -51.869  27.258 -14.897  1.00  0.00    -0.000 C 
BRANCH  17  18
ATOM     18  C   UNL     1     -51.932  25.854 -15.532  1.00  0.00    -0.000 C 
BRANCH  18  19
ATOM     19  C   UNL     1     -52.025  24.690 -14.529  1.00  0.00    -0.003 C 
ATOM     20  C   UNL     1     -51.140  23.504 -14.909  1.00  0.00     0.004 C 
ENDBRANCH  18  19
ENDBRANCH  17  18
ENDBRANCH  16  17
ENDBRANCH  15  16
ENDBRANCH  14  15
ENDBRANCH  13  14
ENDBRANCH  12  13
ENDBRANCH   1  12
TORSDOF 16
ENDMDL
MODEL 2
REMARK VINA RESULT:    -4.726      2.743      6.525
REMARK INTER + INTRA:         -12.064
REMARK INTER:                  -9.359
REMARK INTRA:                  -2.705
REMARK UNBOUND:                -2.917
REMARK SMILES CCCCCCCCCCCCCCCCCC(=O)[O-]
REMARK SMILES IDX 10 1 11 2 12 3 13 4 14 5 15 6 16 7 17 8 18 9 19 10 20 11
REMARK SMILES IDX 9 12 8 13 7 14 6 15 5 16 4 17 3 18 2 19 1 20
REMARK H PARENT
REMARK Flexibility Score: inf
ROOT
ATOM      1  C   UNL     1     -48.208  25.328 -16.173  1.00  0.00     0.000 C 
ENDROOT
BRANCH   1   2
ATOM      2  C   UNL     1     -48.578  26.339 -17.270  1.00  0.00     0.000 C 
BRANCH   2   3
ATOM      3  C   UNL     1     -48.425  27.779 -16.766  1.00  0.00     0.000 C 
BRANCH   3   4
ATOM      4  C   UNL     1     -49.706  28.586 -17.007  1.00  0.00     0.000 C 
BRANCH   4   5
ATOM      5  C   UNL     1     -50.947  27.683 -16.934  1.00  0.00     0.000 C 
BRANCH   5   6
ATOM      6  C   UNL     1     -51.855  28.019 -15.742  1.00  0.00     0.000 C 
BRANCH   6   7
ATOM      7  C   UNL     1     -52.078  26.814 -14.811  1.00  0.00     0.006 C 
BRANCH   7   8
ATOM      8  C   UNL     1     -51.816  25.478 -15.520  1.00  0.00     0.053 C 
BRANCH   8   9
ATOM      9  C   UNL     1     -52.153  24.310 -14.644  1.00  0.00     0.041 C 
ATOM     10  O   UNL     1     -53.089  24.393 -13.807  1.00  0.00    -0.550 OA
ATOM     11  O   UNL     1     -51.449  23.119 -14.773  1.00  0.00    -0.550 OA
ENDBRANCH   8   9
ENDBRANCH   7   8
ENDBRANCH   6   7
ENDBRANCH   5   6
ENDBRANCH   4   5
ENDBRANCH   3   4
ENDBRANCH   2   3
ENDBRANCH   1   2
BRANCH   1  12
ATOM     12  C   UNL     1     -48.220  25.956 -14.763  1.00  0.00     0.000 C 
BRANCH  12  13
ATOM     13  C   UNL     1     -47.231  25.299 -13.781  1.00  0.00    -0.000 C 
BRANCH  13  14
ATOM     14  C   UNL     1     -45.814  25.906 -13.774  1.00  0.00    -0.000 C 
BRANCH  14  15
ATOM     15  C   UNL     1     -45.764  27.445 -13.775  1.00  0.00    -0.000 C 
BRANCH  15  16
ATOM     16  C   UNL     1     -45.050  28.018 -15.010  1.00  0.00    -0.000 C 
BRANCH  16  17
ATOM     17  C   UNL     1     -44.816  26.965 -16.109  1.00  0.00    -0.000 C 
BRANCH  17  18
ATOM     18  C   UNL     1     -44.801  27.507 -17.552  1.00  0.00    -0.000 C 
BRANCH  18  19
ATOM     19  C   UNL     1     -44.330  26.504 -18.620  1.00  0.00    -0.003 C 
ATOM     20  C   UNL     1     -45.347  25.393 -18.881  1.00  0.00     0.004 C 
ENDBRANCH  18  19
ENDBRANCH  17  18
ENDBRANCH  16  17
ENDBRANCH  15  16
ENDBRANCH  14  15
ENDBRANCH  13  14
ENDBRANCH  12  13
ENDBRANCH   1  12
TORSDOF 16
ENDMDL
MODEL 3
REMARK VINA RESULT:    -4.661      2.738      6.025
REMARK INTER + INTRA:         -11.938
REMARK INTER:                  -9.212
REMARK INTRA:                  -2.726
REMARK UNBOUND:                -2.917
REMARK SMILES CCCCCCCCCCCCCCCCCC(=O)[O-]
REMARK SMILES IDX 10 1 11 2 12 3 13 4 14 5 15 6 16 7 17 8 18 9 19 10 20 11
REMARK SMILES IDX 9 12 8 13 7 14 6 15 5 16 4 17 3 18 2 19 1 20
REMARK H PARENT
REMARK Flexibility Score: inf
ROOT
ATOM      1  C   UNL     1     -48.108  26.256 -17.500  1.00  0.00     0.000 C 
ENDROOT
BRANCH   1   2
ATOM      2  C   UNL     1     -48.065  27.715 -17.979  1.00  0.00     0.000 C 
BRANCH   2   3
ATOM      3  C   UNL     1     -48.998  28.598 -17.142  1.00  0.00     0.000 C 
BRANCH   3   4
ATOM      4  C   UNL     1     -48.874  28.269 -15.650  1.00  0.00     0.000 C 
BRANCH   4   5
ATOM      5  C   UNL     1     -50.257  28.192 -14.987  1.00  0.00     0.000 C 
BRANCH   5   6
ATOM      6  C   UNL     1     -51.371  27.826 -15.980  1.00  0.00     0.000 C 
BRANCH   6   7
ATOM      7  C   UNL     1     -52.095  26.522 -15.603  1.00  0.00     0.006 C 
BRANCH   7   8
ATOM      8  C   UNL     1     -51.124  25.448 -15.094  1.00  0.00     0.053 C 
BRANCH   8   9
ATOM      9  C   UNL     1     -51.840  24.186 -14.719  1.00  0.00     0.041 C 
ATOM     10  O   UNL     1     -52.910  24.236 -14.058  1.00  0.00    -0.550 OA
ATOM     11  O   UNL     1     -51.338  22.955 -15.124  1.00  0.00    -0.550 OA
ENDBRANCH   8   9
ENDBRANCH   7   8
ENDBRANCH   6   7
ENDBRANCH   5   6
ENDBRANCH   4   5
ENDBRANCH   3   4
ENDBRANCH   2   3
ENDBRANCH   1   2
BRANCH   1  12
ATOM     12  C   UNL     1     -46.884  25.442 -17.972  1.00  0.00     0.000 C 
BRANCH  12  13
ATOM     13  C   UNL     1     -45.877  26.259 -18.803  1.00  0.00    -0.000 C 
BRANCH  13  14
ATOM     14  C   UNL     1     -44.519  26.514 -18.121  1.00  0.00    -0.000 C 
BRANCH  14  15
ATOM     15  C   UNL     1     -44.256  27.978 -17.719  1.00  0.00    -0.000 C 
BRANCH  15  16
ATOM     16  C   UNL     1     -44.765  28.309 -16.306  1.00  0.00    -0.000 C 
BRANCH  16  17
ATOM     17  C   UNL     1     -44.730  27.097 -15.357  1.00  0.00    -0.000 C 
BRANCH  17  18
ATOM     18  C   UNL     1     -45.789  27.104 -14.236  1.00  0.00    -0.000 C 
BRANCH  18  19
ATOM     19  C   UNL     1     -46.112  25.723 -13.637  1.00  0.00    -0.003 C 
ATOM     20  C   UNL     1     -47.495  25.211 -14.035  1.00  0.00     0.004 C 
ENDBRANCH  18  19
ENDBRANCH  17  18
ENDBRANCH  16  17
ENDBRANCH  15  16
ENDBRANCH  14  15
ENDBRANCH  13  14
ENDBRANCH  12  13
ENDBRANCH   1  12
TORSDOF 16
ENDMDL
MODEL 4
REMARK VINA RESULT:    -4.548      3.502      7.087
REMARK INTER + INTRA:         -11.718
REMARK INTER:                  -9.404
REMARK INTRA:                  -2.314
REMARK UNBOUND:                -2.917
REMARK SMILES CCCCCCCCCCCCCCCCCC(=O)[O-]
REMARK SMILES IDX 10 1 11 2 12 3 13 4 14 5 15 6 16 7 17 8 18 9 19 10 20 11
REMARK SMILES IDX 9 12 8 13 7 14 6 15 5 16 4 17 3 18 2 19 1 20
REMARK H PARENT
REMARK Flexibility Score: inf
ROOT
ATOM      1  C   UNL     1     -48.439  26.363 -17.328  1.00  0.00     0.000 C 
ENDROOT
BRANCH   1   2
ATOM      2  C   UNL     1     -49.205  27.609 -16.856  1.00  0.00     0.000 C 
BRANCH   2   3
ATOM      3  C   UNL     1     -50.658  27.579 -17.343  1.00  0.00     0.000 C 
BRANCH   3   4
ATOM      4  C   UNL     1     -51.629  27.893 -16.198  1.00  0.00     0.000 C 
BRANCH   4   5
ATOM      5  C   UNL     1     -51.389  26.959 -15.003  1.00  0.00     0.000 C 
BRANCH   5   6
ATOM      6  C   UNL     1     -52.083  25.598 -15.165  1.00  0.00     0.000 C 
BRANCH   6   7
ATOM      7  C   UNL     1     -51.211  24.427 -14.679  1.00  0.00     0.006 C 
BRANCH   7   8
ATOM      8  C   UNL     1     -52.046  23.181 -14.351  1.00  0.00     0.053 C 
BRANCH   8   9
ATOM      9  C   UNL     1     -52.861  23.370 -13.108  1.00  0.00     0.041 C 
ATOM     10  O   UNL     1     -52.376  23.086 -11.982  1.00  0.00    -0.550 OA
ATOM     11  O   UNL     1     -54.148  23.886 -13.193  1.00  0.00    -0.550 OA
ENDBRANCH   8   9
ENDBRANCH   7   8
ENDBRANCH   6   7
ENDBRANCH   5   6
ENDBRANCH   4   5
ENDBRANCH   3   4
ENDBRANCH   2   3
ENDBRANCH   1   2
BRANCH   1  12
ATOM     12  C   UNL     1     -48.116  25.395 -16.170  1.00  0.00     0.000 C 
BRANCH  12  13
ATOM     13  C   UNL     1     -47.945  26.090 -14.806  1.00  0.00    -0.000 C 
BRANCH  13  14
ATOM     14  C   UNL     1     -46.550  25.947 -14.167  1.00  0.00    -0.000 C 
BRANCH  14  15
ATOM     15  C   UNL     1     -45.621  27.162 -14.349  1.00  0.00    -0.000 C 
BRANCH  15  16
ATOM     16  C   UNL     1     -44.796  27.093 -15.645  1.00  0.00    -0.000 C 
BRANCH  16  17
ATOM     17  C   UNL     1     -45.198  28.171 -16.669  1.00  0.00    -0.000 C 
BRANCH  17  18
ATOM     18  C   UNL     1     -45.034  27.769 -18.149  1.00  0.00    -0.000 C 
BRANCH  18  19
ATOM     19  C   UNL     1     -44.358  26.407 -18.383  1.00  0.00    -0.003 C 
ATOM     20  C   UNL     1     -45.320  25.351 -18.925  1.00  0.00     0.004 C 
ENDBRANCH  18  19
ENDBRANCH  17  18
ENDBRANCH  16  17
ENDBRANCH  15  16
ENDBRANCH  14  15
ENDBRANCH  13  14
ENDBRANCH  12  13
ENDBRANCH   1  12
TORSDOF 16
ENDMDL
MODEL 5
REMARK VINA RESULT:    -4.520      0.927      1.498
REMARK INTER + INTRA:         -11.664
REMARK INTER:                  -9.409
REMARK INTRA:                  -2.255
REMARK UNBOUND:                -2.917
REMARK SMILES CCCCCCCCCCCCCCCCCC(=O)[O-]
REMARK SMILES IDX 10 1 11 2 12 3 13 4 14 5 15 6 16 7 17 8 18 9 19 10 20 11
REMARK SMILES IDX 9 12 8 13 7 14 6 15 5 16 4 17 3 18 2 19 1 20
REMARK H PARENT
REMARK Flexibility Score: inf
ROOT
ATOM      1  C   UNL     1     -48.387  24.806 -16.042  1.00  0.00     0.000 C 
ENDROOT
BRANCH   1   2
ATOM      2  C   UNL     1     -48.262  25.618 -14.744  1.00  0.00     0.000 C 
BRANCH   2   3
ATOM      3  C   UNL     1     -47.188  25.025 -13.825  1.00  0.00     0.000 C 
BRANCH   3   4
ATOM      4  C   UNL     1     -46.047  26.023 -13.595  1.00  0.00     0.000 C 
BRANCH   4   5
ATOM      5  C   UNL     1     -46.352  27.370 -14.267  1.00  0.00     0.000 C 
BRANCH   5   6
ATOM      6  C   UNL     1     -45.160  27.917 -15.067  1.00  0.00     0.000 C 
BRANCH   6   7
ATOM      7  C   UNL     1     -44.655  26.924 -16.128  1.00  0.00     0.006 C 
BRANCH   7   8
ATOM      8  C   UNL     1     -45.134  27.292 -17.540  1.00  0.00     0.053 C 
BRANCH   8   9
ATOM      9  C   UNL     1     -44.449  26.472 -18.590  1.00  0.00     0.041 C 
ATOM     10  O   UNL     1     -43.317  26.811 -19.022  1.00  0.00    -0.550 OA
ATOM     11  O   UNL     1     -45.052  25.316 -19.072  1.00  0.00    -0.550 OA
ENDBRANCH   8   9
ENDBRANCH   7   8
ENDBRANCH   6   7
ENDBRANCH   5   6
ENDBRANCH   4   5
ENDBRANCH   3   4
ENDBRANCH   2   3
ENDBRANCH   1   2
BRANCH   1  12
ATOM     12  C   UNL     1     -48.230  25.681 -17.304  1.00  0.00     0.000 C 
BRANCH  12  13
ATOM     13  C   UNL     1     -48.793  27.107 -17.147  1.00  0.00    -0.000 C 
BRANCH  13  14
ATOM     14  C   UNL     1     -50.299  27.253 -17.442  1.00  0.00    -0.000 C 
BRANCH  14  15
ATOM     15  C   UNL     1     -51.073  28.150 -16.458  1.00  0.00    -0.000 C 
BRANCH  15  16
ATOM     16  C   UNL     1     -52.209  27.404 -15.738  1.00  0.00    -0.000 C 
BRANCH  16  17
ATOM     17  C   UNL     1     -51.695  26.340 -14.751  1.00  0.00    -0.000 C 
BRANCH  17  18
ATOM     18  C   UNL     1     -52.055  24.882 -15.104  1.00  0.00    -0.000 C 
BRANCH  18  19
ATOM     19  C   UNL     1     -52.440  23.998 -13.905  1.00  0.00    -0.003 C 
ATOM     20  C   UNL     1     -53.853  24.273 -13.391  1.00  0.00     0.004 C 
ENDBRANCH  18  19
ENDBRANCH  17  18
ENDBRANCH  16  17
ENDBRANCH  15  16
ENDBRANCH  14  15
ENDBRANCH  13  14
ENDBRANCH  12  13
ENDBRANCH   1  12
TORSDOF 16
ENDMDL
MODEL 6
REMARK VINA RESULT:    -4.425      2.677      5.907
REMARK INTER + INTRA:         -11.480
REMARK INTER:                  -8.574
REMARK INTRA:                  -2.907
REMARK UNBOUND:                -2.917
REMARK SMILES CCCCCCCCCCCCCCCCCC(=O)[O-]
REMARK SMILES IDX 10 1 11 2 12 3 13 4 14 5 15 6 16 7 17 8 18 9 19 10 20 11
REMARK SMILES IDX 9 12 8 13 7 14 6 15 5 16 4 17 3 18 2 19 1 20
REMARK H PARENT
REMARK Flexibility Score: inf
ROOT
ATOM      1  C   UNL     1     -48.158  25.545 -14.489  1.00  0.00     0.000 C 
ENDROOT
BRANCH   1   2
ATOM      2  C   UNL     1     -48.675  24.533 -15.522  1.00  0.00     0.000 C 
BRANCH   2   3
ATOM      3  C   UNL     1     -48.403  25.018 -16.951  1.00  0.00     0.000 C 
BRANCH   3   4
ATOM      4  C   UNL     1     -47.594  26.320 -16.946  1.00  0.00     0.000 C 
BRANCH   4   5
ATOM      5  C   UNL     1     -48.290  27.403 -17.785  1.00  0.00     0.000 C 
BRANCH   5   6
ATOM      6  C   UNL     1     -48.345  28.762 -17.071  1.00  0.00     0.000 C 
BRANCH   6   7
ATOM      7  C   UNL     1     -49.122  28.702 -15.745  1.00  0.00     0.006 C 
BRANCH   7   8
ATOM      8  C   UNL     1     -50.639  28.802 -15.957  1.00  0.00     0.053 C 
BRANCH   8   9
ATOM      9  C   UNL     1     -51.302  27.462 -15.869  1.00  0.00     0.041 C 
ATOM     10  O   UNL     1     -51.770  26.916 -16.902  1.00  0.00    -0.550 OA
ATOM     11  O   UNL     1     -51.379  26.803 -14.648  1.00  0.00    -0.550 OA
ENDBRANCH   8   9
ENDBRANCH   7   8
ENDBRANCH   6   7
ENDBRANCH   5   6
ENDBRANCH   4   5
ENDBRANCH   3   4
ENDBRANCH   2   3
ENDBRANCH   1   2
BRANCH   1  12
ATOM     12  C   UNL     1     -46.967  24.999 -13.672  1.00  0.00     0.000 C 
BRANCH  12  13
ATOM     13  C   UNL     1     -45.740  25.930 -13.662  1.00  0.00    -0.000 C 
BRANCH  13  14
ATOM     14  C   UNL     1     -46.033  27.397 -13.292  1.00  0.00    -0.000 C 
BRANCH  14  15
ATOM     15  C   UNL     1     -45.450  28.443 -14.261  1.00  0.00    -0.000 C 
BRANCH  15  16
ATOM     16  C   UNL     1     -44.709  27.808 -15.449  1.00  0.00    -0.000 C 
BRANCH  16  17
ATOM     17  C   UNL     1     -44.589  28.756 -16.656  1.00  0.00    -0.000 C 
BRANCH  17  18
ATOM     18  C   UNL     1     -44.346  28.069 -18.015  1.00  0.00    -0.000 C 
BRANCH  18  19
ATOM     19  C   UNL     1     -44.280  26.532 -17.965  1.00  0.00    -0.003 C 
ATOM     20  C   UNL     1     -44.851  25.871 -19.218  1.00  0.00     0.004 C 
ENDBRANCH  18  19
ENDBRANCH  17  18
ENDBRANCH  16  17
ENDBRANCH  15  16
ENDBRANCH  14  15
ENDBRANCH  13  14
ENDBRANCH  12  13
ENDBRANCH   1  12
TORSDOF 16
ENDMDL
MODEL 7
REMARK VINA RESULT:    -4.329      2.191      3.444
REMARK INTER + INTRA:         -11.295
REMARK INTER:                  -9.273
REMARK INTRA:                  -2.022
REMARK UNBOUND:                -2.917
REMARK SMILES CCCCCCCCCCCCCCCCCC(=O)[O-]
REMARK SMILES IDX 10 1 11 2 12 3 13 4 14 5 15 6 16 7 17 8 18 9 19 10 20 11
REMARK SMILES IDX 9 12 8 13 7 14 6 15 5 16 4 17 3 18 2 19 1 20
REMARK H PARENT
REMARK Flexibility Score: inf
ROOT
ATOM      1  C   UNL     1     -47.239  25.287 -17.785  1.00  0.00     0.000 C 
ENDROOT
BRANCH   1   2
ATOM      2  C   UNL     1     -46.399  26.326 -18.544  1.00  0.00     0.000 C 
BRANCH   2   3
ATOM      3  C   UNL     1     -44.952  25.849 -18.712  1.00  0.00     0.000 C 
BRANCH   3   4
ATOM      4  C   UNL     1     -43.960  26.967 -18.370  1.00  0.00     0.000 C 
BRANCH   4   5
ATOM      5  C   UNL     1     -44.672  28.143 -17.685  1.00  0.00     0.000 C 
BRANCH   5   6
ATOM      6  C   UNL     1     -44.342  28.244 -16.188  1.00  0.00     0.000 C 
BRANCH   6   7
ATOM      7  C   UNL     1     -45.530  27.855 -15.292  1.00  0.00     0.006 C 
BRANCH   7   8
ATOM      8  C   UNL     1     -45.366  26.453 -14.690  1.00  0.00     0.053 C 
BRANCH   8   9
ATOM      9  C   UNL     1     -46.448  26.144 -13.700  1.00  0.00     0.041 C 
ATOM     10  O   UNL     1     -46.766  26.988 -12.823  1.00  0.00    -0.550 OA
ATOM     11  O   UNL     1     -47.124  24.931 -13.766  1.00  0.00    -0.550 OA
ENDBRANCH   8   9
ENDBRANCH   7   8
ENDBRANCH   6   7
ENDBRANCH   5   6
ENDBRANCH   4   5
ENDBRANCH   3   4
ENDBRANCH   2   3
ENDBRANCH   1   2
BRANCH   1  12
ATOM     12  C   UNL     1     -48.416  25.926 -17.017  1.00  0.00     0.000 C 
BRANCH  12  13
ATOM     13  C   UNL     1     -48.864  27.286 -17.584  1.00  0.00    -0.000 C 
BRANCH  13  14
ATOM     14  C   UNL     1     -50.367  27.398 -17.908  1.00  0.00    -0.000 C 
BRANCH  14  15
ATOM     15  C   UNL     1     -51.212  28.121 -16.843  1.00  0.00    -0.000 C 
BRANCH  15  16
ATOM     16  C   UNL     1     -52.061  27.155 -15.999  1.00  0.00    -0.000 C 
BRANCH  16  17
ATOM     17  C   UNL     1     -51.268  26.510 -14.848  1.00  0.00    -0.000 C 
BRANCH  17  18
ATOM     18  C   UNL     1     -51.305  24.968 -14.803  1.00  0.00    -0.000 C 
BRANCH  18  19
ATOM     19  C   UNL     1     -52.635  24.363 -14.319  1.00  0.00    -0.003 C 
ATOM     20  C   UNL     1     -52.453  23.359 -13.183  1.00  0.00     0.004 C 
ENDBRANCH  18  19
ENDBRANCH  17  18
ENDBRANCH  16  17
ENDBRANCH  15  16
ENDBRANCH  14  15
ENDBRANCH  13  14
ENDBRANCH  12  13
ENDBRANCH   1  12
TORSDOF 16
ENDMDL
MODEL 8
REMARK VINA RESULT:    -4.230      1.045      4.570
REMARK INTER + INTRA:         -11.104
REMARK INTER:                  -8.728
REMARK INTRA:                  -2.376
REMARK UNBOUND:                -2.917
REMARK SMILES CCCCCCCCCCCCCCCCCC(=O)[O-]
REMARK SMILES IDX 10 1 11 2 12 3 13 4 14 5 15 6 16 7 17 8 18 9 19 10 20 11
REMARK SMILES IDX 9 12 8 13 7 14 6 15 5 16 4 17 3 18 2 19 1 20
REMARK H PARENT
REMARK Flexibility Score: inf
ROOT
ATOM      1  C   UNL     1     -52.047  26.354 -14.919  1.00  0.00     0.000 C 
ENDROOT
BRANCH   1   2
ATOM      2  C   UNL     1     -52.033  26.861 -16.369  1.00  0.00     0.000 C 
BRANCH   2   3
ATOM      3  C   UNL     1     -50.909  27.880 -16.587  1.00  0.00     0.000 C 
BRANCH   3   4
ATOM      4  C   UNL     1     -49.901  27.375 -17.626  1.00  0.00     0.000 C 
BRANCH   4   5
ATOM      5  C   UNL     1     -48.718  28.345 -17.762  1.00  0.00     0.000 C 
BRANCH   5   6
ATOM      6  C   UNL     1     -47.612  28.078 -16.731  1.00  0.00     0.000 C 
BRANCH   6   7
ATOM      7  C   UNL     1     -46.305  27.588 -17.378  1.00  0.00     0.006 C 
BRANCH   7   8
ATOM      8  C   UNL     1     -46.444  26.174 -17.962  1.00  0.00     0.053 C 
BRANCH   8   9
ATOM      9  C   UNL     1     -45.297  25.831 -18.863  1.00  0.00     0.041 C 
ATOM     10  O   UNL     1     -44.516  26.731 -19.266  1.00  0.00    -0.550 OA
ATOM     11  O   UNL     1     -45.077  24.511 -19.235  1.00  0.00    -0.550 OA
ENDBRANCH   8   9
ENDBRANCH   7   8
ENDBRANCH   6   7
ENDBRANCH   5   6
ENDBRANCH   4   5
ENDBRANCH   3   4
ENDBRANCH   2   3
ENDBRANCH   1   2
BRANCH   1  12
ATOM     12  C   UNL     1     -52.228  24.824 -14.830  1.00  0.00     0.000 C 
BRANCH  12  13
ATOM     13  C   UNL     1     -50.976  24.077 -14.331  1.00  0.00    -0.000 C 
BRANCH  13  14
ATOM     14  C   UNL     1     -50.071  23.503 -15.438  1.00  0.00    -0.000 C 
BRANCH  14  15
ATOM     15  C   UNL     1     -48.816  24.338 -15.752  1.00  0.00    -0.000 C 
BRANCH  15  16
ATOM     16  C   UNL     1     -48.592  25.481 -14.748  1.00  0.00    -0.000 C 
BRANCH  16  17
ATOM     17  C   UNL     1     -47.256  25.360 -13.991  1.00  0.00    -0.000 C 
BRANCH  17  18
ATOM     18  C   UNL     1     -46.815  26.623 -13.224  1.00  0.00    -0.000 C 
BRANCH  18  19
ATOM     19  C   UNL     1     -45.503  27.259 -13.718  1.00  0.00    -0.003 C 
ATOM     20  C   UNL     1     -45.386  28.739 -13.355  1.00  0.00     0.004 C 
ENDBRANCH  18  19
ENDBRANCH  17  18
ENDBRANCH  16  17
ENDBRANCH  15  16
ENDBRANCH  14  15
ENDBRANCH  13  14
ENDBRANCH  12  13
ENDBRANCH   1  12
TORSDOF 16
ENDMDL
MODEL 9
REMARK VINA RESULT:    -4.178      2.819      6.010
REMARK INTER + INTRA:         -11.002
REMARK INTER:                  -8.505
REMARK INTRA:                  -2.497
REMARK UNBOUND:                -2.917
REMARK SMILES CCCCCCCCCCCCCCCCCC(=O)[O-]
REMARK SMILES IDX 10 1 11 2 12 3 13 4 14 5 15 6 16 7 17 8 18 9 19 10 20 11
REMARK SMILES IDX 9 12 8 13 7 14 6 15 5 16 4 17 3 18 2 19 1 20
REMARK H PARENT
REMARK Flexibility Score: inf
ROOT
ATOM      1  C   UNL     1     -46.218  26.453 -14.098  1.00  0.00     0.000 C 
ENDROOT
BRANCH   1   2
ATOM      2  C   UNL     1     -47.743  26.443 -14.284  1.00  0.00     0.000 C 
BRANCH   2   3
ATOM      3  C   UNL     1     -48.374  27.725 -13.730  1.00  0.00     0.000 C 
BRANCH   3   4
ATOM      4  C   UNL     1     -49.070  28.520 -14.842  1.00  0.00     0.000 C 
BRANCH   4   5
ATOM      5  C   UNL     1     -50.598  28.424 -14.712  1.00  0.00     0.000 C 
BRANCH   5   6
ATOM      6  C   UNL     1     -51.260  27.807 -15.954  1.00  0.00     0.000 C 
BRANCH   6   7
ATOM      7  C   UNL     1     -52.036  26.518 -15.631  1.00  0.00     0.006 C 
BRANCH   7   8
ATOM      8  C   UNL     1     -51.118  25.404 -15.109  1.00  0.00     0.053 C 
BRANCH   8   9
ATOM      9  C   UNL     1     -51.891  24.177 -14.735  1.00  0.00     0.041 C 
ATOM     10  O   UNL     1     -53.013  24.280 -14.173  1.00  0.00    -0.550 OA
ATOM     11  O   UNL     1     -51.384  22.918 -15.033  1.00  0.00    -0.550 OA
ENDBRANCH   8   9
ENDBRANCH   7   8
ENDBRANCH   6   7
ENDBRANCH   5   6
ENDBRANCH   4   5
ENDBRANCH   3   4
ENDBRANCH   2   3
ENDBRANCH   1   2
BRANCH   1  12
ATOM     12  C   UNL     1     -45.730  27.672 -13.287  1.00  0.00     0.000 C 
BRANCH  12  13
ATOM     13  C   UNL     1     -44.969  28.715 -14.128  1.00  0.00    -0.000 C 
BRANCH  13  14
ATOM     14  C   UNL     1     -44.220  28.151 -15.351  1.00  0.00    -0.000 C 
BRANCH  14  15
ATOM     15  C   UNL     1     -44.499  28.879 -16.679  1.00  0.00    -0.000 C 
BRANCH  15  16
ATOM     16  C   UNL     1     -44.481  27.934 -17.892  1.00  0.00    -0.000 C 
BRANCH  16  17
ATOM     17  C   UNL     1     -45.696  26.989 -17.933  1.00  0.00    -0.000 C 
BRANCH  17  18
ATOM     18  C   UNL     1     -47.068  27.668 -17.742  1.00  0.00    -0.000 C 
BRANCH  18  19
ATOM     19  C   UNL     1     -48.284  26.749 -17.955  1.00  0.00    -0.003 C 
ATOM     20  C   UNL     1     -48.026  25.309 -17.515  1.00  0.00     0.004 C 
ENDBRANCH  18  19
ENDBRANCH  17  18
ENDBRANCH  16  17
ENDBRANCH  15  16
ENDBRANCH  14  15
ENDBRANCH  13  14
ENDBRANCH  12  13
ENDBRANCH   1  12
TORSDOF 16
ENDMDL
