MODEL 1
REMARK VINA RESULT:    -6.977      0.000      0.000
REMARK INTER + INTRA:          -7.385
REMARK INTER:                  -7.385
REMARK INTRA:                   0.000
REMARK UNBOUND:                 0.000
REMARK SMILES O=c1ccc2cc(O)c(O)cc2o1
REMARK SMILES IDX 4 1 3 2 2 3 1 4 13 5 12 6 11 7 9 8 7 9 6 10 5 11 8 12 10 14
REMARK H PARENT 8 13 10 15
REMARK Flexibility Score: inf
ROOT
ATOM      1  C   UNL     1      14.352  -3.518 -13.377  1.00  0.00     0.019 A 
ATOM      2  C   UNL     1      14.956  -4.106 -14.488  1.00  0.00     0.094 A 
ATOM      3  C   UNL     1      14.410  -5.282 -15.014  1.00  0.00     0.336 A 
ATOM      4  O   UNL     1      14.941  -5.828 -16.016  1.00  0.00    -0.246 OA
ATOM      5  O   UNL     1      13.331  -5.829 -14.460  1.00  0.00    -0.423 OA
ATOM      6  C   UNL     1      12.724  -5.302 -13.400  1.00  0.00     0.142 A 
ATOM      7  C   UNL     1      11.593  -5.921 -12.860  1.00  0.00     0.098 A 
ATOM      8  C   UNL     1      10.948  -5.369 -11.744  1.00  0.00     0.161 A 
ATOM      9  C   UNL     1      11.442  -4.186 -11.162  1.00  0.00     0.158 A 
ATOM     10  C   UNL     1      12.575  -3.563 -11.700  1.00  0.00     0.062 A 
ATOM     11  C   UNL     1      13.218  -4.115 -12.816  1.00  0.00     0.022 A 
ENDROOT
BRANCH   9  12
ATOM     12  O   UNL     1      10.821  -3.617 -10.052  1.00  0.00    -0.504 OA
ATOM     13  H   UNL     1       9.905  -3.188 -10.109  1.00  0.00     0.293 HD
ENDBRANCH   9  12
BRANCH   8  14
ATOM     14  O   UNL     1       9.820  -5.990 -11.210  1.00  0.00    -0.504 OA
ATOM     15  H   UNL     1       9.684  -6.074 -10.209  1.00  0.00     0.293 HD
ENDBRANCH   8  14
TORSDOF 2
ENDMDL
MODEL 2
REMARK VINA RESULT:    -6.901      2.421      4.446
REMARK INTER + INTRA:          -7.304
REMARK INTER:                  -7.304
REMARK INTRA:                   0.000
REMARK UNBOUND:                 0.000
REMARK SMILES O=c1ccc2cc(O)c(O)cc2o1
REMARK SMILES IDX 4 1 3 2 2 3 1 4 13 5 12 6 11 7 9 8 7 9 6 10 5 11 8 12 10 14
REMARK H PARENT 8 13 10 15
REMARK Flexibility Score: inf
ROOT
ATOM      1  C   UNL     1      11.871  -8.065 -13.327  1.00  0.00     0.019 A 
ATOM      2  C   UNL     1      11.291  -9.269 -12.929  1.00  0.00     0.094 A 
ATOM      3  C   UNL     1      10.524  -9.299 -11.760  1.00  0.00     0.336 A 
ATOM      4  O   UNL     1       9.993 -10.376 -11.384  1.00  0.00    -0.246 OA
ATOM      5  O   UNL     1      10.351  -8.193 -11.040  1.00  0.00    -0.423 OA
ATOM      6  C   UNL     1      10.886  -7.024 -11.383  1.00  0.00     0.142 A 
ATOM      7  C   UNL     1      10.671  -5.895 -10.587  1.00  0.00     0.098 A 
ATOM      8  C   UNL     1      11.231  -4.660 -10.944  1.00  0.00     0.161 A 
ATOM      9  C   UNL     1      12.015  -4.556 -12.108  1.00  0.00     0.158 A 
ATOM     10  C   UNL     1      12.232  -5.685 -12.908  1.00  0.00     0.062 A 
ATOM     11  C   UNL     1      11.672  -6.918 -12.551  1.00  0.00     0.022 A 
ENDROOT
BRANCH   9  12
ATOM     12  O   UNL     1      12.583  -3.340 -12.486  1.00  0.00    -0.504 OA
ATOM     13  H   UNL     1      13.581  -3.173 -12.434  1.00  0.00     0.293 HD
ENDBRANCH   9  12
BRANCH   8  14
ATOM     14  O   UNL     1      11.013  -3.537 -10.147  1.00  0.00    -0.504 OA
ATOM     15  H   UNL     1      10.121  -3.055 -10.141  1.00  0.00     0.293 HD
ENDBRANCH   8  14
TORSDOF 2
ENDMDL
MODEL 3
REMARK VINA RESULT:    -6.689      1.309      4.563
REMARK INTER + INTRA:          -7.080
REMARK INTER:                  -7.080
REMARK INTRA:                   0.000
REMARK UNBOUND:                 0.000
REMARK SMILES O=c1ccc2cc(O)c(O)cc2o1
REMARK SMILES IDX 4 1 3 2 2 3 1 4 13 5 12 6 11 7 9 8 7 9 6 10 5 11 8 12 10 14
REMARK H PARENT 8 13 10 15
REMARK Flexibility Score: inf
ROOT
ATOM      1  C   UNL     1      11.913  -3.875 -11.294  1.00  0.00     0.019 A 
ATOM      2  C   UNL     1      10.798  -4.354 -10.607  1.00  0.00     0.094 A 
ATOM      3  C   UNL     1      10.197  -5.543 -11.033  1.00  0.00     0.336 A 
ATOM      4  O   UNL     1       9.190  -5.990 -10.426  1.00  0.00    -0.246 OA
ATOM      5  O   UNL     1      10.684  -6.206 -12.079  1.00  0.00    -0.423 OA
ATOM      6  C   UNL     1      11.745  -5.784 -12.763  1.00  0.00     0.142 A 
ATOM      7  C   UNL     1      12.213  -6.523 -13.855  1.00  0.00     0.098 A 
ATOM      8  C   UNL     1      13.331  -6.085 -14.579  1.00  0.00     0.161 A 
ATOM      9  C   UNL     1      13.986  -4.896 -14.206  1.00  0.00     0.158 A 
ATOM     10  C   UNL     1      13.521  -4.154 -13.113  1.00  0.00     0.062 A 
ATOM     11  C   UNL     1      12.404  -4.593 -12.390  1.00  0.00     0.022 A 
ENDROOT
BRANCH   9  12
ATOM     12  O   UNL     1      15.100  -4.438 -14.908  1.00  0.00    -0.504 OA
ATOM     13  H   UNL     1      15.479  -3.510 -14.770  1.00  0.00     0.293 HD
ENDBRANCH   9  12
BRANCH   8  14
ATOM     14  O   UNL     1      13.794  -6.824 -15.666  1.00  0.00    -0.504 OA
ATOM     15  H   UNL     1      13.714  -7.834 -15.694  1.00  0.00     0.293 HD
ENDBRANCH   8  14
TORSDOF 2
ENDMDL
MODEL 4
REMARK VINA RESULT:    -6.571      1.986      3.050
REMARK INTER + INTRA:          -6.955
REMARK INTER:                  -6.955
REMARK INTRA:                   0.000
REMARK UNBOUND:                 0.000
REMARK SMILES O=c1ccc2cc(O)c(O)cc2o1
REMARK SMILES IDX 4 1 3 2 2 3 1 4 13 5 12 6 11 7 9 8 7 9 6 10 5 11 8 12 10 14
REMARK H PARENT 8 13 10 15
REMARK Flexibility Score: inf
ROOT
ATOM      1  C   UNL     1      11.806  -3.990 -11.392  1.00  0.00     0.019 A 
ATOM      2  C   UNL     1      12.723  -3.216 -12.103  1.00  0.00     0.094 A 
ATOM      3  C   UNL     1      13.455  -3.810 -13.136  1.00  0.00     0.336 A 
ATOM      4  O   UNL     1      14.287  -3.128 -13.789  1.00  0.00    -0.246 OA
ATOM      5  O   UNL     1      13.277  -5.094 -13.436  1.00  0.00    -0.423 OA
ATOM      6  C   UNL     1      12.414  -5.869 -12.783  1.00  0.00     0.142 A 
ATOM      7  C   UNL     1      12.269  -7.212 -13.141  1.00  0.00     0.098 A 
ATOM      8  C   UNL     1      11.360  -8.034 -12.458  1.00  0.00     0.161 A 
ATOM      9  C   UNL     1      10.590  -7.503 -11.406  1.00  0.00     0.158 A 
ATOM     10  C   UNL     1      10.732  -6.158 -11.045  1.00  0.00     0.062 A 
ATOM     11  C   UNL     1      11.640  -5.338 -11.728  1.00  0.00     0.022 A 
ENDROOT
BRANCH   9  12
ATOM     12  O   UNL     1       9.679  -8.297 -10.711  1.00  0.00    -0.504 OA
ATOM     13  H   UNL     1       8.803  -8.596 -11.121  1.00  0.00     0.293 HD
ENDBRANCH   9  12
BRANCH   8  14
ATOM     14  O   UNL     1      11.220  -9.372 -12.819  1.00  0.00    -0.504 OA
ATOM     15  H   UNL     1      11.476  -9.703 -13.742  1.00  0.00     0.293 HD
ENDBRANCH   8  14
TORSDOF 2
ENDMDL
MODEL 5
REMARK VINA RESULT:    -6.526      1.595      2.468
REMARK INTER + INTRA:          -6.908
REMARK INTER:                  -6.908
REMARK INTRA:                   0.000
REMARK UNBOUND:                 0.000
REMARK SMILES O=c1ccc2cc(O)c(O)cc2o1
REMARK SMILES IDX 4 1 3 2 2 3 1 4 13 5 12 6 11 7 9 8 7 9 6 10 5 11 8 12 10 14
REMARK H PARENT 8 13 10 15
REMARK Flexibility Score: inf
ROOT
ATOM      1  C   UNL     1      14.069  -5.342 -14.358  1.00  0.00     0.019 A 
ATOM      2  C   UNL     1      15.001  -4.343 -14.636  1.00  0.00     0.094 A 
ATOM      3  C   UNL     1      14.942  -3.141 -13.923  1.00  0.00     0.336 A 
ATOM      4  O   UNL     1      15.774  -2.228 -14.160  1.00  0.00    -0.246 OA
ATOM      5  O   UNL     1      14.009  -2.957 -12.992  1.00  0.00    -0.423 OA
ATOM      6  C   UNL     1      13.100  -3.882 -12.695  1.00  0.00     0.142 A 
ATOM      7  C   UNL     1      12.143  -3.632 -11.707  1.00  0.00     0.098 A 
ATOM      8  C   UNL     1      11.184  -4.605 -11.388  1.00  0.00     0.161 A 
ATOM      9  C   UNL     1      11.183  -5.838 -12.067  1.00  0.00     0.158 A 
ATOM     10  C   UNL     1      12.141  -6.092 -13.057  1.00  0.00     0.062 A 
ATOM     11  C   UNL     1      13.099  -5.120 -13.374  1.00  0.00     0.022 A 
ENDROOT
BRANCH   9  12
ATOM     12  O   UNL     1      10.241  -6.821 -11.770  1.00  0.00    -0.504 OA
ATOM     13  H   UNL     1      10.266  -7.738 -12.200  1.00  0.00     0.293 HD
ENDBRANCH   9  12
BRANCH   8  14
ATOM     14  O   UNL     1      10.232  -4.351 -10.403  1.00  0.00    -0.504 OA
ATOM     15  H   UNL     1      10.007  -5.037  -9.693  1.00  0.00     0.293 HD
ENDBRANCH   8  14
TORSDOF 2
ENDMDL
MODEL 6
REMARK VINA RESULT:    -6.371      1.204      5.034
REMARK INTER + INTRA:          -6.744
REMARK INTER:                  -6.744
REMARK INTRA:                   0.000
REMARK UNBOUND:                 0.000
REMARK SMILES O=c1ccc2cc(O)c(O)cc2o1
REMARK SMILES IDX 4 1 3 2 2 3 1 4 13 5 12 6 11 7 9 8 7 9 6 10 5 11 8 12 10 14
REMARK H PARENT 8 13 10 15
REMARK Flexibility Score: inf
ROOT
ATOM      1  C   UNL     1      11.383  -6.580 -12.989  1.00  0.00     0.019 A 
ATOM      2  C   UNL     1      10.692  -6.145 -11.858  1.00  0.00     0.094 A 
ATOM      3  C   UNL     1      11.107  -4.971 -11.219  1.00  0.00     0.336 A 
ATOM      4  O   UNL     1      10.497  -4.562 -10.197  1.00  0.00    -0.246 OA
ATOM      5  O   UNL     1      12.145  -4.282 -11.686  1.00  0.00    -0.423 OA
ATOM      6  C   UNL     1      12.832  -4.662 -12.761  1.00  0.00     0.142 A 
ATOM      7  C   UNL     1      13.915  -3.897 -13.206  1.00  0.00     0.098 A 
ATOM      8  C   UNL     1      14.642  -4.291 -14.338  1.00  0.00     0.161 A 
ATOM      9  C   UNL     1      14.281  -5.462 -15.031  1.00  0.00     0.158 A 
ATOM     10  C   UNL     1      13.196  -6.230 -14.588  1.00  0.00     0.062 A 
ATOM     11  C   UNL     1      12.470  -5.835 -13.457  1.00  0.00     0.022 A 
ENDROOT
BRANCH   9  12
ATOM     12  O   UNL     1      14.986  -5.876 -16.160  1.00  0.00    -0.504 OA
ATOM     13  H   UNL     1      15.819  -5.398 -16.479  1.00  0.00     0.293 HD
ENDBRANCH   9  12
BRANCH   8  14
ATOM     14  O   UNL     1      15.721  -3.526 -14.778  1.00  0.00    -0.504 OA
ATOM     15  H   UNL     1      16.672  -3.872 -14.732  1.00  0.00     0.293 HD
ENDBRANCH   8  14
TORSDOF 2
ENDMDL
MODEL 7
REMARK VINA RESULT:    -6.301      2.478      4.304
REMARK INTER + INTRA:          -6.670
REMARK INTER:                  -6.670
REMARK INTRA:                   0.000
REMARK UNBOUND:                 0.000
REMARK SMILES O=c1ccc2cc(O)c(O)cc2o1
REMARK SMILES IDX 4 1 3 2 2 3 1 4 13 5 12 6 11 7 9 8 7 9 6 10 5 11 8 12 10 14
REMARK H PARENT 8 13 10 15
REMARK Flexibility Score: inf
ROOT
ATOM      1  C   UNL     1      10.201  -7.674 -10.885  1.00  0.00     0.019 A 
ATOM      2  C   UNL     1      10.209  -8.970 -11.401  1.00  0.00     0.094 A 
ATOM      3  C   UNL     1      11.031  -9.259 -12.496  1.00  0.00     0.336 A 
ATOM      4  O   UNL     1      11.052 -10.422 -12.976  1.00  0.00    -0.246 OA
ATOM      5  O   UNL     1      11.792  -8.310 -13.035  1.00  0.00    -0.423 OA
ATOM      6  C   UNL     1      11.814  -7.061 -12.575  1.00  0.00     0.142 A 
ATOM      7  C   UNL     1      12.635  -6.106 -13.183  1.00  0.00     0.098 A 
ATOM      8  C   UNL     1      12.663  -4.789 -12.702  1.00  0.00     0.161 A 
ATOM      9  C   UNL     1      11.862  -4.426 -11.603  1.00  0.00     0.158 A 
ATOM     10  C   UNL     1      11.040  -5.381 -10.992  1.00  0.00     0.062 A 
ATOM     11  C   UNL     1      11.012  -6.697 -11.472  1.00  0.00     0.022 A 
ENDROOT
BRANCH   9  12
ATOM     12  O   UNL     1      11.872  -3.124 -11.105  1.00  0.00    -0.504 OA
ATOM     13  H   UNL     1      12.514  -2.830 -10.379  1.00  0.00     0.293 HD
ENDBRANCH   9  12
BRANCH   8  14
ATOM     14  O   UNL     1      13.483  -3.840 -13.310  1.00  0.00    -0.504 OA
ATOM     15  H   UNL     1      13.617  -3.820 -14.314  1.00  0.00     0.293 HD
ENDBRANCH   8  14
TORSDOF 2
ENDMDL
MODEL 8
REMARK VINA RESULT:    -6.179     17.493     18.761
REMARK INTER + INTRA:          -6.540
REMARK INTER:                  -6.540
REMARK INTRA:                   0.000
REMARK UNBOUND:                 0.000
REMARK SMILES O=c1ccc2cc(O)c(O)cc2o1
REMARK SMILES IDX 4 1 3 2 2 3 1 4 13 5 12 6 11 7 9 8 7 9 6 10 5 11 8 12 10 14
REMARK H PARENT 8 13 10 15
REMARK Flexibility Score: inf
ROOT
ATOM      1  C   UNL     1      -1.326   4.167 -10.581  1.00  0.00     0.019 A 
ATOM      2  C   UNL     1      -2.130   4.100 -11.719  1.00  0.00     0.094 A 
ATOM      3  C   UNL     1      -3.081   5.103 -11.938  1.00  0.00     0.336 A 
ATOM      4  O   UNL     1      -3.816   5.059 -12.958  1.00  0.00    -0.246 OA
ATOM      5  O   UNL     1      -3.214   6.105 -11.072  1.00  0.00    -0.423 OA
ATOM      6  C   UNL     1      -2.468   6.207  -9.975  1.00  0.00     0.142 A 
ATOM      7  C   UNL     1      -2.652   7.282  -9.101  1.00  0.00     0.098 A 
ATOM      8  C   UNL     1      -1.869   7.397  -7.943  1.00  0.00     0.161 A 
ATOM      9  C   UNL     1      -0.892   6.423  -7.659  1.00  0.00     0.158 A 
ATOM     10  C   UNL     1      -0.705   5.345  -8.533  1.00  0.00     0.062 A 
ATOM     11  C   UNL     1      -1.487   5.232  -9.689  1.00  0.00     0.022 A 
ENDROOT
BRANCH   9  12
ATOM     12  O   UNL     1      -0.100   6.513  -6.516  1.00  0.00    -0.504 OA
ATOM     13  H   UNL     1      -0.206   7.264  -5.845  1.00  0.00     0.293 HD
ENDBRANCH   9  12
BRANCH   8  14
ATOM     14  O   UNL     1      -2.056   8.471  -7.076  1.00  0.00    -0.504 OA
ATOM     15  H   UNL     1      -2.809   9.135  -7.208  1.00  0.00     0.293 HD
ENDBRANCH   8  14
TORSDOF 2
ENDMDL
MODEL 9
REMARK VINA RESULT:    -6.174      2.606      4.302
REMARK INTER + INTRA:          -6.535
REMARK INTER:                  -6.535
REMARK INTRA:                   0.000
REMARK UNBOUND:                 0.000
REMARK SMILES O=c1ccc2cc(O)c(O)cc2o1
REMARK SMILES IDX 4 1 3 2 2 3 1 4 13 5 12 6 11 7 9 8 7 9 6 10 5 11 8 12 10 14
REMARK H PARENT 8 13 10 15
REMARK Flexibility Score: inf
ROOT
ATOM      1  C   UNL     1      12.739  -6.204 -13.642  1.00  0.00     0.019 A 
ATOM      2  C   UNL     1      12.843  -4.880 -13.215  1.00  0.00     0.094 A 
ATOM      3  C   UNL     1      12.127  -4.474 -12.083  1.00  0.00     0.336 A 
ATOM      4  O   UNL     1      12.207  -3.285 -11.683  1.00  0.00    -0.246 OA
ATOM      5  O   UNL     1      11.360  -5.341 -11.426  1.00  0.00    -0.423 OA
ATOM      6  C   UNL     1      11.232  -6.612 -11.799  1.00  0.00     0.142 A 
ATOM      7  C   UNL     1      10.412  -7.477 -11.069  1.00  0.00     0.098 A 
ATOM      8  C   UNL     1      10.274  -8.817 -11.457  1.00  0.00     0.161 A 
ATOM      9  C   UNL     1      10.964  -9.295 -12.586  1.00  0.00     0.158 A 
ATOM     10  C   UNL     1      11.788  -8.432 -13.319  1.00  0.00     0.062 A 
ATOM     11  C   UNL     1      11.925  -7.093 -12.931  1.00  0.00     0.022 A 
ENDROOT
BRANCH   9  12
ATOM     12  O   UNL     1      10.845 -10.623 -12.993  1.00  0.00    -0.504 OA
ATOM     13  H   UNL     1      10.544 -11.355 -12.361  1.00  0.00     0.293 HD
ENDBRANCH   9  12
BRANCH   8  14
ATOM     14  O   UNL     1       9.454  -9.676 -10.726  1.00  0.00    -0.504 OA
ATOM     15  H   UNL     1       9.450  -9.671  -9.713  1.00  0.00     0.293 HD
ENDBRANCH   8  14
TORSDOF 2
ENDMDL
