MODEL 1
REMARK VINA RESULT:    -5.593      0.000      0.000
REMARK INTER + INTRA:         -12.719
REMARK INTER:                 -10.825
REMARK INTRA:                  -1.895
REMARK UNBOUND:                -1.895
REMARK SMILES CCCCCCCCCCCCCCCCCC(=O)[O-]
REMARK SMILES IDX 10 1 11 2 12 3 13 4 14 5 15 6 16 7 17 8 18 9 19 10 20 11
REMARK SMILES IDX 9 12 8 13 7 14 6 15 5 16 4 17 3 18 2 19 1 20
REMARK H PARENT
REMARK Flexibility Score: inf
ROOT
ATOM      1  C   UNL     1       8.255  -1.468 -38.061  1.00  0.00     0.000 C 
ENDROOT
BRANCH   1   2
ATOM      2  C   UNL     1       7.753  -1.726 -36.632  1.00  0.00     0.000 C 
BRANCH   2   3
ATOM      3  C   UNL     1       6.795  -2.926 -36.548  1.00  0.00     0.000 C 
BRANCH   3   4
ATOM      4  C   UNL     1       5.580  -2.653 -35.649  1.00  0.00     0.000 C 
BRANCH   4   5
ATOM      5  C   UNL     1       5.876  -1.515 -34.659  1.00  0.00     0.000 C 
BRANCH   5   6
ATOM      6  C   UNL     1       4.941  -0.309 -34.844  1.00  0.00     0.000 C 
BRANCH   6   7
ATOM      7  C   UNL     1       4.974   0.654 -33.645  1.00  0.00     0.006 C 
BRANCH   7   8
ATOM      8  C   UNL     1       5.623   0.018 -32.409  1.00  0.00     0.053 C 
BRANCH   8   9
ATOM      9  C   UNL     1       6.541   0.973 -31.708  1.00  0.00     0.041 C 
ATOM     10  O   UNL     1       6.868   2.058 -32.258  1.00  0.00    -0.550 OA
ATOM     11  O   UNL     1       7.058   0.651 -30.461  1.00  0.00    -0.550 OA
ENDBRANCH   8   9
ENDBRANCH   7   8
ENDBRANCH   6   7
ENDBRANCH   5   6
ENDBRANCH   4   5
ENDBRANCH   3   4
ENDBRANCH   2   3
ENDBRANCH   1   2
BRANCH   1  12
ATOM     12  C   UNL     1       8.556   0.022 -38.276  1.00  0.00     0.000 C 
BRANCH  12  13
ATOM     13  C   UNL     1       7.497   0.948 -37.650  1.00  0.00    -0.000 C 
BRANCH  13  14
ATOM     14  C   UNL     1       8.040   1.974 -36.638  1.00  0.00    -0.000 C 
BRANCH  14  15
ATOM     15  C   UNL     1       8.408   1.343 -35.284  1.00  0.00    -0.000 C 
BRANCH  15  16
ATOM     16  C   UNL     1       9.906   1.464 -34.962  1.00  0.00    -0.000 C 
BRANCH  16  17
ATOM     17  C   UNL     1      10.197   1.435 -33.450  1.00  0.00    -0.000 C 
BRANCH  17  18
ATOM     18  C   UNL     1      11.534   2.122 -33.103  1.00  0.00    -0.000 C 
BRANCH  18  19
ATOM     19  C   UNL     1      12.432   2.375 -34.326  1.00  0.00    -0.003 C 
ATOM     20  C   UNL     1      13.678   1.493 -34.347  1.00  0.00     0.004 C 
ENDBRANCH  18  19
ENDBRANCH  17  18
ENDBRANCH  16  17
ENDBRANCH  15  16
ENDBRANCH  14  15
ENDBRANCH  13  14
ENDBRANCH  12  13
ENDBRANCH   1  12
TORSDOF 16
ENDMDL
MODEL 2
REMARK VINA RESULT:    -5.386      2.404      4.224
REMARK INTER + INTRA:         -12.318
REMARK INTER:                 -10.883
REMARK INTRA:                  -1.435
REMARK UNBOUND:                -1.895
REMARK SMILES CCCCCCCCCCCCCCCCCC(=O)[O-]
REMARK SMILES IDX 10 1 11 2 12 3 13 4 14 5 15 6 16 7 17 8 18 9 19 10 20 11
REMARK SMILES IDX 9 12 8 13 7 14 6 15 5 16 4 17 3 18 2 19 1 20
REMARK H PARENT
REMARK Flexibility Score: inf
ROOT
ATOM      1  C   UNL     1       5.381  -0.527 -34.321  1.00  0.00     0.000 C 
ENDROOT
BRANCH   1   2
ATOM      2  C   UNL     1       5.553   0.054 -32.909  1.00  0.00     0.000 C 
BRANCH   2   3
ATOM      3  C   UNL     1       6.050   1.508 -32.923  1.00  0.00     0.000 C 
BRANCH   3   4
ATOM      4  C   UNL     1       7.132   1.776 -31.865  1.00  0.00     0.000 C 
BRANCH   4   5
ATOM      5  C   UNL     1       6.947   0.855 -30.649  1.00  0.00     0.000 C 
BRANCH   5   6
ATOM      6  C   UNL     1       7.085   1.602 -29.313  1.00  0.00     0.000 C 
BRANCH   6   7
ATOM      7  C   UNL     1       8.235   1.059 -28.446  1.00  0.00     0.006 C 
BRANCH   7   8
ATOM      8  C   UNL     1       7.745   0.555 -27.083  1.00  0.00     0.053 C 
BRANCH   8   9
ATOM      9  C   UNL     1       6.996  -0.737 -27.203  1.00  0.00     0.041 C 
ATOM     10  O   UNL     1       5.987  -0.955 -26.483  1.00  0.00    -0.550 OA
ATOM     11  O   UNL     1       7.431  -1.713 -28.090  1.00  0.00    -0.550 OA
ENDBRANCH   8   9
ENDBRANCH   7   8
ENDBRANCH   6   7
ENDBRANCH   5   6
ENDBRANCH   4   5
ENDBRANCH   3   4
ENDBRANCH   2   3
ENDBRANCH   1   2
BRANCH   1  12
ATOM     12  C   UNL     1       5.964   0.422 -35.379  1.00  0.00     0.000 C 
BRANCH  12  13
ATOM     13  C   UNL     1       7.362  -0.003 -35.865  1.00  0.00    -0.000 C 
BRANCH  13  14
ATOM     14  C   UNL     1       8.071   1.009 -36.784  1.00  0.00    -0.000 C 
BRANCH  14  15
ATOM     15  C   UNL     1       9.047   1.925 -36.028  1.00  0.00    -0.000 C 
BRANCH  15  16
ATOM     16  C   UNL     1       9.484   1.338 -34.676  1.00  0.00    -0.000 C 
BRANCH  16  17
ATOM     17  C   UNL     1      10.954   1.645 -34.338  1.00  0.00    -0.000 C 
BRANCH  17  18
ATOM     18  C   UNL     1      11.703   2.283 -35.526  1.00  0.00    -0.000 C 
BRANCH  18  19
ATOM     19  C   UNL     1      13.201   2.509 -35.260  1.00  0.00    -0.003 C 
ATOM     20  C   UNL     1      13.614   2.157 -33.832  1.00  0.00     0.004 C 
ENDBRANCH  18  19
ENDBRANCH  17  18
ENDBRANCH  16  17
ENDBRANCH  15  16
ENDBRANCH  14  15
ENDBRANCH  13  14
ENDBRANCH  12  13
ENDBRANCH   1  12
TORSDOF 16
ENDMDL
MODEL 3
REMARK VINA RESULT:    -5.343      1.843      3.932
REMARK INTER + INTRA:         -12.236
REMARK INTER:                 -10.606
REMARK INTRA:                  -1.630
REMARK UNBOUND:                -1.895
REMARK SMILES CCCCCCCCCCCCCCCCCC(=O)[O-]
REMARK SMILES IDX 10 1 11 2 12 3 13 4 14 5 15 6 16 7 17 8 18 9 19 10 20 11
REMARK SMILES IDX 9 12 8 13 7 14 6 15 5 16 4 17 3 18 2 19 1 20
REMARK H PARENT
REMARK Flexibility Score: inf
ROOT
ATOM      1  C   UNL     1       5.475  -2.258 -34.857  1.00  0.00     0.000 C 
ENDROOT
BRANCH   1   2
ATOM      2  C   UNL     1       5.130  -0.763 -34.936  1.00  0.00     0.000 C 
BRANCH   2   3
ATOM      3  C   UNL     1       5.305  -0.043 -33.589  1.00  0.00     0.000 C 
BRANCH   3   4
ATOM      4  C   UNL     1       6.635   0.721 -33.494  1.00  0.00     0.000 C 
BRANCH   4   5
ATOM      5  C   UNL     1       6.539   1.859 -32.465  1.00  0.00     0.000 C 
BRANCH   5   6
ATOM      6  C   UNL     1       7.541   1.701 -31.310  1.00  0.00     0.000 C 
BRANCH   6   7
ATOM      7  C   UNL     1       6.849   1.501 -29.950  1.00  0.00     0.006 C 
BRANCH   7   8
ATOM      8  C   UNL     1       6.352   0.063 -29.759  1.00  0.00     0.053 C 
BRANCH   8   9
ATOM      9  C   UNL     1       6.772  -0.500 -28.435  1.00  0.00     0.041 C 
ATOM     10  O   UNL     1       7.116   0.269 -27.499  1.00  0.00    -0.550 OA
ATOM     11  O   UNL     1       6.812  -1.875 -28.246  1.00  0.00    -0.550 OA
ENDBRANCH   8   9
ENDBRANCH   7   8
ENDBRANCH   6   7
ENDBRANCH   5   6
ENDBRANCH   4   5
ENDBRANCH   3   4
ENDBRANCH   2   3
ENDBRANCH   1   2
BRANCH   1  12
ATOM     12  C   UNL     1       6.381  -2.674 -36.025  1.00  0.00     0.000 C 
BRANCH  12  13
ATOM     13  C   UNL     1       7.412  -1.594 -36.403  1.00  0.00    -0.000 C 
BRANCH  13  14
ATOM     14  C   UNL     1       8.230  -1.886 -37.674  1.00  0.00    -0.000 C 
BRANCH  14  15
ATOM     15  C   UNL     1       8.254  -0.703 -38.657  1.00  0.00    -0.000 C 
BRANCH  15  16
ATOM     16  C   UNL     1       8.942   0.540 -38.069  1.00  0.00    -0.000 C 
BRANCH  16  17
ATOM     17  C   UNL     1       7.954   1.502 -37.385  1.00  0.00    -0.000 C 
BRANCH  17  18
ATOM     18  C   UNL     1       8.581   2.208 -36.165  1.00  0.00    -0.000 C 
BRANCH  18  19
ATOM     19  C   UNL     1       9.978   1.680 -35.800  1.00  0.00    -0.003 C 
ATOM     20  C   UNL     1      10.147   1.418 -34.305  1.00  0.00     0.004 C 
ENDBRANCH  18  19
ENDBRANCH  17  18
ENDBRANCH  16  17
ENDBRANCH  15  16
ENDBRANCH  14  15
ENDBRANCH  13  14
ENDBRANCH  12  13
ENDBRANCH   1  12
TORSDOF 16
ENDMDL
MODEL 4
REMARK VINA RESULT:    -5.308      2.434      7.046
REMARK INTER + INTRA:         -12.168
REMARK INTER:                 -10.535
REMARK INTRA:                  -1.633
REMARK UNBOUND:                -1.895
REMARK SMILES CCCCCCCCCCCCCCCCCC(=O)[O-]
REMARK SMILES IDX 10 1 11 2 12 3 13 4 14 5 15 6 16 7 17 8 18 9 19 10 20 11
REMARK SMILES IDX 9 12 8 13 7 14 6 15 5 16 4 17 3 18 2 19 1 20
REMARK H PARENT
REMARK Flexibility Score: inf
ROOT
ATOM      1  C   UNL     1      13.111   2.999 -31.256  1.00  0.00     0.000 C 
ENDROOT
BRANCH   1   2
ATOM      2  C   UNL     1      14.041   2.765 -32.457  1.00  0.00     0.000 C 
BRANCH   2   3
ATOM      3  C   UNL     1      13.457   1.771 -33.474  1.00  0.00     0.000 C 
BRANCH   3   4
ATOM      4  C   UNL     1      13.566   2.272 -34.922  1.00  0.00     0.000 C 
BRANCH   4   5
ATOM      5  C   UNL     1      12.211   2.794 -35.425  1.00  0.00     0.000 C 
BRANCH   5   6
ATOM      6  C   UNL     1      11.041   1.875 -35.038  1.00  0.00     0.000 C 
BRANCH   6   7
ATOM      7  C   UNL     1       9.956   1.808 -36.127  1.00  0.00     0.006 C 
BRANCH   7   8
ATOM      8  C   UNL     1       8.859   0.791 -35.790  1.00  0.00     0.053 C 
BRANCH   8   9
ATOM      9  C   UNL     1       8.428   0.015 -36.997  1.00  0.00     0.041 C 
ATOM     10  O   UNL     1       7.871  -1.106 -36.866  1.00  0.00    -0.550 OA
ATOM     11  O   UNL     1       8.670   0.518 -38.269  1.00  0.00    -0.550 OA
ENDBRANCH   8   9
ENDBRANCH   7   8
ENDBRANCH   6   7
ENDBRANCH   5   6
ENDBRANCH   4   5
ENDBRANCH   3   4
ENDBRANCH   2   3
ENDBRANCH   1   2
BRANCH   1  12
ATOM     12  C   UNL     1      11.647   3.100 -31.709  1.00  0.00     0.000 C 
BRANCH  12  13
ATOM     13  C   UNL     1      10.700   2.202 -30.892  1.00  0.00    -0.000 C 
BRANCH  13  14
ATOM     14  C   UNL     1       9.508   1.623 -31.676  1.00  0.00    -0.000 C 
BRANCH  14  15
ATOM     15  C   UNL     1       8.247   1.453 -30.812  1.00  0.00    -0.000 C 
BRANCH  15  16
ATOM     16  C   UNL     1       6.968   1.899 -31.538  1.00  0.00    -0.000 C 
BRANCH  16  17
ATOM     17  C   UNL     1       6.716   1.117 -32.840  1.00  0.00    -0.000 C 
BRANCH  17  18
ATOM     18  C   UNL     1       5.211   0.977 -33.152  1.00  0.00    -0.000 C 
BRANCH  18  19
ATOM     19  C   UNL     1       4.917   0.096 -34.378  1.00  0.00    -0.003 C 
ATOM     20  C   UNL     1       5.525  -1.300 -34.272  1.00  0.00     0.004 C 
ENDBRANCH  18  19
ENDBRANCH  17  18
ENDBRANCH  16  17
ENDBRANCH  15  16
ENDBRANCH  14  15
ENDBRANCH  13  14
ENDBRANCH  12  13
ENDBRANCH   1  12
TORSDOF 16
ENDMDL
MODEL 5
REMARK VINA RESULT:    -5.271      2.622      6.060
REMARK INTER + INTRA:         -12.097
REMARK INTER:                 -10.486
REMARK INTRA:                  -1.611
REMARK UNBOUND:                -1.895
REMARK SMILES CCCCCCCCCCCCCCCCCC(=O)[O-]
REMARK SMILES IDX 10 1 11 2 12 3 13 4 14 5 15 6 16 7 17 8 18 9 19 10 20 11
REMARK SMILES IDX 9 12 8 13 7 14 6 15 5 16 4 17 3 18 2 19 1 20
REMARK H PARENT
REMARK Flexibility Score: inf
ROOT
ATOM      1  C   UNL     1       5.532  -0.462 -34.191  1.00  0.00     0.000 C 
ENDROOT
BRANCH   1   2
ATOM      2  C   UNL     1       6.549  -0.368 -35.339  1.00  0.00     0.000 C 
BRANCH   2   3
ATOM      3  C   UNL     1       7.311   0.968 -35.347  1.00  0.00     0.000 C 
BRANCH   3   4
ATOM      4  C   UNL     1       8.493   0.971 -36.329  1.00  0.00     0.000 C 
BRANCH   4   5
ATOM      5  C   UNL     1       9.755   1.540 -35.663  1.00  0.00     0.000 C 
BRANCH   5   6
ATOM      6  C   UNL     1       9.685   1.501 -34.128  1.00  0.00     0.000 C 
BRANCH   6   7
ATOM      7  C   UNL     1      11.049   1.203 -33.480  1.00  0.00     0.006 C 
BRANCH   7   8
ATOM      8  C   UNL     1      11.764   2.481 -33.024  1.00  0.00     0.053 C 
BRANCH   8   9
ATOM      9  C   UNL     1      11.465   2.806 -31.593  1.00  0.00     0.041 C 
ATOM     10  O   UNL     1      11.782   3.928 -31.117  1.00  0.00    -0.550 OA
ATOM     11  O   UNL     1      10.863   1.858 -30.776  1.00  0.00    -0.550 OA
ENDBRANCH   8   9
ENDBRANCH   7   8
ENDBRANCH   6   7
ENDBRANCH   5   6
ENDBRANCH   4   5
ENDBRANCH   3   4
ENDBRANCH   2   3
ENDBRANCH   1   2
BRANCH   1  12
ATOM     12  C   UNL     1       5.528   0.826 -33.354  1.00  0.00     0.000 C 
BRANCH  12  13
ATOM     13  C   UNL     1       6.050   0.616 -31.921  1.00  0.00    -0.000 C 
BRANCH  13  14
ATOM     14  C   UNL     1       6.929   1.755 -31.371  1.00  0.00    -0.000 C 
BRANCH  14  15
ATOM     15  C   UNL     1       6.812   1.920 -29.847  1.00  0.00    -0.000 C 
BRANCH  15  16
ATOM     16  C   UNL     1       7.918   1.175 -29.084  1.00  0.00    -0.000 C 
BRANCH  16  17
ATOM     17  C   UNL     1       7.366   0.111 -28.117  1.00  0.00    -0.000 C 
BRANCH  17  18
ATOM     18  C   UNL     1       5.864  -0.158 -28.345  1.00  0.00    -0.000 C 
BRANCH  18  19
ATOM     19  C   UNL     1       5.539  -1.635 -28.622  1.00  0.00    -0.003 C 
ATOM     20  C   UNL     1       6.761  -2.546 -28.524  1.00  0.00     0.004 C 
ENDBRANCH  18  19
ENDBRANCH  17  18
ENDBRANCH  16  17
ENDBRANCH  15  16
ENDBRANCH  14  15
ENDBRANCH  13  14
ENDBRANCH  12  13
ENDBRANCH   1  12
TORSDOF 16
ENDMDL
MODEL 6
REMARK VINA RESULT:    -5.231      4.003      4.993
REMARK INTER + INTRA:         -12.019
REMARK INTER:                 -10.844
REMARK INTRA:                  -1.175
REMARK UNBOUND:                -1.895
REMARK SMILES CCCCCCCCCCCCCCCCCC(=O)[O-]
REMARK SMILES IDX 10 1 11 2 12 3 13 4 14 5 15 6 16 7 17 8 18 9 19 10 20 11
REMARK SMILES IDX 9 12 8 13 7 14 6 15 5 16 4 17 3 18 2 19 1 20
REMARK H PARENT
REMARK Flexibility Score: inf
ROOT
ATOM      1  C   UNL     1       8.413  -1.113 -38.232  1.00  0.00     0.000 C 
ENDROOT
BRANCH   1   2
ATOM      2  C   UNL     1       7.693  -1.544 -36.944  1.00  0.00     0.000 C 
BRANCH   2   3
ATOM      3  C   UNL     1       7.656  -3.071 -36.770  1.00  0.00     0.000 C 
BRANCH   3   4
ATOM      4  C   UNL     1       6.232  -3.609 -36.557  1.00  0.00     0.000 C 
BRANCH   4   5
ATOM      5  C   UNL     1       6.240  -4.810 -35.598  1.00  0.00     0.000 C 
BRANCH   5   6
ATOM      6  C   UNL     1       7.579  -4.973 -34.861  1.00  0.00     0.000 C 
BRANCH   6   7
ATOM      7  C   UNL     1       7.632  -6.249 -34.003  1.00  0.00     0.006 C 
BRANCH   7   8
ATOM      8  C   UNL     1       6.384  -7.122 -34.187  1.00  0.00     0.053 C 
BRANCH   8   9
ATOM      9  C   UNL     1       6.695  -8.579 -34.023  1.00  0.00     0.041 C 
ATOM     10  O   UNL     1       7.868  -9.001 -34.198  1.00  0.00    -0.550 OA
ATOM     11  O   UNL     1       5.681  -9.474 -33.706  1.00  0.00    -0.550 OA
ENDBRANCH   8   9
ENDBRANCH   7   8
ENDBRANCH   6   7
ENDBRANCH   5   6
ENDBRANCH   4   5
ENDBRANCH   3   4
ENDBRANCH   2   3
ENDBRANCH   1   2
BRANCH   1  12
ATOM     12  C   UNL     1       8.821   0.365 -38.163  1.00  0.00     0.000 C 
BRANCH  12  13
ATOM     13  C   UNL     1       7.704   1.275 -37.619  1.00  0.00    -0.000 C 
BRANCH  13  14
ATOM     14  C   UNL     1       8.143   2.269 -36.527  1.00  0.00    -0.000 C 
BRANCH  14  15
ATOM     15  C   UNL     1       7.711   1.838 -35.116  1.00  0.00    -0.000 C 
BRANCH  15  16
ATOM     16  C   UNL     1       8.889   1.343 -34.261  1.00  0.00    -0.000 C 
BRANCH  16  17
ATOM     17  C   UNL     1      10.242   1.456 -34.987  1.00  0.00    -0.000 C 
BRANCH  17  18
ATOM     18  C   UNL     1      11.401   1.754 -34.014  1.00  0.00    -0.000 C 
BRANCH  18  19
ATOM     19  C   UNL     1      12.536   2.579 -34.643  1.00  0.00    -0.003 C 
ATOM     20  C   UNL     1      13.815   1.772 -34.858  1.00  0.00     0.004 C 
ENDBRANCH  18  19
ENDBRANCH  17  18
ENDBRANCH  16  17
ENDBRANCH  15  16
ENDBRANCH  14  15
ENDBRANCH  13  14
ENDBRANCH  12  13
ENDBRANCH   1  12
TORSDOF 16
ENDMDL
MODEL 7
REMARK VINA RESULT:    -5.119      2.439      5.999
REMARK INTER + INTRA:         -11.802
REMARK INTER:                 -10.490
REMARK INTRA:                  -1.312
REMARK UNBOUND:                -1.895
REMARK SMILES CCCCCCCCCCCCCCCCCC(=O)[O-]
REMARK SMILES IDX 10 1 11 2 12 3 13 4 14 5 15 6 16 7 17 8 18 9 19 10 20 11
REMARK SMILES IDX 9 12 8 13 7 14 6 15 5 16 4 17 3 18 2 19 1 20
REMARK H PARENT
REMARK Flexibility Score: inf
ROOT
ATOM      1  C   UNL     1      11.491   1.618 -32.819  1.00  0.00     0.000 C 
ENDROOT
BRANCH   1   2
ATOM      2  C   UNL     1      12.137   2.515 -33.886  1.00  0.00     0.000 C 
BRANCH   2   3
ATOM      3  C   UNL     1      11.553   2.282 -35.288  1.00  0.00     0.000 C 
BRANCH   3   4
ATOM      4  C   UNL     1      10.218   1.522 -35.256  1.00  0.00     0.000 C 
BRANCH   4   5
ATOM      5  C   UNL     1       9.437   1.733 -36.563  1.00  0.00     0.000 C 
BRANCH   5   6
ATOM      6  C   UNL     1       8.002   2.226 -36.323  1.00  0.00     0.000 C 
BRANCH   6   7
ATOM      7  C   UNL     1       7.329   1.533 -35.125  1.00  0.00     0.006 C 
BRANCH   7   8
ATOM      8  C   UNL     1       6.555   0.277 -35.543  1.00  0.00     0.053 C 
BRANCH   8   9
ATOM      9  C   UNL     1       5.611  -0.178 -34.472  1.00  0.00     0.041 C 
ATOM     10  O   UNL     1       4.978   0.666 -33.784  1.00  0.00    -0.550 OA
ATOM     11  O   UNL     1       5.455  -1.533 -34.213  1.00  0.00    -0.550 OA
ENDBRANCH   8   9
ENDBRANCH   7   8
ENDBRANCH   6   7
ENDBRANCH   5   6
ENDBRANCH   4   5
ENDBRANCH   3   4
ENDBRANCH   2   3
ENDBRANCH   1   2
BRANCH   1  12
ATOM     12  C   UNL     1      10.988   2.452 -31.632  1.00  0.00     0.000 C 
BRANCH  12  13
ATOM     13  C   UNL     1       9.726   1.865 -30.973  1.00  0.00    -0.000 C 
BRANCH  13  14
ATOM     14  C   UNL     1       8.561   1.573 -31.937  1.00  0.00    -0.000 C 
BRANCH  14  15
ATOM     15  C   UNL     1       7.206   2.071 -31.407  1.00  0.00    -0.000 C 
BRANCH  15  16
ATOM     16  C   UNL     1       6.960   1.673 -29.943  1.00  0.00    -0.000 C 
BRANCH  16  17
ATOM     17  C   UNL     1       6.524   0.204 -29.789  1.00  0.00    -0.000 C 
BRANCH  17  18
ATOM     18  C   UNL     1       6.157  -0.143 -28.331  1.00  0.00    -0.000 C 
BRANCH  18  19
ATOM     19  C   UNL     1       7.380  -0.413 -27.438  1.00  0.00    -0.003 C 
ATOM     20  C   UNL     1       8.012   0.863 -26.886  1.00  0.00     0.004 C 
ENDBRANCH  18  19
ENDBRANCH  17  18
ENDBRANCH  16  17
ENDBRANCH  15  16
ENDBRANCH  14  15
ENDBRANCH  13  14
ENDBRANCH  12  13
ENDBRANCH   1  12
TORSDOF 16
ENDMDL
MODEL 8
REMARK VINA RESULT:    -5.052      9.951     12.023
REMARK INTER + INTRA:         -11.672
REMARK INTER:                  -9.014
REMARK INTRA:                  -2.658
REMARK UNBOUND:                -1.895
REMARK SMILES CCCCCCCCCCCCCCCCCC(=O)[O-]
REMARK SMILES IDX 10 1 11 2 12 3 13 4 14 5 15 6 16 7 17 8 18 9 19 10 20 11
REMARK SMILES IDX 9 12 8 13 7 14 6 15 5 16 4 17 3 18 2 19 1 20
REMARK H PARENT
REMARK Flexibility Score: inf
ROOT
ATOM      1  C   UNL     1       5.520  -9.389 -30.493  1.00  0.00     0.000 C 
ENDROOT
BRANCH   1   2
ATOM      2  C   UNL     1       6.040  -8.894 -29.134  1.00  0.00     0.000 C 
BRANCH   2   3
ATOM      3  C   UNL     1       7.563  -9.050 -28.991  1.00  0.00     0.000 C 
BRANCH   3   4
ATOM      4  C   UNL     1       8.273  -7.713 -28.727  1.00  0.00     0.000 C 
BRANCH   4   5
ATOM      5  C   UNL     1       9.488  -7.913 -27.807  1.00  0.00     0.000 C 
BRANCH   5   6
ATOM      6  C   UNL     1      10.218  -9.240 -28.067  1.00  0.00     0.000 C 
BRANCH   6   7
ATOM      7  C   UNL     1      10.345 -10.104 -26.800  1.00  0.00     0.006 C 
BRANCH   7   8
ATOM      8  C   UNL     1      10.585 -11.583 -27.130  1.00  0.00     0.053 C 
BRANCH   8   9
ATOM      9  C   UNL     1       9.319 -12.381 -27.061  1.00  0.00     0.041 C 
ATOM     10  O   UNL     1       8.609 -12.534 -28.090  1.00  0.00    -0.550 OA
ATOM     11  O   UNL     1       8.909 -12.931 -25.854  1.00  0.00    -0.550 OA
ENDBRANCH   8   9
ENDBRANCH   7   8
ENDBRANCH   6   7
ENDBRANCH   5   6
ENDBRANCH   4   5
ENDBRANCH   3   4
ENDBRANCH   2   3
ENDBRANCH   1   2
BRANCH   1  12
ATOM     12  C   UNL     1       4.735  -8.284 -31.215  1.00  0.00     0.000 C 
BRANCH  12  13
ATOM     13  C   UNL     1       5.500  -7.684 -32.410  1.00  0.00    -0.000 C 
BRANCH  13  14
ATOM     14  C   UNL     1       6.735  -6.843 -32.040  1.00  0.00    -0.000 C 
BRANCH  14  15
ATOM     15  C   UNL     1       8.049  -7.440 -32.572  1.00  0.00    -0.000 C 
BRANCH  15  16
ATOM     16  C   UNL     1       7.816  -8.581 -33.576  1.00  0.00    -0.000 C 
BRANCH  16  17
ATOM     17  C   UNL     1       8.908  -9.665 -33.512  1.00  0.00    -0.000 C 
BRANCH  17  18
ATOM     18  C   UNL     1       9.767  -9.551 -32.236  1.00  0.00    -0.000 C 
BRANCH  18  19
ATOM     19  C   UNL     1       9.721 -10.807 -31.350  1.00  0.00    -0.003 C 
ATOM     20  C   UNL     1       8.433 -11.610 -31.515  1.00  0.00     0.004 C 
ENDBRANCH  18  19
ENDBRANCH  17  18
ENDBRANCH  16  17
ENDBRANCH  15  16
ENDBRANCH  14  15
ENDBRANCH  13  14
ENDBRANCH  12  13
ENDBRANCH   1  12
TORSDOF 16
ENDMDL
MODEL 9
REMARK VINA RESULT:    -4.985      8.718     11.326
REMARK INTER + INTRA:         -11.542
REMARK INTER:                  -8.518
REMARK INTRA:                  -3.024
REMARK UNBOUND:                -1.895
REMARK SMILES CCCCCCCCCCCCCCCCCC(=O)[O-]
REMARK SMILES IDX 10 1 11 2 12 3 13 4 14 5 15 6 16 7 17 8 18 9 19 10 20 11
REMARK SMILES IDX 9 12 8 13 7 14 6 15 5 16 4 17 3 18 2 19 1 20
REMARK H PARENT
REMARK Flexibility Score: inf
ROOT
ATOM      1  C   UNL     1       5.332  -7.711 -30.755  1.00  0.00     0.000 C 
ENDROOT
BRANCH   1   2
ATOM      2  C   UNL     1       5.946  -7.561 -29.354  1.00  0.00     0.000 C 
BRANCH   2   3
ATOM      3  C   UNL     1       7.049  -6.491 -29.303  1.00  0.00     0.000 C 
BRANCH   3   4
ATOM      4  C   UNL     1       8.461  -7.089 -29.402  1.00  0.00     0.000 C 
BRANCH   4   5
ATOM      5  C   UNL     1       9.160  -7.068 -28.033  1.00  0.00     0.000 C 
BRANCH   5   6
ATOM      6  C   UNL     1       9.711  -8.445 -27.627  1.00  0.00     0.000 C 
BRANCH   6   7
ATOM      7  C   UNL     1       9.116  -9.591 -28.465  1.00  0.00     0.006 C 
BRANCH   7   8
ATOM      8  C   UNL     1      10.161 -10.660 -28.806  1.00  0.00     0.053 C 
BRANCH   8   9
ATOM      9  C   UNL     1      11.421 -10.055 -29.345  1.00  0.00     0.041 C 
ATOM     10  O   UNL     1      11.410  -9.435 -30.440  1.00  0.00    -0.550 OA
ATOM     11  O   UNL     1      12.614 -10.202 -28.649  1.00  0.00    -0.550 OA
ENDBRANCH   8   9
ENDBRANCH   7   8
ENDBRANCH   6   7
ENDBRANCH   5   6
ENDBRANCH   4   5
ENDBRANCH   3   4
ENDBRANCH   2   3
ENDBRANCH   1   2
BRANCH   1  12
ATOM     12  C   UNL     1       5.112  -9.191 -31.101  1.00  0.00     0.000 C 
BRANCH  12  13
ATOM     13  C   UNL     1       6.285 -10.091 -30.672  1.00  0.00    -0.000 C 
BRANCH  13  14
ATOM     14  C   UNL     1       7.197 -10.569 -31.817  1.00  0.00    -0.000 C 
BRANCH  14  15
ATOM     15  C   UNL     1       8.368  -9.610 -32.092  1.00  0.00    -0.000 C 
BRANCH  15  16
ATOM     16  C   UNL     1       8.213  -8.854 -33.421  1.00  0.00    -0.000 C 
BRANCH  16  17
ATOM     17  C   UNL     1       7.866  -7.367 -33.226  1.00  0.00    -0.000 C 
BRANCH  17  18
ATOM     18  C   UNL     1       6.713  -6.913 -34.146  1.00  0.00    -0.000 C 
BRANCH  18  19
ATOM     19  C   UNL     1       5.968  -8.079 -34.817  1.00  0.00    -0.003 C 
ATOM     20  C   UNL     1       4.468  -8.078 -34.526  1.00  0.00     0.004 C 
ENDBRANCH  18  19
ENDBRANCH  17  18
ENDBRANCH  16  17
ENDBRANCH  15  16
ENDBRANCH  14  15
ENDBRANCH  13  14
ENDBRANCH  12  13
ENDBRANCH   1  12
TORSDOF 16
ENDMDL
