MODEL 1
REMARK VINA RESULT:    -3.079      0.000      0.000
REMARK INTER + INTRA:          -3.730
REMARK INTER:                  -3.620
REMARK INTRA:                  -0.111
REMARK UNBOUND:                -0.111
REMARK SMILES O=C([O-])CCC(=O)[O-]
REMARK SMILES IDX 4 1 2 2 1 3 3 4 5 5 6 6 7 7 8 8
REMARK H PARENT
REMARK Flexibility Score: inf
ROOT
ATOM      1  C   UNL     1     -14.993  10.456  31.919  1.00  0.00     0.059 C 
ENDROOT
BRANCH   1   2
ATOM      2  C   UNL     1     -14.327   9.222  32.449  1.00  0.00     0.042 C 
ATOM      3  O   UNL     1     -13.947   9.173  33.649  1.00  0.00    -0.550 OA
ATOM      4  O   UNL     1     -14.089   8.144  31.606  1.00  0.00    -0.550 OA
ENDBRANCH   1   2
BRANCH   1   5
ATOM      5  C   UNL     1     -15.479  10.262  30.479  1.00  0.00     0.059 C 
BRANCH   5   6
ATOM      6  C   UNL     1     -14.579  10.950  29.498  1.00  0.00     0.042 C 
ATOM      7  O   UNL     1     -14.608  12.204  29.381  1.00  0.00    -0.550 OA
ATOM      8  O   UNL     1     -13.681  10.209  28.740  1.00  0.00    -0.550 OA
ENDBRANCH   5   6
ENDBRANCH   1   5
TORSDOF 3
ENDMDL
MODEL 2
REMARK VINA RESULT:    -3.076      0.059      3.703
REMARK INTER + INTRA:          -3.726
REMARK INTER:                  -3.619
REMARK INTRA:                  -0.108
REMARK UNBOUND:                -0.111
REMARK SMILES O=C([O-])CCC(=O)[O-]
REMARK SMILES IDX 4 1 2 2 1 3 3 4 5 5 6 6 7 7 8 8
REMARK H PARENT
REMARK Flexibility Score: inf
ROOT
ATOM      1  C   UNL     1     -15.453  10.230  30.517  1.00  0.00     0.059 C 
ENDROOT
BRANCH   1   2
ATOM      2  C   UNL     1     -14.559  10.918  29.529  1.00  0.00     0.042 C 
ATOM      3  O   UNL     1     -14.624  12.166  29.378  1.00  0.00    -0.550 OA
ATOM      4  O   UNL     1     -13.686  10.174  28.747  1.00  0.00    -0.550 OA
ENDBRANCH   1   2
BRANCH   1   5
ATOM      5  C   UNL     1     -14.978  10.450  31.957  1.00  0.00     0.059 C 
BRANCH   5   6
ATOM      6  C   UNL     1     -14.295   9.233  32.503  1.00  0.00     0.042 C 
ATOM      7  O   UNL     1     -13.984   9.173  33.721  1.00  0.00    -0.550 OA
ATOM      8  O   UNL     1     -14.037   8.149  31.673  1.00  0.00    -0.550 OA
ENDBRANCH   5   6
ENDBRANCH   1   5
TORSDOF 3
ENDMDL
MODEL 3
REMARK VINA RESULT:    -3.015      2.462      3.002
REMARK INTER + INTRA:          -3.655
REMARK INTER:                  -3.528
REMARK INTRA:                  -0.127
REMARK UNBOUND:                -0.111
REMARK SMILES O=C([O-])CCC(=O)[O-]
REMARK SMILES IDX 4 1 2 2 1 3 3 4 5 5 6 6 7 7 8 8
REMARK H PARENT
REMARK Flexibility Score: inf
ROOT
ATOM      1  C   UNL     1     -15.387   9.962  32.171  1.00  0.00     0.059 C 
ENDROOT
BRANCH   1   2
ATOM      2  C   UNL     1     -14.272   9.074  32.634  1.00  0.00     0.042 C 
ATOM      3  O   UNL     1     -13.797   9.205  33.793  1.00  0.00    -0.550 OA
ATOM      4  O   UNL     1     -13.730   8.131  31.771  1.00  0.00    -0.550 OA
ENDBRANCH   1   2
BRANCH   1   5
ATOM      5  C   UNL     1     -16.759   9.366  32.503  1.00  0.00     0.059 C 
BRANCH   5   6
ATOM      6  C   UNL     1     -17.309   8.577  31.355  1.00  0.00     0.042 C 
ATOM      7  O   UNL     1     -18.049   9.132  30.500  1.00  0.00    -0.550 OA
ATOM      8  O   UNL     1     -16.973   7.237  31.207  1.00  0.00    -0.550 OA
ENDBRANCH   5   6
ENDBRANCH   1   5
TORSDOF 3
ENDMDL
MODEL 4
REMARK VINA RESULT:    -2.943      2.471      3.440
REMARK INTER + INTRA:          -3.570
REMARK INTER:                  -3.398
REMARK INTRA:                  -0.173
REMARK UNBOUND:                -0.111
REMARK SMILES O=C([O-])CCC(=O)[O-]
REMARK SMILES IDX 4 1 2 2 1 3 3 4 5 5 6 6 7 7 8 8
REMARK H PARENT
REMARK Flexibility Score: inf
ROOT
ATOM      1  C   UNL     1     -14.883   9.658  31.841  1.00  0.00     0.059 C 
ENDROOT
BRANCH   1   2
ATOM      2  C   UNL     1     -16.339   9.394  32.073  1.00  0.00     0.042 C 
ATOM      3  O   UNL     1     -16.765   9.170  33.237  1.00  0.00    -0.550 OA
ATOM      4  O   UNL     1     -17.219   9.352  30.999  1.00  0.00    -0.550 OA
ENDBRANCH   1   2
BRANCH   1   5
ATOM      5  C   UNL     1     -14.044   8.386  32.004  1.00  0.00     0.059 C 
BRANCH   5   6
ATOM      6  C   UNL     1     -14.395   7.359  30.970  1.00  0.00     0.042 C 
ATOM      7  O   UNL     1     -14.840   6.234  31.318  1.00  0.00    -0.550 OA
ATOM      8  O   UNL     1     -14.268   7.661  29.620  1.00  0.00    -0.550 OA
ENDBRANCH   5   6
ENDBRANCH   1   5
TORSDOF 3
ENDMDL
MODEL 5
REMARK VINA RESULT:    -2.924      2.134      3.084
REMARK INTER + INTRA:          -3.548
REMARK INTER:                  -3.391
REMARK INTRA:                  -0.157
REMARK UNBOUND:                -0.111
REMARK SMILES O=C([O-])CCC(=O)[O-]
REMARK SMILES IDX 4 1 2 2 1 3 3 4 5 5 6 6 7 7 8 8
REMARK H PARENT
REMARK Flexibility Score: inf
ROOT
ATOM      1  C   UNL     1     -16.355   9.146  32.684  1.00  0.00     0.059 C 
ENDROOT
BRANCH   1   2
ATOM      2  C   UNL     1     -15.044   9.830  32.445  1.00  0.00     0.042 C 
ATOM      3  O   UNL     1     -14.027   9.501  33.111  1.00  0.00    -0.550 OA
ATOM      4  O   UNL     1     -14.955  10.860  31.517  1.00  0.00    -0.550 OA
ENDBRANCH   1   2
BRANCH   1   5
ATOM      5  C   UNL     1     -16.932   8.562  31.390  1.00  0.00     0.059 C 
BRANCH   5   6
ATOM      6  C   UNL     1     -15.948   7.664  30.704  1.00  0.00     0.042 C 
ATOM      7  O   UNL     1     -15.578   7.912  29.526  1.00  0.00    -0.550 OA
ATOM      8  O   UNL     1     -15.411   6.576  31.379  1.00  0.00    -0.550 OA
ENDBRANCH   5   6
ENDBRANCH   1   5
TORSDOF 3
ENDMDL
MODEL 6
REMARK VINA RESULT:    -2.918      2.075      3.308
REMARK INTER + INTRA:          -3.541
REMARK INTER:                  -3.386
REMARK INTRA:                  -0.155
REMARK UNBOUND:                -0.111
REMARK SMILES O=C([O-])CCC(=O)[O-]
REMARK SMILES IDX 4 1 2 2 1 3 3 4 5 5 6 6 7 7 8 8
REMARK H PARENT
REMARK Flexibility Score: inf
ROOT
ATOM      1  C   UNL     1     -17.023   8.744  31.366  1.00  0.00     0.059 C 
ENDROOT
BRANCH   1   2
ATOM      2  C   UNL     1     -16.088   7.796  30.679  1.00  0.00     0.042 C 
ATOM      3  O   UNL     1     -15.755   7.992  29.480  1.00  0.00    -0.550 OA
ATOM      4  O   UNL     1     -15.618   6.674  31.349  1.00  0.00    -0.550 OA
ENDBRANCH   1   2
BRANCH   1   5
ATOM      5  C   UNL     1     -16.403   9.325  32.641  1.00  0.00     0.059 C 
BRANCH   5   6
ATOM      6  C   UNL     1     -15.070   9.953  32.368  1.00  0.00     0.042 C 
ATOM      7  O   UNL     1     -14.049   9.576  33.002  1.00  0.00    -0.550 OA
ATOM      8  O   UNL     1     -14.948  10.927  31.386  1.00  0.00    -0.550 OA
ENDBRANCH   5   6
ENDBRANCH   1   5
TORSDOF 3
ENDMDL
MODEL 7
REMARK VINA RESULT:    -2.905     18.159     18.817
REMARK INTER + INTRA:          -3.525
REMARK INTER:                  -3.408
REMARK INTRA:                  -0.117
REMARK UNBOUND:                -0.111
REMARK SMILES O=C([O-])CCC(=O)[O-]
REMARK SMILES IDX 4 1 2 2 1 3 3 4 5 5 6 6 7 7 8 8
REMARK H PARENT
REMARK Flexibility Score: inf
ROOT
ATOM      1  C   UNL     1     -17.304  -5.001  22.232  1.00  0.00     0.059 C 
ENDROOT
BRANCH   1   2
ATOM      2  C   UNL     1     -18.598  -5.721  22.002  1.00  0.00     0.042 C 
ATOM      3  O   UNL     1     -19.518  -5.661  22.861  1.00  0.00    -0.550 OA
ATOM      4  O   UNL     1     -18.771  -6.494  20.861  1.00  0.00    -0.550 OA
ENDBRANCH   1   2
BRANCH   1   5
ATOM      5  C   UNL     1     -16.163  -5.975  22.545  1.00  0.00     0.059 C 
BRANCH   5   6
ATOM      6  C   UNL     1     -15.219  -6.105  21.388  1.00  0.00     0.042 C 
ATOM      7  O   UNL     1     -15.353  -5.371  20.374  1.00  0.00    -0.550 OA
ATOM      8  O   UNL     1     -14.168  -7.012  21.448  1.00  0.00    -0.550 OA
ENDBRANCH   5   6
ENDBRANCH   1   5
TORSDOF 3
ENDMDL
MODEL 8
REMARK VINA RESULT:    -2.883      1.135      1.965
REMARK INTER + INTRA:          -3.499
REMARK INTER:                  -3.376
REMARK INTRA:                  -0.123
REMARK UNBOUND:                -0.111
REMARK SMILES O=C([O-])CCC(=O)[O-]
REMARK SMILES IDX 4 1 2 2 1 3 3 4 5 5 6 6 7 7 8 8
REMARK H PARENT
REMARK Flexibility Score: inf
ROOT
ATOM      1  C   UNL     1     -15.423  10.038  31.865  1.00  0.00     0.059 C 
ENDROOT
BRANCH   1   2
ATOM      2  C   UNL     1     -14.364   9.097  32.352  1.00  0.00     0.042 C 
ATOM      3  O   UNL     1     -13.943   8.175  31.604  1.00  0.00    -0.550 OA
ATOM      4  O   UNL     1     -13.873   9.211  33.646  1.00  0.00    -0.550 OA
ENDBRANCH   1   2
BRANCH   1   5
ATOM      5  C   UNL     1     -14.916  10.912  30.713  1.00  0.00     0.059 C 
BRANCH   5   6
ATOM      6  C   UNL     1     -15.603  10.578  29.424  1.00  0.00     0.042 C 
ATOM      7  O   UNL     1     -15.345   9.499  28.829  1.00  0.00    -0.550 OA
ATOM      8  O   UNL     1     -16.558  11.440  28.902  1.00  0.00    -0.550 OA
ENDBRANCH   5   6
ENDBRANCH   1   5
TORSDOF 3
ENDMDL
MODEL 9
REMARK VINA RESULT:    -2.838      2.338      3.666
REMARK INTER + INTRA:          -3.446
REMARK INTER:                  -3.328
REMARK INTRA:                  -0.118
REMARK UNBOUND:                -0.111
REMARK SMILES O=C([O-])CCC(=O)[O-]
REMARK SMILES IDX 4 1 2 2 1 3 3 4 5 5 6 6 7 7 8 8
REMARK H PARENT
REMARK Flexibility Score: inf
ROOT
ATOM      1  C   UNL     1     -14.424   7.481  31.229  1.00  0.00     0.059 C 
ENDROOT
BRANCH   1   2
ATOM      2  C   UNL     1     -14.284   7.978  29.823  1.00  0.00     0.042 C 
ATOM      3  O   UNL     1     -13.178   7.892  29.228  1.00  0.00    -0.550 OA
ATOM      4  O   UNL     1     -15.364   8.575  29.185  1.00  0.00    -0.550 OA
ENDBRANCH   1   2
BRANCH   1   5
ATOM      5  C   UNL     1     -14.042   8.558  32.250  1.00  0.00     0.059 C 
BRANCH   5   6
ATOM      6  C   UNL     1     -15.181   9.494  32.516  1.00  0.00     0.042 C 
ATOM      7  O   UNL     1     -16.244   9.068  33.040  1.00  0.00    -0.550 OA
ATOM      8  O   UNL     1     -15.054  10.845  32.219  1.00  0.00    -0.550 OA
ENDBRANCH   5   6
ENDBRANCH   1   5
TORSDOF 3
ENDMDL
