MODEL 1
REMARK VINA RESULT:    -3.159      0.000      0.000
REMARK INTER + INTRA:          -6.782
REMARK INTER:                  -5.376
REMARK INTRA:                  -1.406
REMARK UNBOUND:                -1.406
REMARK SMILES CCCCCCCCCCCCCC(=O)[O-]
REMARK SMILES IDX 8 1 9 2 10 3 11 4 12 5 13 6 14 7 15 8 16 9 7 10 6 11 5 12
REMARK SMILES IDX 4 13 3 14 2 15 1 16
REMARK H PARENT
REMARK Flexibility Score: inf
ROOT
ATOM      1  C   UNL     1      -3.377   8.010  -5.640  1.00  0.00     0.000 C 
ENDROOT
BRANCH   1   2
ATOM      2  C   UNL     1      -2.938   7.878  -7.106  1.00  0.00     0.000 C 
BRANCH   2   3
ATOM      3  C   UNL     1      -1.639   8.641  -7.407  1.00  0.00     0.000 C 
BRANCH   3   4
ATOM      4  C   UNL     1      -1.927  10.125  -7.681  1.00  0.00     0.000 C 
BRANCH   4   5
ATOM      5  C   UNL     1      -1.115  11.068  -6.774  1.00  0.00     0.006 C 
BRANCH   5   6
ATOM      6  C   UNL     1      -0.375  10.360  -5.628  1.00  0.00     0.053 C 
BRANCH   6   7
ATOM      7  C   UNL     1       1.096  10.648  -5.649  1.00  0.00     0.041 C 
ATOM      8  O   UNL     1       1.843  10.072  -6.482  1.00  0.00    -0.550 OA
ATOM      9  O   UNL     1       1.645  11.530  -4.727  1.00  0.00    -0.550 OA
ENDBRANCH   6   7
ENDBRANCH   5   6
ENDBRANCH   4   5
ENDBRANCH   3   4
ENDBRANCH   2   3
ENDBRANCH   1   2
BRANCH   1  10
ATOM     10  C   UNL     1      -4.829   8.493  -5.498  1.00  0.00     0.000 C 
BRANCH  10  11
ATOM     11  C   UNL     1      -4.900   9.783  -4.671  1.00  0.00    -0.000 C 
BRANCH  11  12
ATOM     12  C   UNL     1      -3.542  10.093  -4.022  1.00  0.00    -0.000 C 
BRANCH  12  13
ATOM     13  C   UNL     1      -3.320  11.599  -3.801  1.00  0.00    -0.000 C 
BRANCH  13  14
ATOM     14  C   UNL     1      -3.944  12.103  -2.489  1.00  0.00    -0.000 C 
BRANCH  14  15
ATOM     15  C   UNL     1      -5.040  13.154  -2.724  1.00  0.00    -0.003 C 
ATOM     16  C   UNL     1      -5.735  13.584  -1.432  1.00  0.00     0.004 C 
ENDBRANCH  14  15
ENDBRANCH  13  14
ENDBRANCH  12  13
ENDBRANCH  11  12
ENDBRANCH  10  11
ENDBRANCH   1  10
TORSDOF 12
ENDMDL
MODEL 2
REMARK VINA RESULT:    -3.011      2.712      4.652
REMARK INTER + INTRA:          -6.530
REMARK INTER:                  -5.314
REMARK INTRA:                  -1.216
REMARK UNBOUND:                -1.406
REMARK SMILES CCCCCCCCCCCCCC(=O)[O-]
REMARK SMILES IDX 8 1 9 2 10 3 11 4 12 5 13 6 14 7 15 8 16 9 7 10 6 11 5 12
REMARK SMILES IDX 4 13 3 14 2 15 1 16
REMARK H PARENT
REMARK Flexibility Score: inf
ROOT
ATOM      1  C   UNL     1      -4.170  12.553  -4.456  1.00  0.00     0.000 C 
ENDROOT
BRANCH   1   2
ATOM      2  C   UNL     1      -3.208  11.628  -3.694  1.00  0.00     0.000 C 
BRANCH   2   3
ATOM      3  C   UNL     1      -3.407  10.146  -4.047  1.00  0.00     0.000 C 
BRANCH   3   4
ATOM      4  C   UNL     1      -4.797   9.911  -4.658  1.00  0.00     0.000 C 
BRANCH   4   5
ATOM      5  C   UNL     1      -4.818   8.742  -5.660  1.00  0.00     0.006 C 
BRANCH   5   6
ATOM      6  C   UNL     1      -3.563   7.855  -5.624  1.00  0.00     0.053 C 
BRANCH   6   7
ATOM      7  C   UNL     1      -2.881   7.796  -6.956  1.00  0.00     0.041 C 
ATOM      8  O   UNL     1      -2.655   8.853  -7.601  1.00  0.00    -0.550 OA
ATOM      9  O   UNL     1      -2.522   6.568  -7.499  1.00  0.00    -0.550 OA
ENDBRANCH   6   7
ENDBRANCH   5   6
ENDBRANCH   4   5
ENDBRANCH   3   4
ENDBRANCH   2   3
ENDBRANCH   1   2
BRANCH   1  10
ATOM     10  C   UNL     1      -4.709  13.696  -3.581  1.00  0.00     0.000 C 
BRANCH  10  11
ATOM     11  C   UNL     1      -5.677  13.163  -2.517  1.00  0.00    -0.000 C 
BRANCH  11  12
ATOM     12  C   UNL     1      -5.482  13.898  -1.182  1.00  0.00    -0.000 C 
BRANCH  12  13
ATOM     13  C   UNL     1      -4.874  12.998  -0.092  1.00  0.00    -0.000 C 
BRANCH  13  14
ATOM     14  C   UNL     1      -3.376  12.731  -0.314  1.00  0.00    -0.000 C 
BRANCH  14  15
ATOM     15  C   UNL     1      -2.491  13.875   0.205  1.00  0.00    -0.003 C 
ATOM     16  C   UNL     1      -2.004  14.802  -0.909  1.00  0.00     0.004 C 
ENDBRANCH  14  15
ENDBRANCH  13  14
ENDBRANCH  12  13
ENDBRANCH  11  12
ENDBRANCH  10  11
ENDBRANCH   1  10
TORSDOF 12
ENDMDL
MODEL 3
REMARK VINA RESULT:    -3.000      2.564      5.533
REMARK INTER + INTRA:          -6.511
REMARK INTER:                  -5.137
REMARK INTRA:                  -1.374
REMARK UNBOUND:                -1.406
REMARK SMILES CCCCCCCCCCCCCC(=O)[O-]
REMARK SMILES IDX 8 1 9 2 10 3 11 4 12 5 13 6 14 7 15 8 16 9 7 10 6 11 5 12
REMARK SMILES IDX 4 13 3 14 2 15 1 16
REMARK H PARENT
REMARK Flexibility Score: inf
ROOT
ATOM      1  C   UNL     1      -4.830   9.421  -4.633  1.00  0.00     0.000 C 
ENDROOT
BRANCH   1   2
ATOM      2  C   UNL     1      -3.492   9.898  -4.047  1.00  0.00     0.000 C 
BRANCH   2   3
ATOM      3  C   UNL     1      -3.388  11.429  -3.976  1.00  0.00     0.000 C 
BRANCH   3   4
ATOM      4  C   UNL     1      -4.774  12.063  -3.782  1.00  0.00     0.000 C 
BRANCH   4   5
ATOM      5  C   UNL     1      -4.789  13.141  -2.682  1.00  0.00     0.006 C 
BRANCH   5   6
ATOM      6  C   UNL     1      -4.220  12.675  -1.333  1.00  0.00     0.053 C 
BRANCH   6   7
ATOM      7  C   UNL     1      -3.009  13.461  -0.933  1.00  0.00     0.041 C 
ATOM      8  O   UNL     1      -2.461  13.260   0.182  1.00  0.00    -0.550 OA
ATOM      9  O   UNL     1      -2.505  14.439  -1.782  1.00  0.00    -0.550 OA
ENDBRANCH   6   7
ENDBRANCH   5   6
ENDBRANCH   4   5
ENDBRANCH   3   4
ENDBRANCH   2   3
ENDBRANCH   1   2
BRANCH   1  10
ATOM     10  C   UNL     1      -4.649   8.487  -5.840  1.00  0.00     0.000 C 
BRANCH  10  11
ATOM     11  C   UNL     1      -3.322   7.724  -5.749  1.00  0.00    -0.000 C 
BRANCH  11  12
ATOM     12  C   UNL     1      -2.664   7.602  -7.132  1.00  0.00    -0.000 C 
BRANCH  12  13
ATOM     13  C   UNL     1      -2.812   8.881  -7.974  1.00  0.00    -0.000 C 
BRANCH  13  14
ATOM     14  C   UNL     1      -2.034  10.070  -7.385  1.00  0.00    -0.000 C 
BRANCH  14  15
ATOM     15  C   UNL     1      -0.568   9.723  -7.082  1.00  0.00    -0.003 C 
ATOM     16  C   UNL     1      -0.070  10.342  -5.775  1.00  0.00     0.004 C 
ENDBRANCH  14  15
ENDBRANCH  13  14
ENDBRANCH  12  13
ENDBRANCH  11  12
ENDBRANCH  10  11
ENDBRANCH   1  10
TORSDOF 12
ENDMDL
MODEL 4
REMARK VINA RESULT:    -2.981      1.659      3.242
REMARK INTER + INTRA:          -6.478
REMARK INTER:                  -5.092
REMARK INTRA:                  -1.386
REMARK UNBOUND:                -1.406
REMARK SMILES CCCCCCCCCCCCCC(=O)[O-]
REMARK SMILES IDX 8 1 9 2 10 3 11 4 12 5 13 6 14 7 15 8 16 9 7 10 6 11 5 12
REMARK SMILES IDX 4 13 3 14 2 15 1 16
REMARK H PARENT
REMARK Flexibility Score: inf
ROOT
ATOM      1  C   UNL     1      -5.942  11.332  -5.348  1.00  0.00     0.000 C 
ENDROOT
BRANCH   1   2
ATOM      2  C   UNL     1      -5.010  10.203  -5.814  1.00  0.00     0.000 C 
BRANCH   2   3
ATOM      3  C   UNL     1      -4.296   9.504  -4.647  1.00  0.00     0.000 C 
BRANCH   3   4
ATOM      4  C   UNL     1      -3.552  10.524  -3.771  1.00  0.00     0.000 C 
BRANCH   4   5
ATOM      5  C   UNL     1      -2.442  11.270  -4.534  1.00  0.00     0.006 C 
BRANCH   5   6
ATOM      6  C   UNL     1      -1.510  10.357  -5.347  1.00  0.00     0.053 C 
BRANCH   6   7
ATOM      7  C   UNL     1      -0.094  10.844  -5.330  1.00  0.00     0.041 C 
ATOM      8  O   UNL     1       0.193  11.944  -4.789  1.00  0.00    -0.550 OA
ATOM      9  O   UNL     1       0.906  10.097  -5.940  1.00  0.00    -0.550 OA
ENDBRANCH   6   7
ENDBRANCH   5   6
ENDBRANCH   4   5
ENDBRANCH   3   4
ENDBRANCH   2   3
ENDBRANCH   1   2
BRANCH   1  10
ATOM     10  C   UNL     1      -5.619  12.679  -6.014  1.00  0.00     0.000 C 
BRANCH  10  11
ATOM     11  C   UNL     1      -5.487  13.792  -4.967  1.00  0.00    -0.000 C 
BRANCH  11  12
ATOM     12  C   UNL     1      -5.993  13.317  -3.596  1.00  0.00    -0.000 C 
BRANCH  12  13
ATOM     13  C   UNL     1      -5.066  13.736  -2.443  1.00  0.00    -0.000 C 
BRANCH  13  14
ATOM     14  C   UNL     1      -5.713  13.538  -1.062  1.00  0.00    -0.000 C 
BRANCH  14  15
ATOM     15  C   UNL     1      -4.748  12.913  -0.043  1.00  0.00    -0.003 C 
ATOM     16  C   UNL     1      -3.377  12.596  -0.642  1.00  0.00     0.004 C 
ENDBRANCH  14  15
ENDBRANCH  13  14
ENDBRANCH  12  13
ENDBRANCH  11  12
ENDBRANCH  10  11
ENDBRANCH   1  10
TORSDOF 12
ENDMDL
MODEL 5
REMARK VINA RESULT:    -2.979      3.296      6.250
REMARK INTER + INTRA:          -6.474
REMARK INTER:                  -5.137
REMARK INTRA:                  -1.337
REMARK UNBOUND:                -1.406
REMARK SMILES CCCCCCCCCCCCCC(=O)[O-]
REMARK SMILES IDX 8 1 9 2 10 3 11 4 12 5 13 6 14 7 15 8 16 9 7 10 6 11 5 12
REMARK SMILES IDX 4 13 3 14 2 15 1 16
REMARK H PARENT
REMARK Flexibility Score: inf
ROOT
ATOM      1  C   UNL     1      -4.902  12.664  -5.305  1.00  0.00     0.000 C 
ENDROOT
BRANCH   1   2
ATOM      2  C   UNL     1      -5.416  12.632  -3.857  1.00  0.00     0.000 C 
BRANCH   2   3
ATOM      3  C   UNL     1      -6.349  13.808  -3.533  1.00  0.00     0.000 C 
BRANCH   3   4
ATOM      4  C   UNL     1      -6.373  14.088  -2.022  1.00  0.00     0.000 C 
BRANCH   4   5
ATOM      5  C   UNL     1      -5.308  13.290  -1.249  1.00  0.00     0.006 C 
BRANCH   5   6
ATOM      6  C   UNL     1      -4.833  13.961   0.049  1.00  0.00     0.053 C 
BRANCH   6   7
ATOM      7  C   UNL     1      -3.379  13.709   0.311  1.00  0.00     0.041 C 
ATOM      8  O   UNL     1      -2.750  12.858  -0.370  1.00  0.00    -0.550 OA
ATOM      9  O   UNL     1      -2.728  14.395   1.328  1.00  0.00    -0.550 OA
ENDBRANCH   6   7
ENDBRANCH   5   6
ENDBRANCH   4   5
ENDBRANCH   3   4
ENDBRANCH   2   3
ENDBRANCH   1   2
BRANCH   1  10
ATOM     10  C   UNL     1      -3.575  11.908  -5.479  1.00  0.00     0.000 C 
BRANCH  10  11
ATOM     11  C   UNL     1      -3.091  11.334  -4.142  1.00  0.00    -0.000 C 
BRANCH  11  12
ATOM     12  C   UNL     1      -3.304   9.813  -4.089  1.00  0.00    -0.000 C 
BRANCH  12  13
ATOM     13  C   UNL     1      -3.302   9.164  -5.483  1.00  0.00    -0.000 C 
BRANCH  13  14
ATOM     14  C   UNL     1      -4.473   8.188  -5.682  1.00  0.00    -0.000 C 
BRANCH  14  15
ATOM     15  C   UNL     1      -5.725   8.601  -4.893  1.00  0.00    -0.003 C 
ATOM     16  C   UNL     1      -6.725   9.390  -5.738  1.00  0.00     0.004 C 
ENDBRANCH  14  15
ENDBRANCH  13  14
ENDBRANCH  12  13
ENDBRANCH  11  12
ENDBRANCH  10  11
ENDBRANCH   1  10
TORSDOF 12
ENDMDL
MODEL 6
REMARK VINA RESULT:    -2.948      2.781      4.910
REMARK INTER + INTRA:          -6.422
REMARK INTER:                  -5.053
REMARK INTRA:                  -1.369
REMARK UNBOUND:                -1.406
REMARK SMILES CCCCCCCCCCCCCC(=O)[O-]
REMARK SMILES IDX 8 1 9 2 10 3 11 4 12 5 13 6 14 7 15 8 16 9 7 10 6 11 5 12
REMARK SMILES IDX 4 13 3 14 2 15 1 16
REMARK H PARENT
REMARK Flexibility Score: inf
ROOT
ATOM      1  C   UNL     1      -5.271  11.140  -5.562  1.00  0.00     0.000 C 
ENDROOT
BRANCH   1   2
ATOM      2  C   UNL     1      -4.563  11.318  -4.209  1.00  0.00     0.000 C 
BRANCH   2   3
ATOM      3  C   UNL     1      -3.390  10.345  -4.022  1.00  0.00     0.000 C 
BRANCH   3   4
ATOM      4  C   UNL     1      -3.508   9.153  -4.983  1.00  0.00     0.000 C 
BRANCH   4   5
ATOM      5  C   UNL     1      -2.431   9.162  -6.083  1.00  0.00     0.006 C 
BRANCH   5   6
ATOM      6  C   UNL     1      -2.870   8.514  -7.405  1.00  0.00     0.053 C 
BRANCH   6   7
ATOM      7  C   UNL     1      -1.847   7.551  -7.924  1.00  0.00     0.041 C 
ATOM      8  O   UNL     1      -2.113   6.323  -8.000  1.00  0.00    -0.550 OA
ATOM      9  O   UNL     1      -0.588   8.007  -8.295  1.00  0.00    -0.550 OA
ENDBRANCH   6   7
ENDBRANCH   5   6
ENDBRANCH   4   5
ENDBRANCH   3   4
ENDBRANCH   2   3
ENDBRANCH   1   2
BRANCH   1  10
ATOM     10  C   UNL     1      -6.784  11.397  -5.477  1.00  0.00     0.000 C 
BRANCH  10  11
ATOM     11  C   UNL     1      -7.569  10.303  -6.210  1.00  0.00    -0.000 C 
BRANCH  11  12
ATOM     12  C   UNL     1      -6.627   9.206  -6.728  1.00  0.00    -0.000 C 
BRANCH  12  13
ATOM     13  C   UNL     1      -6.977   7.813  -6.175  1.00  0.00    -0.000 C 
BRANCH  13  14
ATOM     14  C   UNL     1      -6.748   7.704  -4.659  1.00  0.00    -0.000 C 
BRANCH  14  15
ATOM     15  C   UNL     1      -8.001   7.228  -3.907  1.00  0.00    -0.003 C 
ATOM     16  C   UNL     1      -7.805   5.873  -3.227  1.00  0.00     0.004 C 
ENDBRANCH  14  15
ENDBRANCH  13  14
ENDBRANCH  12  13
ENDBRANCH  11  12
ENDBRANCH  10  11
ENDBRANCH   1  10
TORSDOF 12
ENDMDL
MODEL 7
REMARK VINA RESULT:    -2.904     11.692     14.174
REMARK INTER + INTRA:          -6.348
REMARK INTER:                  -4.767
REMARK INTRA:                  -1.581
REMARK UNBOUND:                -1.406
REMARK SMILES CCCCCCCCCCCCCC(=O)[O-]
REMARK SMILES IDX 8 1 9 2 10 3 11 4 12 5 13 6 14 7 15 8 16 9 7 10 6 11 5 12
REMARK SMILES IDX 4 13 3 14 2 15 1 16
REMARK H PARENT
REMARK Flexibility Score: inf
ROOT
ATOM      1  C   UNL     1       8.854   9.203  -0.630  1.00  0.00     0.000 C 
ENDROOT
BRANCH   1   2
ATOM      2  C   UNL     1       9.855   8.132  -0.169  1.00  0.00     0.000 C 
BRANCH   2   3
ATOM      3  C   UNL     1       9.333   6.703  -0.380  1.00  0.00     0.000 C 
BRANCH   3   4
ATOM      4  C   UNL     1       9.233   5.952   0.957  1.00  0.00     0.000 C 
BRANCH   4   5
ATOM      5  C   UNL     1      10.587   5.392   1.429  1.00  0.00     0.006 C 
BRANCH   5   6
ATOM      6  C   UNL     1      10.930   4.005   0.862  1.00  0.00     0.053 C 
BRANCH   6   7
ATOM      7  C   UNL     1       9.865   2.996   1.166  1.00  0.00     0.041 C 
ATOM      8  O   UNL     1       9.568   2.728   2.359  1.00  0.00    -0.550 OA
ATOM      9  O   UNL     1       9.223   2.329   0.130  1.00  0.00    -0.550 OA
ENDBRANCH   6   7
ENDBRANCH   5   6
ENDBRANCH   4   5
ENDBRANCH   3   4
ENDBRANCH   2   3
ENDBRANCH   1   2
BRANCH   1  10
ATOM     10  C   UNL     1       7.401   8.703  -0.613  1.00  0.00     0.000 C 
BRANCH  10  11
ATOM     11  C   UNL     1       6.605   9.366   0.517  1.00  0.00    -0.000 C 
BRANCH  11  12
ATOM     12  C   UNL     1       6.727   8.560   1.819  1.00  0.00    -0.000 C 
BRANCH  12  13
ATOM     13  C   UNL     1       7.391   9.359   2.953  1.00  0.00    -0.000 C 
BRANCH  13  14
ATOM     14  C   UNL     1       8.865   8.975   3.162  1.00  0.00    -0.000 C 
BRANCH  14  15
ATOM     15  C   UNL     1       9.140   8.439   4.576  1.00  0.00    -0.003 C 
ATOM     16  C   UNL     1      10.119   7.264   4.585  1.00  0.00     0.004 C 
ENDBRANCH  14  15
ENDBRANCH  13  14
ENDBRANCH  12  13
ENDBRANCH  11  12
ENDBRANCH  10  11
ENDBRANCH   1  10
TORSDOF 12
ENDMDL
MODEL 8
REMARK VINA RESULT:    -2.895      1.423      2.615
REMARK INTER + INTRA:          -6.332
REMARK INTER:                  -4.082
REMARK INTRA:                  -2.250
REMARK UNBOUND:                -1.406
REMARK SMILES CCCCCCCCCCCCCC(=O)[O-]
REMARK SMILES IDX 8 1 9 2 10 3 11 4 12 5 13 6 14 7 15 8 16 9 7 10 6 11 5 12
REMARK SMILES IDX 4 13 3 14 2 15 1 16
REMARK H PARENT
REMARK Flexibility Score: inf
ROOT
ATOM      1  C   UNL     1      -4.629   8.351  -5.566  1.00  0.00     0.000 C 
ENDROOT
BRANCH   1   2
ATOM      2  C   UNL     1      -3.119   8.180  -5.800  1.00  0.00     0.000 C 
BRANCH   2   3
ATOM      3  C   UNL     1      -2.714   8.429  -7.260  1.00  0.00     0.000 C 
BRANCH   3   4
ATOM      4  C   UNL     1      -1.300   9.025  -7.342  1.00  0.00     0.000 C 
BRANCH   4   5
ATOM      5  C   UNL     1      -0.938   9.875  -6.110  1.00  0.00     0.006 C 
BRANCH   5   6
ATOM      6  C   UNL     1       0.227  10.852  -6.336  1.00  0.00     0.053 C 
BRANCH   6   7
ATOM      7  C   UNL     1       1.506  10.346  -5.742  1.00  0.00     0.041 C 
ATOM      8  O   UNL     1       2.102   9.366  -6.260  1.00  0.00    -0.550 OA
ATOM      9  O   UNL     1       2.021  10.938  -4.596  1.00  0.00    -0.550 OA
ENDBRANCH   6   7
ENDBRANCH   5   6
ENDBRANCH   4   5
ENDBRANCH   3   4
ENDBRANCH   2   3
ENDBRANCH   1   2
BRANCH   1  10
ATOM     10  C   UNL     1      -4.955   9.548  -4.660  1.00  0.00     0.000 C 
BRANCH  10  11
ATOM     11  C   UNL     1      -3.714  10.004  -3.883  1.00  0.00    -0.000 C 
BRANCH  11  12
ATOM     12  C   UNL     1      -3.504  11.519  -4.024  1.00  0.00    -0.000 C 
BRANCH  12  13
ATOM     13  C   UNL     1      -4.260  12.114  -5.225  1.00  0.00    -0.000 C 
BRANCH  13  14
ATOM     14  C   UNL     1      -3.314  12.688  -6.293  1.00  0.00    -0.000 C 
BRANCH  14  15
ATOM     15  C   UNL     1      -3.529  12.051  -7.674  1.00  0.00    -0.003 C 
ATOM     16  C   UNL     1      -4.915  11.424  -7.829  1.00  0.00     0.004 C 
ENDBRANCH  14  15
ENDBRANCH  13  14
ENDBRANCH  12  13
ENDBRANCH  11  12
ENDBRANCH  10  11
ENDBRANCH   1  10
TORSDOF 12
ENDMDL
MODEL 9
REMARK VINA RESULT:    -2.873     11.541     13.458
REMARK INTER + INTRA:          -6.294
REMARK INTER:                  -4.387
REMARK INTRA:                  -1.907
REMARK UNBOUND:                -1.406
REMARK SMILES CCCCCCCCCCCCCC(=O)[O-]
REMARK SMILES IDX 8 1 9 2 10 3 11 4 12 5 13 6 14 7 15 8 16 9 7 10 6 11 5 12
REMARK SMILES IDX 4 13 3 14 2 15 1 16
REMARK H PARENT
REMARK Flexibility Score: inf
ROOT
ATOM      1  C   UNL     1       7.283  10.708  -0.288  1.00  0.00     0.000 C 
ENDROOT
BRANCH   1   2
ATOM      2  C   UNL     1       8.783  11.016  -0.154  1.00  0.00     0.000 C 
BRANCH   2   3
ATOM      3  C   UNL     1       9.648   9.747  -0.130  1.00  0.00     0.000 C 
BRANCH   3   4
ATOM      4  C   UNL     1       9.111   8.699  -1.118  1.00  0.00     0.000 C 
BRANCH   4   5
ATOM      5  C   UNL     1       8.939   7.309  -0.479  1.00  0.00     0.006 C 
BRANCH   5   6
ATOM      6  C   UNL     1       9.916   7.017   0.672  1.00  0.00     0.053 C 
BRANCH   6   7
ATOM      7  C   UNL     1       9.560   5.759   1.404  1.00  0.00     0.041 C 
ATOM      8  O   UNL     1       9.195   4.737   0.767  1.00  0.00    -0.550 OA
ATOM      9  O   UNL     1       9.601   5.728   2.792  1.00  0.00    -0.550 OA
ENDBRANCH   6   7
ENDBRANCH   5   6
ENDBRANCH   4   5
ENDBRANCH   3   4
ENDBRANCH   2   3
ENDBRANCH   1   2
BRANCH   1  10
ATOM     10  C   UNL     1       6.589  10.540   1.073  1.00  0.00     0.000 C 
BRANCH  10  11
ATOM     11  C   UNL     1       6.192   9.077   1.309  1.00  0.00    -0.000 C 
BRANCH  11  12
ATOM     12  C   UNL     1       7.043   8.452   2.426  1.00  0.00    -0.000 C 
BRANCH  12  13
ATOM     13  C   UNL     1       7.676   9.505   3.351  1.00  0.00    -0.000 C 
BRANCH  13  14
ATOM     14  C   UNL     1       9.115   9.147   3.757  1.00  0.00    -0.000 C 
BRANCH  14  15
ATOM     15  C   UNL     1       9.178   8.374   5.083  1.00  0.00    -0.003 C 
ATOM     16  C   UNL     1       8.615   9.170   6.261  1.00  0.00     0.004 C 
ENDBRANCH  14  15
ENDBRANCH  13  14
ENDBRANCH  12  13
ENDBRANCH  11  12
ENDBRANCH  10  11
ENDBRANCH   1  10
TORSDOF 12
ENDMDL
