MODEL 1
REMARK VINA RESULT:     0.000      0.000      0.000
REMARK INTER + INTRA:          -3.377
REMARK INTER:                   0.000
REMARK INTRA:                  -3.377
REMARK UNBOUND:                -3.377
REMARK SMILES CCCCCCCCCCCCCCCCC
REMARK SMILES IDX 9 1 8 2 7 3 6 4 5 5 4 6 3 7 2 8 1 9 10 10 11 11 12 12 13 13
REMARK SMILES IDX 14 14 15 15 16 16 17 17
REMARK H PARENT
REMARK Flexibility Score: inf
ROOT
ATOM      1  C   UNL     1      15.138  20.599  49.216  1.00  0.00    -0.000 C 
ENDROOT
BRANCH   1   2
ATOM      2  C   UNL     1      16.566  20.831  48.689  1.00  0.00    -0.000 C 
BRANCH   2   3
ATOM      3  C   UNL     1      16.768  20.536  47.191  1.00  0.00    -0.000 C 
BRANCH   3   4
ATOM      4  C   UNL     1      16.669  21.797  46.314  1.00  0.00    -0.000 C 
BRANCH   4   5
ATOM      5  C   UNL     1      15.449  21.775  45.379  1.00  0.00    -0.000 C 
BRANCH   5   6
ATOM      6  C   UNL     1      14.819  20.377  45.265  1.00  0.00    -0.000 C 
BRANCH   6   7
ATOM      7  C   UNL     1      13.318  20.367  45.606  1.00  0.00    -0.000 C 
BRANCH   7   8
ATOM      8  C   UNL     1      12.874  19.237  46.553  1.00  0.00    -0.003 C 
ATOM      9  C   UNL     1      13.913  18.124  46.688  1.00  0.00     0.004 C 
ENDBRANCH   7   8
ENDBRANCH   6   7
ENDBRANCH   5   6
ENDBRANCH   4   5
ENDBRANCH   3   4
ENDBRANCH   2   3
ENDBRANCH   1   2
BRANCH   1  10
ATOM     10  C   UNL     1      14.428  21.901  49.622  1.00  0.00    -0.000 C 
BRANCH  10  11
ATOM     11  C   UNL     1      13.156  22.175  48.799  1.00  0.00    -0.000 C 
BRANCH  11  12
ATOM     12  C   UNL     1      13.223  23.398  47.865  1.00  0.00    -0.000 C 
BRANCH  12  13
ATOM     13  C   UNL     1      14.245  24.451  48.327  1.00  0.00    -0.000 C 
BRANCH  13  14
ATOM     14  C   UNL     1      15.059  25.035  47.160  1.00  0.00    -0.000 C 
BRANCH  14  15
ATOM     15  C   UNL     1      16.521  25.313  47.538  1.00  0.00    -0.000 C 
BRANCH  15  16
ATOM     16  C   UNL     1      16.896  24.592  48.839  1.00  0.00    -0.003 C 
ATOM     17  C   UNL     1      18.339  24.099  48.801  1.00  0.00     0.004 C 
ENDBRANCH  15  16
ENDBRANCH  14  15
ENDBRANCH  13  14
ENDBRANCH  12  13
ENDBRANCH  11  12
ENDBRANCH  10  11
ENDBRANCH   1  10
TORSDOF 14
ENDMDL
MODEL 2
REMARK VINA RESULT:     0.001      2.872      4.759
REMARK INTER + INTRA:          -3.375
REMARK INTER:                   0.000
REMARK INTRA:                  -3.375
REMARK UNBOUND:                -3.377
REMARK SMILES CCCCCCCCCCCCCCCCC
REMARK SMILES IDX 9 1 8 2 7 3 6 4 5 5 4 6 3 7 2 8 1 9 10 10 11 11 12 12 13 13
REMARK SMILES IDX 14 14 15 15 16 16 17 17
REMARK H PARENT
REMARK Flexibility Score: inf
ROOT
ATOM      1  C   UNL     1      14.554  20.937  50.291  1.00  0.00    -0.000 C 
ENDROOT
BRANCH   1   2
ATOM      2  C   UNL     1      15.514  19.929  50.949  1.00  0.00    -0.000 C 
BRANCH   2   3
ATOM      3  C   UNL     1      15.818  18.671  50.113  1.00  0.00    -0.000 C 
BRANCH   3   4
ATOM      4  C   UNL     1      17.326  18.425  49.928  1.00  0.00    -0.000 C 
BRANCH   4   5
ATOM      5  C   UNL     1      17.998  19.491  49.047  1.00  0.00    -0.000 C 
BRANCH   5   6
ATOM      6  C   UNL     1      17.384  19.562  47.639  1.00  0.00    -0.000 C 
BRANCH   6   7
ATOM      7  C   UNL     1      16.998  20.994  47.225  1.00  0.00    -0.000 C 
BRANCH   7   8
ATOM      8  C   UNL     1      15.567  21.150  46.680  1.00  0.00    -0.003 C 
ATOM      9  C   UNL     1      14.767  19.848  46.714  1.00  0.00     0.004 C 
ENDBRANCH   7   8
ENDBRANCH   6   7
ENDBRANCH   5   6
ENDBRANCH   4   5
ENDBRANCH   3   4
ENDBRANCH   2   3
ENDBRANCH   1   2
BRANCH   1  10
ATOM     10  C   UNL     1      15.146  22.353  50.192  1.00  0.00    -0.000 C 
BRANCH  10  11
ATOM     11  C   UNL     1      16.413  22.537  51.047  1.00  0.00    -0.000 C 
BRANCH  11  12
ATOM     12  C   UNL     1      17.664  23.004  50.281  1.00  0.00    -0.000 C 
BRANCH  12  13
ATOM     13  C   UNL     1      18.975  22.488  50.899  1.00  0.00    -0.000 C 
BRANCH  13  14
ATOM     14  C   UNL     1      18.773  21.896  52.303  1.00  0.00    -0.000 C 
BRANCH  14  15
ATOM     15  C   UNL     1      19.285  20.452  52.417  1.00  0.00    -0.000 C 
BRANCH  15  16
ATOM     16  C   UNL     1      18.376  19.619  53.329  1.00  0.00    -0.003 C 
ATOM     17  C   UNL     1      17.388  20.504  54.082  1.00  0.00     0.004 C 
ENDBRANCH  15  16
ENDBRANCH  14  15
ENDBRANCH  13  14
ENDBRANCH  12  13
ENDBRANCH  11  12
ENDBRANCH  10  11
ENDBRANCH   1  10
TORSDOF 14
ENDMDL
MODEL 3
REMARK VINA RESULT:     0.001      3.666      5.263
REMARK INTER + INTRA:          -3.374
REMARK INTER:                   0.000
REMARK INTRA:                  -3.374
REMARK UNBOUND:                -3.377
REMARK SMILES CCCCCCCCCCCCCCCCC
REMARK SMILES IDX 9 1 8 2 7 3 6 4 5 5 4 6 3 7 2 8 1 9 10 10 11 11 12 12 13 13
REMARK SMILES IDX 14 14 15 15 16 16 17 17
REMARK H PARENT
REMARK Flexibility Score: inf
ROOT
ATOM      1  C   UNL     1      11.580  16.214  48.246  1.00  0.00    -0.000 C 
ENDROOT
BRANCH   1   2
ATOM      2  C   UNL     1      12.620  17.301  48.577  1.00  0.00    -0.000 C 
BRANCH   2   3
ATOM      3  C   UNL     1      13.801  17.398  47.594  1.00  0.00    -0.000 C 
BRANCH   3   4
ATOM      4  C   UNL     1      13.946  18.798  46.970  1.00  0.00    -0.000 C 
BRANCH   4   5
ATOM      5  C   UNL     1      13.517  18.837  45.494  1.00  0.00    -0.000 C 
BRANCH   5   6
ATOM      6  C   UNL     1      13.425  17.434  44.870  1.00  0.00    -0.000 C 
BRANCH   6   7
ATOM      7  C   UNL     1      12.031  17.126  44.294  1.00  0.00    -0.000 C 
BRANCH   7   8
ATOM      8  C   UNL     1      11.608  15.647  44.370  1.00  0.00    -0.003 C 
ATOM      9  C   UNL     1      12.669  14.753  45.012  1.00  0.00     0.004 C 
ENDBRANCH   7   8
ENDBRANCH   6   7
ENDBRANCH   5   6
ENDBRANCH   4   5
ENDBRANCH   3   4
ENDBRANCH   2   3
ENDBRANCH   1   2
BRANCH   1  10
ATOM     10  C   UNL     1      10.295  16.783  47.622  1.00  0.00    -0.000 C 
BRANCH  10  11
ATOM     11  C   UNL     1      10.107  18.287  47.896  1.00  0.00    -0.000 C 
BRANCH  11  12
ATOM     12  C   UNL     1       9.991  19.177  46.646  1.00  0.00    -0.000 C 
BRANCH  12  13
ATOM     13  C   UNL     1      10.555  20.592  46.860  1.00  0.00    -0.000 C 
BRANCH  13  14
ATOM     14  C   UNL     1      10.728  20.939  48.348  1.00  0.00    -0.000 C 
BRANCH  14  15
ATOM     15  C   UNL     1      12.124  21.494  48.669  1.00  0.00    -0.000 C 
BRANCH  15  16
ATOM     16  C   UNL     1      12.719  20.801  49.901  1.00  0.00    -0.003 C 
ATOM     17  C   UNL     1      11.628  20.166  50.758  1.00  0.00     0.004 C 
ENDBRANCH  15  16
ENDBRANCH  14  15
ENDBRANCH  13  14
ENDBRANCH  12  13
ENDBRANCH  11  12
ENDBRANCH  10  11
ENDBRANCH   1  10
TORSDOF 14
ENDMDL
MODEL 4
REMARK VINA RESULT:     0.004      6.593      8.862
REMARK INTER + INTRA:          -3.370
REMARK INTER:                   0.000
REMARK INTRA:                  -3.370
REMARK UNBOUND:                -3.377
REMARK SMILES CCCCCCCCCCCCCCCCC
REMARK SMILES IDX 9 1 8 2 7 3 6 4 5 5 4 6 3 7 2 8 1 9 10 10 11 11 12 12 13 13
REMARK SMILES IDX 14 14 15 15 16 16 17 17
REMARK H PARENT
REMARK Flexibility Score: inf
ROOT
ATOM      1  C   UNL     1      10.086  23.173  53.176  1.00  0.00    -0.000 C 
ENDROOT
BRANCH   1   2
ATOM      2  C   UNL     1       9.283  21.917  52.786  1.00  0.00    -0.000 C 
BRANCH   2   3
ATOM      3  C   UNL     1       7.832  21.883  53.299  1.00  0.00    -0.000 C 
BRANCH   3   4
ATOM      4  C   UNL     1       6.799  21.755  52.165  1.00  0.00    -0.000 C 
BRANCH   4   5
ATOM      5  C   UNL     1       7.417  21.238  50.855  1.00  0.00    -0.000 C 
BRANCH   5   6
ATOM      6  C   UNL     1       6.897  21.993  49.621  1.00  0.00    -0.000 C 
BRANCH   6   7
ATOM      7  C   UNL     1       7.989  22.238  48.564  1.00  0.00    -0.000 C 
BRANCH   7   8
ATOM      8  C   UNL     1       9.425  21.935  49.030  1.00  0.00    -0.003 C 
ATOM      9  C   UNL     1      10.465  22.873  48.418  1.00  0.00     0.004 C 
ENDBRANCH   7   8
ENDBRANCH   6   7
ENDBRANCH   5   6
ENDBRANCH   4   5
ENDBRANCH   3   4
ENDBRANCH   2   3
ENDBRANCH   1   2
BRANCH   1  10
ATOM     10  C   UNL     1      10.507  24.017  51.961  1.00  0.00    -0.000 C 
BRANCH  10  11
ATOM     11  C   UNL     1       9.651  25.285  51.784  1.00  0.00    -0.000 C 
BRANCH  11  12
ATOM     12  C   UNL     1       8.548  25.194  50.714  1.00  0.00    -0.000 C 
BRANCH  12  13
ATOM     13  C   UNL     1       7.131  25.330  51.298  1.00  0.00    -0.000 C 
BRANCH  13  14
ATOM     14  C   UNL     1       7.137  25.843  52.748  1.00  0.00    -0.000 C 
BRANCH  14  15
ATOM     15  C   UNL     1       6.085  25.149  53.626  1.00  0.00    -0.000 C 
BRANCH  15  16
ATOM     16  C   UNL     1       6.625  24.910  55.041  1.00  0.00    -0.003 C 
ATOM     17  C   UNL     1       8.037  25.468  55.195  1.00  0.00     0.004 C 
ENDBRANCH  15  16
ENDBRANCH  14  15
ENDBRANCH  13  14
ENDBRANCH  12  13
ENDBRANCH  11  12
ENDBRANCH  10  11
ENDBRANCH   1  10
TORSDOF 14
ENDMDL
MODEL 5
REMARK VINA RESULT:     0.004      8.270     10.953
REMARK INTER + INTRA:          -3.369
REMARK INTER:                   0.000
REMARK INTRA:                  -3.369
REMARK UNBOUND:                -3.377
REMARK SMILES CCCCCCCCCCCCCCCCC
REMARK SMILES IDX 9 1 8 2 7 3 6 4 5 5 4 6 3 7 2 8 1 9 10 10 11 11 12 12 13 13
REMARK SMILES IDX 14 14 15 15 16 16 17 17
REMARK H PARENT
REMARK Flexibility Score: inf
ROOT
ATOM      1  C   UNL     1      10.482  15.299  47.520  1.00  0.00    -0.000 C 
ENDROOT
BRANCH   1   2
ATOM      2  C   UNL     1      11.970  14.983  47.762  1.00  0.00    -0.000 C 
BRANCH   2   3
ATOM      3  C   UNL     1      12.481  13.689  47.102  1.00  0.00    -0.000 C 
BRANCH   3   4
ATOM      4  C   UNL     1      12.892  12.617  48.126  1.00  0.00    -0.000 C 
BRANCH   4   5
ATOM      5  C   UNL     1      13.071  13.187  49.543  1.00  0.00    -0.000 C 
BRANCH   5   6
ATOM      6  C   UNL     1      12.616  12.204  50.635  1.00  0.00    -0.000 C 
BRANCH   6   7
ATOM      7  C   UNL     1      12.032  12.911  51.872  1.00  0.00    -0.000 C 
BRANCH   7   8
ATOM      8  C   UNL     1      11.853  14.433  51.727  1.00  0.00    -0.003 C 
ATOM      9  C   UNL     1      10.604  14.959  52.434  1.00  0.00     0.004 C 
ENDBRANCH   7   8
ENDBRANCH   6   7
ENDBRANCH   5   6
ENDBRANCH   4   5
ENDBRANCH   3   4
ENDBRANCH   2   3
ENDBRANCH   1   2
BRANCH   1  10
ATOM     10  C   UNL     1       9.654  15.321  48.816  1.00  0.00    -0.000 C 
BRANCH  10  11
ATOM     11  C   UNL     1       8.614  14.188  48.884  1.00  0.00    -0.000 C 
BRANCH  11  12
ATOM     12  C   UNL     1       9.044  12.943  49.681  1.00  0.00    -0.000 C 
BRANCH  12  13
ATOM     13  C   UNL     1       9.389  11.743  48.782  1.00  0.00    -0.000 C 
BRANCH  13  14
ATOM     14  C   UNL     1       8.696  11.814  47.411  1.00  0.00    -0.000 C 
BRANCH  14  15
ATOM     15  C   UNL     1       9.655  11.523  46.247  1.00  0.00    -0.000 C 
BRANCH  15  16
ATOM     16  C   UNL     1       9.504  12.571  45.138  1.00  0.00    -0.003 C 
ATOM     17  C   UNL     1       8.189  13.334  45.273  1.00  0.00     0.004 C 
ENDBRANCH  15  16
ENDBRANCH  14  15
ENDBRANCH  13  14
ENDBRANCH  12  13
ENDBRANCH  11  12
ENDBRANCH  10  11
ENDBRANCH   1  10
TORSDOF 14
ENDMDL
MODEL 6
REMARK VINA RESULT:     0.005      7.487      9.608
REMARK INTER + INTRA:          -3.368
REMARK INTER:                   0.000
REMARK INTRA:                  -3.368
REMARK UNBOUND:                -3.377
REMARK SMILES CCCCCCCCCCCCCCCCC
REMARK SMILES IDX 9 1 8 2 7 3 6 4 5 5 4 6 3 7 2 8 1 9 10 10 11 11 12 12 13 13
REMARK SMILES IDX 14 14 15 15 16 16 17 17
REMARK H PARENT
REMARK Flexibility Score: inf
ROOT
ATOM      1  C   UNL     1      10.566  23.947  54.380  1.00  0.00    -0.000 C 
ENDROOT
BRANCH   1   2
ATOM      2  C   UNL     1       9.459  22.905  54.628  1.00  0.00    -0.000 C 
BRANCH   2   3
ATOM      3  C   UNL     1       8.241  23.418  55.419  1.00  0.00    -0.000 C 
BRANCH   3   4
ATOM      4  C   UNL     1       6.918  23.267  54.647  1.00  0.00    -0.000 C 
BRANCH   4   5
ATOM      5  C   UNL     1       7.017  22.255  53.494  1.00  0.00    -0.000 C 
BRANCH   5   6
ATOM      6  C   UNL     1       6.313  22.747  52.217  1.00  0.00    -0.000 C 
BRANCH   6   7
ATOM      7  C   UNL     1       7.076  22.377  50.933  1.00  0.00    -0.000 C 
BRANCH   7   8
ATOM      8  C   UNL     1       8.498  21.830  51.155  1.00  0.00    -0.003 C 
ATOM      9  C   UNL     1       9.475  22.232  50.049  1.00  0.00     0.004 C 
ENDBRANCH   7   8
ENDBRANCH   6   7
ENDBRANCH   5   6
ENDBRANCH   4   5
ENDBRANCH   3   4
ENDBRANCH   2   3
ENDBRANCH   1   2
BRANCH   1  10
ATOM     10  C   UNL     1      10.767  24.266  52.889  1.00  0.00    -0.000 C 
BRANCH  10  11
ATOM     11  C   UNL     1      10.159  25.619  52.475  1.00  0.00    -0.000 C 
BRANCH  11  12
ATOM     12  C   UNL     1       8.796  25.540  51.763  1.00  0.00    -0.000 C 
BRANCH  12  13
ATOM     13  C   UNL     1       7.665  26.219  52.554  1.00  0.00    -0.000 C 
BRANCH  13  14
ATOM     14  C   UNL     1       8.192  27.096  53.703  1.00  0.00    -0.000 C 
BRANCH  14  15
ATOM     15  C   UNL     1       7.328  26.995  54.969  1.00  0.00    -0.000 C 
BRANCH  15  16
ATOM     16  C   UNL     1       8.201  27.025  56.230  1.00  0.00    -0.003 C 
ATOM     17  C   UNL     1       9.676  27.190  55.878  1.00  0.00     0.004 C 
ENDBRANCH  15  16
ENDBRANCH  14  15
ENDBRANCH  13  14
ENDBRANCH  12  13
ENDBRANCH  11  12
ENDBRANCH  10  11
ENDBRANCH   1  10
TORSDOF 14
ENDMDL
MODEL 7
REMARK VINA RESULT:     0.005      9.265     11.430
REMARK INTER + INTRA:          -3.367
REMARK INTER:                   0.000
REMARK INTRA:                  -3.367
REMARK UNBOUND:                -3.377
REMARK SMILES CCCCCCCCCCCCCCCCC
REMARK SMILES IDX 9 1 8 2 7 3 6 4 5 5 4 6 3 7 2 8 1 9 10 10 11 11 12 12 13 13
REMARK SMILES IDX 14 14 15 15 16 16 17 17
REMARK H PARENT
REMARK Flexibility Score: inf
ROOT
ATOM      1  C   UNL     1       9.280  23.179  55.313  1.00  0.00    -0.000 C 
ENDROOT
BRANCH   1   2
ATOM      2  C   UNL     1       8.219  22.413  56.126  1.00  0.00    -0.000 C 
BRANCH   2   3
ATOM      3  C   UNL     1       7.404  23.271  57.112  1.00  0.00    -0.000 C 
BRANCH   3   4
ATOM      4  C   UNL     1       5.889  23.205  56.852  1.00  0.00    -0.000 C 
BRANCH   4   5
ATOM      5  C   UNL     1       5.488  22.006  55.977  1.00  0.00    -0.000 C 
BRANCH   5   6
ATOM      6  C   UNL     1       4.452  22.380  54.905  1.00  0.00    -0.000 C 
BRANCH   6   7
ATOM      7  C   UNL     1       4.693  21.665  53.563  1.00  0.00    -0.000 C 
BRANCH   7   8
ATOM      8  C   UNL     1       6.035  20.916  53.457  1.00  0.00    -0.003 C 
ATOM      9  C   UNL     1       6.605  20.906  52.039  1.00  0.00     0.004 C 
ENDBRANCH   7   8
ENDBRANCH   6   7
ENDBRANCH   5   6
ENDBRANCH   4   5
ENDBRANCH   3   4
ENDBRANCH   2   3
ENDBRANCH   1   2
BRANCH   1  10
ATOM     10  C   UNL     1       8.999  23.170  53.801  1.00  0.00    -0.000 C 
BRANCH  10  11
ATOM     11  C   UNL     1       8.443  24.509  53.284  1.00  0.00    -0.000 C 
BRANCH  11  12
ATOM     12  C   UNL     1       6.919  24.554  53.071  1.00  0.00    -0.000 C 
BRANCH  12  13
ATOM     13  C   UNL     1       6.211  25.553  54.002  1.00  0.00    -0.000 C 
BRANCH  13  14
ATOM     14  C   UNL     1       7.194  26.505  54.704  1.00  0.00    -0.000 C 
BRANCH  14  15
ATOM     15  C   UNL     1       6.792  26.806  56.155  1.00  0.00    -0.000 C 
BRANCH  15  16
ATOM     16  C   UNL     1       8.029  26.912  57.055  1.00  0.00    -0.003 C 
ATOM     17  C   UNL     1       9.313  26.712  56.255  1.00  0.00     0.004 C 
ENDBRANCH  15  16
ENDBRANCH  14  15
ENDBRANCH  13  14
ENDBRANCH  12  13
ENDBRANCH  11  12
ENDBRANCH  10  11
ENDBRANCH   1  10
TORSDOF 14
ENDMDL
MODEL 8
REMARK VINA RESULT:     0.009      9.387     11.788
REMARK INTER + INTRA:          -3.361
REMARK INTER:                   0.000
REMARK INTRA:                  -3.361
REMARK UNBOUND:                -3.377
REMARK SMILES CCCCCCCCCCCCCCCCC
REMARK SMILES IDX 9 1 8 2 7 3 6 4 5 5 4 6 3 7 2 8 1 9 10 10 11 11 12 12 13 13
REMARK SMILES IDX 14 14 15 15 16 16 17 17
REMARK H PARENT
REMARK Flexibility Score: inf
ROOT
ATOM      1  C   UNL     1      10.871  20.549  55.155  1.00  0.00    -0.000 C 
ENDROOT
BRANCH   1   2
ATOM      2  C   UNL     1      10.556  19.284  55.974  1.00  0.00    -0.000 C 
BRANCH   2   3
ATOM      3  C   UNL     1       9.062  19.046  56.265  1.00  0.00    -0.000 C 
BRANCH   3   4
ATOM      4  C   UNL     1       8.696  19.277  57.742  1.00  0.00    -0.000 C 
BRANCH   4   5
ATOM      5  C   UNL     1       7.464  20.179  57.915  1.00  0.00    -0.000 C 
BRANCH   5   6
ATOM      6  C   UNL     1       6.602  20.248  56.643  1.00  0.00    -0.000 C 
BRANCH   6   7
ATOM      7  C   UNL     1       6.069  21.663  56.356  1.00  0.00    -0.000 C 
BRANCH   7   8
ATOM      8  C   UNL     1       6.228  22.665  57.515  1.00  0.00    -0.003 C 
ATOM      9  C   UNL     1       6.430  24.104  57.039  1.00  0.00     0.004 C 
ENDBRANCH   7   8
ENDBRANCH   6   7
ENDBRANCH   5   6
ENDBRANCH   4   5
ENDBRANCH   3   4
ENDBRANCH   2   3
ENDBRANCH   1   2
BRANCH   1  10
ATOM     10  C   UNL     1       9.607  21.297  54.697  1.00  0.00    -0.000 C 
BRANCH  10  11
ATOM     11  C   UNL     1       9.466  22.690  55.337  1.00  0.00    -0.000 C 
BRANCH  11  12
ATOM     12  C   UNL     1      10.495  23.019  56.435  1.00  0.00    -0.000 C 
BRANCH  12  13
ATOM     13  C   UNL     1       9.910  22.922  57.855  1.00  0.00    -0.000 C 
BRANCH  13  14
ATOM     14  C   UNL     1      10.811  22.123  58.811  1.00  0.00    -0.000 C 
BRANCH  14  15
ATOM     15  C   UNL     1      12.256  22.006  58.304  1.00  0.00    -0.000 C 
BRANCH  15  16
ATOM     16  C   UNL     1      12.819  20.605  58.573  1.00  0.00    -0.003 C 
ATOM     17  C   UNL     1      11.898  19.806  59.490  1.00  0.00     0.004 C 
ENDBRANCH  15  16
ENDBRANCH  14  15
ENDBRANCH  13  14
ENDBRANCH  12  13
ENDBRANCH  11  12
ENDBRANCH  10  11
ENDBRANCH   1  10
TORSDOF 14
ENDMDL
MODEL 9
REMARK VINA RESULT:     0.010      9.072     10.959
REMARK INTER + INTRA:          -3.358
REMARK INTER:                   0.000
REMARK INTRA:                  -3.358
REMARK UNBOUND:                -3.377
REMARK SMILES CCCCCCCCCCCCCCCCC
REMARK SMILES IDX 9 1 8 2 7 3 6 4 5 5 4 6 3 7 2 8 1 9 10 10 11 11 12 12 13 13
REMARK SMILES IDX 14 14 15 15 16 16 17 17
REMARK H PARENT
REMARK Flexibility Score: inf
ROOT
ATOM      1  C   UNL     1      10.999  13.023  53.371  1.00  0.00    -0.000 C 
ENDROOT
BRANCH   1   2
ATOM      2  C   UNL     1      10.361  13.626  52.105  1.00  0.00    -0.000 C 
BRANCH   2   3
ATOM      3  C   UNL     1      11.013  14.925  51.598  1.00  0.00    -0.000 C 
BRANCH   3   4
ATOM      4  C   UNL     1      10.241  16.187  52.023  1.00  0.00    -0.000 C 
BRANCH   4   5
ATOM      5  C   UNL     1       8.724  16.056  51.810  1.00  0.00    -0.000 C 
BRANCH   5   6
ATOM      6  C   UNL     1       7.922  16.378  53.082  1.00  0.00    -0.000 C 
BRANCH   6   7
ATOM      7  C   UNL     1       7.139  15.167  53.619  1.00  0.00    -0.000 C 
BRANCH   7   8
ATOM      8  C   UNL     1       6.699  14.150  52.550  1.00  0.00    -0.003 C 
ATOM      9  C   UNL     1       6.806  12.700  53.021  1.00  0.00     0.004 C 
ENDBRANCH   7   8
ENDBRANCH   6   7
ENDBRANCH   5   6
ENDBRANCH   4   5
ENDBRANCH   3   4
ENDBRANCH   2   3
ENDBRANCH   1   2
BRANCH   1  10
ATOM     10  C   UNL     1      10.107  13.161  54.616  1.00  0.00    -0.000 C 
BRANCH  10  11
ATOM     11  C   UNL     1      10.736  14.040  55.713  1.00  0.00    -0.000 C 
BRANCH  11  12
ATOM     12  C   UNL     1      10.206  15.484  55.786  1.00  0.00    -0.000 C 
BRANCH  12  13
ATOM     13  C   UNL     1      11.294  16.538  55.517  1.00  0.00    -0.000 C 
BRANCH  13  14
ATOM     14  C   UNL     1      12.702  15.926  55.436  1.00  0.00    -0.000 C 
BRANCH  14  15
ATOM     15  C   UNL     1      13.403  16.228  54.103  1.00  0.00    -0.000 C 
BRANCH  15  16
ATOM     16  C   UNL     1      14.167  14.999  53.595  1.00  0.00    -0.003 C 
ATOM     17  C   UNL     1      14.353  13.967  54.703  1.00  0.00     0.004 C 
ENDBRANCH  15  16
ENDBRANCH  14  15
ENDBRANCH  13  14
ENDBRANCH  12  13
ENDBRANCH  11  12
ENDBRANCH  10  11
ENDBRANCH   1  10
TORSDOF 14
ENDMDL
