MODEL 1
REMARK VINA RESULT:    -3.259      0.000      0.000
REMARK INTER + INTRA:          -3.355
REMARK INTER:                  -3.355
REMARK INTRA:                   0.000
REMARK UNBOUND:                 0.000
REMARK SMILES Cc1cccc(O)c1C
REMARK SMILES IDX 1 1 2 2 8 3 6 4 5 5 4 6 3 7 9 8 7 9
REMARK H PARENT 7 10
REMARK Flexibility Score: inf
ROOT
ATOM      1  C   UNL     1      77.163   2.550  65.771  1.00  0.00     0.045 C 
ATOM      2  C   UNL     1      78.367   2.618  66.676  1.00  0.00    -0.045 A 
ATOM      3  C   UNL     1      79.663   2.941  66.184  1.00  0.00    -0.006 A 
ATOM      4  C   UNL     1      80.751   2.988  67.093  1.00  0.00     0.118 A 
ATOM      5  C   UNL     1      80.544   2.718  68.449  1.00  0.00     0.046 A 
ATOM      6  C   UNL     1      79.274   2.403  68.922  1.00  0.00     0.004 A 
ATOM      7  C   UNL     1      78.193   2.353  68.045  1.00  0.00     0.004 A 
ATOM      8  C   UNL     1      79.910   3.236  64.723  1.00  0.00     0.048 C 
ENDROOT
BRANCH   4   9
ATOM      9  O   UNL     1      82.050   3.297  66.682  1.00  0.00    -0.508 OA
ATOM     10  H   UNL     1      82.667   3.913  67.197  1.00  0.00     0.293 HD
ENDBRANCH   4   9
TORSDOF 1
ENDMDL
MODEL 2
REMARK VINA RESULT:    -3.200      0.826      2.630
REMARK INTER + INTRA:          -3.293
REMARK INTER:                  -3.293
REMARK INTRA:                   0.000
REMARK UNBOUND:                 0.000
REMARK SMILES Cc1cccc(O)c1C
REMARK SMILES IDX 1 1 2 2 8 3 6 4 5 5 4 6 3 7 9 8 7 9
REMARK H PARENT 7 10
REMARK Flexibility Score: inf
ROOT
ATOM      1  C   UNL     1      76.899   2.375  67.717  1.00  0.00     0.045 C 
ATOM      2  C   UNL     1      78.052   2.667  66.791  1.00  0.00    -0.045 A 
ATOM      3  C   UNL     1      79.389   2.782  67.264  1.00  0.00    -0.006 A 
ATOM      4  C   UNL     1      80.426   3.057  66.335  1.00  0.00     0.118 A 
ATOM      5  C   UNL     1      80.128   3.211  64.978  1.00  0.00     0.046 A 
ATOM      6  C   UNL     1      78.817   3.097  64.523  1.00  0.00     0.004 A 
ATOM      7  C   UNL     1      77.787   2.827  65.420  1.00  0.00     0.004 A 
ATOM      8  C   UNL     1      79.734   2.619  68.726  1.00  0.00     0.048 C 
ENDROOT
BRANCH   4   9
ATOM      9  O   UNL     1      81.761   3.184  66.726  1.00  0.00    -0.508 OA
ATOM     10  H   UNL     1      82.539   3.140  66.081  1.00  0.00     0.293 HD
ENDBRANCH   4   9
TORSDOF 1
ENDMDL
MODEL 3
REMARK VINA RESULT:    -3.043      1.809      2.803
REMARK INTER + INTRA:          -3.132
REMARK INTER:                  -3.132
REMARK INTRA:                   0.000
REMARK UNBOUND:                 0.000
REMARK SMILES Cc1cccc(O)c1C
REMARK SMILES IDX 1 1 2 2 8 3 6 4 5 5 4 6 3 7 9 8 7 9
REMARK H PARENT 7 10
REMARK Flexibility Score: inf
ROOT
ATOM      1  C   UNL     1      80.096   3.103  64.853  1.00  0.00     0.045 C 
ATOM      2  C   UNL     1      79.999   2.895  66.343  1.00  0.00    -0.045 A 
ATOM      3  C   UNL     1      78.748   2.737  67.002  1.00  0.00    -0.006 A 
ATOM      4  C   UNL     1      78.731   2.545  68.408  1.00  0.00     0.118 A 
ATOM      5  C   UNL     1      79.930   2.513  69.125  1.00  0.00     0.046 A 
ATOM      6  C   UNL     1      81.150   2.669  68.473  1.00  0.00     0.004 A 
ATOM      7  C   UNL     1      81.186   2.858  67.093  1.00  0.00     0.004 A 
ATOM      8  C   UNL     1      77.439   2.768  66.247  1.00  0.00     0.048 C 
ENDROOT
BRANCH   4   9
ATOM      9  O   UNL     1      77.542   2.383  69.122  1.00  0.00    -0.508 OA
ATOM     10  H   UNL     1      76.732   2.978  69.001  1.00  0.00     0.293 HD
ENDBRANCH   4   9
TORSDOF 1
ENDMDL
MODEL 4
REMARK VINA RESULT:    -2.967      8.821     10.186
REMARK INTER + INTRA:          -3.054
REMARK INTER:                  -3.054
REMARK INTRA:                   0.000
REMARK UNBOUND:                 0.000
REMARK SMILES Cc1cccc(O)c1C
REMARK SMILES IDX 1 1 2 2 8 3 6 4 5 5 4 6 3 7 9 8 7 9
REMARK H PARENT 7 10
REMARK Flexibility Score: inf
ROOT
ATOM      1  C   UNL     1      82.252   4.250  56.713  1.00  0.00     0.045 C 
ATOM      2  C   UNL     1      82.470   5.333  57.739  1.00  0.00    -0.045 A 
ATOM      3  C   UNL     1      82.521   6.709  57.382  1.00  0.00    -0.006 A 
ATOM      4  C   UNL     1      82.730   7.676  58.400  1.00  0.00     0.118 A 
ATOM      5  C   UNL     1      82.883   7.272  59.729  1.00  0.00     0.046 A 
ATOM      6  C   UNL     1      82.832   5.923  60.070  1.00  0.00     0.004 A 
ATOM      7  C   UNL     1      82.628   4.961  59.084  1.00  0.00     0.004 A 
ATOM      8  C   UNL     1      82.358   7.169  55.952  1.00  0.00     0.048 C 
ENDROOT
BRANCH   4   9
ATOM      9  O   UNL     1      82.791   9.044  58.125  1.00  0.00    -0.508 OA
ATOM     10  H   UNL     1      82.438   9.757  58.751  1.00  0.00     0.293 HD
ENDBRANCH   4   9
TORSDOF 1
ENDMDL
MODEL 5
REMARK VINA RESULT:    -2.938     19.797     21.860
REMARK INTER + INTRA:          -3.024
REMARK INTER:                  -3.024
REMARK INTRA:                   0.000
REMARK UNBOUND:                 0.000
REMARK SMILES Cc1cccc(O)c1C
REMARK SMILES IDX 1 1 2 2 8 3 6 4 5 5 4 6 3 7 9 8 7 9
REMARK H PARENT 7 10
REMARK Flexibility Score: inf
ROOT
ATOM      1  C   UNL     1      67.691   4.869  52.354  1.00  0.00     0.045 C 
ATOM      2  C   UNL     1      66.753   4.751  51.179  1.00  0.00    -0.045 A 
ATOM      3  C   UNL     1      65.404   5.197  51.244  1.00  0.00    -0.006 A 
ATOM      4  C   UNL     1      64.577   5.055  50.100  1.00  0.00     0.118 A 
ATOM      5  C   UNL     1      65.089   4.484  48.932  1.00  0.00     0.046 A 
ATOM      6  C   UNL     1      66.410   4.050  48.876  1.00  0.00     0.004 A 
ATOM      7  C   UNL     1      67.237   4.181  49.989  1.00  0.00     0.004 A 
ATOM      8  C   UNL     1      64.828   5.818  52.496  1.00  0.00     0.048 C 
ENDROOT
BRANCH   4   9
ATOM      9  O   UNL     1      63.243   5.470  50.091  1.00  0.00    -0.508 OA
ATOM     10  H   UNL     1      62.831   6.011  49.341  1.00  0.00     0.293 HD
ENDBRANCH   4   9
TORSDOF 1
ENDMDL
MODEL 6
REMARK VINA RESULT:    -2.922      2.500      3.701
REMARK INTER + INTRA:          -3.007
REMARK INTER:                  -3.007
REMARK INTRA:                   0.000
REMARK UNBOUND:                 0.000
REMARK SMILES Cc1cccc(O)c1C
REMARK SMILES IDX 1 1 2 2 8 3 6 4 5 5 4 6 3 7 9 8 7 9
REMARK H PARENT 7 10
REMARK Flexibility Score: inf
ROOT
ATOM      1  C   UNL     1      80.112   4.633  63.113  1.00  0.00     0.045 C 
ATOM      2  C   UNL     1      79.458   3.961  64.293  1.00  0.00    -0.045 A 
ATOM      3  C   UNL     1      78.107   4.224  64.657  1.00  0.00    -0.006 A 
ATOM      4  C   UNL     1      77.556   3.555  65.780  1.00  0.00     0.118 A 
ATOM      5  C   UNL     1      78.335   2.655  66.512  1.00  0.00     0.046 A 
ATOM      6  C   UNL     1      79.655   2.403  66.150  1.00  0.00     0.004 A 
ATOM      7  C   UNL     1      80.213   3.050  65.050  1.00  0.00     0.004 A 
ATOM      8  C   UNL     1      77.247   5.194  63.881  1.00  0.00     0.048 C 
ENDROOT
BRANCH   4   9
ATOM      9  O   UNL     1      76.238   3.763  66.196  1.00  0.00    -0.508 OA
ATOM     10  H   UNL     1      75.552   3.024  66.269  1.00  0.00     0.293 HD
ENDBRANCH   4   9
TORSDOF 1
ENDMDL
MODEL 7
REMARK VINA RESULT:    -2.907     20.391     20.919
REMARK INTER + INTRA:          -2.992
REMARK INTER:                  -2.992
REMARK INTRA:                   0.000
REMARK UNBOUND:                 0.000
REMARK SMILES Cc1cccc(O)c1C
REMARK SMILES IDX 1 1 2 2 8 3 6 4 5 5 4 6 3 7 9 8 7 9
REMARK H PARENT 7 10
REMARK Flexibility Score: inf
ROOT
ATOM      1  C   UNL     1      69.928 -10.466  54.566  1.00  0.00     0.045 C 
ATOM      2  C   UNL     1      70.370  -9.721  53.332  1.00  0.00    -0.045 A 
ATOM      3  C   UNL     1      69.742  -8.515  52.914  1.00  0.00    -0.006 A 
ATOM      4  C   UNL     1      70.211  -7.866  51.742  1.00  0.00     0.118 A 
ATOM      5  C   UNL     1      71.274  -8.412  51.017  1.00  0.00     0.046 A 
ATOM      6  C   UNL     1      71.883  -9.593  51.433  1.00  0.00     0.004 A 
ATOM      7  C   UNL     1      71.436 -10.243  52.580  1.00  0.00     0.004 A 
ATOM      8  C   UNL     1      68.592  -7.907  53.682  1.00  0.00     0.048 C 
ENDROOT
BRANCH   4   9
ATOM      9  O   UNL     1      69.643  -6.680  51.271  1.00  0.00    -0.508 OA
ATOM     10  H   UNL     1      69.625  -5.820  51.804  1.00  0.00     0.293 HD
ENDBRANCH   4   9
TORSDOF 1
ENDMDL
MODEL 8
REMARK VINA RESULT:    -2.890     19.103     20.777
REMARK INTER + INTRA:          -2.974
REMARK INTER:                  -2.974
REMARK INTRA:                   0.000
REMARK UNBOUND:                 0.000
REMARK SMILES Cc1cccc(O)c1C
REMARK SMILES IDX 1 1 2 2 8 3 6 4 5 5 4 6 3 7 9 8 7 9
REMARK H PARENT 7 10
REMARK Flexibility Score: inf
ROOT
ATOM      1  C   UNL     1      64.750   6.499  53.423  1.00  0.00     0.045 C 
ATOM      2  C   UNL     1      65.290   5.743  52.236  1.00  0.00    -0.045 A 
ATOM      3  C   UNL     1      66.674   5.744  51.907  1.00  0.00    -0.006 A 
ATOM      4  C   UNL     1      67.113   5.009  50.775  1.00  0.00     0.118 A 
ATOM      5  C   UNL     1      66.191   4.299  50.000  1.00  0.00     0.046 A 
ATOM      6  C   UNL     1      64.838   4.304  50.329  1.00  0.00     0.004 A 
ATOM      7  C   UNL     1      64.390   5.018  51.436  1.00  0.00     0.004 A 
ATOM      8  C   UNL     1      67.689   6.504  52.730  1.00  0.00     0.048 C 
ENDROOT
BRANCH   4   9
ATOM      9  O   UNL     1      68.455   4.965  50.392  1.00  0.00    -0.508 OA
ATOM     10  H   UNL     1      69.202   4.665  51.006  1.00  0.00     0.293 HD
ENDBRANCH   4   9
TORSDOF 1
ENDMDL
MODEL 9
REMARK VINA RESULT:    -2.885     20.557     21.261
REMARK INTER + INTRA:          -2.969
REMARK INTER:                  -2.969
REMARK INTRA:                   0.000
REMARK UNBOUND:                 0.000
REMARK SMILES Cc1cccc(O)c1C
REMARK SMILES IDX 1 1 2 2 8 3 6 4 5 5 4 6 3 7 9 8 7 9
REMARK H PARENT 7 10
REMARK Flexibility Score: inf
ROOT
ATOM      1  C   UNL     1      70.370  -6.627  50.784  1.00  0.00     0.045 C 
ATOM      2  C   UNL     1      70.749  -7.947  51.403  1.00  0.00    -0.045 A 
ATOM      3  C   UNL     1      71.531  -8.911  50.707  1.00  0.00    -0.006 A 
ATOM      4  C   UNL     1      71.851 -10.133  51.352  1.00  0.00     0.118 A 
ATOM      5  C   UNL     1      71.399 -10.379  52.652  1.00  0.00     0.046 A 
ATOM      6  C   UNL     1      70.635  -9.431  53.327  1.00  0.00     0.004 A 
ATOM      7  C   UNL     1      70.312  -8.225  52.710  1.00  0.00     0.004 A 
ATOM      8  C   UNL     1      72.029  -8.667  49.301  1.00  0.00     0.048 C 
ENDROOT
BRANCH   4   9
ATOM      9  O   UNL     1      72.613 -11.125  50.730  1.00  0.00    -0.508 OA
ATOM     10  H   UNL     1      72.384 -11.523  49.828  1.00  0.00     0.293 HD
ENDBRANCH   4   9
TORSDOF 1
ENDMDL
