MODEL 1
REMARK VINA RESULT:    -3.698      0.000      0.000
REMARK INTER + INTRA:          -4.040
REMARK INTER:                  -4.131
REMARK INTRA:                   0.090
REMARK UNBOUND:                 0.090
REMARK SMILES CCCC(=O)[O-]
REMARK SMILES IDX 3 1 4 2 5 3 6 4 2 5 1 6
REMARK H PARENT
REMARK Flexibility Score: inf
ROOT
ATOM      1  C   UNL     1      25.731 -11.481  33.324  1.00  0.00     0.052 C 
ENDROOT
BRANCH   1   2
ATOM      2  C   UNL     1      25.890 -12.341  32.108  1.00  0.00     0.041 C 
ATOM      3  O   UNL     1      26.586 -13.388  32.160  1.00  0.00    -0.550 OA
ATOM      4  O   UNL     1      25.296 -11.968  30.909  1.00  0.00    -0.550 OA
ENDBRANCH   1   2
BRANCH   1   5
ATOM      5  C   UNL     1      26.952 -11.571  34.249  1.00  0.00     0.003 C 
ATOM      6  C   UNL     1      28.219 -11.022  33.593  1.00  0.00     0.004 C 
ENDBRANCH   1   5
TORSDOF 2
ENDMDL
MODEL 2
REMARK VINA RESULT:    -3.454     10.921     11.701
REMARK INTER + INTRA:          -3.768
REMARK INTER:                  -3.743
REMARK INTRA:                  -0.024
REMARK UNBOUND:                 0.090
REMARK SMILES CCCC(=O)[O-]
REMARK SMILES IDX 3 1 4 2 5 3 6 4 2 5 1 6
REMARK H PARENT
REMARK Flexibility Score: inf
ROOT
ATOM      1  C   UNL     1      20.568 -21.128  33.235  1.00  0.00     0.052 C 
ENDROOT
BRANCH   1   2
ATOM      2  C   UNL     1      20.690 -22.616  33.120  1.00  0.00     0.041 C 
ATOM      3  O   UNL     1      21.807 -23.175  33.278  1.00  0.00    -0.550 OA
ATOM      4  O   UNL     1      19.576 -23.385  32.805  1.00  0.00    -0.550 OA
ENDBRANCH   1   2
BRANCH   1   5
ATOM      5  C   UNL     1      19.679 -20.543  32.130  1.00  0.00     0.003 C 
ATOM      6  C   UNL     1      20.490 -19.825  31.051  1.00  0.00     0.004 C 
ENDBRANCH   1   5
TORSDOF 2
ENDMDL
MODEL 3
REMARK VINA RESULT:    -3.355     10.589     11.164
REMARK INTER + INTRA:          -3.657
REMARK INTER:                  -3.642
REMARK INTRA:                  -0.015
REMARK UNBOUND:                 0.090
REMARK SMILES CCCC(=O)[O-]
REMARK SMILES IDX 3 1 4 2 5 3 6 4 2 5 1 6
REMARK H PARENT
REMARK Flexibility Score: inf
ROOT
ATOM      1  C   UNL     1      22.316 -21.230  32.514  1.00  0.00     0.052 C 
ENDROOT
BRANCH   1   2
ATOM      2  C   UNL     1      22.722 -22.468  33.253  1.00  0.00     0.041 C 
ATOM      3  O   UNL     1      21.976 -23.482  33.248  1.00  0.00    -0.550 OA
ATOM      4  O   UNL     1      23.909 -22.491  33.974  1.00  0.00    -0.550 OA
ENDBRANCH   1   2
BRANCH   1   5
ATOM      5  C   UNL     1      20.809 -20.965  32.634  1.00  0.00     0.003 C 
ATOM      6  C   UNL     1      20.263 -20.169  31.448  1.00  0.00     0.004 C 
ENDBRANCH   1   5
TORSDOF 2
ENDMDL
MODEL 4
REMARK VINA RESULT:    -3.291      9.303     10.010
REMARK INTER + INTRA:          -3.586
REMARK INTER:                  -3.578
REMARK INTRA:                  -0.008
REMARK UNBOUND:                 0.090
REMARK SMILES CCCC(=O)[O-]
REMARK SMILES IDX 3 1 4 2 5 3 6 4 2 5 1 6
REMARK H PARENT
REMARK Flexibility Score: inf
ROOT
ATOM      1  C   UNL     1      17.376 -14.208  35.272  1.00  0.00     0.052 C 
ENDROOT
BRANCH   1   2
ATOM      2  C   UNL     1      16.706 -13.517  36.419  1.00  0.00     0.041 C 
ATOM      3  O   UNL     1      16.110 -12.423  36.239  1.00  0.00    -0.550 OA
ATOM      4  O   UNL     1      16.766 -14.065  37.695  1.00  0.00    -0.550 OA
ENDBRANCH   1   2
BRANCH   1   5
ATOM      5  C   UNL     1      18.628 -13.453  34.807  1.00  0.00     0.003 C 
ATOM      6  C   UNL     1      19.039 -13.830  33.383  1.00  0.00     0.004 C 
ENDBRANCH   1   5
TORSDOF 2
ENDMDL
MODEL 5
REMARK VINA RESULT:    -3.287     10.450     11.307
REMARK INTER + INTRA:          -3.582
REMARK INTER:                  -3.562
REMARK INTRA:                  -0.019
REMARK UNBOUND:                 0.090
REMARK SMILES CCCC(=O)[O-]
REMARK SMILES IDX 3 1 4 2 5 3 6 4 2 5 1 6
REMARK H PARENT
REMARK Flexibility Score: inf
ROOT
ATOM      1  C   UNL     1      19.910 -21.218  32.557  1.00  0.00     0.052 C 
ENDROOT
BRANCH   1   2
ATOM      2  C   UNL     1      20.900 -20.455  31.732  1.00  0.00     0.041 C 
ATOM      3  O   UNL     1      22.134 -20.647  31.887  1.00  0.00    -0.550 OA
ATOM      4  O   UNL     1      20.460 -19.509  30.815  1.00  0.00    -0.550 OA
ENDBRANCH   1   2
BRANCH   1   5
ATOM      5  C   UNL     1      20.546 -22.448  33.218  1.00  0.00     0.003 C 
ATOM      6  C   UNL     1      19.733 -23.721  32.981  1.00  0.00     0.004 C 
ENDBRANCH   1   5
TORSDOF 2
ENDMDL
MODEL 6
REMARK VINA RESULT:    -3.181      9.889     10.516
REMARK INTER + INTRA:          -3.462
REMARK INTER:                  -3.425
REMARK INTRA:                  -0.038
REMARK UNBOUND:                 0.090
REMARK SMILES CCCC(=O)[O-]
REMARK SMILES IDX 3 1 4 2 5 3 6 4 2 5 1 6
REMARK H PARENT
REMARK Flexibility Score: inf
ROOT
ATOM      1  C   UNL     1      17.739 -14.683  36.897  1.00  0.00     0.052 C 
ENDROOT
BRANCH   1   2
ATOM      2  C   UNL     1      16.923 -15.910  36.632  1.00  0.00     0.041 C 
ATOM      3  O   UNL     1      15.882 -15.840  35.927  1.00  0.00    -0.550 OA
ATOM      4  O   UNL     1      17.293 -17.127  37.191  1.00  0.00    -0.550 OA
ENDBRANCH   1   2
BRANCH   1   5
ATOM      5  C   UNL     1      17.463 -13.583  35.864  1.00  0.00     0.003 C 
ATOM      6  C   UNL     1      18.537 -13.523  34.777  1.00  0.00     0.004 C 
ENDBRANCH   1   5
TORSDOF 2
ENDMDL
MODEL 7
REMARK VINA RESULT:    -3.176      9.904     10.450
REMARK INTER + INTRA:          -3.457
REMARK INTER:                  -3.420
REMARK INTRA:                  -0.037
REMARK UNBOUND:                 0.090
REMARK SMILES CCCC(=O)[O-]
REMARK SMILES IDX 3 1 4 2 5 3 6 4 2 5 1 6
REMARK H PARENT
REMARK Flexibility Score: inf
ROOT
ATOM      1  C   UNL     1      17.657 -14.632  36.886  1.00  0.00     0.052 C 
ENDROOT
BRANCH   1   2
ATOM      2  C   UNL     1      16.909 -15.907  36.644  1.00  0.00     0.041 C 
ATOM      3  O   UNL     1      17.281 -16.975  37.197  1.00  0.00    -0.550 OA
ATOM      4  O   UNL     1      15.820 -15.923  35.781  1.00  0.00    -0.550 OA
ENDBRANCH   1   2
BRANCH   1   5
ATOM      5  C   UNL     1      17.386 -13.597  35.787  1.00  0.00     0.003 C 
ATOM      6  C   UNL     1      18.529 -13.512  34.774  1.00  0.00     0.004 C 
ENDBRANCH   1   5
TORSDOF 2
ENDMDL
MODEL 8
REMARK VINA RESULT:    -3.135      9.658     10.382
REMARK INTER + INTRA:          -3.411
REMARK INTER:                  -3.344
REMARK INTRA:                  -0.067
REMARK UNBOUND:                 0.090
REMARK SMILES CCCC(=O)[O-]
REMARK SMILES IDX 3 1 4 2 5 3 6 4 2 5 1 6
REMARK H PARENT
REMARK Flexibility Score: inf
ROOT
ATOM      1  C   UNL     1      17.910 -14.574  37.006  1.00  0.00     0.052 C 
ENDROOT
BRANCH   1   2
ATOM      2  C   UNL     1      17.622 -13.648  35.865  1.00  0.00     0.041 C 
ATOM      3  O   UNL     1      18.412 -13.583  34.887  1.00  0.00    -0.550 OA
ATOM      4  O   UNL     1      16.498 -12.832  35.896  1.00  0.00    -0.550 OA
ENDBRANCH   1   2
BRANCH   1   5
ATOM      5  C   UNL     1      16.753 -15.552  37.250  1.00  0.00     0.003 C 
ATOM      6  C   UNL     1      16.613 -16.580  36.127  1.00  0.00     0.004 C 
ENDBRANCH   1   5
TORSDOF 2
ENDMDL
MODEL 9
REMARK VINA RESULT:    -3.109     10.643     11.189
REMARK INTER + INTRA:          -3.382
REMARK INTER:                  -3.369
REMARK INTRA:                  -0.013
REMARK UNBOUND:                 0.090
REMARK SMILES CCCC(=O)[O-]
REMARK SMILES IDX 3 1 4 2 5 3 6 4 2 5 1 6
REMARK H PARENT
REMARK Flexibility Score: inf
ROOT
ATOM      1  C   UNL     1      21.937 -21.344  32.902  1.00  0.00     0.052 C 
ENDROOT
BRANCH   1   2
ATOM      2  C   UNL     1      20.440 -21.392  32.902  1.00  0.00     0.041 C 
ATOM      3  O   UNL     1      19.836 -22.313  33.512  1.00  0.00    -0.550 OA
ATOM      4  O   UNL     1      19.712 -20.439  32.201  1.00  0.00    -0.550 OA
ENDBRANCH   1   2
BRANCH   1   5
ATOM      5  C   UNL     1      22.550 -22.699  33.277  1.00  0.00     0.003 C 
ATOM      6  C   UNL     1      24.003 -22.573  33.737  1.00  0.00     0.004 C 
ENDBRANCH   1   5
TORSDOF 2
ENDMDL
