MODEL 1
REMARK VINA RESULT:    -7.617      0.000      0.000
REMARK INTER + INTRA:          -9.546
REMARK INTER:                  -9.175
REMARK INTRA:                  -0.371
REMARK UNBOUND:                -0.371
REMARK SMILES Oc1cc(O)c2c(c1)O[C@@H](c1ccc(O)c(O)c1)[C@@H](O)C2
REMARK SMILES IDX 21 1 19 2 10 3 9 4 7 5 8 6 2 7 3 8 4 9 6 10 20 11 11 13
REMARK SMILES IDX 18 14 12 15 16 16 13 17 14 18 17 19 15 21 5 23 1 25
REMARK H PARENT 20 12 17 20 15 22 5 24 1 26
REMARK Flexibility Score: inf
ROOT
ATOM      1  C   UNL     1     -48.458 -13.691  10.782  1.00  0.00     0.079 C 
ATOM      2  C   UNL     1     -49.736 -13.486  11.623  1.00  0.00     0.164 C 
ATOM      3  C   UNL     1     -49.461 -13.917  13.084  1.00  0.00     0.232 C 
ATOM      4  O   UNL     1     -48.382 -13.154  13.617  1.00  0.00    -0.482 OA
ATOM      5  C   UNL     1     -47.230 -12.903  12.862  1.00  0.00     0.131 A 
ATOM      6  C   UNL     1     -46.102 -12.381  13.497  1.00  0.00     0.093 A 
ATOM      7  C   UNL     1     -44.942 -12.108  12.768  1.00  0.00     0.122 A 
ATOM      8  C   UNL     1     -44.908 -12.369  11.393  1.00  0.00     0.092 A 
ATOM      9  C   UNL     1     -46.021 -12.913  10.742  1.00  0.00     0.126 A 
ATOM     10  C   UNL     1     -47.213 -13.152  11.468  1.00  0.00     0.039 A 
ENDROOT
BRANCH   2  11
ATOM     11  O   UNL     1     -50.162 -12.150  11.513  1.00  0.00    -0.389 OA
ATOM     12  H   UNL     1     -49.594 -11.592  12.105  1.00  0.00     0.211 HD
ENDBRANCH   2  11
BRANCH   3  13
ATOM     13  C   UNL     1     -50.651 -13.889  14.025  1.00  0.00    -0.001 A 
ATOM     14  C   UNL     1     -51.887 -14.489  13.716  1.00  0.00     0.057 A 
ATOM     15  C   UNL     1     -50.539 -13.162  15.222  1.00  0.00     0.012 A 
ATOM     16  C   UNL     1     -52.941 -14.478  14.640  1.00  0.00     0.157 A 
ATOM     17  C   UNL     1     -51.592 -13.128  16.135  1.00  0.00     0.050 A 
ATOM     18  C   UNL     1     -52.778 -13.821  15.880  1.00  0.00     0.157 A 
BRANCH  16  19
ATOM     19  O   UNL     1     -54.131 -15.120  14.286  1.00  0.00    -0.504 OA
ATOM     20  H   UNL     1     -54.681 -14.872  13.475  1.00  0.00     0.293 HD
ENDBRANCH  16  19
BRANCH  18  21
ATOM     21  O   UNL     1     -53.752 -13.855  16.881  1.00  0.00    -0.504 OA
ATOM     22  H   UNL     1     -54.300 -13.050  17.159  1.00  0.00     0.293 HD
ENDBRANCH  18  21
ENDBRANCH   3  13
BRANCH   9  23
ATOM     23  O   UNL     1     -45.908 -13.210   9.382  1.00  0.00    -0.507 OA
ATOM     24  H   UNL     1     -45.723 -12.508   8.678  1.00  0.00     0.293 HD
ENDBRANCH   9  23
BRANCH   7  25
ATOM     25  O   UNL     1     -43.831 -11.573  13.417  1.00  0.00    -0.508 OA
ATOM     26  H   UNL     1     -43.168 -12.167  13.903  1.00  0.00     0.293 HD
ENDBRANCH   7  25
TORSDOF 6
ENDMDL
MODEL 2
REMARK VINA RESULT:    -7.210      3.291      6.068
REMARK INTER + INTRA:          -9.057
REMARK INTER:                  -8.910
REMARK INTRA:                  -0.147
REMARK UNBOUND:                -0.371
REMARK SMILES Oc1cc(O)c2c(c1)O[C@@H](c1ccc(O)c(O)c1)[C@@H](O)C2
REMARK SMILES IDX 21 1 19 2 10 3 9 4 7 5 8 6 2 7 3 8 4 9 6 10 20 11 11 13
REMARK SMILES IDX 18 14 12 15 16 16 13 17 14 18 17 19 15 21 5 23 1 25
REMARK H PARENT 20 12 17 20 15 22 5 24 1 26
REMARK Flexibility Score: inf
ROOT
ATOM      1  C   UNL     1     -44.002  -8.976  13.159  1.00  0.00     0.079 C 
ATOM      2  C   UNL     1     -44.874 -10.235  13.350  1.00  0.00     0.164 C 
ATOM      3  C   UNL     1     -45.326 -10.758  11.965  1.00  0.00     0.232 C 
ATOM      4  O   UNL     1     -44.185 -11.055  11.165  1.00  0.00    -0.482 OA
ATOM      5  C   UNL     1     -43.084 -10.191  11.125  1.00  0.00     0.131 A 
ATOM      6  C   UNL     1     -42.107 -10.379  10.146  1.00  0.00     0.093 A 
ATOM      7  C   UNL     1     -40.991  -9.541  10.089  1.00  0.00     0.122 A 
ATOM      8  C   UNL     1     -40.856  -8.499  11.013  1.00  0.00     0.092 A 
ATOM      9  C   UNL     1     -41.836  -8.280  11.988  1.00  0.00     0.126 A 
ATOM     10  C   UNL     1     -42.947  -9.152  12.078  1.00  0.00     0.039 A 
ENDROOT
BRANCH   2  11
ATOM     11  O   UNL     1     -44.161 -11.192  14.095  1.00  0.00    -0.389 OA
ATOM     12  H   UNL     1     -44.776 -11.939  14.312  1.00  0.00     0.211 HD
ENDBRANCH   2  11
BRANCH   3  13
ATOM     13  C   UNL     1     -46.291 -11.929  11.975  1.00  0.00    -0.001 A 
ATOM     14  C   UNL     1     -46.912 -12.401  13.147  1.00  0.00     0.057 A 
ATOM     15  C   UNL     1     -46.510 -12.624  10.774  1.00  0.00     0.012 A 
ATOM     16  C   UNL     1     -47.834 -13.455  13.097  1.00  0.00     0.157 A 
ATOM     17  C   UNL     1     -47.409 -13.689  10.721  1.00  0.00     0.050 A 
ATOM     18  C   UNL     1     -48.113 -14.082  11.862  1.00  0.00     0.157 A 
BRANCH  16  19
ATOM     19  O   UNL     1     -48.441 -13.855  14.291  1.00  0.00    -0.504 OA
ATOM     20  H   UNL     1     -48.913 -13.220  14.919  1.00  0.00     0.293 HD
ENDBRANCH  16  19
BRANCH  18  21
ATOM     21  O   UNL     1     -49.090 -15.072  11.727  1.00  0.00    -0.504 OA
ATOM     22  H   UNL     1     -49.672 -15.178  10.904  1.00  0.00     0.293 HD
ENDBRANCH  18  21
ENDBRANCH   3  13
BRANCH   9  23
ATOM     23  O   UNL     1     -41.679  -7.187  12.844  1.00  0.00    -0.507 OA
ATOM     24  H   UNL     1     -42.308  -6.395  12.848  1.00  0.00     0.293 HD
ENDBRANCH   9  23
BRANCH   7  25
ATOM     25  O   UNL     1     -40.020  -9.755   9.113  1.00  0.00    -0.508 OA
ATOM     26  H   UNL     1     -39.107  -9.317   9.172  1.00  0.00     0.293 HD
ENDBRANCH   7  25
TORSDOF 6
ENDMDL
MODEL 3
REMARK VINA RESULT:    -7.200      2.792      8.163
REMARK INTER + INTRA:          -9.045
REMARK INTER:                  -8.905
REMARK INTRA:                  -0.139
REMARK UNBOUND:                -0.371
REMARK SMILES Oc1cc(O)c2c(c1)O[C@@H](c1ccc(O)c(O)c1)[C@@H](O)C2
REMARK SMILES IDX 21 1 19 2 10 3 9 4 7 5 8 6 2 7 3 8 4 9 6 10 20 11 11 13
REMARK SMILES IDX 18 14 12 15 16 16 13 17 14 18 17 19 15 21 5 23 1 25
REMARK H PARENT 20 12 17 20 15 22 5 24 1 26
REMARK Flexibility Score: inf
ROOT
ATOM      1  C   UNL     1     -46.794 -11.101  15.065  1.00  0.00     0.079 C 
ATOM      2  C   UNL     1     -45.905 -10.275  14.111  1.00  0.00     0.164 C 
ATOM      3  C   UNL     1     -45.130 -11.235  13.176  1.00  0.00     0.232 C 
ATOM      4  O   UNL     1     -46.049 -12.035  12.438  1.00  0.00    -0.482 OA
ATOM      5  C   UNL     1     -47.169 -12.607  13.053  1.00  0.00     0.131 A 
ATOM      6  C   UNL     1     -47.897 -13.583  12.370  1.00  0.00     0.093 A 
ATOM      7  C   UNL     1     -49.026 -14.163  12.953  1.00  0.00     0.122 A 
ATOM      8  C   UNL     1     -49.425 -13.769  14.236  1.00  0.00     0.092 A 
ATOM      9  C   UNL     1     -48.695 -12.808  14.946  1.00  0.00     0.126 A 
ATOM     10  C   UNL     1     -47.576 -12.187  14.343  1.00  0.00     0.039 A 
ENDROOT
BRANCH   2  11
ATOM     11  O   UNL     1     -46.698  -9.346  13.414  1.00  0.00    -0.389 OA
ATOM     12  H   UNL     1     -47.180  -9.827  12.692  1.00  0.00     0.211 HD
ENDBRANCH   2  11
BRANCH   3  13
ATOM     13  C   UNL     1     -44.117 -10.591  12.248  1.00  0.00    -0.001 A 
ATOM     14  C   UNL     1     -43.748  -9.236  12.337  1.00  0.00     0.057 A 
ATOM     15  C   UNL     1     -43.584 -11.364  11.202  1.00  0.00     0.012 A 
ATOM     16  C   UNL     1     -42.770  -8.700  11.488  1.00  0.00     0.157 A 
ATOM     17  C   UNL     1     -42.627 -10.830  10.339  1.00  0.00     0.050 A 
ATOM     18  C   UNL     1     -42.176  -9.517  10.501  1.00  0.00     0.157 A 
BRANCH  16  19
ATOM     19  O   UNL     1     -42.426  -7.355  11.649  1.00  0.00    -0.504 OA
ATOM     20  H   UNL     1     -42.978  -6.588  11.290  1.00  0.00     0.293 HD
ENDBRANCH  16  19
BRANCH  18  21
ATOM     21  O   UNL     1     -41.130  -9.074   9.688  1.00  0.00    -0.504 OA
ATOM     22  H   UNL     1     -40.478  -8.347   9.959  1.00  0.00     0.293 HD
ENDBRANCH  18  21
ENDBRANCH   3  13
BRANCH   9  23
ATOM     23  O   UNL     1     -49.105 -12.500  16.246  1.00  0.00    -0.507 OA
ATOM     24  H   UNL     1     -49.917 -11.933  16.449  1.00  0.00     0.293 HD
ENDBRANCH   9  23
BRANCH   7  25
ATOM     25  O   UNL     1     -49.747 -15.124  12.249  1.00  0.00    -0.508 OA
ATOM     26  H   UNL     1     -49.332 -16.014  11.996  1.00  0.00     0.293 HD
ENDBRANCH   7  25
TORSDOF 6
ENDMDL
MODEL 4
REMARK VINA RESULT:    -7.198      1.466      6.936
REMARK INTER + INTRA:          -9.042
REMARK INTER:                  -8.821
REMARK INTRA:                  -0.221
REMARK UNBOUND:                -0.371
REMARK SMILES Oc1cc(O)c2c(c1)O[C@@H](c1ccc(O)c(O)c1)[C@@H](O)C2
REMARK SMILES IDX 21 1 19 2 10 3 9 4 7 5 8 6 2 7 3 8 4 9 6 10 20 11 11 13
REMARK SMILES IDX 18 14 12 15 16 16 13 17 14 18 17 19 15 21 5 23 1 25
REMARK H PARENT 20 12 17 20 15 22 5 24 1 26
REMARK Flexibility Score: inf
ROOT
ATOM      1  C   UNL     1     -50.537 -13.278  11.744  1.00  0.00     0.079 C 
ATOM      2  C   UNL     1     -49.021 -13.252  11.458  1.00  0.00     0.164 C 
ATOM      3  C   UNL     1     -48.296 -12.517  12.612  1.00  0.00     0.232 C 
ATOM      4  O   UNL     1     -48.562 -13.178  13.846  1.00  0.00    -0.482 OA
ATOM      5  C   UNL     1     -49.850 -13.627  14.165  1.00  0.00     0.131 A 
ATOM      6  C   UNL     1     -50.124 -14.032  15.472  1.00  0.00     0.093 A 
ATOM      7  C   UNL     1     -51.396 -14.496  15.817  1.00  0.00     0.122 A 
ATOM      8  C   UNL     1     -52.404 -14.546  14.848  1.00  0.00     0.092 A 
ATOM      9  C   UNL     1     -52.155 -14.124  13.537  1.00  0.00     0.126 A 
ATOM     10  C   UNL     1     -50.857 -13.693  13.172  1.00  0.00     0.039 A 
ENDROOT
BRANCH   2  11
ATOM     11  O   UNL     1     -48.556 -14.564  11.261  1.00  0.00    -0.389 OA
ATOM     12  H   UNL     1     -47.878 -14.550  10.538  1.00  0.00     0.211 HD
ENDBRANCH   2  11
BRANCH   3  13
ATOM     13  C   UNL     1     -46.805 -12.299  12.434  1.00  0.00    -0.001 A 
ATOM     14  C   UNL     1     -45.932 -12.048  13.508  1.00  0.00     0.057 A 
ATOM     15  C   UNL     1     -46.288 -12.264  11.127  1.00  0.00     0.012 A 
ATOM     16  C   UNL     1     -44.554 -11.902  13.296  1.00  0.00     0.157 A 
ATOM     17  C   UNL     1     -44.921 -12.097  10.907  1.00  0.00     0.050 A 
ATOM     18  C   UNL     1     -44.039 -11.964  11.983  1.00  0.00     0.157 A 
BRANCH  16  19
ATOM     19  O   UNL     1     -43.737 -11.688  14.409  1.00  0.00    -0.504 OA
ATOM     20  H   UNL     1     -43.421 -12.427  15.022  1.00  0.00     0.293 HD
ENDBRANCH  16  19
BRANCH  18  21
ATOM     21  O   UNL     1     -42.669 -11.922  11.711  1.00  0.00    -0.504 OA
ATOM     22  H   UNL     1     -42.143 -12.712  11.355  1.00  0.00     0.293 HD
ENDBRANCH  18  21
ENDBRANCH   3  13
BRANCH   9  23
ATOM     23  O   UNL     1     -53.216 -14.138  12.628  1.00  0.00    -0.507 OA
ATOM     24  H   UNL     1     -53.189 -14.652  11.758  1.00  0.00     0.293 HD
ENDBRANCH   9  23
BRANCH   7  25
ATOM     25  O   UNL     1     -51.645 -14.910  17.124  1.00  0.00    -0.508 OA
ATOM     26  H   UNL     1     -50.888 -15.143  17.757  1.00  0.00     0.293 HD
ENDBRANCH   7  25
TORSDOF 6
ENDMDL
MODEL 5
REMARK VINA RESULT:    -7.159      1.883      7.504
REMARK INTER + INTRA:          -8.995
REMARK INTER:                  -8.900
REMARK INTRA:                  -0.096
REMARK UNBOUND:                -0.371
REMARK SMILES Oc1cc(O)c2c(c1)O[C@@H](c1ccc(O)c(O)c1)[C@@H](O)C2
REMARK SMILES IDX 21 1 19 2 10 3 9 4 7 5 8 6 2 7 3 8 4 9 6 10 20 11 11 13
REMARK SMILES IDX 18 14 12 15 16 16 13 17 14 18 17 19 15 21 5 23 1 25
REMARK H PARENT 20 12 17 20 15 22 5 24 1 26
REMARK Flexibility Score: inf
ROOT
ATOM      1  C   UNL     1     -48.442 -12.711  16.112  1.00  0.00     0.079 C 
ATOM      2  C   UNL     1     -47.389 -11.857  15.375  1.00  0.00     0.164 C 
ATOM      3  C   UNL     1     -47.047 -12.525  14.021  1.00  0.00     0.232 C 
ATOM      4  O   UNL     1     -48.227 -12.653  13.234  1.00  0.00    -0.482 OA
ATOM      5  C   UNL     1     -49.433 -13.083  13.802  1.00  0.00     0.131 A 
ATOM      6  C   UNL     1     -50.490 -13.442  12.964  1.00  0.00     0.093 A 
ATOM      7  C   UNL     1     -51.709 -13.862  13.501  1.00  0.00     0.122 A 
ATOM      8  C   UNL     1     -51.868 -13.935  14.890  1.00  0.00     0.092 A 
ATOM      9  C   UNL     1     -50.813 -13.601  15.747  1.00  0.00     0.126 A 
ATOM     10  C   UNL     1     -49.590 -13.134  15.209  1.00  0.00     0.039 A 
ENDROOT
BRANCH   2  11
ATOM     11  O   UNL     1     -47.864 -10.540  15.236  1.00  0.00    -0.389 OA
ATOM     12  H   UNL     1     -47.187 -10.015  14.738  1.00  0.00     0.211 HD
ENDBRANCH   2  11
BRANCH   3  13
ATOM     13  C   UNL     1     -45.937 -11.873  13.217  1.00  0.00    -0.001 A 
ATOM     14  C   UNL     1     -45.200 -10.768  13.681  1.00  0.00     0.057 A 
ATOM     15  C   UNL     1     -45.690 -12.345  11.916  1.00  0.00     0.012 A 
ATOM     16  C   UNL     1     -44.150 -10.234  12.921  1.00  0.00     0.157 A 
ATOM     17  C   UNL     1     -44.663 -11.803  11.145  1.00  0.00     0.050 A 
ATOM     18  C   UNL     1     -43.855 -10.782  11.653  1.00  0.00     0.157 A 
BRANCH  16  19
ATOM     19  O   UNL     1     -43.435  -9.157  13.453  1.00  0.00    -0.504 OA
ATOM     20  H   UNL     1     -42.593  -9.261  14.002  1.00  0.00     0.293 HD
ENDBRANCH  16  19
BRANCH  18  21
ATOM     21  O   UNL     1     -42.764 -10.360  10.889  1.00  0.00    -0.504 OA
ATOM     22  H   UNL     1     -42.683 -10.518   9.891  1.00  0.00     0.293 HD
ENDBRANCH  18  21
ENDBRANCH   3  13
BRANCH   9  23
ATOM     23  O   UNL     1     -51.009 -13.752  17.122  1.00  0.00    -0.507 OA
ATOM     24  H   UNL     1     -50.974 -14.648  17.588  1.00  0.00     0.293 HD
ENDBRANCH   9  23
BRANCH   7  25
ATOM     25  O   UNL     1     -52.756 -14.202  12.647  1.00  0.00    -0.508 OA
ATOM     26  H   UNL     1     -53.457 -14.883  12.917  1.00  0.00     0.293 HD
ENDBRANCH   7  25
TORSDOF 6
ENDMDL
MODEL 6
REMARK VINA RESULT:    -7.092      1.378      1.629
REMARK INTER + INTRA:          -8.914
REMARK INTER:                  -8.789
REMARK INTRA:                  -0.125
REMARK UNBOUND:                -0.371
REMARK SMILES Oc1cc(O)c2c(c1)O[C@@H](c1ccc(O)c(O)c1)[C@@H](O)C2
REMARK SMILES IDX 21 1 19 2 10 3 9 4 7 5 8 6 2 7 3 8 4 9 6 10 20 11 11 13
REMARK SMILES IDX 18 14 12 15 16 16 13 17 14 18 17 19 15 21 5 23 1 25
REMARK H PARENT 20 12 17 20 15 22 5 24 1 26
REMARK Flexibility Score: inf
ROOT
ATOM      1  C   UNL     1     -46.878 -12.934  11.091  1.00  0.00     0.079 C 
ATOM      2  C   UNL     1     -48.321 -13.107  11.609  1.00  0.00     0.164 C 
ATOM      3  C   UNL     1     -48.284 -13.445  13.120  1.00  0.00     0.232 C 
ATOM      4  O   UNL     1     -47.618 -12.405  13.830  1.00  0.00    -0.482 OA
ATOM      5  C   UNL     1     -46.440 -11.830  13.337  1.00  0.00     0.131 A 
ATOM      6  C   UNL     1     -45.683 -11.007  14.173  1.00  0.00     0.093 A 
ATOM      7  C   UNL     1     -44.511 -10.409  13.705  1.00  0.00     0.122 A 
ATOM      8  C   UNL     1     -44.085 -10.646  12.393  1.00  0.00     0.092 A 
ATOM      9  C   UNL     1     -44.818 -11.487  11.547  1.00  0.00     0.126 A 
ATOM     10  C   UNL     1     -46.029 -12.060  12.001  1.00  0.00     0.039 A 
ENDROOT
BRANCH   2  11
ATOM     11  O   UNL     1     -49.067 -11.951  11.321  1.00  0.00    -0.389 OA
ATOM     12  H   UNL     1     -49.970 -12.229  11.019  1.00  0.00     0.211 HD
ENDBRANCH   2  11
BRANCH   3  13
ATOM     13  C   UNL     1     -49.619 -13.763  13.767  1.00  0.00    -0.001 A 
ATOM     14  C   UNL     1     -50.814 -13.895  13.035  1.00  0.00     0.057 A 
ATOM     15  C   UNL     1     -49.679 -13.850  15.168  1.00  0.00     0.012 A 
ATOM     16  C   UNL     1     -52.014 -14.240  13.673  1.00  0.00     0.157 A 
ATOM     17  C   UNL     1     -50.874 -14.169  15.811  1.00  0.00     0.050 A 
ATOM     18  C   UNL     1     -52.035 -14.415  15.074  1.00  0.00     0.157 A 
BRANCH  16  19
ATOM     19  O   UNL     1     -53.158 -14.388  12.885  1.00  0.00    -0.504 OA
ATOM     20  H   UNL     1     -53.688 -13.610  12.515  1.00  0.00     0.293 HD
ENDBRANCH  16  19
BRANCH  18  21
ATOM     21  O   UNL     1     -53.172 -14.851  15.759  1.00  0.00    -0.504 OA
ATOM     22  H   UNL     1     -54.058 -14.359  15.746  1.00  0.00     0.293 HD
ENDBRANCH  18  21
ENDBRANCH   3  13
BRANCH   9  23
ATOM     23  O   UNL     1     -44.313 -11.735  10.268  1.00  0.00    -0.507 OA
ATOM     24  H   UNL     1     -43.737 -12.537  10.050  1.00  0.00     0.293 HD
ENDBRANCH   9  23
BRANCH   7  25
ATOM     25  O   UNL     1     -43.778  -9.579  14.551  1.00  0.00    -0.508 OA
ATOM     26  H   UNL     1     -43.238  -9.956  15.322  1.00  0.00     0.293 HD
ENDBRANCH   7  25
TORSDOF 6
ENDMDL
MODEL 7
REMARK VINA RESULT:    -6.992      3.132      8.453
REMARK INTER + INTRA:          -8.793
REMARK INTER:                  -8.751
REMARK INTRA:                  -0.042
REMARK UNBOUND:                -0.371
REMARK SMILES Oc1cc(O)c2c(c1)O[C@@H](c1ccc(O)c(O)c1)[C@@H](O)C2
REMARK SMILES IDX 21 1 19 2 10 3 9 4 7 5 8 6 2 7 3 8 4 9 6 10 20 11 11 13
REMARK SMILES IDX 18 14 12 15 16 16 13 17 14 18 17 19 15 21 5 23 1 25
REMARK H PARENT 20 12 17 20 15 22 5 24 1 26
REMARK Flexibility Score: inf
ROOT
ATOM      1  C   UNL     1     -46.453 -12.869  11.615  1.00  0.00     0.079 C 
ATOM      2  C   UNL     1     -44.995 -12.508  11.263  1.00  0.00     0.164 C 
ATOM      3  C   UNL     1     -44.734 -11.026  11.626  1.00  0.00     0.232 C 
ATOM      4  O   UNL     1     -44.981 -10.819  13.014  1.00  0.00    -0.482 OA
ATOM      5  C   UNL     1     -46.100 -11.379  13.643  1.00  0.00     0.131 A 
ATOM      6  C   UNL     1     -46.446 -10.949  14.924  1.00  0.00     0.093 A 
ATOM      7  C   UNL     1     -47.549 -11.498  15.582  1.00  0.00     0.122 A 
ATOM      8  C   UNL     1     -48.319 -12.480  14.946  1.00  0.00     0.092 A 
ATOM      9  C   UNL     1     -48.000 -12.909  13.653  1.00  0.00     0.126 A 
ATOM     10  C   UNL     1     -46.859 -12.387  12.999  1.00  0.00     0.039 A 
ENDROOT
BRANCH   2  11
ATOM     11  O   UNL     1     -44.120 -13.397  11.913  1.00  0.00    -0.389 OA
ATOM     12  H   UNL     1     -43.482 -13.754  11.242  1.00  0.00     0.211 HD
ENDBRANCH   2  11
BRANCH   3  13
ATOM     13  C   UNL     1     -43.376 -10.471  11.236  1.00  0.00    -0.001 A 
ATOM     14  C   UNL     1     -42.368 -11.256  10.646  1.00  0.00     0.057 A 
ATOM     15  C   UNL     1     -43.085  -9.134  11.554  1.00  0.00     0.012 A 
ATOM     16  C   UNL     1     -41.148 -10.685  10.258  1.00  0.00     0.157 A 
ATOM     17  C   UNL     1     -41.865  -8.566  11.192  1.00  0.00     0.050 A 
ATOM     18  C   UNL     1     -40.908  -9.315  10.501  1.00  0.00     0.157 A 
BRANCH  16  19
ATOM     19  O   UNL     1     -40.201 -11.511   9.647  1.00  0.00    -0.504 OA
ATOM     20  H   UNL     1     -39.296 -11.189   9.332  1.00  0.00     0.293 HD
ENDBRANCH  16  19
BRANCH  18  21
ATOM     21  O   UNL     1     -39.755  -8.663  10.055  1.00  0.00    -0.504 OA
ATOM     22  H   UNL     1     -39.672  -7.656   9.983  1.00  0.00     0.293 HD
ENDBRANCH  18  21
ENDBRANCH   3  13
BRANCH   9  23
ATOM     23  O   UNL     1     -48.840 -13.846  13.045  1.00  0.00    -0.507 OA
ATOM     24  H   UNL     1     -49.252 -14.622  13.545  1.00  0.00     0.293 HD
ENDBRANCH   9  23
BRANCH   7  25
ATOM     25  O   UNL     1     -47.870 -11.066  16.867  1.00  0.00    -0.508 OA
ATOM     26  H   UNL     1     -48.829 -10.880  17.136  1.00  0.00     0.293 HD
ENDBRANCH   7  25
TORSDOF 6
ENDMDL
MODEL 8
REMARK VINA RESULT:    -6.945      3.081      8.822
REMARK INTER + INTRA:          -8.737
REMARK INTER:                  -8.498
REMARK INTRA:                  -0.238
REMARK UNBOUND:                -0.371
REMARK SMILES Oc1cc(O)c2c(c1)O[C@@H](c1ccc(O)c(O)c1)[C@@H](O)C2
REMARK SMILES IDX 21 1 19 2 10 3 9 4 7 5 8 6 2 7 3 8 4 9 6 10 20 11 11 13
REMARK SMILES IDX 18 14 12 15 16 16 13 17 14 18 17 19 15 21 5 23 1 25
REMARK H PARENT 20 12 17 20 15 22 5 24 1 26
REMARK Flexibility Score: inf
ROOT
ATOM      1  C   UNL     1     -45.482 -11.647  13.963  1.00  0.00     0.079 C 
ATOM      2  C   UNL     1     -44.526 -10.773  13.125  1.00  0.00     0.164 C 
ATOM      3  C   UNL     1     -44.023 -11.589  11.908  1.00  0.00     0.232 C 
ATOM      4  O   UNL     1     -45.131 -12.016  11.122  1.00  0.00    -0.482 OA
ATOM      5  C   UNL     1     -46.290 -12.526  11.720  1.00  0.00     0.131 A 
ATOM      6  C   UNL     1     -47.241 -13.167  10.924  1.00  0.00     0.093 A 
ATOM      7  C   UNL     1     -48.412 -13.674  11.490  1.00  0.00     0.122 A 
ATOM      8  C   UNL     1     -48.630 -13.548  12.867  1.00  0.00     0.092 A 
ATOM      9  C   UNL     1     -47.679 -12.929  13.686  1.00  0.00     0.126 A 
ATOM     10  C   UNL     1     -46.510 -12.375  13.111  1.00  0.00     0.039 A 
ENDROOT
BRANCH   2  11
ATOM     11  O   UNL     1     -45.177  -9.581  12.758  1.00  0.00    -0.389 OA
ATOM     12  H   UNL     1     -45.059  -9.448  11.782  1.00  0.00     0.211 HD
ENDBRANCH   2  11
BRANCH   3  13
ATOM     13  C   UNL     1     -42.978 -10.915  11.038  1.00  0.00    -0.001 A 
ATOM     14  C   UNL     1     -42.182  -9.844  11.485  1.00  0.00     0.057 A 
ATOM     15  C   UNL     1     -42.858 -11.327   9.700  1.00  0.00     0.012 A 
ATOM     16  C   UNL     1     -41.196  -9.287  10.659  1.00  0.00     0.157 A 
ATOM     17  C   UNL     1     -41.894 -10.762   8.865  1.00  0.00     0.050 A 
ATOM     18  C   UNL     1     -41.026  -9.778   9.345  1.00  0.00     0.157 A 
BRANCH  16  19
ATOM     19  O   UNL     1     -40.417  -8.248  11.174  1.00  0.00    -0.504 OA
ATOM     20  H   UNL     1     -40.781  -7.519  11.772  1.00  0.00     0.293 HD
ENDBRANCH  16  19
BRANCH  18  21
ATOM     21  O   UNL     1     -40.001  -9.335   8.505  1.00  0.00    -0.504 OA
ATOM     22  H   UNL     1     -39.486  -8.475   8.653  1.00  0.00     0.293 HD
ENDBRANCH  18  21
ENDBRANCH   3  13
BRANCH   9  23
ATOM     23  O   UNL     1     -47.922 -12.887  15.061  1.00  0.00    -0.507 OA
ATOM     24  H   UNL     1     -47.270 -12.489  15.724  1.00  0.00     0.293 HD
ENDBRANCH   9  23
BRANCH   7  25
ATOM     25  O   UNL     1     -49.356 -14.298  10.676  1.00  0.00    -0.508 OA
ATOM     26  H   UNL     1     -50.086 -13.767  10.214  1.00  0.00     0.293 HD
ENDBRANCH   7  25
TORSDOF 6
ENDMDL
MODEL 9
REMARK VINA RESULT:    -6.749      3.204      8.171
REMARK INTER + INTRA:          -8.500
REMARK INTER:                  -8.135
REMARK INTRA:                  -0.366
REMARK UNBOUND:                -0.371
REMARK SMILES Oc1cc(O)c2c(c1)O[C@@H](c1ccc(O)c(O)c1)[C@@H](O)C2
REMARK SMILES IDX 21 1 19 2 10 3 9 4 7 5 8 6 2 7 3 8 4 9 6 10 20 11 11 13
REMARK SMILES IDX 18 14 12 15 16 16 13 17 14 18 17 19 15 21 5 23 1 25
REMARK H PARENT 20 12 17 20 15 22 5 24 1 26
REMARK Flexibility Score: inf
ROOT
ATOM      1  C   UNL     1     -45.417 -12.830  11.523  1.00  0.00     0.079 C 
ATOM      2  C   UNL     1     -44.238 -11.905  11.893  1.00  0.00     0.164 C 
ATOM      3  C   UNL     1     -44.790 -10.535  12.357  1.00  0.00     0.232 C 
ATOM      4  O   UNL     1     -45.654 -10.717  13.475  1.00  0.00    -0.482 OA
ATOM      5  C   UNL     1     -46.591 -11.757  13.505  1.00  0.00     0.131 A 
ATOM      6  C   UNL     1     -47.584 -11.750  14.486  1.00  0.00     0.093 A 
ATOM      7  C   UNL     1     -48.524 -12.781  14.549  1.00  0.00     0.122 A 
ATOM      8  C   UNL     1     -48.478 -13.823  13.615  1.00  0.00     0.092 A 
ATOM      9  C   UNL     1     -47.503 -13.836  12.610  1.00  0.00     0.126 A 
ATOM     10  C   UNL     1     -46.522 -12.817  12.568  1.00  0.00     0.039 A 
ENDROOT
BRANCH   2  11
ATOM     11  O   UNL     1     -43.434 -12.533  12.861  1.00  0.00    -0.389 OA
ATOM     12  H   UNL     1     -43.788 -12.302  13.758  1.00  0.00     0.211 HD
ENDBRANCH   2  11
BRANCH   3  13
ATOM     13  C   UNL     1     -43.756  -9.463  12.649  1.00  0.00    -0.001 A 
ATOM     14  C   UNL     1     -42.655  -9.210  11.810  1.00  0.00     0.057 A 
ATOM     15  C   UNL     1     -43.860  -8.746  13.853  1.00  0.00     0.012 A 
ATOM     16  C   UNL     1     -41.755  -8.175  12.098  1.00  0.00     0.157 A 
ATOM     17  C   UNL     1     -42.955  -7.730  14.157  1.00  0.00     0.050 A 
ATOM     18  C   UNL     1     -41.929  -7.402  13.267  1.00  0.00     0.157 A 
BRANCH  16  19
ATOM     19  O   UNL     1     -40.701  -7.954  11.207  1.00  0.00    -0.504 OA
ATOM     20  H   UNL     1     -40.795  -7.430  10.348  1.00  0.00     0.293 HD
ENDBRANCH  16  19
BRANCH  18  21
ATOM     21  O   UNL     1     -41.127  -6.297  13.563  1.00  0.00    -0.504 OA
ATOM     22  H   UNL     1     -41.495  -5.387  13.813  1.00  0.00     0.293 HD
ENDBRANCH  18  21
ENDBRANCH   3  13
BRANCH   9  23
ATOM     23  O   UNL     1     -47.543 -14.868  11.669  1.00  0.00    -0.507 OA
ATOM     24  H   UNL     1     -47.514 -15.846  11.922  1.00  0.00     0.293 HD
ENDBRANCH   9  23
BRANCH   7  25
ATOM     25  O   UNL     1     -49.498 -12.763  15.545  1.00  0.00    -0.508 OA
ATOM     26  H   UNL     1     -50.467 -12.980  15.339  1.00  0.00     0.293 HD
ENDBRANCH   7  25
TORSDOF 6
ENDMDL
