MODEL 1
REMARK VINA RESULT:    -2.863      0.000      0.000
REMARK INTER + INTRA:          -4.533
REMARK INTER:                  -3.867
REMARK INTRA:                  -0.666
REMARK UNBOUND:                -0.666
REMARK SMILES CCCCCCC=CC(=O)[O-]
REMARK SMILES IDX 5 1 6 2 7 3 8 4 9 5 10 6 11 7 4 8 3 9 2 10 1 11
REMARK H PARENT
REMARK Flexibility Score: inf
ROOT
ATOM      1  C   UNL     1     120.875 123.439 123.505  1.00  0.00     0.004 C 
ENDROOT
BRANCH   1   2
ATOM      2  C   UNL     1     121.142 124.452 122.380  1.00  0.00     0.027 C 
BRANCH   2   3
ATOM      3  C   UNL     1     122.481 125.118 122.553  1.00  0.00    -0.025 C 
ATOM      4  C   UNL     1     122.714 126.251 123.237  1.00  0.00     0.020 C 
BRANCH   4   5
ATOM      5  C   UNL     1     121.720 127.055 123.979  1.00  0.00     0.064 C 
ATOM      6  O   UNL     1     121.008 127.927 123.414  1.00  0.00    -0.545 OA
ATOM      7  O   UNL     1     121.554 126.829 125.339  1.00  0.00    -0.545 OA
ENDBRANCH   4   5
ENDBRANCH   2   3
ENDBRANCH   1   2
BRANCH   1   8
ATOM      8  C   UNL     1     121.814 122.225 123.439  1.00  0.00     0.000 C 
BRANCH   8   9
ATOM      9  C   UNL     1     121.589 121.372 122.177  1.00  0.00    -0.000 C 
BRANCH   9  10
ATOM     10  C   UNL     1     122.827 121.326 121.269  1.00  0.00    -0.003 C 
ATOM     11  C   UNL     1     124.117 121.674 122.010  1.00  0.00     0.004 C 
ENDBRANCH   9  10
ENDBRANCH   8   9
ENDBRANCH   1   8
TORSDOF 6
ENDMDL
MODEL 2
REMARK VINA RESULT:    -2.774      3.214      5.471
REMARK INTER + INTRA:          -4.413
REMARK INTER:                  -3.968
REMARK INTRA:                  -0.445
REMARK UNBOUND:                -0.666
REMARK SMILES CCCCCCC=CC(=O)[O-]
REMARK SMILES IDX 5 1 6 2 7 3 8 4 9 5 10 6 11 7 4 8 3 9 2 10 1 11
REMARK H PARENT
REMARK Flexibility Score: inf
ROOT
ATOM      1  C   UNL     1     121.896 125.490 122.949  1.00  0.00     0.004 C 
ENDROOT
BRANCH   1   2
ATOM      2  C   UNL     1     120.905 124.341 122.702  1.00  0.00     0.027 C 
BRANCH   2   3
ATOM      3  C   UNL     1     121.210 123.159 123.583  1.00  0.00    -0.025 C 
ATOM      4  C   UNL     1     121.701 121.977 123.174  1.00  0.00     0.020 C 
BRANCH   4   5
ATOM      5  C   UNL     1     122.069 121.604 121.791  1.00  0.00     0.064 C 
ATOM      6  O   UNL     1     121.331 120.876 121.076  1.00  0.00    -0.545 OA
ATOM      7  O   UNL     1     123.257 122.087 121.260  1.00  0.00    -0.545 OA
ENDBRANCH   4   5
ENDBRANCH   2   3
ENDBRANCH   1   2
BRANCH   1   8
ATOM      8  C   UNL     1     121.197 126.784 123.392  1.00  0.00     0.000 C 
BRANCH   8   9
ATOM      9  C   UNL     1     121.659 127.259 124.782  1.00  0.00    -0.000 C 
BRANCH   9  10
ATOM     10  C   UNL     1     121.738 126.112 125.800  1.00  0.00    -0.003 C 
ATOM     11  C   UNL     1     121.183 126.499 127.170  1.00  0.00     0.004 C 
ENDBRANCH   9  10
ENDBRANCH   8   9
ENDBRANCH   1   8
TORSDOF 6
ENDMDL
MODEL 3
REMARK VINA RESULT:    -2.746      2.434      3.949
REMARK INTER + INTRA:          -4.376
REMARK INTER:                  -3.437
REMARK INTRA:                  -0.938
REMARK UNBOUND:                -0.666
REMARK SMILES CCCCCCC=CC(=O)[O-]
REMARK SMILES IDX 5 1 6 2 7 3 8 4 9 5 10 6 11 7 4 8 3 9 2 10 1 11
REMARK H PARENT
REMARK Flexibility Score: inf
ROOT
ATOM      1  C   UNL     1     121.271 122.700 122.714  1.00  0.00     0.004 C 
ENDROOT
BRANCH   1   2
ATOM      2  C   UNL     1     122.128 121.720 123.533  1.00  0.00     0.027 C 
BRANCH   2   3
ATOM      3  C   UNL     1     123.579 121.810 123.143  1.00  0.00    -0.025 C 
ATOM      4  C   UNL     1     124.551 122.406 123.854  1.00  0.00     0.020 C 
BRANCH   4   5
ATOM      5  C   UNL     1     124.405 123.066 125.168  1.00  0.00     0.064 C 
ATOM      6  O   UNL     1     123.971 124.243 125.282  1.00  0.00    -0.545 OA
ATOM      7  O   UNL     1     124.740 122.359 126.315  1.00  0.00    -0.545 OA
ENDBRANCH   4   5
ENDBRANCH   2   3
ENDBRANCH   1   2
BRANCH   1   8
ATOM      8  C   UNL     1     120.875 123.948 123.518  1.00  0.00     0.000 C 
BRANCH   8   9
ATOM      9  C   UNL     1     121.362 125.252 122.861  1.00  0.00    -0.000 C 
BRANCH   9  10
ATOM     10  C   UNL     1     122.322 124.998 121.689  1.00  0.00    -0.003 C 
ATOM     11  C   UNL     1     123.744 125.479 121.976  1.00  0.00     0.004 C 
ENDBRANCH   9  10
ENDBRANCH   8   9
ENDBRANCH   1   8
TORSDOF 6
ENDMDL
MODEL 4
REMARK VINA RESULT:    -2.719      1.210      1.963
REMARK INTER + INTRA:          -4.338
REMARK INTER:                  -3.487
REMARK INTRA:                  -0.851
REMARK UNBOUND:                -0.666
REMARK SMILES CCCCCCC=CC(=O)[O-]
REMARK SMILES IDX 5 1 6 2 7 3 8 4 9 5 10 6 11 7 4 8 3 9 2 10 1 11
REMARK H PARENT
REMARK Flexibility Score: inf
ROOT
ATOM      1  C   UNL     1     121.807 122.009 123.371  1.00  0.00     0.004 C 
ENDROOT
BRANCH   1   2
ATOM      2  C   UNL     1     120.877 123.226 123.495  1.00  0.00     0.027 C 
BRANCH   2   3
ATOM      3  C   UNL     1     121.225 124.284 122.483  1.00  0.00    -0.025 C 
ATOM      4  C   UNL     1     122.091 125.295 122.666  1.00  0.00     0.020 C 
BRANCH   4   5
ATOM      5  C   UNL     1     122.896 125.560 123.876  1.00  0.00     0.064 C 
ATOM      6  O   UNL     1     124.118 125.264 123.946  1.00  0.00    -0.545 OA
ATOM      7  O   UNL     1     122.289 126.171 124.965  1.00  0.00    -0.545 OA
ENDBRANCH   4   5
ENDBRANCH   2   3
ENDBRANCH   1   2
BRANCH   1   8
ATOM      8  C   UNL     1     121.649 121.283 122.026  1.00  0.00     0.000 C 
BRANCH   8   9
ATOM      9  C   UNL     1     122.969 121.203 121.238  1.00  0.00    -0.000 C 
BRANCH   9  10
ATOM     10  C   UNL     1     124.154 121.796 122.015  1.00  0.00    -0.003 C 
ATOM     11  C   UNL     1     124.784 122.995 121.306  1.00  0.00     0.004 C 
ENDBRANCH   9  10
ENDBRANCH   8   9
ENDBRANCH   1   8
TORSDOF 6
ENDMDL
MODEL 5
REMARK VINA RESULT:    -2.701      2.320      3.096
REMARK INTER + INTRA:          -4.315
REMARK INTER:                  -3.611
REMARK INTRA:                  -0.704
REMARK UNBOUND:                -0.666
REMARK SMILES CCCCCCC=CC(=O)[O-]
REMARK SMILES IDX 5 1 6 2 7 3 8 4 9 5 10 6 11 7 4 8 3 9 2 10 1 11
REMARK H PARENT
REMARK Flexibility Score: inf
ROOT
ATOM      1  C   UNL     1     121.043 125.404 122.966  1.00  0.00     0.004 C 
ENDROOT
BRANCH   1   2
ATOM      2  C   UNL     1     121.262 125.491 124.486  1.00  0.00     0.027 C 
BRANCH   2   3
ATOM      3  C   UNL     1     122.442 126.366 124.817  1.00  0.00    -0.025 C 
ATOM      4  C   UNL     1     123.723 125.967 124.882  1.00  0.00     0.020 C 
BRANCH   4   5
ATOM      5  C   UNL     1     124.241 124.609 124.615  1.00  0.00     0.064 C 
ATOM      6  O   UNL     1     124.273 123.718 125.504  1.00  0.00    -0.545 OA
ATOM      7  O   UNL     1     124.689 124.301 123.337  1.00  0.00    -0.545 OA
ENDBRANCH   4   5
ENDBRANCH   2   3
ENDBRANCH   1   2
BRANCH   1   8
ATOM      8  C   UNL     1     121.223 123.976 122.428  1.00  0.00     0.000 C 
BRANCH   8   9
ATOM      9  C   UNL     1     121.209 122.917 123.545  1.00  0.00    -0.000 C 
BRANCH   9  10
ATOM     10  C   UNL     1     121.965 121.639 123.153  1.00  0.00    -0.003 C 
ATOM     11  C   UNL     1     121.675 121.198 121.718  1.00  0.00     0.004 C 
ENDBRANCH   9  10
ENDBRANCH   8   9
ENDBRANCH   1   8
TORSDOF 6
ENDMDL
MODEL 6
REMARK VINA RESULT:    -2.690      1.447      1.781
REMARK INTER + INTRA:          -4.300
REMARK INTER:                  -3.743
REMARK INTRA:                  -0.556
REMARK UNBOUND:                -0.666
REMARK SMILES CCCCCCC=CC(=O)[O-]
REMARK SMILES IDX 5 1 6 2 7 3 8 4 9 5 10 6 11 7 4 8 3 9 2 10 1 11
REMARK H PARENT
REMARK Flexibility Score: inf
ROOT
ATOM      1  C   UNL     1     121.210 123.922 122.396  1.00  0.00     0.004 C 
ENDROOT
BRANCH   1   2
ATOM      2  C   UNL     1     120.899 125.323 122.949  1.00  0.00     0.027 C 
BRANCH   2   3
ATOM      3  C   UNL     1     121.272 125.429 124.404  1.00  0.00    -0.025 C 
ATOM      4  C   UNL     1     121.651 126.551 125.040  1.00  0.00     0.020 C 
BRANCH   4   5
ATOM      5  C   UNL     1     121.751 127.905 124.457  1.00  0.00     0.064 C 
ATOM      6  O   UNL     1     120.881 128.791 124.668  1.00  0.00    -0.545 OA
ATOM      7  O   UNL     1     122.849 128.216 123.667  1.00  0.00    -0.545 OA
ENDBRANCH   4   5
ENDBRANCH   2   3
ENDBRANCH   1   2
BRANCH   1   8
ATOM      8  C   UNL     1     121.215 122.845 123.492  1.00  0.00     0.000 C 
BRANCH   8   9
ATOM      9  C   UNL     1     122.100 121.639 123.131  1.00  0.00    -0.000 C 
BRANCH   9  10
ATOM     10  C   UNL     1     123.594 121.993 123.104  1.00  0.00    -0.003 C 
ATOM     11  C   UNL     1     124.059 122.693 124.381  1.00  0.00     0.004 C 
ENDBRANCH   9  10
ENDBRANCH   8   9
ENDBRANCH   1   8
TORSDOF 6
ENDMDL
MODEL 7
REMARK VINA RESULT:    -2.690      3.286      4.689
REMARK INTER + INTRA:          -4.300
REMARK INTER:                  -3.357
REMARK INTRA:                  -0.942
REMARK UNBOUND:                -0.666
REMARK SMILES CCCCCCC=CC(=O)[O-]
REMARK SMILES IDX 5 1 6 2 7 3 8 4 9 5 10 6 11 7 4 8 3 9 2 10 1 11
REMARK H PARENT
REMARK Flexibility Score: inf
ROOT
ATOM      1  C   UNL     1     122.018 125.447 122.999  1.00  0.00     0.004 C 
ENDROOT
BRANCH   1   2
ATOM      2  C   UNL     1     121.045 124.339 122.563  1.00  0.00     0.027 C 
BRANCH   2   3
ATOM      3  C   UNL     1     121.080 123.176 123.519  1.00  0.00    -0.025 C 
ATOM      4  C   UNL     1     121.649 121.981 123.284  1.00  0.00     0.020 C 
BRANCH   4   5
ATOM      5  C   UNL     1     122.377 121.573 122.065  1.00  0.00     0.064 C 
ATOM      6  O   UNL     1     123.608 121.794 121.914  1.00  0.00    -0.545 OA
ATOM      7  O   UNL     1     121.685 120.910 121.060  1.00  0.00    -0.545 OA
ENDBRANCH   4   5
ENDBRANCH   2   3
ENDBRANCH   1   2
BRANCH   1   8
ATOM      8  C   UNL     1     123.338 125.412 122.214  1.00  0.00     0.000 C 
BRANCH   8   9
ATOM      9  C   UNL     1     124.546 125.073 123.106  1.00  0.00    -0.000 C 
BRANCH   9  10
ATOM     10  C   UNL     1     124.160 124.912 124.584  1.00  0.00    -0.003 C 
ATOM     11  C   UNL     1     124.449 123.511 125.121  1.00  0.00     0.004 C 
ENDBRANCH   9  10
ENDBRANCH   8   9
ENDBRANCH   1   8
TORSDOF 6
ENDMDL
MODEL 8
REMARK VINA RESULT:    -2.621      1.807      2.333
REMARK INTER + INTRA:          -4.206
REMARK INTER:                  -3.262
REMARK INTRA:                  -0.944
REMARK UNBOUND:                -0.666
REMARK SMILES CCCCCCC=CC(=O)[O-]
REMARK SMILES IDX 5 1 6 2 7 3 8 4 9 5 10 6 11 7 4 8 3 9 2 10 1 11
REMARK H PARENT
REMARK Flexibility Score: inf
ROOT
ATOM      1  C   UNL     1     121.294 123.976 122.379  1.00  0.00     0.004 C 
ENDROOT
BRANCH   1   2
ATOM      2  C   UNL     1     121.832 125.355 122.794  1.00  0.00     0.027 C 
BRANCH   2   3
ATOM      3  C   UNL     1     123.323 125.438 122.603  1.00  0.00    -0.025 C 
ATOM      4  C   UNL     1     124.252 125.228 123.551  1.00  0.00     0.020 C 
BRANCH   4   5
ATOM      5  C   UNL     1     124.007 124.847 124.958  1.00  0.00     0.064 C 
ATOM      6  O   UNL     1     124.191 123.673 125.375  1.00  0.00    -0.545 OA
ATOM      7  O   UNL     1     123.578 125.820 125.851  1.00  0.00    -0.545 OA
ENDBRANCH   4   5
ENDBRANCH   2   3
ENDBRANCH   1   2
BRANCH   1   8
ATOM      8  C   UNL     1     121.168 123.013 123.570  1.00  0.00     0.000 C 
BRANCH   8   9
ATOM      9  C   UNL     1     121.866 121.665 123.315  1.00  0.00    -0.000 C 
BRANCH   9  10
ATOM     10  C   UNL     1     122.860 121.729 122.145  1.00  0.00    -0.003 C 
ATOM     11  C   UNL     1     124.309 121.536 122.589  1.00  0.00     0.004 C 
ENDBRANCH   9  10
ENDBRANCH   8   9
ENDBRANCH   1   8
TORSDOF 6
ENDMDL
MODEL 9
REMARK VINA RESULT:    -2.610      2.451      4.448
REMARK INTER + INTRA:          -4.192
REMARK INTER:                  -3.392
REMARK INTRA:                  -0.800
REMARK UNBOUND:                -0.666
REMARK SMILES CCCCCCC=CC(=O)[O-]
REMARK SMILES IDX 5 1 6 2 7 3 8 4 9 5 10 6 11 7 4 8 3 9 2 10 1 11
REMARK H PARENT
REMARK Flexibility Score: inf
ROOT
ATOM      1  C   UNL     1     120.875 124.617 122.505  1.00  0.00     0.004 C 
ENDROOT
BRANCH   1   2
ATOM      2  C   UNL     1     120.877 123.502 123.564  1.00  0.00     0.027 C 
BRANCH   2   3
ATOM      3  C   UNL     1     121.636 122.295 123.083  1.00  0.00    -0.025 C 
ATOM      4  C   UNL     1     122.965 122.113 123.172  1.00  0.00     0.020 C 
BRANCH   4   5
ATOM      5  C   UNL     1     123.944 123.037 123.780  1.00  0.00     0.064 C 
ATOM      6  O   UNL     1     124.608 123.858 123.092  1.00  0.00    -0.545 OA
ATOM      7  O   UNL     1     124.125 123.012 125.157  1.00  0.00    -0.545 OA
ENDBRANCH   4   5
ENDBRANCH   2   3
ENDBRANCH   1   2
BRANCH   1   8
ATOM      8  C   UNL     1     121.134 126.005 123.112  1.00  0.00     0.000 C 
BRANCH   8   9
ATOM      9  C   UNL     1     121.590 125.932 124.580  1.00  0.00    -0.000 C 
BRANCH   9  10
ATOM     10  C   UNL     1     122.973 126.564 124.799  1.00  0.00    -0.003 C 
ATOM     11  C   UNL     1     123.530 127.217 123.535  1.00  0.00     0.004 C 
ENDBRANCH   9  10
ENDBRANCH   8   9
ENDBRANCH   1   8
TORSDOF 6
ENDMDL
