MODEL 1
REMARK VINA RESULT:    27.598      0.000      0.000
REMARK INTER + INTRA:          32.173
REMARK INTER:                  32.438
REMARK INTRA:                  -0.265
REMARK UNBOUND:                -0.265
REMARK SMILES O=c1cc(-c2ccc(O)c(O)c2)oc2cc(O)cc(O)c12
REMARK SMILES IDX 4 1 3 2 2 3 1 4 21 5 19 6 18 7 16 8 15 9 14 10 13 11 5 12
REMARK SMILES IDX 6 13 7 14 8 15 12 16 10 17 9 18 11 20 20 22 17 24
REMARK H PARENT 9 19 11 21 20 23 17 25
REMARK Flexibility Score: inf
ROOT
ATOM      1  C   UNL     1      -2.253  -0.499   2.623  1.00  0.00     0.138 A 
ATOM      2  C   UNL     1      -3.157   0.178   3.458  1.00  0.00     0.100 A 
ATOM      3  C   UNL     1      -4.527   0.075   3.213  1.00  0.00     0.197 A 
ATOM      4  O   UNL     1      -5.330   0.686   3.970  1.00  0.00    -0.289 OA
ATOM      5  C   UNL     1      -4.985  -0.707   2.135  1.00  0.00     0.107 A 
ATOM      6  C   UNL     1      -6.354  -0.863   1.817  1.00  0.00     0.134 A 
ATOM      7  C   UNL     1      -6.729  -1.666   0.728  1.00  0.00     0.093 A 
ATOM      8  C   UNL     1      -5.758  -2.314  -0.045  1.00  0.00     0.123 A 
ATOM      9  C   UNL     1      -4.406  -2.164   0.266  1.00  0.00     0.094 A 
ATOM     10  C   UNL     1      -4.013  -1.367   1.345  1.00  0.00     0.146 A 
ATOM     11  O   UNL     1      -2.718  -1.239   1.618  1.00  0.00    -0.456 OA
ENDROOT
BRANCH   1  12
ATOM     12  C   UNL     1      -0.785  -0.428   2.836  1.00  0.00     0.021 A 
ATOM     13  C   UNL     1       0.025   0.187   1.866  1.00  0.00     0.016 A 
ATOM     14  C   UNL     1       1.407   0.274   2.046  1.00  0.00     0.051 A 
ATOM     15  C   UNL     1       2.004  -0.242   3.203  1.00  0.00     0.157 A 
ATOM     16  C   UNL     1      -0.181  -0.933   4.003  1.00  0.00     0.062 A 
ATOM     17  C   UNL     1       1.205  -0.846   4.188  1.00  0.00     0.158 A 
BRANCH  15  18
ATOM     18  O   UNL     1       3.384  -0.156   3.378  1.00  0.00    -0.504 OA
ATOM     19  H   UNL     1       3.790   0.377   4.138  1.00  0.00     0.293 HD
ENDBRANCH  15  18
BRANCH  17  20
ATOM     20  O   UNL     1       1.767  -1.360   5.355  1.00  0.00    -0.504 OA
ATOM     21  H   UNL     1       2.320  -2.208   5.359  1.00  0.00     0.293 HD
ENDBRANCH  17  20
ENDBRANCH   1  12
BRANCH   6  22
ATOM     22  O   UNL     1      -7.342  -0.229   2.571  1.00  0.00    -0.507 OA
ATOM     23  H   UNL     1      -7.330  -0.241   3.585  1.00  0.00     0.293 HD
ENDBRANCH   6  22
BRANCH   8  24
ATOM     24  O   UNL     1      -6.130  -3.111  -1.125  1.00  0.00    -0.508 OA
ATOM     25  H   UNL     1      -5.457  -3.693  -1.611  1.00  0.00     0.293 HD
ENDBRANCH   8  24
TORSDOF 5
ENDMDL
MODEL 2
REMARK VINA RESULT:    29.309      0.678      1.394
REMARK INTER + INTRA:          34.184
REMARK INTER:                  34.493
REMARK INTRA:                  -0.308
REMARK UNBOUND:                -0.265
REMARK SMILES O=c1cc(-c2ccc(O)c(O)c2)oc2cc(O)cc(O)c12
REMARK SMILES IDX 4 1 3 2 2 3 1 4 21 5 19 6 18 7 16 8 15 9 14 10 13 11 5 12
REMARK SMILES IDX 6 13 7 14 8 15 12 16 10 17 9 18 11 20 20 22 17 24
REMARK H PARENT 9 19 11 21 20 23 17 25
REMARK Flexibility Score: inf
ROOT
ATOM      1  C   UNL     1      -2.294  -0.465   2.652  1.00  0.00     0.138 A 
ATOM      2  C   UNL     1      -3.213   0.206   3.477  1.00  0.00     0.100 A 
ATOM      3  C   UNL     1      -4.579   0.089   3.219  1.00  0.00     0.197 A 
ATOM      4  O   UNL     1      -5.396   0.695   3.966  1.00  0.00    -0.289 OA
ATOM      5  C   UNL     1      -5.020  -0.700   2.139  1.00  0.00     0.107 A 
ATOM      6  C   UNL     1      -6.384  -0.870   1.808  1.00  0.00     0.134 A 
ATOM      7  C   UNL     1      -6.741  -1.679   0.718  1.00  0.00     0.093 A 
ATOM      8  C   UNL     1      -5.757  -2.321  -0.044  1.00  0.00     0.123 A 
ATOM      9  C   UNL     1      -4.410  -2.157   0.280  1.00  0.00     0.094 A 
ATOM     10  C   UNL     1      -4.034  -1.354   1.360  1.00  0.00     0.146 A 
ATOM     11  O   UNL     1      -2.744  -1.213   1.645  1.00  0.00    -0.456 OA
ENDROOT
BRANCH   1  12
ATOM     12  C   UNL     1      -0.830  -0.380   2.879  1.00  0.00     0.021 A 
ATOM     13  C   UNL     1      -0.345  -0.132   4.175  1.00  0.00     0.016 A 
ATOM     14  C   UNL     1       1.029  -0.055   4.417  1.00  0.00     0.051 A 
ATOM     15  C   UNL     1       1.942  -0.232   3.371  1.00  0.00     0.157 A 
ATOM     16  C   UNL     1       0.095  -0.571   1.834  1.00  0.00     0.062 A 
ATOM     17  C   UNL     1       1.472  -0.495   2.074  1.00  0.00     0.158 A 
BRANCH  15  18
ATOM     18  O   UNL     1       3.312  -0.152   3.615  1.00  0.00    -0.504 OA
ATOM     19  H   UNL     1       3.696  -0.301   4.541  1.00  0.00     0.293 HD
ENDBRANCH  15  18
BRANCH  17  20
ATOM     20  O   UNL     1       2.356  -0.687   1.013  1.00  0.00    -0.504 OA
ATOM     21  H   UNL     1       2.219  -0.249   0.111  1.00  0.00     0.293 HD
ENDBRANCH  17  20
ENDBRANCH   1  12
BRANCH   6  22
ATOM     22  O   UNL     1      -7.385  -0.244   2.551  1.00  0.00    -0.507 OA
ATOM     23  H   UNL     1      -7.170   0.454   3.255  1.00  0.00     0.293 HD
ENDBRANCH   6  22
BRANCH   8  24
ATOM     24  O   UNL     1      -6.111  -3.125  -1.125  1.00  0.00    -0.508 OA
ATOM     25  H   UNL     1      -5.626  -3.063  -2.013  1.00  0.00     0.293 HD
ENDBRANCH   8  24
TORSDOF 5
ENDMDL
