MODEL 1
REMARK VINA RESULT:    -1.463      0.000      0.000
REMARK INTER + INTRA:          -4.937
REMARK INTER:                  -2.745
REMARK INTRA:                  -2.192
REMARK UNBOUND:                -2.192
REMARK SMILES O=C([O-])CCCCCCCCCCCCCCC(=O)[O-]
REMARK SMILES IDX 10 1 9 2 8 3 7 4 6 5 5 6 4 7 2 8 1 9 3 10 11 11 12 12 13 13
REMARK SMILES IDX 14 14 15 15 16 16 17 17 18 18 19 19 20 20
REMARK H PARENT
REMARK Flexibility Score: inf
ROOT
ATOM      1  C   UNL     1     172.473 181.749 191.930  1.00  0.00     0.000 C 
ENDROOT
BRANCH   1   2
ATOM      2  C   UNL     1     171.392 180.668 191.760  1.00  0.00     0.000 C 
BRANCH   2   3
ATOM      3  C   UNL     1     171.396 180.052 190.350  1.00  0.00     0.000 C 
BRANCH   3   4
ATOM      4  C   UNL     1     171.611 178.524 190.384  1.00  0.00     0.000 C 
BRANCH   4   5
ATOM      5  C   UNL     1     172.004 177.989 191.772  1.00  0.00     0.000 C 
BRANCH   5   6
ATOM      6  C   UNL     1     173.420 177.399 191.808  1.00  0.00     0.006 C 
BRANCH   6   7
ATOM      7  C   UNL     1     174.478 178.506 191.765  1.00  0.00     0.053 C 
BRANCH   7   8
ATOM      8  C   UNL     1     175.602 178.193 192.702  1.00  0.00     0.041 C 
ATOM      9  O   UNL     1     175.941 176.998 192.909  1.00  0.00    -0.550 OA
ATOM     10  O   UNL     1     176.298 179.224 193.322  1.00  0.00    -0.550 OA
ENDBRANCH   7   8
ENDBRANCH   6   7
ENDBRANCH   5   6
ENDBRANCH   4   5
ENDBRANCH   3   4
ENDBRANCH   2   3
ENDBRANCH   1   2
BRANCH   1  11
ATOM     11  C   UNL     1     173.074 181.752 193.346  1.00  0.00     0.000 C 
BRANCH  11  12
ATOM     12  C   UNL     1     172.387 180.746 194.286  1.00  0.00     0.000 C 
BRANCH  12  13
ATOM     13  C   UNL     1     173.337 179.982 195.229  1.00  0.00     0.000 C 
BRANCH  13  14
ATOM     14  C   UNL     1     173.069 178.467 195.342  1.00  0.00     0.000 C 
BRANCH  14  15
ATOM     15  C   UNL     1     174.099 177.687 196.177  1.00  0.00     0.000 C 
BRANCH  15  16
ATOM     16  C   UNL     1     173.453 176.875 197.315  1.00  0.00     0.006 C 
BRANCH  16  17
ATOM     17  C   UNL     1     173.726 177.490 198.694  1.00  0.00     0.053 C 
BRANCH  17  18
ATOM     18  C   UNL     1     172.526 178.211 199.231  1.00  0.00     0.041 C 
ATOM     19  O   UNL     1     172.295 179.400 198.885  1.00  0.00    -0.550 OA
ATOM     20  O   UNL     1     171.657 177.566 200.101  1.00  0.00    -0.550 OA
ENDBRANCH  17  18
ENDBRANCH  16  17
ENDBRANCH  15  16
ENDBRANCH  14  15
ENDBRANCH  13  14
ENDBRANCH  12  13
ENDBRANCH  11  12
ENDBRANCH   1  11
TORSDOF 15
ENDMDL
MODEL 2
REMARK VINA RESULT:    -1.400      1.962      6.394
REMARK INTER + INTRA:          -4.819
REMARK INTER:                  -3.062
REMARK INTRA:                  -1.757
REMARK UNBOUND:                -2.192
REMARK SMILES O=C([O-])CCCCCCCCCCCCCCC(=O)[O-]
REMARK SMILES IDX 10 1 9 2 8 3 7 4 6 5 5 6 4 7 2 8 1 9 3 10 11 11 12 12 13 13
REMARK SMILES IDX 14 14 15 15 16 16 17 17 18 18 19 19 20 20
REMARK H PARENT
REMARK Flexibility Score: inf
ROOT
ATOM      1  C   UNL     1     172.719 177.436 194.647  1.00  0.00     0.000 C 
ENDROOT
BRANCH   1   2
ATOM      2  C   UNL     1     173.160 178.589 195.564  1.00  0.00     0.000 C 
BRANCH   2   3
ATOM      3  C   UNL     1     174.337 178.197 196.475  1.00  0.00     0.000 C 
BRANCH   3   4
ATOM      4  C   UNL     1     174.036 176.926 197.298  1.00  0.00     0.000 C 
BRANCH   4   5
ATOM      5  C   UNL     1     173.873 177.195 198.804  1.00  0.00     0.000 C 
BRANCH   5   6
ATOM      6  C   UNL     1     172.430 177.536 199.199  1.00  0.00     0.006 C 
BRANCH   6   7
ATOM      7  C   UNL     1     172.395 178.664 200.233  1.00  0.00     0.053 C 
BRANCH   7   8
ATOM      8  C   UNL     1     171.918 179.936 199.605  1.00  0.00     0.041 C 
ATOM      9  O   UNL     1     172.436 180.347 198.533  1.00  0.00    -0.550 OA
ATOM     10  O   UNL     1     170.878 180.652 200.186  1.00  0.00    -0.550 OA
ENDBRANCH   7   8
ENDBRANCH   6   7
ENDBRANCH   5   6
ENDBRANCH   4   5
ENDBRANCH   3   4
ENDBRANCH   2   3
ENDBRANCH   1   2
BRANCH   1  11
ATOM     11  C   UNL     1     172.992 177.736 193.163  1.00  0.00     0.000 C 
BRANCH  11  12
ATOM     12  C   UNL     1     171.702 177.961 192.355  1.00  0.00     0.000 C 
BRANCH  12  13
ATOM     13  C   UNL     1     171.525 179.387 191.795  1.00  0.00     0.000 C 
BRANCH  13  14
ATOM     14  C   UNL     1     172.425 180.460 192.441  1.00  0.00     0.000 C 
BRANCH  14  15
ATOM     15  C   UNL     1     171.697 181.434 193.385  1.00  0.00     0.000 C 
BRANCH  15  16
ATOM     16  C   UNL     1     172.633 182.056 194.436  1.00  0.00     0.006 C 
BRANCH  16  17
ATOM     17  C   UNL     1     174.111 181.761 194.147  1.00  0.00     0.053 C 
BRANCH  17  18
ATOM     18  C   UNL     1     174.984 182.069 195.326  1.00  0.00     0.041 C 
ATOM     19  O   UNL     1     175.863 181.246 195.695  1.00  0.00    -0.550 OA
ATOM     20  O   UNL     1     174.836 183.271 196.007  1.00  0.00    -0.550 OA
ENDBRANCH  17  18
ENDBRANCH  16  17
ENDBRANCH  15  16
ENDBRANCH  14  15
ENDBRANCH  13  14
ENDBRANCH  12  13
ENDBRANCH  11  12
ENDBRANCH   1  11
TORSDOF 15
ENDMDL
MODEL 3
REMARK VINA RESULT:    -1.383      1.676      6.636
REMARK INTER + INTRA:          -4.787
REMARK INTER:                  -3.056
REMARK INTRA:                  -1.731
REMARK UNBOUND:                -2.192
REMARK SMILES O=C([O-])CCCCCCCCCCCCCCC(=O)[O-]
REMARK SMILES IDX 10 1 9 2 8 3 7 4 6 5 5 6 4 7 2 8 1 9 3 10 11 11 12 12 13 13
REMARK SMILES IDX 14 14 15 15 16 16 17 17 18 18 19 19 20 20
REMARK H PARENT
REMARK Flexibility Score: inf
ROOT
ATOM      1  C   UNL     1     174.591 179.842 194.838  1.00  0.00     0.000 C 
ENDROOT
BRANCH   1   2
ATOM      2  C   UNL     1     174.546 178.339 195.158  1.00  0.00     0.000 C 
BRANCH   2   3
ATOM      3  C   UNL     1     173.123 177.852 195.486  1.00  0.00     0.000 C 
BRANCH   3   4
ATOM      4  C   UNL     1     173.084 176.990 196.766  1.00  0.00     0.000 C 
BRANCH   4   5
ATOM      5  C   UNL     1     174.303 177.196 197.682  1.00  0.00     0.000 C 
BRANCH   5   6
ATOM      6  C   UNL     1     173.916 177.442 199.146  1.00  0.00     0.006 C 
BRANCH   6   7
ATOM      7  C   UNL     1     172.401 177.607 199.294  1.00  0.00     0.053 C 
BRANCH   7   8
ATOM      8  C   UNL     1     172.068 178.982 199.783  1.00  0.00     0.041 C 
ATOM      9  O   UNL     1     171.789 179.173 200.996  1.00  0.00    -0.550 OA
ATOM     10  O   UNL     1     172.100 180.059 198.906  1.00  0.00    -0.550 OA
ENDBRANCH   7   8
ENDBRANCH   6   7
ENDBRANCH   5   6
ENDBRANCH   4   5
ENDBRANCH   3   4
ENDBRANCH   2   3
ENDBRANCH   1   2
BRANCH   1  11
ATOM     11  C   UNL     1     173.959 180.693 195.953  1.00  0.00     0.000 C 
BRANCH  11  12
ATOM     12  C   UNL     1     172.756 181.518 195.462  1.00  0.00     0.000 C 
BRANCH  12  13
ATOM     13  C   UNL     1     172.713 181.765 193.941  1.00  0.00     0.000 C 
BRANCH  13  14
ATOM     14  C   UNL     1     171.358 181.467 193.268  1.00  0.00     0.000 C 
BRANCH  14  15
ATOM     15  C   UNL     1     171.452 180.939 191.826  1.00  0.00     0.000 C 
BRANCH  15  16
ATOM     16  C   UNL     1     171.252 179.415 191.735  1.00  0.00     0.006 C 
BRANCH  16  17
ATOM     17  C   UNL     1     172.563 178.644 191.934  1.00  0.00     0.053 C 
BRANCH  17  18
ATOM     18  C   UNL     1     172.707 177.523 190.949  1.00  0.00     0.041 C 
ATOM     19  O   UNL     1     173.800 176.904 190.849  1.00  0.00    -0.550 OA
ATOM     20  O   UNL     1     171.631 177.153 190.152  1.00  0.00    -0.550 OA
ENDBRANCH  17  18
ENDBRANCH  16  17
ENDBRANCH  15  16
ENDBRANCH  14  15
ENDBRANCH  13  14
ENDBRANCH  12  13
ENDBRANCH  11  12
ENDBRANCH   1  11
TORSDOF 15
ENDMDL
MODEL 4
REMARK VINA RESULT:    -1.378      3.337      6.551
REMARK INTER + INTRA:          -4.778
REMARK INTER:                  -2.150
REMARK INTRA:                  -2.628
REMARK UNBOUND:                -2.192
REMARK SMILES O=C([O-])CCCCCCCCCCCCCCC(=O)[O-]
REMARK SMILES IDX 10 1 9 2 8 3 7 4 6 5 5 6 4 7 2 8 1 9 3 10 11 11 12 12 13 13
REMARK SMILES IDX 14 14 15 15 16 16 17 17 18 18 19 19 20 20
REMARK H PARENT
REMARK Flexibility Score: inf
ROOT
ATOM      1  C   UNL     1     175.671 179.598 200.647  1.00  0.00     0.000 C 
ENDROOT
BRANCH   1   2
ATOM      2  C   UNL     1     174.192 179.291 200.936  1.00  0.00     0.000 C 
BRANCH   2   3
ATOM      3  C   UNL     1     173.238 180.125 200.063  1.00  0.00     0.000 C 
BRANCH   3   4
ATOM      4  C   UNL     1     172.316 179.240 199.199  1.00  0.00     0.000 C 
BRANCH   4   5
ATOM      5  C   UNL     1     172.723 177.756 199.187  1.00  0.00     0.000 C 
BRANCH   5   6
ATOM      6  C   UNL     1     172.934 177.205 197.771  1.00  0.00     0.006 C 
BRANCH   6   7
ATOM      7  C   UNL     1     173.011 178.339 196.745  1.00  0.00     0.053 C 
BRANCH   7   8
ATOM      8  C   UNL     1     173.452 177.814 195.415  1.00  0.00     0.041 C 
ATOM      9  O   UNL     1     174.677 177.649 195.174  1.00  0.00    -0.550 OA
ATOM     10  O   UNL     1     172.509 177.475 194.453  1.00  0.00    -0.550 OA
ENDBRANCH   7   8
ENDBRANCH   6   7
ENDBRANCH   5   6
ENDBRANCH   4   5
ENDBRANCH   3   4
ENDBRANCH   2   3
ENDBRANCH   1   2
BRANCH   1  11
ATOM     11  C   UNL     1     176.360 178.463 199.871  1.00  0.00     0.000 C 
BRANCH  11  12
ATOM     12  C   UNL     1     176.381 178.709 198.352  1.00  0.00     0.000 C 
BRANCH  12  13
ATOM     13  C   UNL     1     176.728 180.150 197.930  1.00  0.00     0.000 C 
BRANCH  13  14
ATOM     14  C   UNL     1     175.599 180.909 197.203  1.00  0.00     0.000 C 
BRANCH  14  15
ATOM     15  C   UNL     1     175.203 182.251 197.843  1.00  0.00     0.000 C 
BRANCH  15  16
ATOM     16  C   UNL     1     173.995 182.909 197.151  1.00  0.00     0.006 C 
BRANCH  16  17
ATOM     17  C   UNL     1     173.029 181.873 196.562  1.00  0.00     0.053 C 
BRANCH  17  18
ATOM     18  C   UNL     1     172.919 181.995 195.072  1.00  0.00     0.041 C 
ATOM     19  O   UNL     1     171.865 181.636 194.483  1.00  0.00    -0.550 OA
ATOM     20  O   UNL     1     173.975 182.519 194.336  1.00  0.00    -0.550 OA
ENDBRANCH  17  18
ENDBRANCH  16  17
ENDBRANCH  15  16
ENDBRANCH  14  15
ENDBRANCH  13  14
ENDBRANCH  12  13
ENDBRANCH  11  12
ENDBRANCH   1  11
TORSDOF 15
ENDMDL
MODEL 5
REMARK VINA RESULT:    -1.377      2.066      6.706
REMARK INTER + INTRA:          -4.776
REMARK INTER:                  -2.419
REMARK INTRA:                  -2.357
REMARK UNBOUND:                -2.192
REMARK SMILES O=C([O-])CCCCCCCCCCCCCCC(=O)[O-]
REMARK SMILES IDX 10 1 9 2 8 3 7 4 6 5 5 6 4 7 2 8 1 9 3 10 11 11 12 12 13 13
REMARK SMILES IDX 14 14 15 15 16 16 17 17 18 18 19 19 20 20
REMARK H PARENT
REMARK Flexibility Score: inf
ROOT
ATOM      1  C   UNL     1     176.866 179.801 195.555  1.00  0.00     0.000 C 
ENDROOT
BRANCH   1   2
ATOM      2  C   UNL     1     176.489 178.320 195.384  1.00  0.00     0.000 C 
BRANCH   2   3
ATOM      3  C   UNL     1     175.494 177.841 196.456  1.00  0.00     0.000 C 
BRANCH   3   4
ATOM      4  C   UNL     1     174.218 177.234 195.836  1.00  0.00     0.000 C 
BRANCH   4   5
ATOM      5  C   UNL     1     173.090 177.000 196.856  1.00  0.00     0.000 C 
BRANCH   5   6
ATOM      6  C   UNL     1     173.111 178.009 198.013  1.00  0.00     0.006 C 
BRANCH   6   7
ATOM      7  C   UNL     1     172.920 177.304 199.359  1.00  0.00     0.053 C 
BRANCH   7   8
ATOM      8  C   UNL     1     171.651 177.756 200.011  1.00  0.00     0.041 C 
ATOM      9  O   UNL     1     170.875 176.915 200.537  1.00  0.00    -0.550 OA
ATOM     10  O   UNL     1     171.340 179.109 200.068  1.00  0.00    -0.550 OA
ENDBRANCH   7   8
ENDBRANCH   6   7
ENDBRANCH   5   6
ENDBRANCH   4   5
ENDBRANCH   3   4
ENDBRANCH   2   3
ENDBRANCH   1   2
BRANCH   1  11
ATOM     11  C   UNL     1     175.982 180.509 196.595  1.00  0.00     0.000 C 
BRANCH  11  12
ATOM     12  C   UNL     1     175.044 181.555 195.965  1.00  0.00     0.000 C 
BRANCH  12  13
ATOM     13  C   UNL     1     173.552 181.385 196.314  1.00  0.00     0.000 C 
BRANCH  13  14
ATOM     14  C   UNL     1     172.733 180.557 195.303  1.00  0.00     0.000 C 
BRANCH  14  15
ATOM     15  C   UNL     1     173.294 180.543 193.870  1.00  0.00     0.000 C 
BRANCH  15  16
ATOM     16  C   UNL     1     172.903 179.276 193.089  1.00  0.00     0.006 C 
BRANCH  16  17
ATOM     17  C   UNL     1     174.105 178.635 192.382  1.00  0.00     0.053 C 
BRANCH  17  18
ATOM     18  C   UNL     1     173.916 178.582 190.895  1.00  0.00     0.041 C 
ATOM     19  O   UNL     1     174.866 178.887 190.125  1.00  0.00    -0.550 OA
ATOM     20  O   UNL     1     172.698 178.182 190.362  1.00  0.00    -0.550 OA
ENDBRANCH  17  18
ENDBRANCH  16  17
ENDBRANCH  15  16
ENDBRANCH  14  15
ENDBRANCH  13  14
ENDBRANCH  12  13
ENDBRANCH  11  12
ENDBRANCH   1  11
TORSDOF 15
ENDMDL
MODEL 6
REMARK VINA RESULT:    -1.377      2.441      4.036
REMARK INTER + INTRA:          -4.775
REMARK INTER:                  -2.222
REMARK INTRA:                  -2.553
REMARK UNBOUND:                -2.192
REMARK SMILES O=C([O-])CCCCCCCCCCCCCCC(=O)[O-]
REMARK SMILES IDX 10 1 9 2 8 3 7 4 6 5 5 6 4 7 2 8 1 9 3 10 11 11 12 12 13 13
REMARK SMILES IDX 14 14 15 15 16 16 17 17 18 18 19 19 20 20
REMARK H PARENT
REMARK Flexibility Score: inf
ROOT
ATOM      1  C   UNL     1     172.017 180.923 191.949  1.00  0.00     0.000 C 
ENDROOT
BRANCH   1   2
ATOM      2  C   UNL     1     171.716 181.720 193.230  1.00  0.00     0.000 C 
BRANCH   2   3
ATOM      3  C   UNL     1     172.402 181.118 194.469  1.00  0.00     0.000 C 
BRANCH   3   4
ATOM      4  C   UNL     1     173.769 181.774 194.754  1.00  0.00     0.000 C 
BRANCH   4   5
ATOM      5  C   UNL     1     174.959 180.991 194.173  1.00  0.00     0.000 C 
BRANCH   5   6
ATOM      6  C   UNL     1     175.940 181.881 193.398  1.00  0.00     0.006 C 
BRANCH   6   7
ATOM      7  C   UNL     1     175.454 182.116 191.965  1.00  0.00     0.053 C 
BRANCH   7   8
ATOM      8  C   UNL     1     174.991 183.528 191.793  1.00  0.00     0.041 C 
ATOM      9  O   UNL     1     173.901 183.772 191.211  1.00  0.00    -0.550 OA
ATOM     10  O   UNL     1     175.747 184.576 192.306  1.00  0.00    -0.550 OA
ENDBRANCH   7   8
ENDBRANCH   6   7
ENDBRANCH   5   6
ENDBRANCH   4   5
ENDBRANCH   3   4
ENDBRANCH   2   3
ENDBRANCH   1   2
BRANCH   1  11
ATOM     11  C   UNL     1     171.025 179.766 191.739  1.00  0.00     0.000 C 
BRANCH  11  12
ATOM     12  C   UNL     1     171.655 178.386 192.001  1.00  0.00     0.000 C 
BRANCH  12  13
ATOM     13  C   UNL     1     173.196 178.374 192.053  1.00  0.00     0.000 C 
BRANCH  13  14
ATOM     14  C   UNL     1     173.805 177.581 193.228  1.00  0.00     0.000 C 
BRANCH  14  15
ATOM     15  C   UNL     1     172.781 176.876 194.135  1.00  0.00     0.000 C 
BRANCH  15  16
ATOM     16  C   UNL     1     172.720 177.481 195.549  1.00  0.00     0.006 C 
BRANCH  16  17
ATOM     17  C   UNL     1     174.097 177.944 196.043  1.00  0.00     0.053 C 
BRANCH  17  18
ATOM     18  C   UNL     1     173.987 178.869 197.217  1.00  0.00     0.041 C 
ATOM     19  O   UNL     1     172.911 178.943 197.867  1.00  0.00    -0.550 OA
ATOM     20  O   UNL     1     175.078 179.639 197.602  1.00  0.00    -0.550 OA
ENDBRANCH  17  18
ENDBRANCH  16  17
ENDBRANCH  15  16
ENDBRANCH  14  15
ENDBRANCH  13  14
ENDBRANCH  12  13
ENDBRANCH  11  12
ENDBRANCH   1  11
TORSDOF 15
ENDMDL
MODEL 7
REMARK VINA RESULT:    -1.373      1.881      3.375
REMARK INTER + INTRA:          -4.769
REMARK INTER:                  -2.297
REMARK INTRA:                  -2.472
REMARK UNBOUND:                -2.192
REMARK SMILES O=C([O-])CCCCCCCCCCCCCCC(=O)[O-]
REMARK SMILES IDX 10 1 9 2 8 3 7 4 6 5 5 6 4 7 2 8 1 9 3 10 11 11 12 12 13 13
REMARK SMILES IDX 14 14 15 15 16 16 17 17 18 18 19 19 20 20
REMARK H PARENT
REMARK Flexibility Score: inf
ROOT
ATOM      1  C   UNL     1     176.346 181.099 195.171  1.00  0.00     0.000 C 
ENDROOT
BRANCH   1   2
ATOM      2  C   UNL     1     175.077 181.627 194.480  1.00  0.00     0.000 C 
BRANCH   2   3
ATOM      3  C   UNL     1     173.824 181.477 195.361  1.00  0.00     0.000 C 
BRANCH   3   4
ATOM      4  C   UNL     1     172.751 180.588 194.698  1.00  0.00     0.000 C 
BRANCH   4   5
ATOM      5  C   UNL     1     172.915 180.459 193.174  1.00  0.00     0.000 C 
BRANCH   5   6
ATOM      6  C   UNL     1     172.141 179.270 192.587  1.00  0.00     0.006 C 
BRANCH   6   7
ATOM      7  C   UNL     1     172.340 179.180 191.072  1.00  0.00     0.053 C 
BRANCH   7   8
ATOM      8  C   UNL     1     173.477 178.262 190.746  1.00  0.00     0.041 C 
ATOM      9  O   UNL     1     174.614 178.732 190.478  1.00  0.00    -0.550 OA
ATOM     10  O   UNL     1     173.289 176.886 190.771  1.00  0.00    -0.550 OA
ENDBRANCH   7   8
ENDBRANCH   6   7
ENDBRANCH   5   6
ENDBRANCH   4   5
ENDBRANCH   3   4
ENDBRANCH   2   3
ENDBRANCH   1   2
BRANCH   1  11
ATOM     11  C   UNL     1     176.349 179.565 195.286  1.00  0.00     0.000 C 
BRANCH  11  12
ATOM     12  C   UNL     1     176.296 178.866 193.915  1.00  0.00     0.000 C 
BRANCH  12  13
ATOM     13  C   UNL     1     175.349 177.652 193.840  1.00  0.00     0.000 C 
BRANCH  13  14
ATOM     14  C   UNL     1     174.831 177.141 195.199  1.00  0.00     0.000 C 
BRANCH  14  15
ATOM     15  C   UNL     1     173.302 176.993 195.297  1.00  0.00     0.000 C 
BRANCH  15  16
ATOM     16  C   UNL     1     172.790 177.036 196.748  1.00  0.00     0.006 C 
BRANCH  16  17
ATOM     17  C   UNL     1     173.315 178.258 197.513  1.00  0.00     0.053 C 
BRANCH  17  18
ATOM     18  C   UNL     1     172.853 178.265 198.939  1.00  0.00     0.041 C 
ATOM     19  O   UNL     1     172.102 179.186 199.357  1.00  0.00    -0.550 OA
ATOM     20  O   UNL     1     173.241 177.247 199.801  1.00  0.00    -0.550 OA
ENDBRANCH  17  18
ENDBRANCH  16  17
ENDBRANCH  15  16
ENDBRANCH  14  15
ENDBRANCH  13  14
ENDBRANCH  12  13
ENDBRANCH  11  12
ENDBRANCH   1  11
TORSDOF 15
ENDMDL
MODEL 8
REMARK VINA RESULT:     0.573      1.946      2.511
REMARK INTER + INTRA:          -1.116
REMARK INTER:                   0.738
REMARK INTRA:                  -1.854
REMARK UNBOUND:                -2.192
REMARK SMILES O=C([O-])CCCCCCCCCCCCCCC(=O)[O-]
REMARK SMILES IDX 10 1 9 2 8 3 7 4 6 5 5 6 4 7 2 8 1 9 3 10 11 11 12 12 13 13
REMARK SMILES IDX 14 14 15 15 16 16 17 17 18 18 19 19 20 20
REMARK H PARENT
REMARK Flexibility Score: inf
ROOT
ATOM      1  C   UNL     1     170.920 182.185 193.624  1.00  0.00     0.000 C 
ENDROOT
BRANCH   1   2
ATOM      2  C   UNL     1     171.376 180.897 192.919  1.00  0.00     0.000 C 
BRANCH   2   3
ATOM      3  C   UNL     1     172.701 181.082 192.158  1.00  0.00     0.000 C 
BRANCH   3   4
ATOM      4  C   UNL     1     173.003 179.895 191.220  1.00  0.00     0.000 C 
BRANCH   4   5
ATOM      5  C   UNL     1     171.856 178.875 191.130  1.00  0.00     0.000 C 
BRANCH   5   6
ATOM      6  C   UNL     1     172.283 177.456 191.529  1.00  0.00     0.006 C 
BRANCH   6   7
ATOM      7  C   UNL     1     171.615 177.029 192.839  1.00  0.00     0.053 C 
BRANCH   7   8
ATOM      8  C   UNL     1     172.588 177.108 193.974  1.00  0.00     0.041 C 
ATOM      9  O   UNL     1     172.208 176.875 195.151  1.00  0.00    -0.550 OA
ATOM     10  O   UNL     1     173.922 177.408 193.727  1.00  0.00    -0.550 OA
ENDBRANCH   7   8
ENDBRANCH   6   7
ENDBRANCH   5   6
ENDBRANCH   4   5
ENDBRANCH   3   4
ENDBRANCH   2   3
ENDBRANCH   1   2
BRANCH   1  11
ATOM     11  C   UNL     1     172.105 183.079 194.025  1.00  0.00     0.000 C 
BRANCH  11  12
ATOM     12  C   UNL     1     172.335 183.115 195.547  1.00  0.00     0.000 C 
BRANCH  12  13
ATOM     13  C   UNL     1     173.748 182.700 196.002  1.00  0.00     0.000 C 
BRANCH  13  14
ATOM     14  C   UNL     1     174.160 181.261 195.630  1.00  0.00     0.000 C 
BRANCH  14  15
ATOM     15  C   UNL     1     173.120 180.179 195.972  1.00  0.00     0.000 C 
BRANCH  15  16
ATOM     16  C   UNL     1     173.471 179.398 197.251  1.00  0.00     0.006 C 
BRANCH  16  17
ATOM     17  C   UNL     1     172.719 179.926 198.479  1.00  0.00     0.053 C 
BRANCH  17  18
ATOM     18  C   UNL     1     172.318 178.818 199.407  1.00  0.00     0.041 C 
ATOM     19  O   UNL     1     172.492 177.617 199.072  1.00  0.00    -0.550 OA
ATOM     20  O   UNL     1     171.765 179.114 200.647  1.00  0.00    -0.550 OA
ENDBRANCH  17  18
ENDBRANCH  16  17
ENDBRANCH  15  16
ENDBRANCH  14  15
ENDBRANCH  13  14
ENDBRANCH  12  13
ENDBRANCH  11  12
ENDBRANCH   1  11
TORSDOF 15
ENDMDL
