MODEL 1
REMARK VINA RESULT:    -4.532      0.000      0.000
REMARK INTER + INTRA:          -9.317
REMARK INTER:                  -7.976
REMARK INTRA:                  -1.341
REMARK UNBOUND:                -1.341
REMARK SMILES CCCCCCC=CCCCCCCCC(=O)[O-]
REMARK SMILES IDX 10 1 11 2 12 3 13 4 14 5 15 6 16 7 17 8 18 9 9 10 8 11 7 12
REMARK SMILES IDX 6 13 5 14 4 15 3 16 2 17 1 18
REMARK H PARENT
REMARK Flexibility Score: inf
ROOT
ATOM      1  C   UNL     1      45.813  43.978  34.326  1.00  0.00     0.004 C 
ENDROOT
BRANCH   1   2
ATOM      2  C   UNL     1      47.180  43.803  33.642  1.00  0.00     0.000 C 
BRANCH   2   3
ATOM      3  C   UNL     1      47.680  45.096  32.978  1.00  0.00     0.000 C 
BRANCH   3   4
ATOM      4  C   UNL     1      48.145  44.878  31.531  1.00  0.00     0.000 C 
BRANCH   4   5
ATOM      5  C   UNL     1      47.457  43.651  30.913  1.00  0.00     0.006 C 
BRANCH   5   6
ATOM      6  C   UNL     1      46.226  44.034  30.081  1.00  0.00     0.053 C 
BRANCH   6   7
ATOM      7  C   UNL     1      45.052  43.155  30.387  1.00  0.00     0.041 C 
ATOM      8  O   UNL     1      45.202  42.116  31.083  1.00  0.00    -0.550 OA
ATOM      9  O   UNL     1      43.798  43.468  29.877  1.00  0.00    -0.550 OA
ENDBRANCH   6   7
ENDBRANCH   5   6
ENDBRANCH   4   5
ENDBRANCH   3   4
ENDBRANCH   2   3
ENDBRANCH   1   2
BRANCH   1  10
ATOM     10  C   UNL     1      45.738  43.230  35.666  1.00  0.00     0.027 C 
BRANCH  10  11
ATOM     11  C   UNL     1      47.093  42.793  36.156  1.00  0.00    -0.031 C 
ATOM     12  C   UNL     1      47.314  41.540  36.583  1.00  0.00    -0.031 C 
BRANCH  12  13
ATOM     13  C   UNL     1      48.657  41.110  37.111  1.00  0.00     0.027 C 
BRANCH  13  14
ATOM     14  C   UNL     1      48.587  39.723  37.763  1.00  0.00     0.004 C 
BRANCH  14  15
ATOM     15  C   UNL     1      48.031  39.785  39.196  1.00  0.00     0.000 C 
BRANCH  15  16
ATOM     16  C   UNL     1      48.559  40.992  39.991  1.00  0.00    -0.000 C 
BRANCH  16  17
ATOM     17  C   UNL     1      47.472  41.934  40.538  1.00  0.00    -0.003 C 
ATOM     18  C   UNL     1      47.506  43.322  39.897  1.00  0.00     0.004 C 
ENDBRANCH  16  17
ENDBRANCH  15  16
ENDBRANCH  14  15
ENDBRANCH  13  14
ENDBRANCH  12  13
ENDBRANCH  10  11
ENDBRANCH   1  10
TORSDOF 13
ENDMDL
MODEL 2
REMARK VINA RESULT:    -4.495      2.129      4.074
REMARK INTER + INTRA:          -9.251
REMARK INTER:                  -7.983
REMARK INTRA:                  -1.268
REMARK UNBOUND:                -1.341
REMARK SMILES CCCCCCC=CCCCCCCCC(=O)[O-]
REMARK SMILES IDX 10 1 11 2 12 3 13 4 14 5 15 6 16 7 17 8 18 9 9 10 8 11 7 12
REMARK SMILES IDX 6 13 5 14 4 15 3 16 2 17 1 18
REMARK H PARENT
REMARK Flexibility Score: inf
ROOT
ATOM      1  C   UNL     1      47.278  41.411  37.735  1.00  0.00     0.004 C 
ENDROOT
BRANCH   1   2
ATOM      2  C   UNL     1      47.513  42.853  37.253  1.00  0.00     0.000 C 
BRANCH   2   3
ATOM      3  C   UNL     1      47.665  42.948  35.726  1.00  0.00     0.000 C 
BRANCH   3   4
ATOM      4  C   UNL     1      46.586  42.156  34.972  1.00  0.00     0.000 C 
BRANCH   4   5
ATOM      5  C   UNL     1      46.323  42.770  33.589  1.00  0.00     0.006 C 
BRANCH   5   6
ATOM      6  C   UNL     1      46.910  44.182  33.459  1.00  0.00     0.053 C 
BRANCH   6   7
ATOM      7  C   UNL     1      47.109  44.571  32.026  1.00  0.00     0.041 C 
ATOM      8  O   UNL     1      48.271  44.720  31.565  1.00  0.00    -0.550 OA
ATOM      9  O   UNL     1      46.009  44.802  31.210  1.00  0.00    -0.550 OA
ENDBRANCH   6   7
ENDBRANCH   5   6
ENDBRANCH   4   5
ENDBRANCH   3   4
ENDBRANCH   2   3
ENDBRANCH   1   2
BRANCH   1  10
ATOM     10  C   UNL     1      48.571  40.754  38.242  1.00  0.00     0.027 C 
BRANCH  10  11
ATOM     11  C   UNL     1      48.772  40.949  39.722  1.00  0.00    -0.031 C 
ATOM     12  C   UNL     1      47.949  41.722  40.446  1.00  0.00    -0.031 C 
BRANCH  12  13
ATOM     13  C   UNL     1      48.171  41.951  41.917  1.00  0.00     0.027 C 
BRANCH  13  14
ATOM     14  C   UNL     1      48.235  40.627  42.690  1.00  0.00     0.004 C 
BRANCH  14  15
ATOM     15  C   UNL     1      46.881  39.898  42.702  1.00  0.00     0.000 C 
BRANCH  15  16
ATOM     16  C   UNL     1      47.019  38.375  42.523  1.00  0.00    -0.000 C 
BRANCH  16  17
ATOM     17  C   UNL     1      47.140  37.902  41.064  1.00  0.00    -0.003 C 
ATOM     18  C   UNL     1      46.074  38.505  40.150  1.00  0.00     0.004 C 
ENDBRANCH  16  17
ENDBRANCH  15  16
ENDBRANCH  14  15
ENDBRANCH  13  14
ENDBRANCH  12  13
ENDBRANCH  10  11
ENDBRANCH   1  10
TORSDOF 13
ENDMDL
MODEL 3
REMARK VINA RESULT:    -4.451      3.069      7.758
REMARK INTER + INTRA:          -9.175
REMARK INTER:                  -7.727
REMARK INTRA:                  -1.448
REMARK UNBOUND:                -1.341
REMARK SMILES CCCCCCC=CCCCCCCCC(=O)[O-]
REMARK SMILES IDX 10 1 11 2 12 3 13 4 14 5 15 6 16 7 17 8 18 9 9 10 8 11 7 12
REMARK SMILES IDX 6 13 5 14 4 15 3 16 2 17 1 18
REMARK H PARENT
REMARK Flexibility Score: inf
ROOT
ATOM      1  C   UNL     1      46.934  42.181  35.244  1.00  0.00     0.004 C 
ENDROOT
BRANCH   1   2
ATOM      2  C   UNL     1      47.821  42.366  36.489  1.00  0.00     0.000 C 
BRANCH   2   3
ATOM      3  C   UNL     1      47.002  42.604  37.768  1.00  0.00     0.000 C 
BRANCH   3   4
ATOM      4  C   UNL     1      47.784  42.260  39.044  1.00  0.00     0.000 C 
BRANCH   4   5
ATOM      5  C   UNL     1      48.685  41.036  38.822  1.00  0.00     0.006 C 
BRANCH   5   6
ATOM      6  C   UNL     1      47.972  39.721  39.168  1.00  0.00     0.053 C 
BRANCH   6   7
ATOM      7  C   UNL     1      47.990  38.761  38.019  1.00  0.00     0.041 C 
ATOM      8  O   UNL     1      47.255  37.738  38.035  1.00  0.00    -0.550 OA
ATOM      9  O   UNL     1      48.843  38.979  36.944  1.00  0.00    -0.550 OA
ENDBRANCH   6   7
ENDBRANCH   5   6
ENDBRANCH   4   5
ENDBRANCH   3   4
ENDBRANCH   2   3
ENDBRANCH   1   2
BRANCH   1  10
ATOM     10  C   UNL     1      45.945  43.341  35.063  1.00  0.00     0.027 C 
BRANCH  10  11
ATOM     11  C   UNL     1      46.365  44.290  33.972  1.00  0.00    -0.031 C 
ATOM     12  C   UNL     1      47.447  44.053  33.215  1.00  0.00    -0.031 C 
BRANCH  12  13
ATOM     13  C   UNL     1      47.894  45.019  32.150  1.00  0.00     0.027 C 
BRANCH  13  14
ATOM     14  C   UNL     1      47.159  44.775  30.826  1.00  0.00     0.004 C 
BRANCH  14  15
ATOM     15  C   UNL     1      47.174  43.292  30.420  1.00  0.00     0.000 C 
BRANCH  15  16
ATOM     16  C   UNL     1      45.819  42.806  29.875  1.00  0.00    -0.000 C 
BRANCH  16  17
ATOM     17  C   UNL     1      44.612  43.677  30.268  1.00  0.00    -0.003 C 
ATOM     18  C   UNL     1      43.859  43.140  31.485  1.00  0.00     0.004 C 
ENDBRANCH  16  17
ENDBRANCH  15  16
ENDBRANCH  14  15
ENDBRANCH  13  14
ENDBRANCH  12  13
ENDBRANCH  10  11
ENDBRANCH   1  10
TORSDOF 13
ENDMDL
MODEL 4
REMARK VINA RESULT:    -4.417      1.219      2.372
REMARK INTER + INTRA:          -9.115
REMARK INTER:                  -7.618
REMARK INTRA:                  -1.498
REMARK UNBOUND:                -1.341
REMARK SMILES CCCCCCC=CCCCCCCCC(=O)[O-]
REMARK SMILES IDX 10 1 11 2 12 3 13 4 14 5 15 6 16 7 17 8 18 9 9 10 8 11 7 12
REMARK SMILES IDX 6 13 5 14 4 15 3 16 2 17 1 18
REMARK H PARENT
REMARK Flexibility Score: inf
ROOT
ATOM      1  C   UNL     1      47.279  43.142  35.378  1.00  0.00     0.004 C 
ENDROOT
BRANCH   1   2
ATOM      2  C   UNL     1      47.117  43.206  33.848  1.00  0.00     0.000 C 
BRANCH   2   3
ATOM      3  C   UNL     1      47.301  44.628  33.293  1.00  0.00     0.000 C 
BRANCH   3   4
ATOM      4  C   UNL     1      48.014  44.645  31.933  1.00  0.00     0.000 C 
BRANCH   4   5
ATOM      5  C   UNL     1      46.998  44.676  30.782  1.00  0.00     0.006 C 
BRANCH   5   6
ATOM      6  C   UNL     1      47.109  43.441  29.877  1.00  0.00     0.053 C 
BRANCH   6   7
ATOM      7  C   UNL     1      46.194  42.342  30.322  1.00  0.00     0.041 C 
ATOM      8  O   UNL     1      46.502  41.138  30.118  1.00  0.00    -0.550 OA
ATOM      9  O   UNL     1      44.985  42.649  30.935  1.00  0.00    -0.550 OA
ENDBRANCH   6   7
ENDBRANCH   5   6
ENDBRANCH   4   5
ENDBRANCH   3   4
ENDBRANCH   2   3
ENDBRANCH   1   2
BRANCH   1  10
ATOM     10  C   UNL     1      45.925  43.163  36.102  1.00  0.00     0.027 C 
BRANCH  10  11
ATOM     11  C   UNL     1      46.068  43.003  37.593  1.00  0.00    -0.031 C 
ATOM     12  C   UNL     1      47.273  42.963  38.181  1.00  0.00    -0.031 C 
BRANCH  12  13
ATOM     13  C   UNL     1      47.422  42.763  39.666  1.00  0.00     0.027 C 
BRANCH  13  14
ATOM     14  C   UNL     1      48.139  41.445  39.987  1.00  0.00     0.004 C 
BRANCH  14  15
ATOM     15  C   UNL     1      48.767  40.808  38.736  1.00  0.00     0.000 C 
BRANCH  15  16
ATOM     16  C   UNL     1      47.973  39.596  38.219  1.00  0.00    -0.000 C 
BRANCH  16  17
ATOM     17  C   UNL     1      47.883  39.486  36.687  1.00  0.00    -0.003 C 
ATOM     18  C   UNL     1      46.443  39.453  36.174  1.00  0.00     0.004 C 
ENDBRANCH  16  17
ENDBRANCH  15  16
ENDBRANCH  14  15
ENDBRANCH  13  14
ENDBRANCH  12  13
ENDBRANCH  10  11
ENDBRANCH   1  10
TORSDOF 13
ENDMDL
MODEL 5
REMARK VINA RESULT:    -4.389      3.973      8.150
REMARK INTER + INTRA:          -9.066
REMARK INTER:                  -7.668
REMARK INTRA:                  -1.398
REMARK UNBOUND:                -1.341
REMARK SMILES CCCCCCC=CCCCCCCCC(=O)[O-]
REMARK SMILES IDX 10 1 11 2 12 3 13 4 14 5 15 6 16 7 17 8 18 9 9 10 8 11 7 12
REMARK SMILES IDX 6 13 5 14 4 15 3 16 2 17 1 18
REMARK H PARENT
REMARK Flexibility Score: inf
ROOT
ATOM      1  C   UNL     1      46.942  40.984  36.004  1.00  0.00     0.004 C 
ENDROOT
BRANCH   1   2
ATOM      2  C   UNL     1      47.424  40.125  37.187  1.00  0.00     0.000 C 
BRANCH   2   3
ATOM      3  C   UNL     1      48.761  40.613  37.766  1.00  0.00     0.000 C 
BRANCH   3   4
ATOM      4  C   UNL     1      48.672  40.949  39.262  1.00  0.00     0.000 C 
BRANCH   4   5
ATOM      5  C   UNL     1      47.334  41.628  39.592  1.00  0.00     0.006 C 
BRANCH   5   6
ATOM      6  C   UNL     1      47.454  43.158  39.629  1.00  0.00     0.053 C 
BRANCH   6   7
ATOM      7  C   UNL     1      47.652  43.666  41.024  1.00  0.00     0.041 C 
ATOM      8  O   UNL     1      47.347  42.946  42.011  1.00  0.00    -0.550 OA
ATOM      9  O   UNL     1      48.143  44.949  41.233  1.00  0.00    -0.550 OA
ENDBRANCH   6   7
ENDBRANCH   5   6
ENDBRANCH   4   5
ENDBRANCH   3   4
ENDBRANCH   2   3
ENDBRANCH   1   2
BRANCH   1  10
ATOM     10  C   UNL     1      47.677  42.331  35.933  1.00  0.00     0.027 C 
BRANCH  10  11
ATOM     11  C   UNL     1      47.057  43.271  34.933  1.00  0.00    -0.031 C 
ATOM     12  C   UNL     1      45.726  43.379  34.803  1.00  0.00    -0.031 C 
BRANCH  12  13
ATOM     13  C   UNL     1      45.103  44.288  33.777  1.00  0.00     0.027 C 
BRANCH  13  14
ATOM     14  C   UNL     1      44.939  43.582  32.425  1.00  0.00     0.004 C 
BRANCH  14  15
ATOM     15  C   UNL     1      45.088  44.554  31.243  1.00  0.00     0.000 C 
BRANCH  15  16
ATOM     16  C   UNL     1      46.318  44.252  30.369  1.00  0.00    -0.000 C 
BRANCH  16  17
ATOM     17  C   UNL     1      47.576  43.825  31.145  1.00  0.00    -0.003 C 
ATOM     18  C   UNL     1      48.271  44.992  31.845  1.00  0.00     0.004 C 
ENDBRANCH  16  17
ENDBRANCH  15  16
ENDBRANCH  14  15
ENDBRANCH  13  14
ENDBRANCH  12  13
ENDBRANCH  10  11
ENDBRANCH   1  10
TORSDOF 13
ENDMDL
MODEL 6
REMARK VINA RESULT:    -4.366      2.165      3.799
REMARK INTER + INTRA:          -9.026
REMARK INTER:                  -7.849
REMARK INTRA:                  -1.177
REMARK UNBOUND:                -1.341
REMARK SMILES CCCCCCC=CCCCCCCCC(=O)[O-]
REMARK SMILES IDX 10 1 11 2 12 3 13 4 14 5 15 6 16 7 17 8 18 9 9 10 8 11 7 12
REMARK SMILES IDX 6 13 5 14 4 15 3 16 2 17 1 18
REMARK H PARENT
REMARK Flexibility Score: inf
ROOT
ATOM      1  C   UNL     1      47.658  40.546  36.713  1.00  0.00     0.004 C 
ENDROOT
BRANCH   1   2
ATOM      2  C   UNL     1      48.044  42.035  36.779  1.00  0.00     0.000 C 
BRANCH   2   3
ATOM      3  C   UNL     1      47.005  42.945  36.106  1.00  0.00     0.000 C 
BRANCH   3   4
ATOM      4  C   UNL     1      46.899  42.707  34.593  1.00  0.00     0.000 C 
BRANCH   4   5
ATOM      5  C   UNL     1      46.925  44.038  33.826  1.00  0.00     0.006 C 
BRANCH   5   6
ATOM      6  C   UNL     1      46.411  43.889  32.388  1.00  0.00     0.053 C 
BRANCH   6   7
ATOM      7  C   UNL     1      47.459  44.252  31.382  1.00  0.00     0.041 C 
ATOM      8  O   UNL     1      47.370  43.841  30.195  1.00  0.00    -0.550 OA
ATOM      9  O   UNL     1      48.553  45.019  31.764  1.00  0.00    -0.550 OA
ENDBRANCH   6   7
ENDBRANCH   5   6
ENDBRANCH   4   5
ENDBRANCH   3   4
ENDBRANCH   2   3
ENDBRANCH   1   2
BRANCH   1  10
ATOM     10  C   UNL     1      48.652  39.658  37.476  1.00  0.00     0.027 C 
BRANCH  10  11
ATOM     11  C   UNL     1      47.995  38.885  38.588  1.00  0.00    -0.031 C 
ATOM     12  C   UNL     1      46.750  39.169  39.000  1.00  0.00    -0.031 C 
BRANCH  12  13
ATOM     13  C   UNL     1      46.104  38.425  40.138  1.00  0.00     0.027 C 
BRANCH  13  14
ATOM     14  C   UNL     1      47.151  37.865  41.110  1.00  0.00     0.004 C 
BRANCH  14  15
ATOM     15  C   UNL     1      46.966  38.410  42.536  1.00  0.00     0.000 C 
BRANCH  15  16
ATOM     16  C   UNL     1      46.907  39.947  42.587  1.00  0.00    -0.000 C 
BRANCH  16  17
ATOM     17  C   UNL     1      48.276  40.650  42.559  1.00  0.00    -0.003 C 
ATOM     18  C   UNL     1      48.488  41.496  41.303  1.00  0.00     0.004 C 
ENDBRANCH  16  17
ENDBRANCH  15  16
ENDBRANCH  14  15
ENDBRANCH  13  14
ENDBRANCH  12  13
ENDBRANCH  10  11
ENDBRANCH   1  10
TORSDOF 13
ENDMDL
MODEL 7
REMARK VINA RESULT:    -4.337      1.446      2.819
REMARK INTER + INTRA:          -8.974
REMARK INTER:                  -7.977
REMARK INTRA:                  -0.997
REMARK UNBOUND:                -1.341
REMARK SMILES CCCCCCC=CCCCCCCCC(=O)[O-]
REMARK SMILES IDX 10 1 11 2 12 3 13 4 14 5 15 6 16 7 17 8 18 9 9 10 8 11 7 12
REMARK SMILES IDX 6 13 5 14 4 15 3 16 2 17 1 18
REMARK H PARENT
REMARK Flexibility Score: inf
ROOT
ATOM      1  C   UNL     1      46.643  44.481  33.577  1.00  0.00     0.004 C 
ENDROOT
BRANCH   1   2
ATOM      2  C   UNL     1      47.639  44.755  32.436  1.00  0.00     0.000 C 
BRANCH   2   3
ATOM      3  C   UNL     1      46.964  44.773  31.055  1.00  0.00     0.000 C 
BRANCH   3   4
ATOM      4  C   UNL     1      47.216  43.486  30.256  1.00  0.00     0.000 C 
BRANCH   4   5
ATOM      5  C   UNL     1      45.909  42.703  30.053  1.00  0.00     0.006 C 
BRANCH   5   6
ATOM      6  C   UNL     1      44.670  43.596  30.197  1.00  0.00     0.053 C 
BRANCH   6   7
ATOM      7  C   UNL     1      43.650  42.988  31.110  1.00  0.00     0.041 C 
ATOM      8  O   UNL     1      43.976  42.613  32.267  1.00  0.00    -0.550 OA
ATOM      9  O   UNL     1      42.344  42.806  30.670  1.00  0.00    -0.550 OA
ENDBRANCH   6   7
ENDBRANCH   5   6
ENDBRANCH   4   5
ENDBRANCH   3   4
ENDBRANCH   2   3
ENDBRANCH   1   2
BRANCH   1  10
ATOM     10  C   UNL     1      46.865  43.102  34.217  1.00  0.00     0.027 C 
BRANCH  10  11
ATOM     11  C   UNL     1      46.839  43.156  35.722  1.00  0.00    -0.031 C 
ATOM     12  C   UNL     1      47.687  42.429  36.464  1.00  0.00    -0.031 C 
BRANCH  12  13
ATOM     13  C   UNL     1      47.638  42.450  37.969  1.00  0.00     0.027 C 
BRANCH  13  14
ATOM     14  C   UNL     1      48.381  41.251  38.573  1.00  0.00     0.004 C 
BRANCH  14  15
ATOM     15  C   UNL     1      48.828  40.246  37.498  1.00  0.00     0.000 C 
BRANCH  15  16
ATOM     16  C   UNL     1      48.246  38.838  37.717  1.00  0.00    -0.000 C 
BRANCH  16  17
ATOM     17  C   UNL     1      48.688  37.786  36.683  1.00  0.00    -0.003 C 
ATOM     18  C   UNL     1      49.125  36.468  37.321  1.00  0.00     0.004 C 
ENDBRANCH  16  17
ENDBRANCH  15  16
ENDBRANCH  14  15
ENDBRANCH  13  14
ENDBRANCH  12  13
ENDBRANCH  10  11
ENDBRANCH   1  10
TORSDOF 13
ENDMDL
MODEL 8
REMARK VINA RESULT:    -4.313      1.757      3.448
REMARK INTER + INTRA:          -8.932
REMARK INTER:                  -8.002
REMARK INTRA:                  -0.929
REMARK UNBOUND:                -1.341
REMARK SMILES CCCCCCC=CCCCCCCCC(=O)[O-]
REMARK SMILES IDX 10 1 11 2 12 3 13 4 14 5 15 6 16 7 17 8 18 9 9 10 8 11 7 12
REMARK SMILES IDX 6 13 5 14 4 15 3 16 2 17 1 18
REMARK H PARENT
REMARK Flexibility Score: inf
ROOT
ATOM      1  C   UNL     1      47.448  42.360  37.389  1.00  0.00     0.004 C 
ENDROOT
BRANCH   1   2
ATOM      2  C   UNL     1      47.749  42.511  35.887  1.00  0.00     0.000 C 
BRANCH   2   3
ATOM      3  C   UNL     1      46.623  43.231  35.127  1.00  0.00     0.000 C 
BRANCH   3   4
ATOM      4  C   UNL     1      46.879  43.301  33.615  1.00  0.00     0.000 C 
BRANCH   4   5
ATOM      5  C   UNL     1      47.383  44.695  33.209  1.00  0.00     0.006 C 
BRANCH   5   6
ATOM      6  C   UNL     1      47.975  44.707  31.793  1.00  0.00     0.053 C 
BRANCH   6   7
ATOM      7  C   UNL     1      46.973  44.274  30.768  1.00  0.00     0.041 C 
ATOM      8  O   UNL     1      47.295  43.446  29.876  1.00  0.00    -0.550 OA
ATOM      9  O   UNL     1      45.691  44.811  30.779  1.00  0.00    -0.550 OA
ENDBRANCH   6   7
ENDBRANCH   5   6
ENDBRANCH   4   5
ENDBRANCH   3   4
ENDBRANCH   2   3
ENDBRANCH   1   2
BRANCH   1  10
ATOM     10  C   UNL     1      48.412  41.380  38.074  1.00  0.00     0.027 C 
BRANCH  10  11
ATOM     11  C   UNL     1      48.295  41.415  39.575  1.00  0.00    -0.031 C 
ATOM     12  C   UNL     1      47.811  40.372  40.266  1.00  0.00    -0.031 C 
BRANCH  12  13
ATOM     13  C   UNL     1      47.655  40.419  41.762  1.00  0.00     0.027 C 
BRANCH  13  14
ATOM     14  C   UNL     1      48.838  41.134  42.429  1.00  0.00     0.004 C 
BRANCH  14  15
ATOM     15  C   UNL     1      48.402  42.414  43.162  1.00  0.00     0.000 C 
BRANCH  15  16
ATOM     16  C   UNL     1      47.007  42.903  42.733  1.00  0.00    -0.000 C 
BRANCH  16  17
ATOM     17  C   UNL     1      47.010  44.076  41.737  1.00  0.00    -0.003 C 
ATOM     18  C   UNL     1      48.281  44.922  41.812  1.00  0.00     0.004 C 
ENDBRANCH  16  17
ENDBRANCH  15  16
ENDBRANCH  14  15
ENDBRANCH  13  14
ENDBRANCH  12  13
ENDBRANCH  10  11
ENDBRANCH   1  10
TORSDOF 13
ENDMDL
MODEL 9
REMARK VINA RESULT:    -4.029      4.051      8.637
REMARK INTER + INTRA:          -8.432
REMARK INTER:                  -7.553
REMARK INTRA:                  -0.879
REMARK UNBOUND:                -1.341
REMARK SMILES CCCCCCC=CCCCCCCCC(=O)[O-]
REMARK SMILES IDX 10 1 11 2 12 3 13 4 14 5 15 6 16 7 17 8 18 9 9 10 8 11 7 12
REMARK SMILES IDX 6 13 5 14 4 15 3 16 2 17 1 18
REMARK H PARENT
REMARK Flexibility Score: inf
ROOT
ATOM      1  C   UNL     1      47.872  41.181  37.086  1.00  0.00     0.004 C 
ENDROOT
BRANCH   1   2
ATOM      2  C   UNL     1      48.789  40.734  38.239  1.00  0.00     0.000 C 
BRANCH   2   3
ATOM      3  C   UNL     1      48.004  40.335  39.498  1.00  0.00     0.000 C 
BRANCH   3   4
ATOM      4  C   UNL     1      48.375  41.184  40.723  1.00  0.00     0.000 C 
BRANCH   4   5
ATOM      5  C   UNL     1      47.285  42.227  41.017  1.00  0.00     0.006 C 
BRANCH   5   6
ATOM      6  C   UNL     1      47.647  43.614  40.471  1.00  0.00     0.053 C 
BRANCH   6   7
ATOM      7  C   UNL     1      47.539  44.672  41.525  1.00  0.00     0.041 C 
ATOM      8  O   UNL     1      46.409  45.049  41.933  1.00  0.00    -0.550 OA
ATOM      9  O   UNL     1      48.688  45.265  42.036  1.00  0.00    -0.550 OA
ENDBRANCH   6   7
ENDBRANCH   5   6
ENDBRANCH   4   5
ENDBRANCH   3   4
ENDBRANCH   2   3
ENDBRANCH   1   2
BRANCH   1  10
ATOM     10  C   UNL     1      47.711  42.707  37.036  1.00  0.00     0.027 C 
BRANCH  10  11
ATOM     11  C   UNL     1      47.548  43.222  35.631  1.00  0.00    -0.031 C 
ATOM     12  C   UNL     1      46.881  42.524  34.700  1.00  0.00    -0.031 C 
BRANCH  12  13
ATOM     13  C   UNL     1      46.751  43.016  33.284  1.00  0.00     0.027 C 
BRANCH  13  14
ATOM     14  C   UNL     1      47.271  44.452  33.137  1.00  0.00     0.004 C 
BRANCH  14  15
ATOM     15  C   UNL     1      47.930  44.692  31.769  1.00  0.00     0.000 C 
BRANCH  15  16
ATOM     16  C   UNL     1      47.237  43.926  30.628  1.00  0.00    -0.000 C 
BRANCH  16  17
ATOM     17  C   UNL     1      45.807  44.395  30.308  1.00  0.00    -0.003 C 
ATOM     18  C   UNL     1      44.886  43.253  29.875  1.00  0.00     0.004 C 
ENDBRANCH  16  17
ENDBRANCH  15  16
ENDBRANCH  14  15
ENDBRANCH  13  14
ENDBRANCH  12  13
ENDBRANCH  10  11
ENDBRANCH   1  10
TORSDOF 13
ENDMDL
