MODEL 1
REMARK VINA RESULT:    -2.034      0.000      0.000
REMARK INTER + INTRA:          -2.034
REMARK INTER:                  -2.034
REMARK INTRA:                   0.000
REMARK UNBOUND:                 0.000
REMARK SMILES CC1(C)O[C@]2(C)CC[C@H]1CC2
REMARK SMILES IDX 1 1 2 2 9 3 10 4 11 5 5 6 4 7 7 8 8 9 6 10 3 11
REMARK H PARENT
REMARK Flexibility Score: inf
ROOT
ATOM      1  C   UNL     1       4.951  -3.317  16.617  1.00  0.00     0.042 C 
ATOM      2  C   UNL     1       4.268  -4.231  17.657  1.00  0.00     0.066 C 
ATOM      3  C   UNL     1       4.575  -3.734  19.122  1.00  0.00     0.021 C 
ATOM      4  C   UNL     1       3.965  -2.323  19.300  1.00  0.00     0.009 C 
ATOM      5  C   UNL     1       2.478  -2.353  18.868  1.00  0.00     0.035 C 
ATOM      6  C   UNL     1       2.069  -3.806  18.489  1.00  0.00     0.066 C 
ATOM      7  O   UNL     1       2.859  -4.242  17.382  1.00  0.00    -0.369 OA
ATOM      8  C   UNL     1       2.335  -4.739  19.706  1.00  0.00     0.035 C 
ATOM      9  C   UNL     1       3.824  -4.652  20.117  1.00  0.00     0.009 C 
ATOM     10  C   UNL     1       0.590  -3.857  18.092  1.00  0.00     0.042 C 
ATOM     11  C   UNL     1       4.811  -5.659  17.440  1.00  0.00     0.042 C 
ENDROOT
TORSDOF 0
ENDMDL
MODEL 2
REMARK VINA RESULT:    -2.022      2.718      4.201
REMARK INTER + INTRA:          -2.022
REMARK INTER:                  -2.022
REMARK INTRA:                   0.000
REMARK UNBOUND:                 0.000
REMARK SMILES CC1(C)O[C@]2(C)CC[C@H]1CC2
REMARK SMILES IDX 1 1 2 2 9 3 10 4 11 5 5 6 4 7 7 8 8 9 6 10 3 11
REMARK H PARENT
REMARK Flexibility Score: inf
ROOT
ATOM      1  C   UNL     1       6.027  -1.532  22.448  1.00  0.00     0.042 C 
ATOM      2  C   UNL     1       6.225  -1.696  20.926  1.00  0.00     0.066 C 
ATOM      3  C   UNL     1       6.864  -3.100  20.595  1.00  0.00     0.021 C 
ATOM      4  C   UNL     1       5.877  -4.206  21.040  1.00  0.00     0.009 C 
ATOM      5  C   UNL     1       4.481  -3.914  20.437  1.00  0.00     0.035 C 
ATOM      6  C   UNL     1       4.556  -2.664  19.514  1.00  0.00     0.066 C 
ATOM      7  O   UNL     1       4.947  -1.530  20.291  1.00  0.00    -0.369 OA
ATOM      8  C   UNL     1       5.621  -2.916  18.407  1.00  0.00     0.035 C 
ATOM      9  C   UNL     1       6.989  -3.232  19.058  1.00  0.00     0.009 C 
ATOM     10  C   UNL     1       3.189  -2.382  18.883  1.00  0.00     0.042 C 
ATOM     11  C   UNL     1       7.147  -0.552  20.455  1.00  0.00     0.042 C 
ENDROOT
TORSDOF 0
ENDMDL
MODEL 3
REMARK VINA RESULT:    -2.005      1.139      2.336
REMARK INTER + INTRA:          -2.005
REMARK INTER:                  -2.005
REMARK INTRA:                   0.000
REMARK UNBOUND:                 0.000
REMARK SMILES CC1(C)O[C@]2(C)CC[C@H]1CC2
REMARK SMILES IDX 1 1 2 2 9 3 10 4 11 5 5 6 4 7 7 8 8 9 6 10 3 11
REMARK H PARENT
REMARK Flexibility Score: inf
ROOT
ATOM      1  C   UNL     1       4.800  -2.268  19.976  1.00  0.00     0.042 C 
ATOM      2  C   UNL     1       4.179  -2.868  18.696  1.00  0.00     0.066 C 
ATOM      3  C   UNL     1       4.326  -4.438  18.689  1.00  0.00     0.021 C 
ATOM      4  C   UNL     1       3.528  -5.012  19.885  1.00  0.00     0.009 C 
ATOM      5  C   UNL     1       2.088  -4.445  19.853  1.00  0.00     0.035 C 
ATOM      6  C   UNL     1       1.895  -3.564  18.585  1.00  0.00     0.066 C 
ATOM      7  O   UNL     1       2.802  -2.462  18.637  1.00  0.00    -0.369 OA
ATOM      8  C   UNL     1       2.204  -4.421  17.323  1.00  0.00     0.035 C 
ATOM      9  C   UNL     1       3.642  -4.988  17.415  1.00  0.00     0.009 C 
ATOM     10  C   UNL     1       0.463  -3.023  18.524  1.00  0.00     0.042 C 
ATOM     11  C   UNL     1       4.915  -2.244  17.492  1.00  0.00     0.042 C 
ENDROOT
TORSDOF 0
ENDMDL
MODEL 4
REMARK VINA RESULT:    -1.975      1.509      2.542
REMARK INTER + INTRA:          -1.975
REMARK INTER:                  -1.975
REMARK INTRA:                   0.000
REMARK UNBOUND:                 0.000
REMARK SMILES CC1(C)O[C@]2(C)CC[C@H]1CC2
REMARK SMILES IDX 1 1 2 2 9 3 10 4 11 5 5 6 4 7 7 8 8 9 6 10 3 11
REMARK H PARENT
REMARK Flexibility Score: inf
ROOT
ATOM      1  C   UNL     1       4.589  -3.543  16.498  1.00  0.00     0.042 C 
ATOM      2  C   UNL     1       5.164  -3.424  17.926  1.00  0.00     0.066 C 
ATOM      3  C   UNL     1       4.443  -2.269  18.722  1.00  0.00     0.021 C 
ATOM      4  C   UNL     1       2.947  -2.635  18.872  1.00  0.00     0.009 C 
ATOM      5  C   UNL     1       2.828  -4.064  19.455  1.00  0.00     0.035 C 
ATOM      6  C   UNL     1       4.245  -4.619  19.781  1.00  0.00     0.066 C 
ATOM      7  O   UNL     1       5.008  -4.696  18.576  1.00  0.00    -0.369 OA
ATOM      8  C   UNL     1       4.952  -3.649  20.772  1.00  0.00     0.035 C 
ATOM      9  C   UNL     1       5.019  -2.230  20.158  1.00  0.00     0.009 C 
ATOM     10  C   UNL     1       4.142  -6.021  20.390  1.00  0.00     0.042 C 
ATOM     11  C   UNL     1       6.673  -3.136  17.792  1.00  0.00     0.042 C 
ENDROOT
TORSDOF 0
ENDMDL
MODEL 5
REMARK VINA RESULT:    -1.927      1.543      3.309
REMARK INTER + INTRA:          -1.927
REMARK INTER:                  -1.927
REMARK INTRA:                   0.000
REMARK UNBOUND:                 0.000
REMARK SMILES CC1(C)O[C@]2(C)CC[C@H]1CC2
REMARK SMILES IDX 1 1 2 2 9 3 10 4 11 5 5 6 4 7 7 8 8 9 6 10 3 11
REMARK H PARENT
REMARK Flexibility Score: inf
ROOT
ATOM      1  C   UNL     1       1.924  -6.360  17.206  1.00  0.00     0.042 C 
ATOM      2  C   UNL     1       1.429  -4.926  17.492  1.00  0.00     0.066 C 
ATOM      3  C   UNL     1       0.683  -4.861  18.880  1.00  0.00     0.021 C 
ATOM      4  C   UNL     1       1.695  -5.215  19.997  1.00  0.00     0.009 C 
ATOM      5  C   UNL     1       2.957  -4.333  19.839  1.00  0.00     0.035 C 
ATOM      6  C   UNL     1       2.753  -3.324  18.672  1.00  0.00     0.066 C 
ATOM      7  O   UNL     1       2.564  -4.048  17.455  1.00  0.00    -0.369 OA
ATOM      8  C   UNL     1       1.485  -2.469  18.960  1.00  0.00     0.035 C 
ATOM      9  C   UNL     1       0.257  -3.395  19.139  1.00  0.00     0.009 C 
ATOM     10  C   UNL     1       3.982  -2.422  18.525  1.00  0.00     0.042 C 
ATOM     11  C   UNL     1       0.478  -4.530  16.342  1.00  0.00     0.042 C 
ENDROOT
TORSDOF 0
ENDMDL
MODEL 6
REMARK VINA RESULT:    -1.914      1.586      3.402
REMARK INTER + INTRA:          -1.914
REMARK INTER:                  -1.914
REMARK INTRA:                   0.000
REMARK UNBOUND:                 0.000
REMARK SMILES CC1(C)O[C@]2(C)CC[C@H]1CC2
REMARK SMILES IDX 1 1 2 2 9 3 10 4 11 5 5 6 4 7 7 8 8 9 6 10 3 11
REMARK H PARENT
REMARK Flexibility Score: inf
ROOT
ATOM      1  C   UNL     1       5.047  -5.594  17.446  1.00  0.00     0.042 C 
ATOM      2  C   UNL     1       4.904  -4.108  17.840  1.00  0.00     0.066 C 
ATOM      3  C   UNL     1       3.524  -3.853  18.559  1.00  0.00     0.021 C 
ATOM      4  C   UNL     1       3.498  -4.668  19.875  1.00  0.00     0.009 C 
ATOM      5  C   UNL     1       4.778  -4.360  20.689  1.00  0.00     0.035 C 
ATOM      6  C   UNL     1       5.616  -3.270  19.961  1.00  0.00     0.066 C 
ATOM      7  O   UNL     1       6.015  -3.762  18.681  1.00  0.00    -0.369 OA
ATOM      8  C   UNL     1       4.737  -2.001  19.770  1.00  0.00     0.035 C 
ATOM      9  C   UNL     1       3.458  -2.364  18.977  1.00  0.00     0.009 C 
ATOM     10  C   UNL     1       6.871  -2.932  20.773  1.00  0.00     0.042 C 
ATOM     11  C   UNL     1       5.006  -3.278  16.543  1.00  0.00     0.042 C 
ENDROOT
TORSDOF 0
ENDMDL
MODEL 7
REMARK VINA RESULT:    -1.908      1.516      1.746
REMARK INTER + INTRA:          -1.908
REMARK INTER:                  -1.908
REMARK INTRA:                   0.000
REMARK UNBOUND:                 0.000
REMARK SMILES CC1(C)O[C@]2(C)CC[C@H]1CC2
REMARK SMILES IDX 1 1 2 2 9 3 10 4 11 5 5 6 4 7 7 8 8 9 6 10 3 11
REMARK H PARENT
REMARK Flexibility Score: inf
ROOT
ATOM      1  C   UNL     1       6.747  -2.684  17.693  1.00  0.00     0.042 C 
ATOM      2  C   UNL     1       6.007  -3.733  18.552  1.00  0.00     0.066 C 
ATOM      3  C   UNL     1       5.714  -3.165  19.995  1.00  0.00     0.021 C 
ATOM      4  C   UNL     1       4.766  -1.949  19.860  1.00  0.00     0.009 C 
ATOM      5  C   UNL     1       3.540  -2.351  19.005  1.00  0.00     0.035 C 
ATOM      6  C   UNL     1       3.623  -3.863  18.645  1.00  0.00     0.066 C 
ATOM      7  O   UNL     1       4.798  -4.096  17.867  1.00  0.00    -0.369 OA
ATOM      8  C   UNL     1       3.706  -4.692  19.959  1.00  0.00     0.035 C 
ATOM      9  C   UNL     1       4.928  -4.234  20.791  1.00  0.00     0.009 C 
ATOM     10  C   UNL     1       2.398  -4.284  17.826  1.00  0.00     0.042 C 
ATOM     11  C   UNL     1       6.909  -4.982  18.630  1.00  0.00     0.042 C 
ENDROOT
TORSDOF 0
ENDMDL
MODEL 8
REMARK VINA RESULT:    -1.904      1.342      2.619
REMARK INTER + INTRA:          -1.904
REMARK INTER:                  -1.904
REMARK INTRA:                   0.000
REMARK UNBOUND:                 0.000
REMARK SMILES CC1(C)O[C@]2(C)CC[C@H]1CC2
REMARK SMILES IDX 1 1 2 2 9 3 10 4 11 5 5 6 4 7 7 8 8 9 6 10 3 11
REMARK H PARENT
REMARK Flexibility Score: inf
ROOT
ATOM      1  C   UNL     1       4.547  -6.149  19.570  1.00  0.00     0.042 C 
ATOM      2  C   UNL     1       4.144  -4.661  19.655  1.00  0.00     0.066 C 
ATOM      3  C   UNL     1       4.409  -3.932  18.281  1.00  0.00     0.021 C 
ATOM      4  C   UNL     1       3.508  -4.578  17.201  1.00  0.00     0.009 C 
ATOM      5  C   UNL     1       2.045  -4.603  17.708  1.00  0.00     0.035 C 
ATOM      6  C   UNL     1       1.953  -3.891  19.089  1.00  0.00     0.066 C 
ATOM      7  O   UNL     1       2.760  -4.596  20.034  1.00  0.00    -0.369 OA
ATOM      8  C   UNL     1       2.488  -2.437  18.944  1.00  0.00     0.035 C 
ATOM      9  C   UNL     1       3.940  -2.463  18.408  1.00  0.00     0.009 C 
ATOM     10  C   UNL     1       0.505  -3.879  19.588  1.00  0.00     0.042 C 
ATOM     11  C   UNL     1       4.981  -4.022  20.783  1.00  0.00     0.042 C 
ENDROOT
TORSDOF 0
ENDMDL
MODEL 9
REMARK VINA RESULT:    -1.893      3.391      4.728
REMARK INTER + INTRA:          -1.893
REMARK INTER:                  -1.893
REMARK INTRA:                   0.000
REMARK UNBOUND:                 0.000
REMARK SMILES CC1(C)O[C@]2(C)CC[C@H]1CC2
REMARK SMILES IDX 1 1 2 2 9 3 10 4 11 5 5 6 4 7 7 8 8 9 6 10 3 11
REMARK H PARENT
REMARK Flexibility Score: inf
ROOT
ATOM      1  C   UNL     1       7.287  -2.462  18.301  1.00  0.00     0.042 C 
ATOM      2  C   UNL     1       7.222  -1.997  19.772  1.00  0.00     0.066 C 
ATOM      3  C   UNL     1       5.914  -1.156  20.033  1.00  0.00     0.021 C 
ATOM      4  C   UNL     1       4.687  -2.071  19.799  1.00  0.00     0.009 C 
ATOM      5  C   UNL     1       4.859  -3.371  20.623  1.00  0.00     0.035 C 
ATOM      6  C   UNL     1       6.156  -3.286  21.478  1.00  0.00     0.066 C 
ATOM      7  O   UNL     1       7.283  -3.162  20.610  1.00  0.00    -0.369 OA
ATOM      8  C   UNL     1       6.075  -2.030  22.394  1.00  0.00     0.035 C 
ATOM      9  C   UNL     1       5.875  -0.762  21.529  1.00  0.00     0.009 C 
ATOM     10  C   UNL     1       6.321  -4.552  22.324  1.00  0.00     0.042 C 
ATOM     11  C   UNL     1       8.481  -1.146  20.040  1.00  0.00     0.042 C 
ENDROOT
TORSDOF 0
ENDMDL
