MODEL 1
REMARK VINA RESULT:    74.537      0.000      0.000
REMARK INTER + INTRA:         124.033
REMARK INTER:                 118.112
REMARK INTRA:                   5.921
REMARK UNBOUND:                 5.921
REMARK SMILES C[C@H]1O[C@@H](O[C@H]2CC[C@]3(C)[C@H](CC[C@]4(C)[C@H]3C=C[C@@]35OC[C@]6(CCC(C)(C)C[C@@H]63)[C@H](O)C[C@]45C)[C@@]2(C)CO)[C@@H](O)[C@H](O[C@@H]2O[C@H](CO)[C@H](O)[C@H](O)[C@H]2O)[C@@H]1O
REMARK SMILES IDX 1 1 2 2 54 3 41 4 39 5 4 6 3 7 55 8 42 10 43 11 52 12 44 13
REMARK SMILES IDX 50 14 45 15 48 16 53 17 51 19 46 21 47 22 49 24 5 26 6 27
REMARK SMILES IDX 7 28 35 29 8 30 11 31 36 32 9 33 12 34 10 35 16 36 13 37
REMARK SMILES IDX 14 38 17 39 15 40 33 41 18 42 19 43 32 44 34 45 29 46 20 47
REMARK SMILES IDX 30 48 22 49 28 50 21 51 23 52 25 53 24 54 26 55 27 56 37 57
REMARK SMILES IDX 38 58 31 60 40 62
REMARK H PARENT 55 9 53 18 51 20 47 23 49 25 38 59 31 61 40 63
REMARK Flexibility Score: inf
ROOT
ATOM      1  C   UNL     1      19.267  40.475 -12.547  1.00  0.00     0.041 C 
ATOM      2  C   UNL     1      18.172  41.161 -13.363  1.00  0.00     0.150 C 
ATOM      3  C   UNL     1      17.621  42.434 -12.667  1.00  0.00     0.175 C 
ATOM      4  C   UNL     1      16.569  42.079 -11.617  1.00  0.00     0.186 C 
ATOM      5  C   UNL     1      15.490  41.240 -12.304  1.00  0.00     0.202 C 
ATOM      6  C   UNL     1      16.119  39.961 -12.899  1.00  0.00     0.282 C 
ATOM      7  O   UNL     1      17.177  40.241 -13.816  1.00  0.00    -0.344 OA
ENDROOT
BRANCH   3   8
ATOM      8  O   UNL     1      17.061  43.300 -13.621  1.00  0.00    -0.388 OA
ATOM      9  H   UNL     1      17.636  43.254 -14.432  1.00  0.00     0.211 HD
ENDBRANCH   3   8
BRANCH   4  10
ATOM     10  O   UNL     1      16.005  43.281 -11.100  1.00  0.00    -0.341 OA
BRANCH  10  11
ATOM     11  C   UNL     1      15.393  43.085  -9.837  1.00  0.00     0.282 C 
ATOM     12  C   UNL     1      16.500  42.901  -8.778  1.00  0.00     0.202 C 
ATOM     13  O   UNL     1      14.611  44.232  -9.523  1.00  0.00    -0.341 OA
ATOM     14  C   UNL     1      15.862  42.755  -7.387  1.00  0.00     0.179 C 
ATOM     15  C   UNL     1      13.912  44.061  -8.302  1.00  0.00     0.178 C 
ATOM     16  C   UNL     1      14.908  43.933  -7.120  1.00  0.00     0.177 C 
BRANCH  12  17
ATOM     17  O   UNL     1      17.248  41.752  -9.056  1.00  0.00    -0.385 OA
ATOM     18  H   UNL     1      16.816  40.989  -8.570  1.00  0.00     0.211 HD
ENDBRANCH  12  17
BRANCH  14  19
ATOM     19  O   UNL     1      16.871  42.707  -6.415  1.00  0.00    -0.387 OA
ATOM     20  H   UNL     1      17.717  42.493  -6.897  1.00  0.00     0.211 HD
ENDBRANCH  14  19
BRANCH  15  21
ATOM     21  C   UNL     1      12.953  45.248  -8.100  1.00  0.00     0.191 C 
BRANCH  21  22
ATOM     22  O   UNL     1      12.982  45.710  -6.771  1.00  0.00    -0.394 OA
ATOM     23  H   UNL     1      13.919  45.967  -6.579  1.00  0.00     0.210 HD
ENDBRANCH  21  22
ENDBRANCH  15  21
BRANCH  16  24
ATOM     24  O   UNL     1      15.644  45.120  -6.980  1.00  0.00    -0.387 OA
ATOM     25  H   UNL     1      16.063  45.312  -7.858  1.00  0.00     0.211 HD
ENDBRANCH  16  24
ENDBRANCH  10  11
ENDBRANCH   4  10
BRANCH   6  26
ATOM     26  O   UNL     1      16.546  39.087 -11.854  1.00  0.00    -0.346 OA
BRANCH  26  27
ATOM     27  C   UNL     1      16.060  37.748 -12.001  1.00  0.00     0.130 C 
ATOM     28  C   UNL     1      15.895  37.127 -10.597  1.00  0.00     0.033 C 
ATOM     29  C   UNL     1      14.688  37.741 -12.756  1.00  0.00     0.020 C 
ATOM     30  C   UNL     1      14.888  37.894  -9.734  1.00  0.00     0.010 C 
ATOM     31  C   UNL     1      13.621  38.513 -11.851  1.00  0.00     0.006 C 
ATOM     32  C   UNL     1      14.292  36.274 -13.130  1.00  0.00     0.017 C 
ATOM     33  C   UNL     1      13.466  38.076 -10.360  1.00  0.00    -0.022 C 
ATOM     34  C   UNL     1      12.246  38.694 -12.523  1.00  0.00     0.005 C 
ATOM     35  C   UNL     1      12.674  36.741 -10.212  1.00  0.00     0.012 C 
ATOM     36  C   UNL     1      12.735  39.241  -9.551  1.00  0.00     0.024 C 
ATOM     37  C   UNL     1      11.149  39.351 -11.658  1.00  0.00     0.008 C 
ATOM     38  C   UNL     1      11.582  40.068 -10.316  1.00  0.00    -0.017 C 
ATOM     39  C   UNL     1      12.391  38.786  -8.125  1.00  0.00    -0.024 C 
ATOM     40  C   UNL     1      12.180  41.441 -10.797  1.00  0.00     0.013 C 
ATOM     41  C   UNL     1      10.329  40.376  -9.311  1.00  0.00     0.009 C 
ATOM     42  C   UNL     1      11.141  38.681  -7.653  1.00  0.00     0.005 C 
ATOM     43  C   UNL     1       9.971  39.056  -8.516  1.00  0.00     0.096 C 
ATOM     44  C   UNL     1       9.047  40.919 -10.072  1.00  0.00     0.043 C 
ATOM     45  C   UNL     1      10.799  41.494  -8.298  1.00  0.00     0.015 C 
ATOM     46  C   UNL     1       8.647  39.075  -7.724  1.00  0.00     0.037 C 
ATOM     47  O   UNL     1       9.775  37.997  -9.432  1.00  0.00    -0.369 OA
ATOM     48  C   UNL     1       7.650  40.328  -9.673  1.00  0.00     0.124 C 
ATOM     49  C   UNL     1       7.673  38.982  -8.867  1.00  0.00     0.026 C 
ATOM     50  C   UNL     1       8.213  40.133  -6.685  1.00  0.00     0.014 C 
ATOM     51  C   UNL     1       8.382  37.877  -9.664  1.00  0.00     0.171 C 
ATOM     52  C   UNL     1       6.240  38.602  -8.374  1.00  0.00     0.013 C 
ATOM     53  C   UNL     1       6.771  39.814  -6.121  1.00  0.00    -0.035 C 
ATOM     54  C   UNL     1       6.091  38.598  -6.839  1.00  0.00     0.007 C 
ATOM     55  C   UNL     1       5.861  41.060  -6.254  1.00  0.00     0.011 C 
ATOM     56  C   UNL     1       6.887  39.476  -4.619  1.00  0.00     0.011 C 
BRANCH  29  57
ATOM     57  C   UNL     1      14.806  38.489 -14.125  1.00  0.00     0.165 C 
BRANCH  57  58
ATOM     58  O   UNL     1      14.118  39.711 -14.121  1.00  0.00    -0.396 OA
ATOM     59  H   UNL     1      13.192  39.505 -13.835  1.00  0.00     0.210 HD
ENDBRANCH  57  58
ENDBRANCH  29  57
BRANCH  48  60
ATOM     60  O   UNL     1       6.791  40.236 -10.794  1.00  0.00    -0.392 OA
ATOM     61  H   UNL     1       5.849  40.175 -10.472  1.00  0.00     0.210 HD
ENDBRANCH  48  60
ENDBRANCH  26  27
ENDBRANCH   6  26
BRANCH   5  62
ATOM     62  O   UNL     1      14.500  40.900 -11.374  1.00  0.00    -0.385 OA
ATOM     63  H   UNL     1      13.765  40.463 -11.874  1.00  0.00     0.211 HD
ENDBRANCH   5  62
TORSDOF 14
ENDMDL
MODEL 2
REMARK VINA RESULT:    75.886      2.196      3.662
REMARK INTER + INTRA:         126.171
REMARK INTER:                 117.516
REMARK INTRA:                   8.654
REMARK UNBOUND:                 5.921
REMARK SMILES C[C@H]1O[C@@H](O[C@H]2CC[C@]3(C)[C@H](CC[C@]4(C)[C@H]3C=C[C@@]35OC[C@]6(CCC(C)(C)C[C@@H]63)[C@H](O)C[C@]45C)[C@@]2(C)CO)[C@@H](O)[C@H](O[C@@H]2O[C@H](CO)[C@H](O)[C@H](O)[C@H]2O)[C@@H]1O
REMARK SMILES IDX 1 1 2 2 54 3 41 4 39 5 4 6 3 7 55 8 42 10 43 11 52 12 44 13
REMARK SMILES IDX 50 14 45 15 48 16 53 17 51 19 46 21 47 22 49 24 5 26 6 27
REMARK SMILES IDX 7 28 35 29 8 30 11 31 36 32 9 33 12 34 10 35 16 36 13 37
REMARK SMILES IDX 14 38 17 39 15 40 33 41 18 42 19 43 32 44 34 45 29 46 20 47
REMARK SMILES IDX 30 48 22 49 28 50 21 51 23 52 25 53 24 54 26 55 27 56 37 57
REMARK SMILES IDX 38 58 31 60 40 62
REMARK H PARENT 55 9 53 18 51 20 47 23 49 25 38 59 31 61 40 63
REMARK Flexibility Score: inf
ROOT
ATOM      1  C   UNL     1      19.032  39.865 -13.908  1.00  0.00     0.041 C 
ATOM      2  C   UNL     1      17.983  40.974 -13.821  1.00  0.00     0.150 C 
ATOM      3  C   UNL     1      18.425  42.138 -12.896  1.00  0.00     0.175 C 
ATOM      4  C   UNL     1      18.153  41.813 -11.427  1.00  0.00     0.186 C 
ATOM      5  C   UNL     1      16.671  41.454 -11.297  1.00  0.00     0.202 C 
ATOM      6  C   UNL     1      16.345  40.240 -12.194  1.00  0.00     0.282 C 
ATOM      7  O   UNL     1      16.674  40.462 -13.566  1.00  0.00    -0.344 OA
ENDROOT
BRANCH   3   8
ATOM      8  O   UNL     1      17.748  43.317 -13.250  1.00  0.00    -0.388 OA
ATOM      9  H   UNL     1      17.862  43.437 -14.231  1.00  0.00     0.211 HD
ENDBRANCH   3   8
BRANCH   4  10
ATOM     10  O   UNL     1      18.455  42.958 -10.634  1.00  0.00    -0.341 OA
BRANCH  10  11
ATOM     11  C   UNL     1      19.624  43.623 -11.080  1.00  0.00     0.282 C 
ATOM     12  C   UNL     1      20.681  43.566  -9.957  1.00  0.00     0.202 C 
ATOM     13  O   UNL     1      20.116  42.959 -12.239  1.00  0.00    -0.341 OA
ATOM     14  C   UNL     1      21.983  44.222 -10.442  1.00  0.00     0.179 C 
ATOM     15  C   UNL     1      21.246  43.627 -12.776  1.00  0.00     0.178 C 
ATOM     16  C   UNL     1      22.428  43.587 -11.772  1.00  0.00     0.177 C 
BRANCH  12  17
ATOM     17  O   UNL     1      20.222  44.252  -8.826  1.00  0.00    -0.385 OA
ATOM     18  H   UNL     1      19.236  44.085  -8.756  1.00  0.00     0.211 HD
ENDBRANCH  12  17
BRANCH  14  19
ATOM     19  O   UNL     1      22.976  44.063  -9.464  1.00  0.00    -0.387 OA
ATOM     20  H   UNL     1      23.385  44.963  -9.329  1.00  0.00     0.211 HD
ENDBRANCH  14  19
BRANCH  15  21
ATOM     21  C   UNL     1      21.627  42.974 -14.116  1.00  0.00     0.191 C 
BRANCH  21  22
ATOM     22  O   UNL     1      22.951  42.497 -14.096  1.00  0.00    -0.394 OA
ATOM     23  H   UNL     1      23.540  43.292 -14.042  1.00  0.00     0.210 HD
ENDBRANCH  21  22
ENDBRANCH  15  21
BRANCH  16  24
ATOM     24  O   UNL     1      22.831  42.260 -11.557  1.00  0.00    -0.387 OA
ATOM     25  H   UNL     1      23.813  42.269 -11.419  1.00  0.00     0.211 HD
ENDBRANCH  16  24
ENDBRANCH  10  11
ENDBRANCH   4  10
BRANCH   6  26
ATOM     26  O   UNL     1      16.975  39.064 -11.685  1.00  0.00    -0.346 OA
BRANCH  26  27
ATOM     27  C   UNL     1      16.375  37.851 -12.153  1.00  0.00     0.130 C 
ATOM     28  C   UNL     1      16.045  36.963 -10.935  1.00  0.00     0.033 C 
ATOM     29  C   UNL     1      15.071  38.160 -12.964  1.00  0.00     0.020 C 
ATOM     30  C   UNL     1      15.052  37.631  -9.978  1.00  0.00     0.010 C 
ATOM     31  C   UNL     1      14.017  38.831 -11.968  1.00  0.00     0.006 C 
ATOM     32  C   UNL     1      14.567  36.862 -13.678  1.00  0.00     0.017 C 
ATOM     33  C   UNL     1      13.707  38.100 -10.623  1.00  0.00    -0.022 C 
ATOM     34  C   UNL     1      12.721  39.303 -12.655  1.00  0.00     0.005 C 
ATOM     35  C   UNL     1      12.782  36.860 -10.821  1.00  0.00     0.012 C 
ATOM     36  C   UNL     1      13.030  39.136  -9.614  1.00  0.00     0.024 C 
ATOM     37  C   UNL     1      11.629  39.875 -11.725  1.00  0.00     0.008 C 
ATOM     38  C   UNL     1      12.024  40.231 -10.236  1.00  0.00    -0.017 C 
ATOM     39  C   UNL     1      12.536  38.423  -8.346  1.00  0.00    -0.024 C 
ATOM     40  C   UNL     1      12.786  41.601 -10.364  1.00  0.00     0.013 C 
ATOM     41  C   UNL     1      10.734  40.450  -9.257  1.00  0.00     0.009 C 
ATOM     42  C   UNL     1      11.249  38.356  -7.979  1.00  0.00     0.005 C 
ATOM     43  C   UNL     1      10.190  39.037  -8.798  1.00  0.00     0.096 C 
ATOM     44  C   UNL     1       9.572  41.284  -9.945  1.00  0.00     0.043 C 
ATOM     45  C   UNL     1      11.229  41.263  -7.995  1.00  0.00     0.015 C 
ATOM     46  C   UNL     1       8.817  39.030  -8.094  1.00  0.00     0.037 C 
ATOM     47  O   UNL     1       9.965  38.230  -9.936  1.00  0.00    -0.369 OA
ATOM     48  C   UNL     1       8.098  40.778  -9.763  1.00  0.00     0.124 C 
ATOM     49  C   UNL     1       7.930  39.295  -9.279  1.00  0.00     0.026 C 
ATOM     50  C   UNL     1       8.408  39.879  -6.869  1.00  0.00     0.014 C 
ATOM     51  C   UNL     1       8.588  38.318 -10.264  1.00  0.00     0.171 C 
ATOM     52  C   UNL     1       6.433  38.978  -8.962  1.00  0.00     0.013 C 
ATOM     53  C   UNL     1       6.903  39.606  -6.469  1.00  0.00    -0.035 C 
ATOM     54  C   UNL     1       6.166  38.657  -7.477  1.00  0.00     0.007 C 
ATOM     55  C   UNL     1       6.130  40.944  -6.369  1.00  0.00     0.011 C 
ATOM     56  C   UNL     1       6.869  38.940  -5.077  1.00  0.00     0.011 C 
BRANCH  29  57
ATOM     57  C   UNL     1      15.366  39.170 -14.122  1.00  0.00     0.165 C 
BRANCH  57  58
ATOM     58  O   UNL     1      14.483  40.259 -14.111  1.00  0.00    -0.396 OA
ATOM     59  H   UNL     1      13.666  39.957 -14.582  1.00  0.00     0.210 HD
ENDBRANCH  57  58
ENDBRANCH  29  57
BRANCH  48  60
ATOM     60  O   UNL     1       7.322  41.027 -10.921  1.00  0.00    -0.392 OA
ATOM     61  H   UNL     1       7.170  42.009 -10.999  1.00  0.00     0.210 HD
ENDBRANCH  48  60
ENDBRANCH  26  27
ENDBRANCH   6  26
BRANCH   5  62
ATOM     62  O   UNL     1      16.379  41.156  -9.960  1.00  0.00    -0.385 OA
ATOM     63  H   UNL     1      16.538  41.980  -9.434  1.00  0.00     0.211 HD
ENDBRANCH   5  62
TORSDOF 14
ENDMDL
MODEL 3
REMARK VINA RESULT:    76.508      1.496      2.061
REMARK INTER + INTRA:         127.156
REMARK INTER:                 118.326
REMARK INTRA:                   8.831
REMARK UNBOUND:                 5.921
REMARK SMILES C[C@H]1O[C@@H](O[C@H]2CC[C@]3(C)[C@H](CC[C@]4(C)[C@H]3C=C[C@@]35OC[C@]6(CCC(C)(C)C[C@@H]63)[C@H](O)C[C@]45C)[C@@]2(C)CO)[C@@H](O)[C@H](O[C@@H]2O[C@H](CO)[C@H](O)[C@H](O)[C@H]2O)[C@@H]1O
REMARK SMILES IDX 1 1 2 2 54 3 41 4 39 5 4 6 3 7 55 8 42 10 43 11 52 12 44 13
REMARK SMILES IDX 50 14 45 15 48 16 53 17 51 19 46 21 47 22 49 24 5 26 6 27
REMARK SMILES IDX 7 28 35 29 8 30 11 31 36 32 9 33 12 34 10 35 16 36 13 37
REMARK SMILES IDX 14 38 17 39 15 40 33 41 18 42 19 43 32 44 34 45 29 46 20 47
REMARK SMILES IDX 30 48 22 49 28 50 21 51 23 52 25 53 24 54 26 55 27 56 37 57
REMARK SMILES IDX 38 58 31 60 40 62
REMARK H PARENT 55 9 53 18 51 20 47 23 49 25 38 59 31 61 40 63
REMARK Flexibility Score: inf
ROOT
ATOM      1  C   UNL     1      16.853  37.707 -12.077  1.00  0.00     0.041 C 
ATOM      2  C   UNL     1      17.536  38.877 -12.784  1.00  0.00     0.150 C 
ATOM      3  C   UNL     1      17.657  40.130 -11.876  1.00  0.00     0.175 C 
ATOM      4  C   UNL     1      16.359  40.936 -11.868  1.00  0.00     0.186 C 
ATOM      5  C   UNL     1      16.005  41.263 -13.320  1.00  0.00     0.202 C 
ATOM      6  C   UNL     1      15.829  39.956 -14.124  1.00  0.00     0.282 C 
ATOM      7  O   UNL     1      16.988  39.121 -14.081  1.00  0.00    -0.344 OA
ENDROOT
BRANCH   3   8
ATOM      8  O   UNL     1      18.714  40.943 -12.318  1.00  0.00    -0.388 OA
ATOM      9  H   UNL     1      19.365  40.352 -12.782  1.00  0.00     0.211 HD
ENDBRANCH   3   8
BRANCH   4  10
ATOM     10  O   UNL     1      16.562  42.136 -11.127  1.00  0.00    -0.341 OA
BRANCH  10  11
ATOM     11  C   UNL     1      15.618  42.285 -10.081  1.00  0.00     0.282 C 
ATOM     12  C   UNL     1      16.300  43.014  -8.904  1.00  0.00     0.202 C 
ATOM     13  O   UNL     1      14.524  43.060 -10.558  1.00  0.00    -0.341 OA
ATOM     14  C   UNL     1      15.276  43.249  -7.782  1.00  0.00     0.179 C 
ATOM     15  C   UNL     1      13.509  43.180  -9.575  1.00  0.00     0.178 C 
ATOM     16  C   UNL     1      14.034  43.964  -8.345  1.00  0.00     0.177 C 
BRANCH  12  17
ATOM     17  O   UNL     1      17.353  42.240  -8.402  1.00  0.00    -0.385 OA
ATOM     18  H   UNL     1      17.347  42.340  -7.404  1.00  0.00     0.211 HD
ENDBRANCH  12  17
BRANCH  14  19
ATOM     19  O   UNL     1      15.867  44.013  -6.766  1.00  0.00    -0.387 OA
ATOM     20  H   UNL     1      15.226  44.748  -6.557  1.00  0.00     0.211 HD
ENDBRANCH  14  19
BRANCH  15  21
ATOM     21  C   UNL     1      12.284  43.871 -10.198  1.00  0.00     0.191 C 
BRANCH  21  22
ATOM     22  O   UNL     1      12.638  44.609 -11.343  1.00  0.00    -0.394 OA
ATOM     23  H   UNL     1      12.679  45.560 -11.069  1.00  0.00     0.210 HD
ENDBRANCH  21  22
ENDBRANCH  15  21
BRANCH  16  24
ATOM     24  O   UNL     1      14.367  45.276  -8.716  1.00  0.00    -0.387 OA
ATOM     25  H   UNL     1      13.928  45.886  -8.070  1.00  0.00     0.211 HD
ENDBRANCH  16  24
ENDBRANCH  10  11
ENDBRANCH   4  10
BRANCH   6  26
ATOM     26  O   UNL     1      14.662  39.260 -13.690  1.00  0.00    -0.346 OA
BRANCH  26  27
ATOM     27  C   UNL     1      14.939  38.223 -12.742  1.00  0.00     0.130 C 
ATOM     28  C   UNL     1      15.209  38.873 -11.368  1.00  0.00     0.033 C 
ATOM     29  C   UNL     1      13.730  37.233 -12.641  1.00  0.00     0.020 C 
ATOM     30  C   UNL     1      14.004  39.665 -10.849  1.00  0.00     0.010 C 
ATOM     31  C   UNL     1      12.474  38.042 -12.073  1.00  0.00     0.006 C 
ATOM     32  C   UNL     1      14.137  35.978 -11.800  1.00  0.00     0.017 C 
ATOM     33  C   UNL     1      12.662  38.867 -10.760  1.00  0.00    -0.022 C 
ATOM     34  C   UNL     1      11.170  37.223 -12.033  1.00  0.00     0.005 C 
ATOM     35  C   UNL     1      12.695  37.962  -9.490  1.00  0.00     0.012 C 
ATOM     36  C   UNL     1      11.481  39.933 -10.644  1.00  0.00     0.024 C 
ATOM     37  C   UNL     1       9.946  37.926 -11.406  1.00  0.00     0.008 C 
ATOM     38  C   UNL     1      10.022  39.487 -11.163  1.00  0.00    -0.017 C 
ATOM     39  C   UNL     1      11.513  40.641  -9.281  1.00  0.00    -0.024 C 
ATOM     40  C   UNL     1       9.783  40.104 -12.590  1.00  0.00     0.013 C 
ATOM     41  C   UNL     1       8.856  40.045 -10.161  1.00  0.00     0.009 C 
ATOM     42  C   UNL     1      10.534  40.557  -8.370  1.00  0.00     0.005 C 
ATOM     43  C   UNL     1       9.289  39.769  -8.665  1.00  0.00     0.096 C 
ATOM     44  C   UNL     1       7.436  39.398 -10.445  1.00  0.00     0.043 C 
ATOM     45  C   UNL     1       8.733  41.603 -10.398  1.00  0.00     0.015 C 
ATOM     46  C   UNL     1       8.203  39.977  -7.590  1.00  0.00     0.037 C 
ATOM     47  O   UNL     1       9.621  38.402  -8.518  1.00  0.00    -0.369 OA
ATOM     48  C   UNL     1       6.581  38.932  -9.215  1.00  0.00     0.124 C 
ATOM     49  C   UNL     1       7.353  38.765  -7.859  1.00  0.00     0.026 C 
ATOM     50  C   UNL     1       7.344  41.245  -7.385  1.00  0.00     0.014 C 
ATOM     51  C   UNL     1       8.484  37.735  -7.995  1.00  0.00     0.171 C 
ATOM     52  C   UNL     1       6.363  38.481  -6.685  1.00  0.00     0.013 C 
ATOM     53  C   UNL     1       6.319  41.049  -6.197  1.00  0.00    -0.035 C 
ATOM     54  C   UNL     1       6.332  39.593  -5.615  1.00  0.00     0.007 C 
ATOM     55  C   UNL     1       4.885  41.397  -6.671  1.00  0.00     0.011 C 
ATOM     56  C   UNL     1       6.685  42.021  -5.056  1.00  0.00     0.011 C 
BRANCH  29  57
ATOM     57  C   UNL     1      13.356  36.671 -14.052  1.00  0.00     0.165 C 
BRANCH  57  58
ATOM     58  O   UNL     1      13.510  35.279 -14.124  1.00  0.00    -0.396 OA
ATOM     59  H   UNL     1      13.105  34.914 -13.297  1.00  0.00     0.210 HD
ENDBRANCH  57  58
ENDBRANCH  29  57
BRANCH  48  60
ATOM     60  O   UNL     1       5.830  37.772  -9.521  1.00  0.00    -0.392 OA
ATOM     61  H   UNL     1       6.000  37.521 -10.470  1.00  0.00     0.210 HD
ENDBRANCH  48  60
ENDBRANCH  26  27
ENDBRANCH   6  26
BRANCH   5  62
ATOM     62  O   UNL     1      14.822  42.011 -13.355  1.00  0.00    -0.385 OA
ATOM     63  H   UNL     1      14.348  41.852 -12.500  1.00  0.00     0.211 HD
ENDBRANCH   5  62
TORSDOF 14
ENDMDL
