MODEL 1
REMARK VINA RESULT:    45.205      0.000      0.000
REMARK INTER + INTRA:          51.438
REMARK INTER:                  49.169
REMARK INTRA:                   2.269
REMARK UNBOUND:                 2.269
REMARK SMILES C[C@@H]1[C@@H](C)CC[C@]2(C(=O)[O-])CC[C@]3(C)C(=CC[C@@H]4[C@@]5(C)CC[C@H](O)C(C)(C)[C@H]5CC[C@@]43C)[C@@H]12
REMARK SMILES IDX 7 1 6 2 11 3 33 4 5 5 12 6 15 7 2 8 3 9 13 10 16 11 1 12
REMARK SMILES IDX 4 13 14 14 31 15 17 16 18 17 30 18 32 19 19 20 29 21 28 22
REMARK SMILES IDX 21 23 20 24 25 25 22 26 23 27 26 28 27 29 8 30 9 31 10 32
REMARK SMILES IDX 24 33
REMARK H PARENT 24 34
REMARK Flexibility Score: inf
ROOT
ATOM      1  C   UNL     1      38.465 112.197 -17.537  1.00  0.00     0.017 C 
ATOM      2  C   UNL     1      36.979 112.058 -17.951  1.00  0.00     0.014 C 
ATOM      3  C   UNL     1      39.256 110.954 -18.080  1.00  0.00     0.014 C 
ATOM      4  C   UNL     1      38.556 112.175 -15.972  1.00  0.00     0.030 C 
ATOM      5  C   UNL     1      36.081 113.109 -17.281  1.00  0.00     0.004 C 
ATOM      6  C   UNL     1      40.715 110.844 -17.532  1.00  0.00     0.013 C 
ATOM      7  C   UNL     1      40.039 112.167 -15.588  1.00  0.00    -0.063 C 
ATOM      8  C   UNL     1      37.637 113.209 -15.246  1.00  0.00    -0.003 C 
ATOM      9  C   UNL     1      36.167 113.047 -15.740  1.00  0.00    -0.011 C 
ATOM     10  C   UNL     1      40.834 110.911 -15.961  1.00  0.00    -0.006 C 
ATOM     11  C   UNL     1      40.682 113.348 -15.537  1.00  0.00    -0.027 C 
ATOM     12  C   UNL     1      37.731 113.015 -13.718  1.00  0.00     0.008 C 
ATOM     13  C   UNL     1      35.233 114.115 -15.142  1.00  0.00     0.008 C 
ATOM     14  C   UNL     1      40.120 109.626 -15.406  1.00  0.00     0.017 C 
ATOM     15  C   UNL     1      42.363 110.974 -15.352  1.00  0.00    -0.020 C 
ATOM     16  C   UNL     1      42.114 113.481 -15.952  1.00  0.00     0.032 C 
ATOM     17  C   UNL     1      42.991 112.445 -15.228  1.00  0.00     0.006 C 
ATOM     18  C   UNL     1      43.311 110.050 -16.171  1.00  0.00     0.008 C 
ATOM     19  C   UNL     1      42.343 110.419 -13.885  1.00  0.00     0.012 C 
ATOM     20  C   UNL     1      44.582 112.599 -15.494  1.00  0.00    -0.025 C 
ATOM     21  C   UNL     1      44.054 110.780 -17.290  1.00  0.00     0.005 C 
ATOM     22  C   UNL     1      45.087 111.833 -16.792  1.00  0.00     0.003 C 
ATOM     23  C   UNL     1      45.402 112.170 -14.211  1.00  0.00     0.010 C 
ATOM     24  C   UNL     1      44.894 114.123 -15.681  1.00  0.00     0.012 C 
ATOM     25  C   UNL     1      46.583 111.298 -16.721  1.00  0.00    -0.006 C 
ATOM     26  C   UNL     1      46.081 110.786 -14.202  1.00  0.00     0.033 C 
ATOM     27  C   UNL     1      46.758 110.323 -15.518  1.00  0.00     0.120 C 
ATOM     28  C   UNL     1      46.970 110.550 -18.036  1.00  0.00     0.014 C 
ATOM     29  C   UNL     1      47.597 112.476 -16.614  1.00  0.00     0.014 C 
ENDROOT
BRANCH   1  30
ATOM     30  C   UNL     1      39.035 113.474 -18.171  1.00  0.00     0.048 C 
ATOM     31  O   UNL     1      39.959 114.116 -17.601  1.00  0.00    -0.550 OA
ATOM     32  O   UNL     1      38.622 113.906 -19.425  1.00  0.00    -0.550 OA
ENDBRANCH   1  30
BRANCH  27  33
ATOM     33  O   UNL     1      48.122 110.076 -15.269  1.00  0.00    -0.393 OA
ATOM     34  H   UNL     1      48.643 110.739 -15.791  1.00  0.00     0.210 HD
ENDBRANCH  27  33
TORSDOF 2
ENDMDL
