MODEL 1
REMARK VINA RESULT:    -4.703      0.000      0.000
REMARK INTER + INTRA:          -8.831
REMARK INTER:                  -7.453
REMARK INTRA:                  -1.379
REMARK UNBOUND:                -1.379
REMARK SMILES CCCCCCCCCCCC(=O)[O-]
REMARK SMILES IDX 7 1 8 2 9 3 10 4 11 5 12 6 13 7 14 8 6 9 5 10 4 11 3 12 2 13
REMARK SMILES IDX 1 14
REMARK H PARENT
REMARK Flexibility Score: inf
ROOT
ATOM      1  C   UNL     1       7.060   4.506   7.607  1.00  0.00     0.000 C 
ENDROOT
BRANCH   1   2
ATOM      2  C   UNL     1       5.621   4.055   7.896  1.00  0.00     0.000 C 
BRANCH   2   3
ATOM      3  C   UNL     1       4.666   5.237   8.127  1.00  0.00     0.000 C 
BRANCH   3   4
ATOM      4  C   UNL     1       3.496   5.258   7.128  1.00  0.00     0.006 C 
BRANCH   4   5
ATOM      5  C   UNL     1       2.138   5.390   7.830  1.00  0.00     0.053 C 
BRANCH   5   6
ATOM      6  C   UNL     1       1.834   4.193   8.677  1.00  0.00     0.041 C 
ATOM      7  O   UNL     1       2.083   3.034   8.251  1.00  0.00    -0.550 OA
ATOM      8  O   UNL     1       1.241   4.355   9.923  1.00  0.00    -0.550 OA
ENDBRANCH   5   6
ENDBRANCH   4   5
ENDBRANCH   3   4
ENDBRANCH   2   3
ENDBRANCH   1   2
BRANCH   1   9
ATOM      9  C   UNL     1       7.389   5.804   8.355  1.00  0.00     0.000 C 
BRANCH   9  10
ATOM     10  C   UNL     1       8.526   6.565   7.657  1.00  0.00    -0.000 C 
BRANCH  10  11
ATOM     11  C   UNL     1       8.040   7.389   6.452  1.00  0.00    -0.000 C 
BRANCH  11  12
ATOM     12  C   UNL     1       6.634   7.999   6.608  1.00  0.00    -0.000 C 
BRANCH  12  13
ATOM     13  C   UNL     1       5.711   7.756   5.394  1.00  0.00    -0.003 C 
ATOM     14  C   UNL     1       6.093   6.501   4.610  1.00  0.00     0.004 C 
ENDBRANCH  12  13
ENDBRANCH  11  12
ENDBRANCH  10  11
ENDBRANCH   9  10
ENDBRANCH   1   9
TORSDOF 10
ENDMDL
MODEL 2
REMARK VINA RESULT:    -4.661      1.790      2.015
REMARK INTER + INTRA:          -8.764
REMARK INTER:                  -7.523
REMARK INTRA:                  -1.241
REMARK UNBOUND:                -1.379
REMARK SMILES CCCCCCCCCCCC(=O)[O-]
REMARK SMILES IDX 7 1 8 2 9 3 10 4 11 5 12 6 13 7 14 8 6 9 5 10 4 11 3 12 2 13
REMARK SMILES IDX 1 14
REMARK H PARENT
REMARK Flexibility Score: inf
ROOT
ATOM      1  C   UNL     1       7.653   4.664   7.859  1.00  0.00     0.000 C 
ENDROOT
BRANCH   1   2
ATOM      2  C   UNL     1       6.195   5.096   8.073  1.00  0.00     0.000 C 
BRANCH   2   3
ATOM      3  C   UNL     1       5.194   3.969   7.770  1.00  0.00     0.000 C 
BRANCH   3   4
ATOM      4  C   UNL     1       3.802   4.500   7.387  1.00  0.00     0.006 C 
BRANCH   4   5
ATOM      5  C   UNL     1       3.728   6.031   7.455  1.00  0.00     0.053 C 
BRANCH   5   6
ATOM      6  C   UNL     1       2.470   6.553   6.832  1.00  0.00     0.041 C 
ATOM      7  O   UNL     1       2.524   7.448   5.948  1.00  0.00    -0.550 OA
ATOM      8  O   UNL     1       1.235   6.078   7.256  1.00  0.00    -0.550 OA
ENDBRANCH   5   6
ENDBRANCH   4   5
ENDBRANCH   3   4
ENDBRANCH   2   3
ENDBRANCH   1   2
BRANCH   1   9
ATOM      9  C   UNL     1       8.614   5.834   8.104  1.00  0.00     0.000 C 
BRANCH   9  10
ATOM     10  C   UNL     1       8.007   7.154   7.605  1.00  0.00    -0.000 C 
BRANCH  10  11
ATOM     11  C   UNL     1       8.308   7.424   6.121  1.00  0.00    -0.000 C 
BRANCH  11  12
ATOM     12  C   UNL     1       7.361   8.430   5.439  1.00  0.00    -0.000 C 
BRANCH  12  13
ATOM     13  C   UNL     1       5.989   7.834   5.057  1.00  0.00    -0.003 C 
ATOM     14  C   UNL     1       6.105   6.428   4.467  1.00  0.00     0.004 C 
ENDBRANCH  12  13
ENDBRANCH  11  12
ENDBRANCH  10  11
ENDBRANCH   9  10
ENDBRANCH   1   9
TORSDOF 10
ENDMDL
MODEL 3
REMARK VINA RESULT:    -4.630      3.505      6.542
REMARK INTER + INTRA:          -8.715
REMARK INTER:                  -7.221
REMARK INTRA:                  -1.493
REMARK UNBOUND:                -1.379
REMARK SMILES CCCCCCCCCCCC(=O)[O-]
REMARK SMILES IDX 7 1 8 2 9 3 10 4 11 5 12 6 13 7 14 8 6 9 5 10 4 11 3 12 2 13
REMARK SMILES IDX 1 14
REMARK H PARENT
REMARK Flexibility Score: inf
ROOT
ATOM      1  C   UNL     1       1.309   8.951  11.338  1.00  0.00     0.000 C 
ENDROOT
BRANCH   1   2
ATOM      2  C   UNL     1       1.907   9.290   9.964  1.00  0.00     0.000 C 
BRANCH   2   3
ATOM      3  C   UNL     1       2.617   8.090   9.317  1.00  0.00     0.000 C 
BRANCH   3   4
ATOM      4  C   UNL     1       2.144   7.829   7.876  1.00  0.00     0.006 C 
BRANCH   4   5
ATOM      5  C   UNL     1       3.216   7.122   7.035  1.00  0.00     0.053 C 
BRANCH   5   6
ATOM      6  C   UNL     1       3.376   5.687   7.435  1.00  0.00     0.041 C 
ATOM      7  O   UNL     1       4.478   5.272   7.882  1.00  0.00    -0.550 OA
ATOM      8  O   UNL     1       2.318   4.800   7.279  1.00  0.00    -0.550 OA
ENDBRANCH   5   6
ENDBRANCH   4   5
ENDBRANCH   3   4
ENDBRANCH   2   3
ENDBRANCH   1   2
BRANCH   1   9
ATOM      9  C   UNL     1       1.596   7.492  11.717  1.00  0.00     0.000 C 
BRANCH   9  10
ATOM     10  C   UNL     1       0.436   6.899  12.531  1.00  0.00    -0.000 C 
BRANCH  10  11
ATOM     11  C   UNL     1      -0.381   5.866  11.736  1.00  0.00    -0.000 C 
BRANCH  11  12
ATOM     12  C   UNL     1       0.279   5.380  10.432  1.00  0.00    -0.000 C 
BRANCH  12  13
ATOM     13  C   UNL     1      -0.591   5.597   9.175  1.00  0.00    -0.003 C 
ATOM     14  C   UNL     1      -1.279   6.962   9.167  1.00  0.00     0.004 C 
ENDBRANCH  12  13
ENDBRANCH  11  12
ENDBRANCH  10  11
ENDBRANCH   9  10
ENDBRANCH   1   9
TORSDOF 10
ENDMDL
MODEL 4
REMARK VINA RESULT:    -4.607      2.832      3.390
REMARK INTER + INTRA:          -8.679
REMARK INTER:                  -7.298
REMARK INTRA:                  -1.381
REMARK UNBOUND:                -1.379
REMARK SMILES CCCCCCCCCCCC(=O)[O-]
REMARK SMILES IDX 7 1 8 2 9 3 10 4 11 5 12 6 13 7 14 8 6 9 5 10 4 11 3 12 2 13
REMARK SMILES IDX 1 14
REMARK H PARENT
REMARK Flexibility Score: inf
ROOT
ATOM      1  C   UNL     1       5.379   3.970   8.174  1.00  0.00     0.000 C 
ENDROOT
BRANCH   1   2
ATOM      2  C   UNL     1       4.370   5.115   8.354  1.00  0.00     0.000 C 
BRANCH   2   3
ATOM      3  C   UNL     1       3.462   5.300   7.129  1.00  0.00     0.000 C 
BRANCH   3   4
ATOM      4  C   UNL     1       3.325   6.775   6.710  1.00  0.00     0.006 C 
BRANCH   4   5
ATOM      5  C   UNL     1       3.519   7.732   7.893  1.00  0.00     0.053 C 
BRANCH   5   6
ATOM      6  C   UNL     1       3.578   9.160   7.446  1.00  0.00     0.041 C 
ATOM      7  O   UNL     1       2.540   9.872   7.457  1.00  0.00    -0.550 OA
ATOM      8  O   UNL     1       4.774   9.695   6.983  1.00  0.00    -0.550 OA
ENDBRANCH   5   6
ENDBRANCH   4   5
ENDBRANCH   3   4
ENDBRANCH   2   3
ENDBRANCH   1   2
BRANCH   1   9
ATOM      9  C   UNL     1       6.553   4.407   7.290  1.00  0.00     0.000 C 
BRANCH   9  10
ATOM     10  C   UNL     1       7.750   4.848   8.146  1.00  0.00    -0.000 C 
BRANCH  10  11
ATOM     11  C   UNL     1       8.264   6.249   7.775  1.00  0.00    -0.000 C 
BRANCH  11  12
ATOM     12  C   UNL     1       7.194   7.206   7.215  1.00  0.00    -0.000 C 
BRANCH  12  13
ATOM     13  C   UNL     1       7.461   7.658   5.763  1.00  0.00    -0.003 C 
ATOM     14  C   UNL     1       6.406   7.141   4.784  1.00  0.00     0.004 C 
ENDBRANCH  12  13
ENDBRANCH  11  12
ENDBRANCH  10  11
ENDBRANCH   9  10
ENDBRANCH   1   9
TORSDOF 10
ENDMDL
MODEL 5
REMARK VINA RESULT:    -4.607      4.174      6.936
REMARK INTER + INTRA:          -8.678
REMARK INTER:                  -7.384
REMARK INTRA:                  -1.294
REMARK UNBOUND:                -1.379
REMARK SMILES CCCCCCCCCCCC(=O)[O-]
REMARK SMILES IDX 7 1 8 2 9 3 10 4 11 5 12 6 13 7 14 8 6 9 5 10 4 11 3 12 2 13
REMARK SMILES IDX 1 14
REMARK H PARENT
REMARK Flexibility Score: inf
ROOT
ATOM      1  C   UNL     1       1.249   9.040  11.374  1.00  0.00     0.000 C 
ENDROOT
BRANCH   1   2
ATOM      2  C   UNL     1       2.004   9.567  10.144  1.00  0.00     0.000 C 
BRANCH   2   3
ATOM      3  C   UNL     1       2.454   8.441   9.200  1.00  0.00     0.000 C 
BRANCH   3   4
ATOM      4  C   UNL     1       2.379   8.846   7.717  1.00  0.00     0.006 C 
BRANCH   4   5
ATOM      5  C   UNL     1       3.041   7.808   6.800  1.00  0.00     0.053 C 
BRANCH   5   6
ATOM      6  C   UNL     1       4.534   7.910   6.835  1.00  0.00     0.041 C 
ATOM      7  O   UNL     1       5.120   8.861   6.253  1.00  0.00    -0.550 OA
ATOM      8  O   UNL     1       5.283   6.934   7.481  1.00  0.00    -0.550 OA
ENDBRANCH   5   6
ENDBRANCH   4   5
ENDBRANCH   3   4
ENDBRANCH   2   3
ENDBRANCH   1   2
BRANCH   1   9
ATOM      9  C   UNL     1       1.624   7.581  11.663  1.00  0.00     0.000 C 
BRANCH   9  10
ATOM     10  C   UNL     1       0.486   6.860  12.403  1.00  0.00    -0.000 C 
BRANCH  10  11
ATOM     11  C   UNL     1      -0.282   5.878  11.501  1.00  0.00    -0.000 C 
BRANCH  11  12
ATOM     12  C   UNL     1       0.445   5.487  10.200  1.00  0.00    -0.000 C 
BRANCH  12  13
ATOM     13  C   UNL     1      -0.330   5.860   8.918  1.00  0.00    -0.003 C 
ATOM     14  C   UNL     1      -1.324   6.999   9.144  1.00  0.00     0.004 C 
ENDBRANCH  12  13
ENDBRANCH  11  12
ENDBRANCH  10  11
ENDBRANCH   9  10
ENDBRANCH   1   9
TORSDOF 10
ENDMDL
MODEL 6
REMARK VINA RESULT:    -4.602      2.555      3.226
REMARK INTER + INTRA:          -8.671
REMARK INTER:                  -7.217
REMARK INTRA:                  -1.454
REMARK UNBOUND:                -1.379
REMARK SMILES CCCCCCCCCCCC(=O)[O-]
REMARK SMILES IDX 7 1 8 2 9 3 10 4 11 5 12 6 13 7 14 8 6 9 5 10 4 11 3 12 2 13
REMARK SMILES IDX 1 14
REMARK H PARENT
REMARK Flexibility Score: inf
ROOT
ATOM      1  C   UNL     1       5.438   4.518   8.043  1.00  0.00     0.000 C 
ENDROOT
BRANCH   1   2
ATOM      2  C   UNL     1       4.533   5.028   6.911  1.00  0.00     0.000 C 
BRANCH   2   3
ATOM      3  C   UNL     1       3.791   6.321   7.284  1.00  0.00     0.000 C 
BRANCH   3   4
ATOM      4  C   UNL     1       4.313   6.947   8.589  1.00  0.00     0.006 C 
BRANCH   4   5
ATOM      5  C   UNL     1       4.297   8.481   8.541  1.00  0.00     0.053 C 
BRANCH   5   6
ATOM      6  C   UNL     1       2.908   9.015   8.372  1.00  0.00     0.041 C 
ATOM      7  O   UNL     1       2.034   8.801   9.253  1.00  0.00    -0.550 OA
ATOM      8  O   UNL     1       2.569   9.720   7.223  1.00  0.00    -0.550 OA
ENDBRANCH   5   6
ENDBRANCH   4   5
ENDBRANCH   3   4
ENDBRANCH   2   3
ENDBRANCH   1   2
BRANCH   1   9
ATOM      9  C   UNL     1       6.871   4.299   7.543  1.00  0.00     0.000 C 
BRANCH   9  10
ATOM     10  C   UNL     1       7.886   4.980   8.473  1.00  0.00    -0.000 C 
BRANCH  10  11
ATOM     11  C   UNL     1       8.611   6.159   7.801  1.00  0.00    -0.000 C 
BRANCH  11  12
ATOM     12  C   UNL     1       7.697   7.321   7.367  1.00  0.00    -0.000 C 
BRANCH  12  13
ATOM     13  C   UNL     1       7.814   7.679   5.870  1.00  0.00    -0.003 C 
ATOM     14  C   UNL     1       6.465   8.034   5.244  1.00  0.00     0.004 C 
ENDBRANCH  12  13
ENDBRANCH  11  12
ENDBRANCH  10  11
ENDBRANCH   9  10
ENDBRANCH   1   9
TORSDOF 10
ENDMDL
MODEL 7
REMARK VINA RESULT:    -4.557      4.382      7.077
REMARK INTER + INTRA:          -8.600
REMARK INTER:                  -7.514
REMARK INTRA:                  -1.087
REMARK UNBOUND:                -1.379
REMARK SMILES CCCCCCCCCCCC(=O)[O-]
REMARK SMILES IDX 7 1 8 2 9 3 10 4 11 5 12 6 13 7 14 8 6 9 5 10 4 11 3 12 2 13
REMARK SMILES IDX 1 14
REMARK H PARENT
REMARK Flexibility Score: inf
ROOT
ATOM      1  C   UNL     1       0.852   7.057  12.555  1.00  0.00     0.000 C 
ENDROOT
BRANCH   1   2
ATOM      2  C   UNL     1       1.664   8.343  12.338  1.00  0.00     0.000 C 
BRANCH   2   3
ATOM      3  C   UNL     1       1.146   9.177  11.156  1.00  0.00     0.000 C 
BRANCH   3   4
ATOM      4  C   UNL     1       2.269   9.597  10.190  1.00  0.00     0.006 C 
BRANCH   4   5
ATOM      5  C   UNL     1       2.662   8.463   9.233  1.00  0.00     0.053 C 
BRANCH   5   6
ATOM      6  C   UNL     1       2.531   8.878   7.800  1.00  0.00     0.041 C 
ATOM      7  O   UNL     1       2.463   8.009   6.891  1.00  0.00    -0.550 OA
ATOM      8  O   UNL     1       2.520  10.227   7.465  1.00  0.00    -0.550 OA
ENDBRANCH   5   6
ENDBRANCH   4   5
ENDBRANCH   3   4
ENDBRANCH   2   3
ENDBRANCH   1   2
BRANCH   1   9
ATOM      9  C   UNL     1      -0.089   6.796  11.372  1.00  0.00     0.000 C 
BRANCH   9  10
ATOM     10  C   UNL     1      -0.753   5.417  11.495  1.00  0.00    -0.000 C 
BRANCH  10  11
ATOM     11  C   UNL     1      -0.798   4.656  10.158  1.00  0.00    -0.000 C 
BRANCH  11  12
ATOM     12  C   UNL     1       0.266   5.087   9.131  1.00  0.00    -0.000 C 
BRANCH  12  13
ATOM     13  C   UNL     1       1.541   4.216   9.153  1.00  0.00    -0.003 C 
ATOM     14  C   UNL     1       2.737   4.943   9.768  1.00  0.00     0.004 C 
ENDBRANCH  12  13
ENDBRANCH  11  12
ENDBRANCH  10  11
ENDBRANCH   9  10
ENDBRANCH   1   9
TORSDOF 10
ENDMDL
MODEL 8
REMARK VINA RESULT:    -4.495      1.497      2.836
REMARK INTER + INTRA:          -8.501
REMARK INTER:                  -7.309
REMARK INTRA:                  -1.192
REMARK UNBOUND:                -1.379
REMARK SMILES CCCCCCCCCCCC(=O)[O-]
REMARK SMILES IDX 7 1 8 2 9 3 10 4 11 5 12 6 13 7 14 8 6 9 5 10 4 11 3 12 2 13
REMARK SMILES IDX 1 14
REMARK H PARENT
REMARK Flexibility Score: inf
ROOT
ATOM      1  C   UNL     1       8.503   6.633   7.261  1.00  0.00     0.000 C 
ENDROOT
BRANCH   1   2
ATOM      2  C   UNL     1       7.297   6.019   7.988  1.00  0.00     0.000 C 
BRANCH   2   3
ATOM      3  C   UNL     1       7.265   4.486   7.888  1.00  0.00     0.000 C 
BRANCH   3   4
ATOM      4  C   UNL     1       5.849   3.910   8.065  1.00  0.00     0.006 C 
BRANCH   4   5
ATOM      5  C   UNL     1       4.807   4.672   7.236  1.00  0.00     0.053 C 
BRANCH   5   6
ATOM      6  C   UNL     1       3.410   4.315   7.638  1.00  0.00     0.041 C 
ATOM      7  O   UNL     1       2.756   5.072   8.403  1.00  0.00    -0.550 OA
ATOM      8  O   UNL     1       2.842   3.126   7.197  1.00  0.00    -0.550 OA
ENDBRANCH   5   6
ENDBRANCH   4   5
ENDBRANCH   3   4
ENDBRANCH   2   3
ENDBRANCH   1   2
BRANCH   1   9
ATOM      9  C   UNL     1       8.055   7.726   6.282  1.00  0.00     0.000 C 
BRANCH   9  10
ATOM     10  C   UNL     1       6.723   7.351   5.615  1.00  0.00    -0.000 C 
BRANCH  10  11
ATOM     11  C   UNL     1       5.734   8.528   5.558  1.00  0.00    -0.000 C 
BRANCH  11  12
ATOM     12  C   UNL     1       5.352   9.122   6.927  1.00  0.00    -0.000 C 
BRANCH  12  13
ATOM     13  C   UNL     1       4.345   8.261   7.720  1.00  0.00    -0.003 C 
ATOM     14  C   UNL     1       2.898   8.513   7.297  1.00  0.00     0.004 C 
ENDBRANCH  12  13
ENDBRANCH  11  12
ENDBRANCH  10  11
ENDBRANCH   9  10
ENDBRANCH   1   9
TORSDOF 10
ENDMDL
MODEL 9
REMARK VINA RESULT:    -4.440      1.830      3.125
REMARK INTER + INTRA:          -8.414
REMARK INTER:                  -6.946
REMARK INTRA:                  -1.468
REMARK UNBOUND:                -1.379
REMARK SMILES CCCCCCCCCCCC(=O)[O-]
REMARK SMILES IDX 7 1 8 2 9 3 10 4 11 5 12 6 13 7 14 8 6 9 5 10 4 11 3 12 2 13
REMARK SMILES IDX 1 14
REMARK H PARENT
REMARK Flexibility Score: inf
ROOT
ATOM      1  C   UNL     1       2.593   8.116   7.500  1.00  0.00     0.000 C 
ENDROOT
BRANCH   1   2
ATOM      2  C   UNL     1       2.403   7.127   6.340  1.00  0.00     0.000 C 
BRANCH   2   3
ATOM      3  C   UNL     1       2.359   5.665   6.811  1.00  0.00     0.000 C 
BRANCH   3   4
ATOM      4  C   UNL     1       2.593   5.523   8.325  1.00  0.00     0.006 C 
BRANCH   4   5
ATOM      5  C   UNL     1       1.715   4.428   8.946  1.00  0.00     0.053 C 
BRANCH   5   6
ATOM      6  C   UNL     1       0.550   5.007   9.689  1.00  0.00     0.041 C 
ATOM      7  O   UNL     1      -0.625   4.663   9.394  1.00  0.00    -0.550 OA
ATOM      8  O   UNL     1       0.761   5.953  10.684  1.00  0.00    -0.550 OA
ENDBRANCH   5   6
ENDBRANCH   4   5
ENDBRANCH   3   4
ENDBRANCH   2   3
ENDBRANCH   1   2
BRANCH   1   9
ATOM      9  C   UNL     1       3.858   8.960   7.299  1.00  0.00     0.000 C 
BRANCH   9  10
ATOM     10  C   UNL     1       5.014   8.427   8.158  1.00  0.00    -0.000 C 
BRANCH  10  11
ATOM     11  C   UNL     1       6.166   7.852   7.316  1.00  0.00    -0.000 C 
BRANCH  11  12
ATOM     12  C   UNL     1       6.168   6.317   7.181  1.00  0.00    -0.000 C 
BRANCH  12  13
ATOM     13  C   UNL     1       5.927   5.818   5.740  1.00  0.00    -0.003 C 
ATOM     14  C   UNL     1       5.868   6.961   4.727  1.00  0.00     0.004 C 
ENDBRANCH  12  13
ENDBRANCH  11  12
ENDBRANCH  10  11
ENDBRANCH   9  10
ENDBRANCH   1   9
TORSDOF 10
ENDMDL
