MODEL 1
REMARK VINA RESULT:    -5.046      0.000      0.000
REMARK INTER + INTRA:          -5.437
REMARK INTER:                  -5.341
REMARK INTRA:                  -0.096
REMARK UNBOUND:                -0.096
REMARK SMILES C=C(C)[C@H]1CC=C(C)C(=O)C1
REMARK SMILES IDX 8 1 7 2 6 3 5 4 4 5 11 6 9 7 10 8 2 9 1 10 3 11
REMARK H PARENT
REMARK Flexibility Score: inf
ROOT
ATOM      1  C   UNL     1     -31.125  14.531 -31.263  1.00  0.00     0.048 C 
ATOM      2  C   UNL     1     -29.933  13.978 -30.530  1.00  0.00    -0.012 C 
ATOM      3  C   UNL     1     -30.093  12.960 -29.667  1.00  0.00    -0.019 C 
ATOM      4  C   UNL     1     -28.938  12.380 -28.894  1.00  0.00     0.036 C 
ATOM      5  C   UNL     1     -27.633  12.456 -29.708  1.00  0.00     0.025 C 
ATOM      6  C   UNL     1     -27.365  13.903 -30.158  1.00  0.00     0.089 C 
ATOM      7  C   UNL     1     -28.571  14.473 -30.852  1.00  0.00     0.158 C 
ATOM      8  O   UNL     1     -28.417  15.403 -31.688  1.00  0.00    -0.295 OA
ENDROOT
BRANCH   5   9
ATOM      9  C   UNL     1     -26.455  11.889 -28.926  1.00  0.00    -0.077 C 
ATOM     10  C   UNL     1     -25.207  12.008 -29.407  1.00  0.00     0.008 C 
ATOM     11  C   UNL     1     -26.653  11.190 -27.603  1.00  0.00     0.039 C 
ENDBRANCH   5   9
TORSDOF 1
ENDMDL
MODEL 2
REMARK VINA RESULT:    -5.009      1.672      4.361
REMARK INTER + INTRA:          -5.398
REMARK INTER:                  -5.300
REMARK INTRA:                  -0.098
REMARK UNBOUND:                -0.096
REMARK SMILES C=C(C)[C@H]1CC=C(C)C(=O)C1
REMARK SMILES IDX 8 1 7 2 6 3 5 4 4 5 11 6 9 7 10 8 2 9 1 10 3 11
REMARK H PARENT
REMARK Flexibility Score: inf
ROOT
ATOM      1  C   UNL     1     -27.964  11.373 -27.544  1.00  0.00     0.048 C 
ATOM      2  C   UNL     1     -28.438  12.180 -28.721  1.00  0.00    -0.012 C 
ATOM      3  C   UNL     1     -29.755  12.351 -28.929  1.00  0.00    -0.019 C 
ATOM      4  C   UNL     1     -30.284  13.132 -30.101  1.00  0.00     0.036 C 
ATOM      5  C   UNL     1     -29.327  14.278 -30.480  1.00  0.00     0.025 C 
ATOM      6  C   UNL     1     -27.911  13.730 -30.736  1.00  0.00     0.089 C 
ATOM      7  C   UNL     1     -27.453  12.887 -29.578  1.00  0.00     0.158 C 
ATOM      8  O   UNL     1     -26.218  12.757 -29.364  1.00  0.00    -0.295 OA
ENDROOT
BRANCH   5   9
ATOM      9  C   UNL     1     -29.845  15.063 -31.678  1.00  0.00    -0.077 C 
ATOM     10  C   UNL     1     -31.125  14.937 -32.063  1.00  0.00     0.008 C 
ATOM     11  C   UNL     1     -28.949  15.996 -32.454  1.00  0.00     0.039 C 
ENDBRANCH   5   9
TORSDOF 1
ENDMDL
MODEL 3
REMARK VINA RESULT:    -5.008      2.076      4.786
REMARK INTER + INTRA:          -5.397
REMARK INTER:                  -5.299
REMARK INTRA:                  -0.098
REMARK UNBOUND:                -0.096
REMARK SMILES C=C(C)[C@H]1CC=C(C)C(=O)C1
REMARK SMILES IDX 8 1 7 2 6 3 5 4 4 5 11 6 9 7 10 8 2 9 1 10 3 11
REMARK H PARENT
REMARK Flexibility Score: inf
ROOT
ATOM      1  C   UNL     1     -25.438  11.108 -27.869  1.00  0.00     0.048 C 
ATOM      2  C   UNL     1     -26.438  12.039 -28.498  1.00  0.00    -0.012 C 
ATOM      3  C   UNL     1     -26.022  12.984 -29.359  1.00  0.00    -0.019 C 
ATOM      4  C   UNL     1     -26.977  13.953 -30.004  1.00  0.00     0.036 C 
ATOM      5  C   UNL     1     -28.353  13.301 -30.238  1.00  0.00     0.025 C 
ATOM      6  C   UNL     1     -28.905  12.729 -28.920  1.00  0.00     0.089 C 
ATOM      7  C   UNL     1     -27.890  11.832 -28.267  1.00  0.00     0.158 C 
ATOM      8  O   UNL     1     -28.284  10.923 -27.488  1.00  0.00    -0.295 OA
ENDROOT
BRANCH   5   9
ATOM      9  C   UNL     1     -29.332  14.281 -30.872  1.00  0.00    -0.077 C 
ATOM     10  C   UNL     1     -30.650  14.157 -30.646  1.00  0.00     0.008 C 
ATOM     11  C   UNL     1     -28.857  15.405 -31.758  1.00  0.00     0.039 C 
ENDBRANCH   5   9
TORSDOF 1
ENDMDL
MODEL 4
REMARK VINA RESULT:    -4.931      1.383      2.027
REMARK INTER + INTRA:          -5.316
REMARK INTER:                  -5.218
REMARK INTRA:                  -0.098
REMARK UNBOUND:                -0.096
REMARK SMILES C=C(C)[C@H]1CC=C(C)C(=O)C1
REMARK SMILES IDX 8 1 7 2 6 3 5 4 4 5 11 6 9 7 10 8 2 9 1 10 3 11
REMARK H PARENT
REMARK Flexibility Score: inf
ROOT
ATOM      1  C   UNL     1     -30.849  14.986 -31.368  1.00  0.00     0.048 C 
ATOM      2  C   UNL     1     -29.684  14.179 -30.864  1.00  0.00    -0.012 C 
ATOM      3  C   UNL     1     -28.443  14.693 -30.914  1.00  0.00    -0.019 C 
ATOM      4  C   UNL     1     -27.239  13.923 -30.441  1.00  0.00     0.036 C 
ATOM      5  C   UNL     1     -27.603  12.996 -29.266  1.00  0.00     0.025 C 
ATOM      6  C   UNL     1     -28.770  12.071 -29.655  1.00  0.00     0.089 C 
ATOM      7  C   UNL     1     -29.920  12.873 -30.200  1.00  0.00     0.158 C 
ATOM      8  O   UNL     1     -31.087  12.405 -30.120  1.00  0.00    -0.295 OA
ENDROOT
BRANCH   5   9
ATOM      9  C   UNL     1     -26.395  12.197 -28.792  1.00  0.00    -0.077 C 
ATOM     10  C   UNL     1     -25.202  12.365 -29.386  1.00  0.00     0.008 C 
ATOM     11  C   UNL     1     -26.500  11.211 -27.656  1.00  0.00     0.039 C 
ENDBRANCH   5   9
TORSDOF 1
ENDMDL
MODEL 5
REMARK VINA RESULT:    -4.800      5.641      7.686
REMARK INTER + INTRA:          -5.177
REMARK INTER:                  -5.079
REMARK INTRA:                  -0.098
REMARK UNBOUND:                -0.096
REMARK SMILES C=C(C)[C@H]1CC=C(C)C(=O)C1
REMARK SMILES IDX 8 1 7 2 6 3 5 4 4 5 11 6 9 7 10 8 2 9 1 10 3 11
REMARK H PARENT
REMARK Flexibility Score: inf
ROOT
ATOM      1  C   UNL     1     -24.600  20.251 -33.489  1.00  0.00     0.048 C 
ATOM      2  C   UNL     1     -26.016  19.805 -33.248  1.00  0.00    -0.012 C 
ATOM      3  C   UNL     1     -27.014  20.313 -33.991  1.00  0.00    -0.019 C 
ATOM      4  C   UNL     1     -28.450  19.916 -33.780  1.00  0.00     0.036 C 
ATOM      5  C   UNL     1     -28.556  18.452 -33.311  1.00  0.00     0.025 C 
ATOM      6  C   UNL     1     -27.698  18.230 -32.053  1.00  0.00     0.089 C 
ATOM      7  C   UNL     1     -26.293  18.716 -32.278  1.00  0.00     0.158 C 
ATOM      8  O   UNL     1     -25.354  18.212 -31.606  1.00  0.00    -0.295 OA
ENDROOT
BRANCH   5   9
ATOM      9  C   UNL     1     -30.005  18.047 -33.076  1.00  0.00    -0.077 C 
ATOM     10  C   UNL     1     -30.929  18.981 -32.795  1.00  0.00     0.008 C 
ATOM     11  C   UNL     1     -30.441  16.605 -33.153  1.00  0.00     0.039 C 
ENDBRANCH   5   9
TORSDOF 1
ENDMDL
MODEL 6
REMARK VINA RESULT:    -4.781      6.110      7.420
REMARK INTER + INTRA:          -5.157
REMARK INTER:                  -5.064
REMARK INTRA:                  -0.093
REMARK UNBOUND:                -0.096
REMARK SMILES C=C(C)[C@H]1CC=C(C)C(=O)C1
REMARK SMILES IDX 8 1 7 2 6 3 5 4 4 5 11 6 9 7 10 8 2 9 1 10 3 11
REMARK H PARENT
REMARK Flexibility Score: inf
ROOT
ATOM      1  C   UNL     1     -29.574  18.049 -32.993  1.00  0.00     0.048 C 
ATOM      2  C   UNL     1     -28.214  18.648 -32.763  1.00  0.00    -0.012 C 
ATOM      3  C   UNL     1     -27.324  18.009 -31.983  1.00  0.00    -0.019 C 
ATOM      4  C   UNL     1     -25.956  18.572 -31.705  1.00  0.00     0.036 C 
ATOM      5  C   UNL     1     -25.432  19.375 -32.911  1.00  0.00     0.025 C 
ATOM      6  C   UNL     1     -26.442  20.466 -33.307  1.00  0.00     0.089 C 
ATOM      7  C   UNL     1     -27.812  19.876 -33.494  1.00  0.00     0.158 C 
ATOM      8  O   UNL     1     -28.633  20.457 -34.254  1.00  0.00    -0.295 OA
ENDROOT
BRANCH   5   9
ATOM      9  C   UNL     1     -24.056  19.965 -32.631  1.00  0.00    -0.077 C 
ATOM     10  C   UNL     1     -23.304  20.429 -33.642  1.00  0.00     0.008 C 
ATOM     11  C   UNL     1     -23.505  20.047 -31.229  1.00  0.00     0.039 C 
ENDBRANCH   5   9
TORSDOF 1
ENDMDL
MODEL 7
REMARK VINA RESULT:    -4.631      1.965      4.856
REMARK INTER + INTRA:          -4.998
REMARK INTER:                  -4.900
REMARK INTRA:                  -0.098
REMARK UNBOUND:                -0.096
REMARK SMILES C=C(C)[C@H]1CC=C(C)C(=O)C1
REMARK SMILES IDX 8 1 7 2 6 3 5 4 4 5 11 6 9 7 10 8 2 9 1 10 3 11
REMARK H PARENT
REMARK Flexibility Score: inf
ROOT
ATOM      1  C   UNL     1     -27.537  11.809 -28.649  1.00  0.00     0.048 C 
ATOM      2  C   UNL     1     -28.145  12.928 -29.449  1.00  0.00    -0.012 C 
ATOM      3  C   UNL     1     -27.350  13.825 -30.057  1.00  0.00    -0.019 C 
ATOM      4  C   UNL     1     -27.905  14.974 -30.855  1.00  0.00     0.036 C 
ATOM      5  C   UNL     1     -29.229  14.584 -31.540  1.00  0.00     0.025 C 
ATOM      6  C   UNL     1     -30.234  14.056 -30.500  1.00  0.00     0.089 C 
ATOM      7  C   UNL     1     -29.613  12.967 -29.670  1.00  0.00     0.158 C 
ATOM      8  O   UNL     1     -30.358  12.105 -29.130  1.00  0.00    -0.295 OA
ENDROOT
BRANCH   5   9
ATOM      9  C   UNL     1     -29.809  15.747 -32.334  1.00  0.00    -0.077 C 
ATOM     10  C   UNL     1     -31.120  15.778 -32.622  1.00  0.00     0.008 C 
ATOM     11  C   UNL     1     -28.940  16.885 -32.810  1.00  0.00     0.039 C 
ENDBRANCH   5   9
TORSDOF 1
ENDMDL
MODEL 8
REMARK VINA RESULT:    -4.617      1.743      3.795
REMARK INTER + INTRA:          -4.983
REMARK INTER:                  -4.893
REMARK INTRA:                  -0.090
REMARK UNBOUND:                -0.096
REMARK SMILES C=C(C)[C@H]1CC=C(C)C(=O)C1
REMARK SMILES IDX 8 1 7 2 6 3 5 4 4 5 11 6 9 7 10 8 2 9 1 10 3 11
REMARK H PARENT
REMARK Flexibility Score: inf
ROOT
ATOM      1  C   UNL     1     -23.985  14.993 -30.103  1.00  0.00     0.048 C 
ATOM      2  C   UNL     1     -25.269  14.214 -30.023  1.00  0.00    -0.012 C 
ATOM      3  C   UNL     1     -25.239  12.904 -29.722  1.00  0.00    -0.019 C 
ATOM      4  C   UNL     1     -26.492  12.073 -29.647  1.00  0.00     0.036 C 
ATOM      5  C   UNL     1     -27.685  12.913 -29.151  1.00  0.00     0.025 C 
ATOM      6  C   UNL     1     -27.864  14.161 -30.035  1.00  0.00     0.089 C 
ATOM      7  C   UNL     1     -26.570  14.917 -30.152  1.00  0.00     0.158 C 
ATOM      8  O   UNL     1     -26.601  16.153 -30.398  1.00  0.00    -0.295 OA
ENDROOT
BRANCH   5   9
ATOM      9  C   UNL     1     -28.962  12.086 -29.089  1.00  0.00    -0.077 C 
ATOM     10  C   UNL     1     -29.904  12.369 -28.176  1.00  0.00     0.008 C 
ATOM     11  C   UNL     1     -29.204  10.941 -30.041  1.00  0.00     0.039 C 
ENDBRANCH   5   9
TORSDOF 1
ENDMDL
