MODEL 1
REMARK VINA RESULT:    -3.199      0.000      0.000
REMARK INTER + INTRA:          -3.479
REMARK INTER:                  -3.479
REMARK INTRA:                   0.000
REMARK UNBOUND:                 0.000
REMARK SMILES [NH3+]CC(=O)[O-]
REMARK SMILES IDX 2 1 1 2 3 6 4 7 5 8
REMARK H PARENT 1 3 1 4 1 5
REMARK Flexibility Score: inf
ROOT
ATOM      1  C   UNL     1      10.191 -15.028 -20.901  1.00  0.00     0.312 C 
ENDROOT
BRANCH   1   2
ATOM      2  N   UNL     1       9.334 -13.982 -21.455  1.00  0.00    -0.353 N 
ATOM      3  H   UNL     1       8.640 -13.689 -20.730  1.00  0.00     0.344 HD
ATOM      4  H   UNL     1       9.909 -13.153 -21.729  1.00  0.00     0.344 HD
ATOM      5  H   UNL     1       8.818 -14.347 -22.289  1.00  0.00     0.344 HD
ENDBRANCH   1   2
BRANCH   1   6
ATOM      6  C   UNL     1      10.739 -14.612 -19.570  1.00  0.00     0.096 C 
ATOM      7  O   UNL     1      11.165 -15.478 -18.761  1.00  0.00    -0.544 OA
ATOM      8  O   UNL     1      10.732 -13.272 -19.205  1.00  0.00    -0.544 OA
ENDBRANCH   1   6
TORSDOF 2
ENDMDL
MODEL 2
REMARK VINA RESULT:    -3.189      0.291      1.478
REMARK INTER + INTRA:          -3.469
REMARK INTER:                  -3.469
REMARK INTRA:                   0.000
REMARK UNBOUND:                 0.000
REMARK SMILES [NH3+]CC(=O)[O-]
REMARK SMILES IDX 2 1 1 2 3 6 4 7 5 8
REMARK H PARENT 1 3 1 4 1 5
REMARK Flexibility Score: inf
ROOT
ATOM      1  C   UNL     1      10.051 -14.734 -20.909  1.00  0.00     0.312 C 
ENDROOT
BRANCH   1   2
ATOM      2  N   UNL     1       9.543 -13.520 -21.545  1.00  0.00    -0.353 N 
ATOM      3  H   UNL     1       8.626 -13.731 -22.002  1.00  0.00     0.344 HD
ATOM      4  H   UNL     1       9.401 -12.771 -20.829  1.00  0.00     0.344 HD
ATOM      5  H   UNL     1      10.217 -13.189 -22.275  1.00  0.00     0.344 HD
ENDBRANCH   1   2
BRANCH   1   6
ATOM      6  C   UNL     1      10.652 -14.419 -19.574  1.00  0.00     0.096 C 
ATOM      7  O   UNL     1      10.757 -13.224 -19.192  1.00  0.00    -0.544 OA
ATOM      8  O   UNL     1      11.142 -15.443 -18.774  1.00  0.00    -0.544 OA
ENDBRANCH   1   6
TORSDOF 2
ENDMDL
MODEL 3
REMARK VINA RESULT:    -3.099      1.823      2.303
REMARK INTER + INTRA:          -3.370
REMARK INTER:                  -3.370
REMARK INTRA:                   0.000
REMARK UNBOUND:                 0.000
REMARK SMILES [NH3+]CC(=O)[O-]
REMARK SMILES IDX 2 1 1 2 3 6 4 7 5 8
REMARK H PARENT 1 3 1 4 1 5
REMARK Flexibility Score: inf
ROOT
ATOM      1  C   UNL     1       9.945 -14.824 -20.419  1.00  0.00     0.312 C 
ENDROOT
BRANCH   1   2
ATOM      2  N   UNL     1      10.651 -15.682 -19.470  1.00  0.00    -0.353 N 
ATOM      3  H   UNL     1      10.291 -15.495 -18.506  1.00  0.00     0.344 HD
ATOM      4  H   UNL     1      10.487 -16.688 -19.704  1.00  0.00     0.344 HD
ATOM      5  H   UNL     1      11.676 -15.475 -19.495  1.00  0.00     0.344 HD
ENDBRANCH   1   2
BRANCH   1   6
ATOM      6  C   UNL     1      10.232 -13.380 -20.141  1.00  0.00     0.096 C 
ATOM      7  O   UNL     1       9.903 -12.497 -20.975  1.00  0.00    -0.544 OA
ATOM      8  O   UNL     1      10.907 -13.018 -18.983  1.00  0.00    -0.544 OA
ENDBRANCH   1   6
TORSDOF 2
ENDMDL
MODEL 4
REMARK VINA RESULT:    -3.091      1.636      2.213
REMARK INTER + INTRA:          -3.362
REMARK INTER:                  -3.362
REMARK INTRA:                   0.000
REMARK UNBOUND:                 0.000
REMARK SMILES [NH3+]CC(=O)[O-]
REMARK SMILES IDX 2 1 1 2 3 6 4 7 5 8
REMARK H PARENT 1 3 1 4 1 5
REMARK Flexibility Score: inf
ROOT
ATOM      1  C   UNL     1      10.548 -14.602 -21.568  1.00  0.00     0.312 C 
ENDROOT
BRANCH   1   2
ATOM      2  N   UNL     1      11.623 -14.225 -22.483  1.00  0.00    -0.353 N 
ATOM      3  H   UNL     1      12.229 -15.059 -22.662  1.00  0.00     0.344 HD
ATOM      4  H   UNL     1      11.223 -13.895 -23.391  1.00  0.00     0.344 HD
ATOM      5  H   UNL     1      12.207 -13.468 -22.057  1.00  0.00     0.344 HD
ENDBRANCH   1   2
BRANCH   1   6
ATOM      6  C   UNL     1      10.377 -13.567 -20.498  1.00  0.00     0.096 C 
ATOM      7  O   UNL     1       9.958 -12.417 -20.791  1.00  0.00    -0.544 OA
ATOM      8  O   UNL     1      10.729 -13.860 -19.187  1.00  0.00    -0.544 OA
ENDBRANCH   1   6
TORSDOF 2
ENDMDL
MODEL 5
REMARK VINA RESULT:    -2.936      1.649      1.649
REMARK INTER + INTRA:          -3.193
REMARK INTER:                  -3.193
REMARK INTRA:                   0.000
REMARK UNBOUND:                 0.000
REMARK SMILES [NH3+]CC(=O)[O-]
REMARK SMILES IDX 2 1 1 2 3 6 4 7 5 8
REMARK H PARENT 1 3 1 4 1 5
REMARK Flexibility Score: inf
ROOT
ATOM      1  C   UNL     1      10.130 -13.458 -21.510  1.00  0.00     0.312 C 
ENDROOT
BRANCH   1   2
ATOM      2  N   UNL     1      11.268 -13.934 -22.295  1.00  0.00    -0.353 N 
ATOM      3  H   UNL     1      11.088 -14.920 -22.595  1.00  0.00     0.344 HD
ATOM      4  H   UNL     1      11.393 -13.338 -23.145  1.00  0.00     0.344 HD
ATOM      5  H   UNL     1      12.138 -13.911 -21.714  1.00  0.00     0.344 HD
ENDBRANCH   1   2
BRANCH   1   6
ATOM      6  C   UNL     1      10.071 -14.157 -20.187  1.00  0.00     0.096 C 
ATOM      7  O   UNL     1       9.328 -15.161 -20.034  1.00  0.00    -0.544 OA
ATOM      8  O   UNL     1      10.799 -13.667 -19.110  1.00  0.00    -0.544 OA
ENDBRANCH   1   6
TORSDOF 2
ENDMDL
MODEL 6
REMARK VINA RESULT:    -2.930      3.246      3.710
REMARK INTER + INTRA:          -3.187
REMARK INTER:                  -3.187
REMARK INTRA:                   0.000
REMARK UNBOUND:                 0.000
REMARK SMILES [NH3+]CC(=O)[O-]
REMARK SMILES IDX 2 1 1 2 3 6 4 7 5 8
REMARK H PARENT 1 3 1 4 1 5
REMARK Flexibility Score: inf
ROOT
ATOM      1  C   UNL     1      10.593 -13.660 -23.308  1.00  0.00     0.312 C 
ENDROOT
BRANCH   1   2
ATOM      2  N   UNL     1      11.776 -14.192 -22.632  1.00  0.00    -0.353 N 
ATOM      3  H   UNL     1      12.633 -13.859 -23.130  1.00  0.00     0.344 HD
ATOM      4  H   UNL     1      11.806 -13.855 -21.642  1.00  0.00     0.344 HD
ATOM      5  H   UNL     1      11.758 -15.238 -22.649  1.00  0.00     0.344 HD
ENDBRANCH   1   2
BRANCH   1   6
ATOM      6  C   UNL     1      10.084 -12.442 -22.601  1.00  0.00     0.096 C 
ATOM      7  O   UNL     1      10.007 -12.424 -21.344  1.00  0.00    -0.544 OA
ATOM      8  O   UNL     1       9.647 -11.346 -23.333  1.00  0.00    -0.544 OA
ENDBRANCH   1   6
TORSDOF 2
ENDMDL
MODEL 7
REMARK VINA RESULT:    -2.739      6.738      7.201
REMARK INTER + INTRA:          -2.979
REMARK INTER:                  -2.979
REMARK INTRA:                   0.000
REMARK UNBOUND:                 0.000
REMARK SMILES [NH3+]CC(=O)[O-]
REMARK SMILES IDX 2 1 1 2 3 6 4 7 5 8
REMARK H PARENT 1 3 1 4 1 5
REMARK Flexibility Score: inf
ROOT
ATOM      1  C   UNL     1       9.092  -8.690 -24.584  1.00  0.00     0.312 C 
ENDROOT
BRANCH   1   2
ATOM      2  N   UNL     1       9.634  -7.733 -25.548  1.00  0.00    -0.353 N 
ATOM      3  H   UNL     1       8.865  -7.101 -25.871  1.00  0.00     0.344 HD
ATOM      4  H   UNL     1      10.382  -7.157 -25.101  1.00  0.00     0.344 HD
ATOM      5  H   UNL     1      10.024  -8.241 -26.376  1.00  0.00     0.344 HD
ENDBRANCH   1   2
BRANCH   1   6
ATOM      6  C   UNL     1       9.841  -9.986 -24.650  1.00  0.00     0.096 C 
ATOM      7  O   UNL     1      10.155 -10.480 -25.764  1.00  0.00    -0.544 OA
ATOM      8  O   UNL     1      10.145 -10.672 -23.481  1.00  0.00    -0.544 OA
ENDBRANCH   1   6
TORSDOF 2
ENDMDL
MODEL 8
REMARK VINA RESULT:    -2.606      2.380      2.748
REMARK INTER + INTRA:          -2.834
REMARK INTER:                  -2.834
REMARK INTRA:                   0.000
REMARK UNBOUND:                 0.000
REMARK SMILES [NH3+]CC(=O)[O-]
REMARK SMILES IDX 2 1 1 2 3 6 4 7 5 8
REMARK H PARENT 1 3 1 4 1 5
REMARK Flexibility Score: inf
ROOT
ATOM      1  C   UNL     1       9.813 -14.612 -19.885  1.00  0.00     0.312 C 
ENDROOT
BRANCH   1   2
ATOM      2  N   UNL     1      10.950 -15.435 -19.476  1.00  0.00    -0.353 N 
ATOM      3  H   UNL     1      11.143 -15.271 -18.461  1.00  0.00     0.344 HD
ATOM      4  H   UNL     1      10.732 -16.447 -19.621  1.00  0.00     0.344 HD
ATOM      5  H   UNL     1      11.799 -15.172 -20.029  1.00  0.00     0.344 HD
ENDBRANCH   1   2
BRANCH   1   6
ATOM      6  C   UNL     1      10.206 -13.678 -20.987  1.00  0.00     0.096 C 
ATOM      7  O   UNL     1       9.969 -12.445 -20.888  1.00  0.00    -0.544 OA
ATOM      8  O   UNL     1      10.789 -14.176 -22.145  1.00  0.00    -0.544 OA
ENDBRANCH   1   6
TORSDOF 2
ENDMDL
MODEL 9
REMARK VINA RESULT:    -2.584     13.908     14.055
REMARK INTER + INTRA:          -2.811
REMARK INTER:                  -2.811
REMARK INTRA:                   0.000
REMARK UNBOUND:                 0.000
REMARK SMILES [NH3+]CC(=O)[O-]
REMARK SMILES IDX 2 1 1 2 3 6 4 7 5 8
REMARK H PARENT 1 3 1 4 1 5
REMARK Flexibility Score: inf
ROOT
ATOM      1  C   UNL     1      22.991 -19.564 -25.451  1.00  0.00     0.312 C 
ENDROOT
BRANCH   1   2
ATOM      2  N   UNL     1      21.783 -18.851 -25.862  1.00  0.00    -0.353 N 
ATOM      3  H   UNL     1      22.001 -18.265 -26.701  1.00  0.00     0.344 HD
ATOM      4  H   UNL     1      21.030 -19.532 -26.110  1.00  0.00     0.344 HD
ATOM      5  H   UNL     1      21.456 -18.226 -25.089  1.00  0.00     0.344 HD
ENDBRANCH   1   2
BRANCH   1   6
ATOM      6  C   UNL     1      22.907 -19.959 -24.008  1.00  0.00     0.096 C 
ATOM      7  O   UNL     1      22.553 -21.124 -23.690  1.00  0.00    -0.544 OA
ATOM      8  O   UNL     1      23.169 -19.023 -23.016  1.00  0.00    -0.544 OA
ENDBRANCH   1   6
TORSDOF 2
ENDMDL
