MODEL 1
REMARK VINA RESULT:    -5.567      0.000      0.000
REMARK INTER + INTRA:         -11.773
REMARK INTER:                  -9.798
REMARK INTRA:                  -1.974
REMARK UNBOUND:                -1.974
REMARK SMILES COc1cc(-c2[o+]c3cc(O)cc(O[C@@H]4O[C@@H](CO)[C@@H](O)[C@@H](O)[C@H]4O)c3cc2O[C@@H]2O[C@@H](CO)[C@@H](O)[C@H](O)[C@@H]2O)ccc1O
REMARK SMILES IDX 6 1 28 2 27 3 26 4 13 5 12 6 10 7 9 8 8 9 7 10 5 11 3 12
REMARK SMILES IDX 43 13 4 14 42 15 41 16 2 17 1 18 44 19 29 21 30 22 39 23
REMARK SMILES IDX 31 24 37 25 32 26 35 27 40 28 38 30 33 32 34 33 36 35 14 37
REMARK SMILES IDX 15 38 24 39 16 40 22 41 17 42 20 43 25 44 23 46 18 48 19 49
REMARK SMILES IDX 21 51 11 53
REMARK H PARENT 44 20 40 29 38 31 34 34 36 36 25 45 23 47 19 50 21 52 11 54
REMARK Flexibility Score: inf
ROOT
ATOM      1  C   UNL     1      -4.655   5.823  14.008  1.00  0.00     0.402 A 
ATOM      2  C   UNL     1      -4.012   6.993  14.468  1.00  0.00     0.229 A 
ATOM      3  C   UNL     1      -2.849   6.854  15.242  1.00  0.00     0.079 A 
ATOM      4  C   UNL     1      -2.412   5.585  15.628  1.00  0.00     0.126 A 
ATOM      5  C   UNL     1      -1.303   5.413  16.479  1.00  0.00     0.143 A 
ATOM      6  C   UNL     1      -0.972   4.118  16.914  1.00  0.00     0.094 A 
ATOM      7  C   UNL     1      -1.723   3.012  16.489  1.00  0.00     0.128 A 
ATOM      8  C   UNL     1      -2.796   3.191  15.618  1.00  0.00     0.162 A 
ATOM      9  C   UNL     1      -3.157   4.471  15.200  1.00  0.00     0.368 A 
ATOM     10  O   UNL     1      -4.198   4.635  14.394  1.00  0.00    -0.202 OA
ENDROOT
BRANCH   1  11
ATOM     11  C   UNL     1      -5.843   5.838  13.099  1.00  0.00     0.087 A 
ATOM     12  C   UNL     1      -8.255   6.207  12.827  1.00  0.00     0.161 A 
ATOM     13  C   UNL     1      -8.149   5.859  11.469  1.00  0.00     0.157 A 
ATOM     14  C   UNL     1      -7.095   6.218  13.629  1.00  0.00     0.068 A 
ATOM     15  C   UNL     1      -6.915   5.470  10.942  1.00  0.00     0.051 A 
ATOM     16  C   UNL     1      -5.779   5.433  11.752  1.00  0.00     0.022 A 
BRANCH  12  17
ATOM     17  O   UNL     1      -9.519   6.516  13.348  1.00  0.00    -0.493 OA
ATOM     18  C   UNL     1      -9.928   6.255  14.691  1.00  0.00     0.278 C 
ENDBRANCH  12  17
BRANCH  13  19
ATOM     19  O   UNL     1      -9.262   5.865  10.627  1.00  0.00    -0.504 OA
ATOM     20  H   UNL     1      -9.970   6.587  10.682  1.00  0.00     0.293 HD
ENDBRANCH  13  19
ENDBRANCH   1  11
BRANCH   2  21
ATOM     21  O   UNL     1      -4.566   8.256  14.198  1.00  0.00    -0.452 OA
BRANCH  21  22
ATOM     22  C   UNL     1      -4.393   9.021  12.998  1.00  0.00     0.339 C 
ATOM     23  C   UNL     1      -4.174  10.534  13.331  1.00  0.00     0.214 C 
ATOM     24  O   UNL     1      -3.300   8.453  12.300  1.00  0.00    -0.332 OA
ATOM     25  C   UNL     1      -2.985  11.122  12.554  1.00  0.00     0.180 C 
ATOM     26  C   UNL     1      -3.012   9.092  11.057  1.00  0.00     0.179 C 
ATOM     27  C   UNL     1      -3.072  10.649  11.093  1.00  0.00     0.177 C 
BRANCH  23  28
ATOM     28  O   UNL     1      -3.969  10.737  14.708  1.00  0.00    -0.384 OA
ATOM     29  H   UNL     1      -4.833  11.046  15.090  1.00  0.00     0.211 HD
ENDBRANCH  23  28
BRANCH  25  30
ATOM     30  O   UNL     1      -1.781  10.681  13.136  1.00  0.00    -0.387 OA
ATOM     31  H   UNL     1      -1.938  10.655  14.117  1.00  0.00     0.211 HD
ENDBRANCH  25  30
BRANCH  26  32
ATOM     32  C   UNL     1      -3.764   8.444   9.877  1.00  0.00     0.191 C 
BRANCH  32  33
ATOM     33  O   UNL     1      -3.685   7.042   9.916  1.00  0.00    -0.394 OA
ATOM     34  H   UNL     1      -4.602   6.696  10.077  1.00  0.00     0.210 HD
ENDBRANCH  32  33
ENDBRANCH  26  32
BRANCH  27  35
ATOM     35  O   UNL     1      -4.259  11.125  10.502  1.00  0.00    -0.387 OA
ATOM     36  H   UNL     1      -4.626  10.393   9.940  1.00  0.00     0.211 HD
ENDBRANCH  27  35
ENDBRANCH  21  22
ENDBRANCH   2  21
BRANCH   5  37
ATOM     37  O   UNL     1      -0.581   6.549  16.878  1.00  0.00    -0.461 OA
BRANCH  37  38
ATOM     38  C   UNL     1       0.824   6.612  17.141  1.00  0.00     0.339 C 
ATOM     39  C   UNL     1       1.464   7.905  16.568  1.00  0.00     0.214 C 
ATOM     40  O   UNL     1       1.056   6.481  18.536  1.00  0.00    -0.332 OA
ATOM     41  C   UNL     1       1.025   9.140  17.371  1.00  0.00     0.180 C 
ATOM     42  C   UNL     1       0.474   7.557  19.253  1.00  0.00     0.179 C 
ATOM     43  C   UNL     1       1.160   8.900  18.890  1.00  0.00     0.177 C 
BRANCH  39  44
ATOM     44  O   UNL     1       2.865   7.797  16.590  1.00  0.00    -0.384 OA
ATOM     45  H   UNL     1       3.102   7.281  17.412  1.00  0.00     0.211 HD
ENDBRANCH  39  44
BRANCH  41  46
ATOM     46  O   UNL     1       1.780  10.251  16.973  1.00  0.00    -0.387 OA
ATOM     47  H   UNL     1       2.196  10.005  16.103  1.00  0.00     0.211 HD
ENDBRANCH  41  46
BRANCH  42  48
ATOM     48  C   UNL     1       0.533   7.270  20.760  1.00  0.00     0.191 C 
BRANCH  48  49
ATOM     49  O   UNL     1      -0.605   6.570  21.179  1.00  0.00    -0.394 OA
ATOM     50  H   UNL     1      -0.807   6.893  22.093  1.00  0.00     0.210 HD
ENDBRANCH  48  49
ENDBRANCH  42  48
BRANCH  43  51
ATOM     51  O   UNL     1       2.504   8.953  19.301  1.00  0.00    -0.387 OA
ATOM     52  H   UNL     1       2.698   9.859  19.638  1.00  0.00     0.211 HD
ENDBRANCH  43  51
ENDBRANCH  37  38
ENDBRANCH   5  37
BRANCH   7  53
ATOM     53  O   UNL     1      -1.414   1.732  16.947  1.00  0.00    -0.507 OA
ATOM     54  H   UNL     1      -1.819   0.907  16.517  1.00  0.00     0.293 HD
ENDBRANCH   7  53
TORSDOF 18
ENDMDL
MODEL 2
REMARK VINA RESULT:    -4.714      2.031      8.980
REMARK INTER + INTRA:         -10.271
REMARK INTER:                 -10.126
REMARK INTRA:                  -0.145
REMARK UNBOUND:                -1.974
REMARK SMILES COc1cc(-c2[o+]c3cc(O)cc(O[C@@H]4O[C@@H](CO)[C@@H](O)[C@@H](O)[C@H]4O)c3cc2O[C@@H]2O[C@@H](CO)[C@@H](O)[C@H](O)[C@@H]2O)ccc1O
REMARK SMILES IDX 6 1 28 2 27 3 26 4 13 5 12 6 10 7 9 8 8 9 7 10 5 11 3 12
REMARK SMILES IDX 43 13 4 14 42 15 41 16 2 17 1 18 44 19 29 21 30 22 39 23
REMARK SMILES IDX 31 24 37 25 32 26 35 27 40 28 38 30 33 32 34 33 36 35 14 37
REMARK SMILES IDX 15 38 24 39 16 40 22 41 17 42 20 43 25 44 23 46 18 48 19 49
REMARK SMILES IDX 21 51 11 53
REMARK H PARENT 44 20 40 29 38 31 34 34 36 36 25 45 23 47 19 50 21 52 11 54
REMARK Flexibility Score: inf
ROOT
ATOM      1  C   UNL     1      -2.059   8.763  13.848  1.00  0.00     0.402 A 
ATOM      2  C   UNL     1      -2.577   7.490  14.171  1.00  0.00     0.229 A 
ATOM      3  C   UNL     1      -3.669   7.008  13.432  1.00  0.00     0.079 A 
ATOM      4  C   UNL     1      -4.284   7.823  12.478  1.00  0.00     0.126 A 
ATOM      5  C   UNL     1      -5.436   7.406  11.783  1.00  0.00     0.143 A 
ATOM      6  C   UNL     1      -6.068   8.308  10.909  1.00  0.00     0.094 A 
ATOM      7  C   UNL     1      -5.545   9.595  10.717  1.00  0.00     0.128 A 
ATOM      8  C   UNL     1      -4.384   9.983  11.382  1.00  0.00     0.162 A 
ATOM      9  C   UNL     1      -3.760   9.112  12.275  1.00  0.00     0.368 A 
ATOM     10  O   UNL     1      -2.672   9.500  12.926  1.00  0.00    -0.202 OA
ENDROOT
BRANCH   1  11
ATOM     11  C   UNL     1      -0.843   9.347  14.495  1.00  0.00     0.087 A 
ATOM     12  C   UNL     1       0.926   9.133  16.185  1.00  0.00     0.161 A 
ATOM     13  C   UNL     1       1.437  10.386  15.799  1.00  0.00     0.157 A 
ATOM     14  C   UNL     1      -0.198   8.611  15.512  1.00  0.00     0.068 A 
ATOM     15  C   UNL     1       0.795  11.125  14.801  1.00  0.00     0.051 A 
ATOM     16  C   UNL     1      -0.347  10.625  14.174  1.00  0.00     0.022 A 
BRANCH  12  17
ATOM     17  O   UNL     1       1.541   8.451  17.243  1.00  0.00    -0.493 OA
ATOM     18  C   UNL     1       1.089   8.480  18.597  1.00  0.00     0.278 C 
ENDBRANCH  12  17
BRANCH  13  19
ATOM     19  O   UNL     1       2.566  10.930  16.411  1.00  0.00    -0.504 OA
ATOM     20  H   UNL     1       3.169  11.587  15.933  1.00  0.00     0.293 HD
ENDBRANCH  13  19
ENDBRANCH   1  11
BRANCH   2  21
ATOM     21  O   UNL     1      -2.039   6.759  15.244  1.00  0.00    -0.452 OA
BRANCH  21  22
ATOM     22  C   UNL     1      -2.178   5.351  15.468  1.00  0.00     0.339 C 
ATOM     23  C   UNL     1      -0.792   4.701  15.793  1.00  0.00     0.214 C 
ATOM     24  O   UNL     1      -3.114   5.190  16.518  1.00  0.00    -0.332 OA
ATOM     25  C   UNL     1      -0.870   3.777  17.019  1.00  0.00     0.180 C 
ATOM     26  C   UNL     1      -3.385   3.828  16.848  1.00  0.00     0.179 C 
ATOM     27  C   UNL     1      -2.131   2.905  16.898  1.00  0.00     0.177 C 
BRANCH  23  28
ATOM     28  O   UNL     1       0.198   5.676  16.014  1.00  0.00    -0.384 OA
ATOM     29  H   UNL     1      -0.250   6.563  15.970  1.00  0.00     0.211 HD
ENDBRANCH  23  28
BRANCH  25  30
ATOM     30  O   UNL     1      -0.929   4.557  18.190  1.00  0.00    -0.387 OA
ATOM     31  H   UNL     1      -1.164   3.936  18.929  1.00  0.00     0.211 HD
ENDBRANCH  25  30
BRANCH  26  32
ATOM     32  C   UNL     1      -4.576   3.257  16.051  1.00  0.00     0.191 C 
BRANCH  32  33
ATOM     33  O   UNL     1      -5.596   2.795  16.899  1.00  0.00    -0.394 OA
ATOM     34  H   UNL     1      -5.238   2.802  17.826  1.00  0.00     0.210 HD
ENDBRANCH  32  33
ENDBRANCH  26  32
BRANCH  27  35
ATOM     35  O   UNL     1      -2.049   2.098  15.746  1.00  0.00    -0.387 OA
ATOM     36  H   UNL     1      -2.766   1.415  15.810  1.00  0.00     0.211 HD
ENDBRANCH  27  35
ENDBRANCH  21  22
ENDBRANCH   2  21
BRANCH   5  37
ATOM     37  O   UNL     1      -5.922   6.109  12.007  1.00  0.00    -0.461 OA
BRANCH  37  38
ATOM     38  C   UNL     1      -7.269   5.751  12.332  1.00  0.00     0.339 C 
ATOM     39  C   UNL     1      -7.339   4.804  13.559  1.00  0.00     0.214 C 
ATOM     40  O   UNL     1      -8.043   6.926  12.527  1.00  0.00    -0.332 OA
ATOM     41  C   UNL     1      -6.983   5.551  14.853  1.00  0.00     0.180 C 
ATOM     42  C   UNL     1      -7.560   7.677  13.629  1.00  0.00     0.179 C 
ATOM     43  C   UNL     1      -7.741   6.892  14.955  1.00  0.00     0.177 C 
BRANCH  39  44
ATOM     44  O   UNL     1      -8.627   4.253  13.666  1.00  0.00    -0.384 OA
ATOM     45  H   UNL     1      -9.255   4.901  13.238  1.00  0.00     0.211 HD
ENDBRANCH  39  44
BRANCH  41  46
ATOM     46  O   UNL     1      -7.263   4.736  15.958  1.00  0.00    -0.387 OA
ATOM     47  H   UNL     1      -8.242   4.819  16.122  1.00  0.00     0.211 HD
ENDBRANCH  41  46
BRANCH  42  48
ATOM     48  C   UNL     1      -8.256   9.045  13.672  1.00  0.00     0.191 C 
BRANCH  48  49
ATOM     49  O   UNL     1      -9.645   8.895  13.766  1.00  0.00    -0.394 OA
ATOM     50  H   UNL     1      -9.851   8.001  13.394  1.00  0.00     0.210 HD
ENDBRANCH  48  49
ENDBRANCH  42  48
BRANCH  43  51
ATOM     51  O   UNL     1      -9.093   6.694  15.290  1.00  0.00    -0.387 OA
ATOM     52  H   UNL     1      -9.252   5.729  15.406  1.00  0.00     0.211 HD
ENDBRANCH  43  51
ENDBRANCH  37  38
ENDBRANCH   5  37
BRANCH   7  53
ATOM     53  O   UNL     1      -6.192  10.500   9.875  1.00  0.00    -0.507 OA
ATOM     54  H   UNL     1      -6.093  10.443   8.867  1.00  0.00     0.293 HD
ENDBRANCH   7  53
TORSDOF 18
ENDMDL
MODEL 3
REMARK VINA RESULT:    -4.619      0.993      1.627
REMARK INTER + INTRA:         -10.104
REMARK INTER:                  -8.157
REMARK INTRA:                  -1.947
REMARK UNBOUND:                -1.974
REMARK SMILES COc1cc(-c2[o+]c3cc(O)cc(O[C@@H]4O[C@@H](CO)[C@@H](O)[C@@H](O)[C@H]4O)c3cc2O[C@@H]2O[C@@H](CO)[C@@H](O)[C@H](O)[C@@H]2O)ccc1O
REMARK SMILES IDX 6 1 28 2 27 3 26 4 13 5 12 6 10 7 9 8 8 9 7 10 5 11 3 12
REMARK SMILES IDX 43 13 4 14 42 15 41 16 2 17 1 18 44 19 29 21 30 22 39 23
REMARK SMILES IDX 31 24 37 25 32 26 35 27 40 28 38 30 33 32 34 33 36 35 14 37
REMARK SMILES IDX 15 38 24 39 16 40 22 41 17 42 20 43 25 44 23 46 18 48 19 49
REMARK SMILES IDX 21 51 11 53
REMARK H PARENT 44 20 40 29 38 31 34 34 36 36 25 45 23 47 19 50 21 52 11 54
REMARK Flexibility Score: inf
ROOT
ATOM      1  C   UNL     1      -4.511   5.469  14.239  1.00  0.00     0.402 A 
ATOM      2  C   UNL     1      -3.939   6.676  14.699  1.00  0.00     0.229 A 
ATOM      3  C   UNL     1      -2.768   6.607  15.470  1.00  0.00     0.079 A 
ATOM      4  C   UNL     1      -2.254   5.365  15.855  1.00  0.00     0.126 A 
ATOM      5  C   UNL     1      -1.135   5.261  16.703  1.00  0.00     0.143 A 
ATOM      6  C   UNL     1      -0.726   3.987  17.137  1.00  0.00     0.094 A 
ATOM      7  C   UNL     1      -1.411   2.839  16.713  1.00  0.00     0.128 A 
ATOM      8  C   UNL     1      -2.495   2.953  15.845  1.00  0.00     0.162 A 
ATOM      9  C   UNL     1      -2.932   4.210  15.428  1.00  0.00     0.368 A 
ATOM     10  O   UNL     1      -3.983   4.311  14.625  1.00  0.00    -0.202 OA
ENDROOT
BRANCH   1  11
ATOM     11  C   UNL     1      -5.701   5.412  13.334  1.00  0.00     0.087 A 
ATOM     12  C   UNL     1      -8.139   5.242  13.103  1.00  0.00     0.161 A 
ATOM     13  C   UNL     1      -8.002   5.265  11.703  1.00  0.00     0.157 A 
ATOM     14  C   UNL     1      -6.987   5.340  13.910  1.00  0.00     0.068 A 
ATOM     15  C   UNL     1      -6.730   5.323  11.127  1.00  0.00     0.051 A 
ATOM     16  C   UNL     1      -5.590   5.370  11.931  1.00  0.00     0.022 A 
BRANCH  12  17
ATOM     17  O   UNL     1      -9.420   5.102  13.652  1.00  0.00    -0.493 OA
ATOM     18  C   UNL     1     -10.125   6.137  14.339  1.00  0.00     0.278 C 
ENDBRANCH  12  17
BRANCH  13  19
ATOM     19  O   UNL     1      -9.113   5.202  10.862  1.00  0.00    -0.504 OA
ATOM     20  H   UNL     1      -9.020   5.135   9.856  1.00  0.00     0.293 HD
ENDBRANCH  13  19
ENDBRANCH   1  11
BRANCH   2  21
ATOM     21  O   UNL     1      -4.568   7.903  14.430  1.00  0.00    -0.452 OA
BRANCH  21  22
ATOM     22  C   UNL     1      -4.414   8.695  13.246  1.00  0.00     0.339 C 
ATOM     23  C   UNL     1      -5.793   8.912  12.540  1.00  0.00     0.214 C 
ATOM     24  O   UNL     1      -3.807   9.913  13.640  1.00  0.00    -0.332 OA
ATOM     25  C   UNL     1      -6.013  10.384  12.157  1.00  0.00     0.180 C 
ATOM     26  C   UNL     1      -3.561  10.812  12.559  1.00  0.00     0.179 C 
ATOM     27  C   UNL     1      -4.719  10.925  11.523  1.00  0.00     0.177 C 
BRANCH  23  28
ATOM     28  O   UNL     1      -6.862   8.483  13.348  1.00  0.00    -0.384 OA
ATOM     29  H   UNL     1      -6.892   9.087  14.137  1.00  0.00     0.211 HD
ENDBRANCH  23  28
BRANCH  25  30
ATOM     30  O   UNL     1      -6.336  11.125  13.310  1.00  0.00    -0.387 OA
ATOM     31  H   UNL     1      -5.676  11.865  13.361  1.00  0.00     0.211 HD
ENDBRANCH  25  30
BRANCH  26  32
ATOM     32  C   UNL     1      -2.160  10.618  11.943  1.00  0.00     0.191 C 
BRANCH  32  33
ATOM     33  O   UNL     1      -1.145  11.057  12.808  1.00  0.00    -0.394 OA
ATOM     34  H   UNL     1      -1.558  11.687  13.456  1.00  0.00     0.210 HD
ENDBRANCH  32  33
ENDBRANCH  26  32
BRANCH  27  35
ATOM     35  O   UNL     1      -4.421  10.206  10.349  1.00  0.00    -0.387 OA
ATOM     36  H   UNL     1      -5.242   9.713  10.086  1.00  0.00     0.211 HD
ENDBRANCH  27  35
ENDBRANCH  21  22
ENDBRANCH   2  21
BRANCH   5  37
ATOM     37  O   UNL     1      -0.482   6.437  17.100  1.00  0.00    -0.461 OA
BRANCH  37  38
ATOM     38  C   UNL     1       0.915   6.581  17.377  1.00  0.00     0.339 C 
ATOM     39  C   UNL     1       1.504   7.867  16.738  1.00  0.00     0.214 C 
ATOM     40  O   UNL     1       1.131   6.541  18.781  1.00  0.00    -0.332 OA
ATOM     41  C   UNL     1       0.997   9.124  17.462  1.00  0.00     0.180 C 
ATOM     42  C   UNL     1       0.489   7.629  19.426  1.00  0.00     0.179 C 
ATOM     43  C   UNL     1       1.119   8.979  18.994  1.00  0.00     0.177 C 
BRANCH  39  44
ATOM     44  O   UNL     1       2.908   7.824  16.784  1.00  0.00    -0.384 OA
ATOM     45  H   UNL     1       3.238   8.275  15.957  1.00  0.00     0.211 HD
ENDBRANCH  39  44
BRANCH  41  46
ATOM     46  O   UNL     1       1.708  10.244  17.009  1.00  0.00    -0.387 OA
ATOM     47  H   UNL     1       2.310  10.509  17.757  1.00  0.00     0.211 HD
ENDBRANCH  41  46
BRANCH  42  48
ATOM     48  C   UNL     1       0.538   7.433  20.948  1.00  0.00     0.191 C 
BRANCH  48  49
ATOM     49  O   UNL     1      -0.162   6.279  21.324  1.00  0.00    -0.394 OA
ATOM     50  H   UNL     1       0.436   5.517  21.120  1.00  0.00     0.210 HD
ENDBRANCH  48  49
ENDBRANCH  42  48
BRANCH  43  51
ATOM     51  O   UNL     1       2.453   9.117  19.418  1.00  0.00    -0.387 OA
ATOM     52  H   UNL     1       2.736  10.051  19.278  1.00  0.00     0.211 HD
ENDBRANCH  43  51
ENDBRANCH  37  38
ENDBRANCH   5  37
BRANCH   7  53
ATOM     53  O   UNL     1      -1.024   1.580  17.171  1.00  0.00    -0.507 OA
ATOM     54  H   UNL     1      -0.378   1.004  16.642  1.00  0.00     0.293 HD
ENDBRANCH   7  53
TORSDOF 18
ENDMDL
MODEL 4
REMARK VINA RESULT:    -3.960      4.409      8.227
REMARK INTER + INTRA:          -8.943
REMARK INTER:                  -8.469
REMARK INTRA:                  -0.475
REMARK UNBOUND:                -1.974
REMARK SMILES COc1cc(-c2[o+]c3cc(O)cc(O[C@@H]4O[C@@H](CO)[C@@H](O)[C@@H](O)[C@H]4O)c3cc2O[C@@H]2O[C@@H](CO)[C@@H](O)[C@H](O)[C@@H]2O)ccc1O
REMARK SMILES IDX 6 1 28 2 27 3 26 4 13 5 12 6 10 7 9 8 8 9 7 10 5 11 3 12
REMARK SMILES IDX 43 13 4 14 42 15 41 16 2 17 1 18 44 19 29 21 30 22 39 23
REMARK SMILES IDX 31 24 37 25 32 26 35 27 40 28 38 30 33 32 34 33 36 35 14 37
REMARK SMILES IDX 15 38 24 39 16 40 22 41 17 42 20 43 25 44 23 46 18 48 19 49
REMARK SMILES IDX 21 51 11 53
REMARK H PARENT 44 20 40 29 38 31 34 34 36 36 25 45 23 47 19 50 21 52 11 54
REMARK Flexibility Score: inf
ROOT
ATOM      1  C   UNL     1      -4.206   4.264  15.736  1.00  0.00     0.402 A 
ATOM      2  C   UNL     1      -5.486   3.701  15.934  1.00  0.00     0.229 A 
ATOM      3  C   UNL     1      -5.632   2.705  16.912  1.00  0.00     0.079 A 
ATOM      4  C   UNL     1      -4.511   2.219  17.590  1.00  0.00     0.126 A 
ATOM      5  C   UNL     1      -4.608   1.158  18.511  1.00  0.00     0.143 A 
ATOM      6  C   UNL     1      -3.432   0.646  19.086  1.00  0.00     0.094 A 
ATOM      7  C   UNL     1      -2.184   1.198  18.763  1.00  0.00     0.128 A 
ATOM      8  C   UNL     1      -2.104   2.270  17.877  1.00  0.00     0.162 A 
ATOM      9  C   UNL     1      -3.257   2.773  17.275  1.00  0.00     0.368 A 
ATOM     10  O   UNL     1      -3.169   3.775  16.411  1.00  0.00    -0.202 OA
ENDROOT
BRANCH   1  11
ATOM     11  C   UNL     1      -3.939   5.395  14.794  1.00  0.00     0.087 A 
ATOM     12  C   UNL     1      -4.381   6.447  12.620  1.00  0.00     0.161 A 
ATOM     13  C   UNL     1      -3.471   7.471  12.937  1.00  0.00     0.157 A 
ATOM     14  C   UNL     1      -4.627   5.427  13.563  1.00  0.00     0.068 A 
ATOM     15  C   UNL     1      -2.777   7.438  14.150  1.00  0.00     0.051 A 
ATOM     16  C   UNL     1      -2.987   6.399  15.058  1.00  0.00     0.022 A 
BRANCH  12  17
ATOM     17  O   UNL     1      -5.003   6.462  11.364  1.00  0.00    -0.493 OA
ATOM     18  C   UNL     1      -6.279   7.045  11.099  1.00  0.00     0.278 C 
ENDBRANCH  12  17
BRANCH  13  19
ATOM     19  O   UNL     1      -3.218   8.519  12.052  1.00  0.00    -0.504 OA
ATOM     20  H   UNL     1      -2.659   9.320  12.317  1.00  0.00     0.293 HD
ENDBRANCH  13  19
ENDBRANCH   1  11
BRANCH   2  21
ATOM     21  O   UNL     1      -6.564   4.097  15.125  1.00  0.00    -0.452 OA
BRANCH  21  22
ATOM     22  C   UNL     1      -7.040   5.435  14.938  1.00  0.00     0.339 C 
ATOM     23  C   UNL     1      -8.152   5.481  13.838  1.00  0.00     0.214 C 
ATOM     24  O   UNL     1      -7.501   5.889  16.198  1.00  0.00    -0.332 OA
ATOM     25  C   UNL     1      -9.372   6.297  14.295  1.00  0.00     0.180 C 
ATOM     26  C   UNL     1      -7.990   7.230  16.186  1.00  0.00     0.179 C 
ATOM     27  C   UNL     1      -8.877   7.593  14.958  1.00  0.00     0.177 C 
BRANCH  23  28
ATOM     28  O   UNL     1      -8.572   4.189  13.473  1.00  0.00    -0.384 OA
ATOM     29  H   UNL     1      -8.902   4.243  12.536  1.00  0.00     0.211 HD
ENDBRANCH  23  28
BRANCH  25  30
ATOM     30  O   UNL     1     -10.124   5.539  15.213  1.00  0.00    -0.387 OA
ATOM     31  H   UNL     1     -10.819   6.148  15.578  1.00  0.00     0.211 HD
ENDBRANCH  25  30
BRANCH  26  32
ATOM     32  C   UNL     1      -6.887   8.258  16.514  1.00  0.00     0.191 C 
BRANCH  32  33
ATOM     33  O   UNL     1      -5.904   8.304  15.512  1.00  0.00    -0.394 OA
ATOM     34  H   UNL     1      -6.371   8.400  14.640  1.00  0.00     0.210 HD
ENDBRANCH  32  33
ENDBRANCH  26  32
BRANCH  27  35
ATOM     35  O   UNL     1      -8.158   8.366  14.024  1.00  0.00    -0.387 OA
ATOM     36  H   UNL     1      -8.202   9.312  14.324  1.00  0.00     0.211 HD
ENDBRANCH  27  35
ENDBRANCH  21  22
ENDBRANCH   2  21
BRANCH   5  37
ATOM     37  O   UNL     1      -5.878   0.639  18.805  1.00  0.00    -0.461 OA
BRANCH  37  38
ATOM     38  C   UNL     1      -6.644  -0.247  17.983  1.00  0.00     0.339 C 
ATOM     39  C   UNL     1      -6.040  -1.677  17.950  1.00  0.00     0.214 C 
ATOM     40  O   UNL     1      -7.996  -0.255  18.417  1.00  0.00    -0.332 OA
ATOM     41  C   UNL     1      -6.236  -2.389  19.298  1.00  0.00     0.180 C 
ATOM     42  C   UNL     1      -8.103  -0.756  19.740  1.00  0.00     0.179 C 
ATOM     43  C   UNL     1      -7.688  -2.249  19.802  1.00  0.00     0.177 C 
BRANCH  39  44
ATOM     44  O   UNL     1      -6.640  -2.427  16.924  1.00  0.00    -0.384 OA
ATOM     45  H   UNL     1      -6.086  -3.250  16.807  1.00  0.00     0.211 HD
ENDBRANCH  39  44
BRANCH  41  46
ATOM     46  O   UNL     1      -5.881  -3.739  19.171  1.00  0.00    -0.387 OA
ATOM     47  H   UNL     1      -5.191  -3.777  18.454  1.00  0.00     0.211 HD
ENDBRANCH  41  46
BRANCH  42  48
ATOM     48  C   UNL     1      -9.529  -0.533  20.267  1.00  0.00     0.191 C 
BRANCH  48  49
ATOM     49  O   UNL     1      -9.833  -1.448  21.282  1.00  0.00    -0.394 OA
ATOM     50  H   UNL     1      -9.537  -1.028  22.129  1.00  0.00     0.210 HD
ENDBRANCH  48  49
ENDBRANCH  42  48
BRANCH  43  51
ATOM     51  O   UNL     1      -8.563  -3.087  19.087  1.00  0.00    -0.387 OA
ATOM     52  H   UNL     1      -9.294  -3.368  19.686  1.00  0.00     0.211 HD
ENDBRANCH  43  51
ENDBRANCH  37  38
ENDBRANCH   5  37
BRANCH   7  53
ATOM     53  O   UNL     1      -1.016   0.667  19.309  1.00  0.00    -0.507 OA
ATOM     54  H   UNL     1      -0.279   0.299  18.717  1.00  0.00     0.293 HD
ENDBRANCH   7  53
TORSDOF 18
ENDMDL
MODEL 5
REMARK VINA RESULT:    -3.918      2.186      4.869
REMARK INTER + INTRA:          -8.869
REMARK INTER:                  -7.019
REMARK INTRA:                  -1.850
REMARK UNBOUND:                -1.974
REMARK SMILES COc1cc(-c2[o+]c3cc(O)cc(O[C@@H]4O[C@@H](CO)[C@@H](O)[C@@H](O)[C@H]4O)c3cc2O[C@@H]2O[C@@H](CO)[C@@H](O)[C@H](O)[C@@H]2O)ccc1O
REMARK SMILES IDX 6 1 28 2 27 3 26 4 13 5 12 6 10 7 9 8 8 9 7 10 5 11 3 12
REMARK SMILES IDX 43 13 4 14 42 15 41 16 2 17 1 18 44 19 29 21 30 22 39 23
REMARK SMILES IDX 31 24 37 25 32 26 35 27 40 28 38 30 33 32 34 33 36 35 14 37
REMARK SMILES IDX 15 38 24 39 16 40 22 41 17 42 20 43 25 44 23 46 18 48 19 49
REMARK SMILES IDX 21 51 11 53
REMARK H PARENT 44 20 40 29 38 31 34 34 36 36 25 45 23 47 19 50 21 52 11 54
REMARK Flexibility Score: inf
ROOT
ATOM      1  C   UNL     1      -4.150   7.520  12.556  1.00  0.00     0.402 A 
ATOM      2  C   UNL     1      -3.800   7.204  13.887  1.00  0.00     0.229 A 
ATOM      3  C   UNL     1      -2.676   7.833  14.448  1.00  0.00     0.079 A 
ATOM      4  C   UNL     1      -1.874   8.664  13.663  1.00  0.00     0.126 A 
ATOM      5  C   UNL     1      -0.691   9.237  14.167  1.00  0.00     0.143 A 
ATOM      6  C   UNL     1       0.128   9.983  13.300  1.00  0.00     0.094 A 
ATOM      7  C   UNL     1      -0.241  10.170  11.960  1.00  0.00     0.128 A 
ATOM      8  C   UNL     1      -1.432   9.628  11.482  1.00  0.00     0.162 A 
ATOM      9  C   UNL     1      -2.242   8.861  12.320  1.00  0.00     0.368 A 
ATOM     10  O   UNL     1      -3.360   8.324  11.849  1.00  0.00    -0.202 OA
ENDROOT
BRANCH   1  11
ATOM     11  C   UNL     1      -5.374   6.992  11.877  1.00  0.00     0.087 A 
ATOM     12  C   UNL     1      -7.437   7.468  10.634  1.00  0.00     0.161 A 
ATOM     13  C   UNL     1      -7.728   6.093  10.603  1.00  0.00     0.157 A 
ATOM     14  C   UNL     1      -6.247   7.907  11.251  1.00  0.00     0.068 A 
ATOM     15  C   UNL     1      -6.874   5.184  11.233  1.00  0.00     0.051 A 
ATOM     16  C   UNL     1      -5.723   5.628  11.885  1.00  0.00     0.022 A 
BRANCH  12  17
ATOM     17  O   UNL     1      -8.352   8.364  10.065  1.00  0.00    -0.493 OA
ATOM     18  C   UNL     1      -9.407   9.007  10.779  1.00  0.00     0.278 C 
ENDBRANCH  12  17
BRANCH  13  19
ATOM     19  O   UNL     1      -8.876   5.606   9.977  1.00  0.00    -0.504 OA
ATOM     20  H   UNL     1      -8.893   5.384   8.989  1.00  0.00     0.293 HD
ENDBRANCH  13  19
ENDBRANCH   1  11
BRANCH   2  21
ATOM     21  O   UNL     1      -4.533   6.241  14.601  1.00  0.00    -0.452 OA
BRANCH  21  22
ATOM     22  C   UNL     1      -5.862   6.394  15.114  1.00  0.00     0.339 C 
ATOM     23  C   UNL     1      -5.909   6.059  16.642  1.00  0.00     0.214 C 
ATOM     24  O   UNL     1      -6.262   7.724  14.836  1.00  0.00    -0.332 OA
ATOM     25  C   UNL     1      -6.672   7.131  17.437  1.00  0.00     0.180 C 
ATOM     26  C   UNL     1      -7.587   8.031  15.267  1.00  0.00     0.179 C 
ATOM     27  C   UNL     1      -7.962   7.481  16.676  1.00  0.00     0.177 C 
BRANCH  23  28
ATOM     28  O   UNL     1      -4.617   5.919  17.181  1.00  0.00    -0.384 OA
ATOM     29  H   UNL     1      -4.062   6.654  16.806  1.00  0.00     0.211 HD
ENDBRANCH  23  28
BRANCH  25  30
ATOM     30  O   UNL     1      -5.864   8.275  17.577  1.00  0.00    -0.387 OA
ATOM     31  H   UNL     1      -6.052   8.642  18.480  1.00  0.00     0.211 HD
ENDBRANCH  25  30
BRANCH  26  32
ATOM     32  C   UNL     1      -8.637   7.765  14.169  1.00  0.00     0.191 C 
BRANCH  32  33
ATOM     33  O   UNL     1      -9.903   8.256  14.529  1.00  0.00    -0.394 OA
ATOM     34  H   UNL     1      -9.786   8.812  15.345  1.00  0.00     0.210 HD
ENDBRANCH  32  33
ENDBRANCH  26  32
BRANCH  27  35
ATOM     35  O   UNL     1      -8.785   6.343  16.573  1.00  0.00    -0.387 OA
ATOM     36  H   UNL     1      -9.439   6.379  17.319  1.00  0.00     0.211 HD
ENDBRANCH  27  35
ENDBRANCH  21  22
ENDBRANCH   2  21
BRANCH   5  37
ATOM     37  O   UNL     1      -0.362   9.024  15.515  1.00  0.00    -0.461 OA
BRANCH  37  38
ATOM     38  C   UNL     1       0.887   8.543  16.018  1.00  0.00     0.339 C 
ATOM     39  C   UNL     1       1.267   9.212  17.366  1.00  0.00     0.214 C 
ATOM     40  O   UNL     1       0.847   7.127  16.125  1.00  0.00    -0.332 OA
ATOM     41  C   UNL     1       0.358   8.720  18.502  1.00  0.00     0.180 C 
ATOM     42  C   UNL     1      -0.138   6.714  17.059  1.00  0.00     0.179 C 
ATOM     43  C   UNL     1       0.228   7.181  18.492  1.00  0.00     0.177 C 
BRANCH  39  44
ATOM     44  O   UNL     1       2.609   8.936  17.677  1.00  0.00    -0.384 OA
ATOM     45  H   UNL     1       2.606   8.388  18.512  1.00  0.00     0.211 HD
ENDBRANCH  39  44
BRANCH  41  46
ATOM     46  O   UNL     1       0.857   9.169  19.732  1.00  0.00    -0.387 OA
ATOM     47  H   UNL     1       0.929  10.159  19.656  1.00  0.00     0.211 HD
ENDBRANCH  41  46
BRANCH  42  48
ATOM     48  C   UNL     1      -0.324   5.192  16.980  1.00  0.00     0.191 C 
BRANCH  48  49
ATOM     49  O   UNL     1      -0.242   4.748  15.654  1.00  0.00    -0.394 OA
ATOM     50  H   UNL     1       0.723   4.645  15.458  1.00  0.00     0.210 HD
ENDBRANCH  48  49
ENDBRANCH  42  48
BRANCH  43  51
ATOM     51  O   UNL     1       1.392   6.564  18.985  1.00  0.00    -0.387 OA
ATOM     52  H   UNL     1       2.079   6.574  18.278  1.00  0.00     0.211 HD
ENDBRANCH  43  51
ENDBRANCH  37  38
ENDBRANCH   5  37
BRANCH   7  53
ATOM     53  O   UNL     1       0.588  10.882  11.094  1.00  0.00    -0.507 OA
ATOM     54  H   UNL     1       1.590  10.722  11.075  1.00  0.00     0.293 HD
ENDBRANCH   7  53
TORSDOF 18
ENDMDL
MODEL 6
REMARK VINA RESULT:    -3.893     13.461     19.107
REMARK INTER + INTRA:          -8.826
REMARK INTER:                  -7.053
REMARK INTRA:                  -1.773
REMARK UNBOUND:                -1.974
REMARK SMILES COc1cc(-c2[o+]c3cc(O)cc(O[C@@H]4O[C@@H](CO)[C@@H](O)[C@@H](O)[C@H]4O)c3cc2O[C@@H]2O[C@@H](CO)[C@@H](O)[C@H](O)[C@@H]2O)ccc1O
REMARK SMILES IDX 6 1 28 2 27 3 26 4 13 5 12 6 10 7 9 8 8 9 7 10 5 11 3 12
REMARK SMILES IDX 43 13 4 14 42 15 41 16 2 17 1 18 44 19 29 21 30 22 39 23
REMARK SMILES IDX 31 24 37 25 32 26 35 27 40 28 38 30 33 32 34 33 36 35 14 37
REMARK SMILES IDX 15 38 24 39 16 40 22 41 17 42 20 43 25 44 23 46 18 48 19 49
REMARK SMILES IDX 21 51 11 53
REMARK H PARENT 44 20 40 29 38 31 34 34 36 36 25 45 23 47 19 50 21 52 11 54
REMARK Flexibility Score: inf
ROOT
ATOM      1  C   UNL     1      -4.119  -6.375  24.020  1.00  0.00     0.402 A 
ATOM      2  C   UNL     1      -5.467  -6.343  24.439  1.00  0.00     0.229 A 
ATOM      3  C   UNL     1      -6.417  -5.758  23.586  1.00  0.00     0.079 A 
ATOM      4  C   UNL     1      -6.007  -5.131  22.407  1.00  0.00     0.126 A 
ATOM      5  C   UNL     1      -6.921  -4.456  21.575  1.00  0.00     0.143 A 
ATOM      6  C   UNL     1      -6.435  -3.758  20.455  1.00  0.00     0.094 A 
ATOM      7  C   UNL     1      -5.064  -3.756  20.160  1.00  0.00     0.128 A 
ATOM      8  C   UNL     1      -4.174  -4.458  20.970  1.00  0.00     0.162 A 
ATOM      9  C   UNL     1      -4.634  -5.130  22.102  1.00  0.00     0.368 A 
ATOM     10  O   UNL     1      -3.777  -5.772  22.884  1.00  0.00    -0.202 OA
ENDROOT
BRANCH   1  11
ATOM     11  C   UNL     1      -3.030  -7.052  24.790  1.00  0.00     0.087 A 
ATOM     12  C   UNL     1      -1.528  -7.032  26.733  1.00  0.00     0.161 A 
ATOM     13  C   UNL     1      -0.955  -8.239  26.294  1.00  0.00     0.157 A 
ATOM     14  C   UNL     1      -2.581  -6.459  25.989  1.00  0.00     0.068 A 
ATOM     15  C   UNL     1      -1.387  -8.824  25.101  1.00  0.00     0.051 A 
ATOM     16  C   UNL     1      -2.394  -8.225  24.342  1.00  0.00     0.022 A 
BRANCH  12  17
ATOM     17  O   UNL     1      -1.021  -6.426  27.889  1.00  0.00    -0.493 OA
ATOM     18  C   UNL     1      -1.614  -6.528  29.184  1.00  0.00     0.278 C 
ENDBRANCH  12  17
BRANCH  13  19
ATOM     19  O   UNL     1       0.067  -8.862  27.011  1.00  0.00    -0.504 OA
ATOM     20  H   UNL     1       0.496  -8.427  27.818  1.00  0.00     0.293 HD
ENDBRANCH  13  19
ENDBRANCH   1  11
BRANCH   2  21
ATOM     21  O   UNL     1      -5.824  -6.839  25.704  1.00  0.00    -0.452 OA
BRANCH  21  22
ATOM     22  C   UNL     1      -7.091  -7.400  26.070  1.00  0.00     0.339 C 
ATOM     23  C   UNL     1      -6.910  -8.834  26.670  1.00  0.00     0.214 C 
ATOM     24  O   UNL     1      -7.693  -6.500  26.982  1.00  0.00    -0.332 OA
ATOM     25  C   UNL     1      -7.708  -9.011  27.973  1.00  0.00     0.180 C 
ATOM     26  C   UNL     1      -8.987  -6.908  27.427  1.00  0.00     0.179 C 
ATOM     27  C   UNL     1      -9.114  -8.422  27.771  1.00  0.00     0.177 C 
BRANCH  23  28
ATOM     28  O   UNL     1      -5.556  -9.125  26.918  1.00  0.00    -0.384 OA
ATOM     29  H   UNL     1      -5.152  -8.312  27.324  1.00  0.00     0.211 HD
ENDBRANCH  23  28
BRANCH  25  30
ATOM     30  O   UNL     1      -7.047  -8.343  29.021  1.00  0.00    -0.387 OA
ATOM     31  H   UNL     1      -6.087  -8.309  28.771  1.00  0.00     0.211 HD
ENDBRANCH  25  30
BRANCH  26  32
ATOM     32  C   UNL     1     -10.116  -6.350  26.537  1.00  0.00     0.191 C 
BRANCH  32  33
ATOM     33  O   UNL     1      -9.713  -5.194  25.848  1.00  0.00    -0.394 OA
ATOM     34  H   UNL     1      -9.724  -5.406  24.877  1.00  0.00     0.210 HD
ENDBRANCH  32  33
ENDBRANCH  26  32
BRANCH  27  35
ATOM     35  O   UNL     1      -9.786  -9.119  26.747  1.00  0.00    -0.387 OA
ATOM     36  H   UNL     1     -10.624  -8.625  26.551  1.00  0.00     0.211 HD
ENDBRANCH  27  35
ENDBRANCH  21  22
ENDBRANCH   2  21
BRANCH   5  37
ATOM     37  O   UNL     1      -8.283  -4.487  21.910  1.00  0.00    -0.461 OA
BRANCH  37  38
ATOM     38  C   UNL     1      -9.353  -4.936  21.073  1.00  0.00     0.339 C 
ATOM     39  C   UNL     1      -8.842  -5.440  19.697  1.00  0.00     0.214 C 
ATOM     40  O   UNL     1     -10.108  -5.929  21.752  1.00  0.00    -0.332 OA
ATOM     41  C   UNL     1      -8.091  -6.773  19.842  1.00  0.00     0.180 C 
ATOM     42  C   UNL     1      -9.315  -7.074  22.024  1.00  0.00     0.179 C 
ATOM     43  C   UNL     1      -8.884  -7.774  20.709  1.00  0.00     0.177 C 
BRANCH  39  44
ATOM     44  O   UNL     1      -9.923  -5.597  18.812  1.00  0.00    -0.384 OA
ATOM     45  H   UNL     1     -10.600  -6.162  19.281  1.00  0.00     0.211 HD
ENDBRANCH  39  44
BRANCH  41  46
ATOM     46  O   UNL     1      -7.834  -7.308  18.573  1.00  0.00    -0.387 OA
ATOM     47  H   UNL     1      -7.588  -6.536  17.993  1.00  0.00     0.211 HD
ENDBRANCH  41  46
BRANCH  42  48
ATOM     48  C   UNL     1     -10.077  -8.024  22.959  1.00  0.00     0.191 C 
BRANCH  48  49
ATOM     49  O   UNL     1      -9.204  -8.638  23.866  1.00  0.00    -0.394 OA
ATOM     50  H   UNL     1      -9.768  -9.205  24.450  1.00  0.00     0.210 HD
ENDBRANCH  48  49
ENDBRANCH  42  48
BRANCH  43  51
ATOM     51  O   UNL     1      -9.971  -8.318  20.000  1.00  0.00    -0.387 OA
ATOM     52  H   UNL     1      -9.624  -8.913  19.296  1.00  0.00     0.211 HD
ENDBRANCH  43  51
ENDBRANCH  37  38
ENDBRANCH   5  37
BRANCH   7  53
ATOM     53  O   UNL     1      -4.580  -3.037  19.067  1.00  0.00    -0.507 OA
ATOM     54  H   UNL     1      -5.083  -3.019  18.185  1.00  0.00     0.293 HD
ENDBRANCH   7  53
TORSDOF 18
ENDMDL
MODEL 7
REMARK VINA RESULT:    -3.782     13.578     17.476
REMARK INTER + INTRA:          -8.630
REMARK INTER:                  -6.892
REMARK INTRA:                  -1.739
REMARK UNBOUND:                -1.974
REMARK SMILES COc1cc(-c2[o+]c3cc(O)cc(O[C@@H]4O[C@@H](CO)[C@@H](O)[C@@H](O)[C@H]4O)c3cc2O[C@@H]2O[C@@H](CO)[C@@H](O)[C@H](O)[C@@H]2O)ccc1O
REMARK SMILES IDX 6 1 28 2 27 3 26 4 13 5 12 6 10 7 9 8 8 9 7 10 5 11 3 12
REMARK SMILES IDX 43 13 4 14 42 15 41 16 2 17 1 18 44 19 29 21 30 22 39 23
REMARK SMILES IDX 31 24 37 25 32 26 35 27 40 28 38 30 33 32 34 33 36 35 14 37
REMARK SMILES IDX 15 38 24 39 16 40 22 41 17 42 20 43 25 44 23 46 18 48 19 49
REMARK SMILES IDX 21 51 11 53
REMARK H PARENT 44 20 40 29 38 31 34 34 36 36 25 45 23 47 19 50 21 52 11 54
REMARK Flexibility Score: inf
ROOT
ATOM      1  C   UNL     1      -7.604  -7.718  23.497  1.00  0.00     0.402 A 
ATOM      2  C   UNL     1      -6.206  -7.748  23.692  1.00  0.00     0.229 A 
ATOM      3  C   UNL     1      -5.716  -8.133  24.951  1.00  0.00     0.079 A 
ATOM      4  C   UNL     1      -6.603  -8.373  26.004  1.00  0.00     0.126 A 
ATOM      5  C   UNL     1      -6.144  -8.671  27.301  1.00  0.00     0.143 A 
ATOM      6  C   UNL     1      -7.080  -8.803  28.342  1.00  0.00     0.094 A 
ATOM      7  C   UNL     1      -8.452  -8.660  28.085  1.00  0.00     0.128 A 
ATOM      8  C   UNL     1      -8.896  -8.401  26.790  1.00  0.00     0.162 A 
ATOM      9  C   UNL     1      -7.980  -8.238  25.751  1.00  0.00     0.368 A 
ATOM     10  O   UNL     1      -8.410  -7.962  24.528  1.00  0.00    -0.202 OA
ENDROOT
BRANCH   1  11
ATOM     11  C   UNL     1      -8.247  -7.418  22.181  1.00  0.00     0.087 A 
ATOM     12  C   UNL     1      -9.457  -5.814  20.768  1.00  0.00     0.161 A 
ATOM     13  C   UNL     1      -9.514  -6.773  19.741  1.00  0.00     0.157 A 
ATOM     14  C   UNL     1      -8.801  -6.137  21.974  1.00  0.00     0.068 A 
ATOM     15  C   UNL     1      -8.979  -8.048  19.943  1.00  0.00     0.051 A 
ATOM     16  C   UNL     1      -8.376  -8.377  21.158  1.00  0.00     0.022 A 
BRANCH  12  17
ATOM     17  O   UNL     1     -10.072  -4.572  20.567  1.00  0.00    -0.493 OA
ATOM     18  C   UNL     1      -9.581  -3.332  21.077  1.00  0.00     0.278 C 
ENDBRANCH  12  17
BRANCH  13  19
ATOM     19  O   UNL     1     -10.123  -6.491  18.517  1.00  0.00    -0.504 OA
ATOM     20  H   UNL     1     -10.960  -6.974  18.213  1.00  0.00     0.293 HD
ENDBRANCH  13  19
ENDBRANCH   1  11
BRANCH   2  21
ATOM     21  O   UNL     1      -5.340  -7.347  22.661  1.00  0.00    -0.452 OA
BRANCH  21  22
ATOM     22  C   UNL     1      -5.399  -6.115  21.933  1.00  0.00     0.339 C 
ATOM     23  C   UNL     1      -4.270  -5.138  22.403  1.00  0.00     0.214 C 
ATOM     24  O   UNL     1      -5.299  -6.442  20.559  1.00  0.00    -0.332 OA
ATOM     25  C   UNL     1      -3.520  -4.518  21.212  1.00  0.00     0.180 C 
ATOM     26  C   UNL     1      -5.367  -5.312  19.689  1.00  0.00     0.179 C 
ATOM     27  C   UNL     1      -4.551  -4.071  20.162  1.00  0.00     0.177 C 
BRANCH  23  28
ATOM     28  O   UNL     1      -3.344  -5.783  23.244  1.00  0.00    -0.384 OA
ATOM     29  H   UNL     1      -2.591  -5.151  23.388  1.00  0.00     0.211 HD
ENDBRANCH  23  28
BRANCH  25  30
ATOM     30  O   UNL     1      -2.647  -5.475  20.659  1.00  0.00    -0.387 OA
ATOM     31  H   UNL     1      -1.727  -5.134  20.809  1.00  0.00     0.211 HD
ENDBRANCH  25  30
BRANCH  26  32
ATOM     32  C   UNL     1      -6.810  -5.003  19.241  1.00  0.00     0.191 C 
BRANCH  32  33
ATOM     33  O   UNL     1      -6.838  -4.258  18.051  1.00  0.00    -0.394 OA
ATOM     34  H   UNL     1      -5.994  -4.446  17.562  1.00  0.00     0.210 HD
ENDBRANCH  32  33
ENDBRANCH  26  32
BRANCH  27  35
ATOM     35  O   UNL     1      -5.398  -3.086  20.708  1.00  0.00    -0.387 OA
ATOM     36  H   UNL     1      -5.206  -2.234  20.235  1.00  0.00     0.211 HD
ENDBRANCH  27  35
ENDBRANCH  21  22
ENDBRANCH   2  21
BRANCH   5  37
ATOM     37  O   UNL     1      -4.763  -8.805  27.510  1.00  0.00    -0.461 OA
BRANCH  37  38
ATOM     38  C   UNL     1      -3.820  -7.741  27.670  1.00  0.00     0.339 C 
ATOM     39  C   UNL     1      -2.912  -7.951  28.911  1.00  0.00     0.214 C 
ATOM     40  O   UNL     1      -3.061  -7.589  26.479  1.00  0.00    -0.332 OA
ATOM     41  C   UNL     1      -1.920  -9.101  28.680  1.00  0.00     0.180 C 
ATOM     42  C   UNL     1      -2.296  -8.754  26.212  1.00  0.00     0.179 C 
ATOM     43  C   UNL     1      -1.221  -8.974  27.309  1.00  0.00     0.177 C 
BRANCH  39  44
ATOM     44  O   UNL     1      -2.211  -6.767  29.198  1.00  0.00    -0.384 OA
ATOM     45  H   UNL     1      -2.086  -6.288  28.330  1.00  0.00     0.211 HD
ENDBRANCH  39  44
BRANCH  41  46
ATOM     46  O   UNL     1      -0.979  -9.125  29.718  1.00  0.00    -0.387 OA
ATOM     47  H   UNL     1      -0.187  -8.622  29.384  1.00  0.00     0.211 HD
ENDBRANCH  41  46
BRANCH  42  48
ATOM     48  C   UNL     1      -1.676  -8.658  24.811  1.00  0.00     0.191 C 
BRANCH  48  49
ATOM     49  O   UNL     1      -2.658  -8.391  23.849  1.00  0.00    -0.394 OA
ATOM     50  H   UNL     1      -2.182  -8.018  23.065  1.00  0.00     0.210 HD
ENDBRANCH  48  49
ENDBRANCH  42  48
BRANCH  43  51
ATOM     51  O   UNL     1      -0.243  -7.963  27.323  1.00  0.00    -0.387 OA
ATOM     52  H   UNL     1       0.646  -8.383  27.385  1.00  0.00     0.211 HD
ENDBRANCH  43  51
ENDBRANCH  37  38
ENDBRANCH   5  37
BRANCH   7  53
ATOM     53  O   UNL     1      -9.377  -8.759  29.124  1.00  0.00    -0.507 OA
ATOM     54  H   UNL     1      -9.245  -9.417  29.884  1.00  0.00     0.293 HD
ENDBRANCH   7  53
TORSDOF 18
ENDMDL
MODEL 8
REMARK VINA RESULT:    -3.678      2.138      5.101
REMARK INTER + INTRA:          -8.447
REMARK INTER:                  -5.672
REMARK INTRA:                  -2.774
REMARK UNBOUND:                -1.974
REMARK SMILES COc1cc(-c2[o+]c3cc(O)cc(O[C@@H]4O[C@@H](CO)[C@@H](O)[C@@H](O)[C@H]4O)c3cc2O[C@@H]2O[C@@H](CO)[C@@H](O)[C@H](O)[C@@H]2O)ccc1O
REMARK SMILES IDX 6 1 28 2 27 3 26 4 13 5 12 6 10 7 9 8 8 9 7 10 5 11 3 12
REMARK SMILES IDX 43 13 4 14 42 15 41 16 2 17 1 18 44 19 29 21 30 22 39 23
REMARK SMILES IDX 31 24 37 25 32 26 35 27 40 28 38 30 33 32 34 33 36 35 14 37
REMARK SMILES IDX 15 38 24 39 16 40 22 41 17 42 20 43 25 44 23 46 18 48 19 49
REMARK SMILES IDX 21 51 11 53
REMARK H PARENT 44 20 40 29 38 31 34 34 36 36 25 45 23 47 19 50 21 52 11 54
REMARK Flexibility Score: inf
ROOT
ATOM      1  C   UNL     1      -4.716   9.112  13.079  1.00  0.00     0.402 A 
ATOM      2  C   UNL     1      -4.349   8.774  14.400  1.00  0.00     0.229 A 
ATOM      3  C   UNL     1      -3.009   8.945  14.784  1.00  0.00     0.079 A 
ATOM      4  C   UNL     1      -2.055   9.337  13.842  1.00  0.00     0.126 A 
ATOM      5  C   UNL     1      -0.689   9.429  14.170  1.00  0.00     0.143 A 
ATOM      6  C   UNL     1       0.237   9.731  13.155  1.00  0.00     0.094 A 
ATOM      7  C   UNL     1      -0.198   9.957  11.841  1.00  0.00     0.128 A 
ATOM      8  C   UNL     1      -1.556   9.898  11.536  1.00  0.00     0.162 A 
ATOM      9  C   UNL     1      -2.486   9.571  12.524  1.00  0.00     0.368 A 
ATOM     10  O   UNL     1      -3.774   9.489  12.218  1.00  0.00    -0.202 OA
ENDROOT
BRANCH   1  11
ATOM     11  C   UNL     1      -6.124   9.066  12.576  1.00  0.00     0.087 A 
ATOM     12  C   UNL     1      -7.809   7.932  11.197  1.00  0.00     0.161 A 
ATOM     13  C   UNL     1      -8.750   8.916  11.549  1.00  0.00     0.157 A 
ATOM     14  C   UNL     1      -6.507   8.001  11.733  1.00  0.00     0.068 A 
ATOM     15  C   UNL     1      -8.374   9.980  12.373  1.00  0.00     0.051 A 
ATOM     16  C   UNL     1      -7.069  10.070  12.861  1.00  0.00     0.022 A 
BRANCH  12  17
ATOM     17  O   UNL     1      -8.192   6.921  10.305  1.00  0.00    -0.493 OA
ATOM     18  C   UNL     1      -7.431   5.742  10.042  1.00  0.00     0.278 C 
ENDBRANCH  12  17
BRANCH  13  19
ATOM     19  O   UNL     1     -10.060   8.874  11.071  1.00  0.00    -0.504 OA
ATOM     20  H   UNL     1     -10.267   8.769  10.085  1.00  0.00     0.293 HD
ENDBRANCH  13  19
ENDBRANCH   1  11
BRANCH   2  21
ATOM     21  O   UNL     1      -5.299   8.230  15.280  1.00  0.00    -0.452 OA
BRANCH  21  22
ATOM     22  C   UNL     1      -5.433   6.850  15.639  1.00  0.00     0.339 C 
ATOM     23  C   UNL     1      -6.940   6.465  15.814  1.00  0.00     0.214 C 
ATOM     24  O   UNL     1      -4.792   6.095  14.626  1.00  0.00    -0.332 OA
ATOM     25  C   UNL     1      -7.282   5.157  15.081  1.00  0.00     0.180 C 
ATOM     26  C   UNL     1      -4.816   4.686  14.852  1.00  0.00     0.179 C 
ATOM     27  C   UNL     1      -6.176   4.128  15.369  1.00  0.00     0.177 C 
BRANCH  23  28
ATOM     28  O   UNL     1      -7.792   7.486  15.356  1.00  0.00    -0.384 OA
ATOM     29  H   UNL     1      -7.257   8.061  14.746  1.00  0.00     0.211 HD
ENDBRANCH  23  28
BRANCH  25  30
ATOM     30  O   UNL     1      -7.368   5.405  13.697  1.00  0.00    -0.387 OA
ATOM     31  H   UNL     1      -7.792   4.603  13.295  1.00  0.00     0.211 HD
ENDBRANCH  25  30
BRANCH  26  32
ATOM     32  C   UNL     1      -3.579   4.197  15.633  1.00  0.00     0.191 C 
BRANCH  32  33
ATOM     33  O   UNL     1      -2.594   3.678  14.777  1.00  0.00    -0.394 OA
ATOM     34  H   UNL     1      -3.043   3.044  14.157  1.00  0.00     0.210 HD
ENDBRANCH  32  33
ENDBRANCH  26  32
BRANCH  27  35
ATOM     35  O   UNL     1      -6.121   3.855  16.749  1.00  0.00    -0.387 OA
ATOM     36  H   UNL     1      -6.935   3.337  16.983  1.00  0.00     0.211 HD
ENDBRANCH  27  35
ENDBRANCH  21  22
ENDBRANCH   2  21
BRANCH   5  37
ATOM     37  O   UNL     1      -0.300   9.196  15.498  1.00  0.00    -0.461 OA
BRANCH  37  38
ATOM     38  C   UNL     1       0.950   8.653  15.934  1.00  0.00     0.339 C 
ATOM     39  C   UNL     1       1.442   9.314  17.249  1.00  0.00     0.214 C 
ATOM     40  O   UNL     1       0.843   7.242  16.059  1.00  0.00    -0.332 OA
ATOM     41  C   UNL     1       0.577   8.879  18.442  1.00  0.00     0.180 C 
ATOM     42  C   UNL     1      -0.105   6.890  17.053  1.00  0.00     0.179 C 
ATOM     43  C   UNL     1       0.367   7.350  18.457  1.00  0.00     0.177 C 
BRANCH  39  44
ATOM     44  O   UNL     1       2.785   8.970  17.485  1.00  0.00    -0.384 OA
ATOM     45  H   UNL     1       3.310   9.304  16.704  1.00  0.00     0.211 HD
ENDBRANCH  39  44
BRANCH  41  46
ATOM     46  O   UNL     1       1.170   9.312  19.635  1.00  0.00    -0.387 OA
ATOM     47  H   UNL     1       0.550   9.042  20.366  1.00  0.00     0.211 HD
ENDBRANCH  41  46
BRANCH  42  48
ATOM     48  C   UNL     1      -0.374   5.379  17.003  1.00  0.00     0.191 C 
BRANCH  48  49
ATOM     49  O   UNL     1      -0.083   4.863  15.734  1.00  0.00    -0.394 OA
ATOM     50  H   UNL     1       0.395   4.010  15.887  1.00  0.00     0.210 HD
ENDBRANCH  48  49
ENDBRANCH  42  48
BRANCH  43  51
ATOM     51  O   UNL     1       1.525   6.677  18.888  1.00  0.00    -0.387 OA
ATOM     52  H   UNL     1       1.795   7.040  19.764  1.00  0.00     0.211 HD
ENDBRANCH  43  51
ENDBRANCH  37  38
ENDBRANCH   5  37
BRANCH   7  53
ATOM     53  O   UNL     1       0.724  10.223  10.830  1.00  0.00    -0.507 OA
ATOM     54  H   UNL     1       1.708  10.006  10.945  1.00  0.00     0.293 HD
ENDBRANCH   7  53
TORSDOF 18
ENDMDL
MODEL 9
REMARK VINA RESULT:    -3.084     12.555     17.964
REMARK INTER + INTRA:          -7.401
REMARK INTER:                  -5.239
REMARK INTRA:                  -2.162
REMARK UNBOUND:                -1.974
REMARK SMILES COc1cc(-c2[o+]c3cc(O)cc(O[C@@H]4O[C@@H](CO)[C@@H](O)[C@@H](O)[C@H]4O)c3cc2O[C@@H]2O[C@@H](CO)[C@@H](O)[C@H](O)[C@@H]2O)ccc1O
REMARK SMILES IDX 6 1 28 2 27 3 26 4 13 5 12 6 10 7 9 8 8 9 7 10 5 11 3 12
REMARK SMILES IDX 43 13 4 14 42 15 41 16 2 17 1 18 44 19 29 21 30 22 39 23
REMARK SMILES IDX 31 24 37 25 32 26 35 27 40 28 38 30 33 32 34 33 36 35 14 37
REMARK SMILES IDX 15 38 24 39 16 40 22 41 17 42 20 43 25 44 23 46 18 48 19 49
REMARK SMILES IDX 21 51 11 53
REMARK H PARENT 44 20 40 29 38 31 34 34 36 36 25 45 23 47 19 50 21 52 11 54
REMARK Flexibility Score: inf
ROOT
ATOM      1  C   UNL     1      -4.126  -6.376  24.508  1.00  0.00     0.402 A 
ATOM      2  C   UNL     1      -5.444  -5.910  24.305  1.00  0.00     0.229 A 
ATOM      3  C   UNL     1      -5.767  -5.344  23.062  1.00  0.00     0.079 A 
ATOM      4  C   UNL     1      -4.773  -5.156  22.098  1.00  0.00     0.126 A 
ATOM      5  C   UNL     1      -5.043  -4.509  20.877  1.00  0.00     0.143 A 
ATOM      6  C   UNL     1      -3.981  -4.259  19.989  1.00  0.00     0.094 A 
ATOM      7  C   UNL     1      -2.678  -4.667  20.309  1.00  0.00     0.128 A 
ATOM      8  C   UNL     1      -2.430  -5.338  21.504  1.00  0.00     0.162 A 
ATOM      9  C   UNL     1      -3.465  -5.569  22.409  1.00  0.00     0.368 A 
ATOM     10  O   UNL     1      -3.215  -6.183  23.558  1.00  0.00    -0.202 OA
ENDROOT
BRANCH   1  11
ATOM     11  C   UNL     1      -3.682  -7.082  25.750  1.00  0.00     0.087 A 
ATOM     12  C   UNL     1      -2.497  -6.976  27.898  1.00  0.00     0.161 A 
ATOM     13  C   UNL     1      -2.773  -8.339  28.109  1.00  0.00     0.157 A 
ATOM     14  C   UNL     1      -2.976  -6.350  26.728  1.00  0.00     0.068 A 
ATOM     15  C   UNL     1      -3.461  -9.072  27.138  1.00  0.00     0.051 A 
ATOM     16  C   UNL     1      -3.888  -8.459  25.960  1.00  0.00     0.022 A 
BRANCH  12  17
ATOM     17  O   UNL     1      -1.736  -6.286  28.850  1.00  0.00    -0.493 OA
ATOM     18  C   UNL     1      -0.310  -6.229  28.861  1.00  0.00     0.278 C 
ENDBRANCH  12  17
BRANCH  13  19
ATOM     19  O   UNL     1      -2.349  -8.996  29.265  1.00  0.00    -0.504 OA
ATOM     20  H   UNL     1      -1.698  -9.771  29.232  1.00  0.00     0.293 HD
ENDBRANCH  13  19
ENDBRANCH   1  11
BRANCH   2  21
ATOM     21  O   UNL     1      -6.381  -5.966  25.350  1.00  0.00    -0.452 OA
BRANCH  21  22
ATOM     22  C   UNL     1      -7.451  -6.910  25.482  1.00  0.00     0.339 C 
ATOM     23  C   UNL     1      -8.222  -6.692  26.826  1.00  0.00     0.214 C 
ATOM     24  O   UNL     1      -8.282  -6.753  24.346  1.00  0.00    -0.332 OA
ATOM     25  C   UNL     1      -9.745  -6.676  26.614  1.00  0.00     0.180 C 
ATOM     26  C   UNL     1      -9.394  -7.648  24.314  1.00  0.00     0.179 C 
ATOM     27  C   UNL     1     -10.122  -7.837  25.678  1.00  0.00     0.177 C 
BRANCH  23  28
ATOM     28  O   UNL     1      -7.833  -5.496  27.458  1.00  0.00    -0.384 OA
ATOM     29  H   UNL     1      -8.475  -5.335  28.200  1.00  0.00     0.211 HD
ENDBRANCH  23  28
BRANCH  25  30
ATOM     30  O   UNL     1     -10.125  -5.447  26.042  1.00  0.00    -0.387 OA
ATOM     31  H   UNL     1     -10.123  -4.782  26.779  1.00  0.00     0.211 HD
ENDBRANCH  25  30
BRANCH  26  32
ATOM     32  C   UNL     1      -9.069  -8.959  23.568  1.00  0.00     0.191 C 
BRANCH  32  33
ATOM     33  O   UNL     1      -8.730  -8.723  22.226  1.00  0.00    -0.394 OA
ATOM     34  H   UNL     1      -9.220  -7.910  21.933  1.00  0.00     0.210 HD
ENDBRANCH  32  33
ENDBRANCH  26  32
BRANCH  27  35
ATOM     35  O   UNL     1      -9.775  -9.067  26.272  1.00  0.00    -0.387 OA
ATOM     36  H   UNL     1      -8.844  -9.277  25.999  1.00  0.00     0.211 HD
ENDBRANCH  27  35
ENDBRANCH  21  22
ENDBRANCH   2  21
BRANCH   5  37
ATOM     37  O   UNL     1      -6.362  -4.120  20.600  1.00  0.00    -0.461 OA
BRANCH  37  38
ATOM     38  C   UNL     1      -6.797  -3.312  19.502  1.00  0.00     0.339 C 
ATOM     39  C   UNL     1      -7.799  -4.066  18.588  1.00  0.00     0.214 C 
ATOM     40  O   UNL     1      -7.339  -2.093  19.989  1.00  0.00    -0.332 OA
ATOM     41  C   UNL     1      -9.155  -4.248  19.288  1.00  0.00     0.180 C 
ATOM     42  C   UNL     1      -8.492  -2.330  20.782  1.00  0.00     0.179 C 
ATOM     43  C   UNL     1      -9.639  -2.928  19.927  1.00  0.00     0.177 C 
BRANCH  39  44
ATOM     44  O   UNL     1      -7.976  -3.360  17.385  1.00  0.00    -0.384 OA
ATOM     45  H   UNL     1      -7.188  -2.754  17.288  1.00  0.00     0.211 HD
ENDBRANCH  39  44
BRANCH  41  46
ATOM     46  O   UNL     1     -10.097  -4.731  18.370  1.00  0.00    -0.387 OA
ATOM     47  H   UNL     1     -10.447  -5.580  18.755  1.00  0.00     0.211 HD
ENDBRANCH  41  46
BRANCH  42  48
ATOM     48  C   UNL     1      -8.915  -1.031  21.485  1.00  0.00     0.191 C 
BRANCH  48  49
ATOM     49  O   UNL     1      -8.687   0.078  20.660  1.00  0.00    -0.394 OA
ATOM     50  H   UNL     1      -9.577   0.475  20.483  1.00  0.00     0.210 HD
ENDBRANCH  48  49
ENDBRANCH  42  48
BRANCH  43  51
ATOM     51  O   UNL     1     -10.118  -2.032  18.955  1.00  0.00    -0.387 OA
ATOM     52  H   UNL     1      -9.677  -1.160  19.084  1.00  0.00     0.211 HD
ENDBRANCH  43  51
ENDBRANCH  37  38
ENDBRANCH   5  37
BRANCH   7  53
ATOM     53  O   UNL     1      -1.621  -4.389  19.442  1.00  0.00    -0.507 OA
ATOM     54  H   UNL     1      -1.079  -5.135  19.018  1.00  0.00     0.293 HD
ENDBRANCH   7  53
TORSDOF 18
ENDMDL
