MODEL 1
REMARK VINA RESULT:    -4.063      0.000      0.000
REMARK INTER + INTRA:          -9.301
REMARK INTER:                  -7.387
REMARK INTRA:                  -1.913
REMARK UNBOUND:                -1.913
REMARK SMILES CCCCCCCCCCCCCC[C@@H](C)C(=O)[O-]
REMARK SMILES IDX 9 1 10 2 11 3 12 4 13 5 14 6 15 7 16 8 17 9 18 10 19 11 8 12
REMARK SMILES IDX 7 13 6 14 5 15 4 16 3 17 2 18 1 19
REMARK H PARENT
REMARK Flexibility Score: inf
ROOT
ATOM      1  C   UNL     1      -4.750  34.671  23.186  1.00  0.00     0.000 C 
ENDROOT
BRANCH   1   2
ATOM      2  C   UNL     1      -4.797  35.528  21.911  1.00  0.00     0.000 C 
BRANCH   2   3
ATOM      3  C   UNL     1      -6.125  35.385  21.151  1.00  0.00     0.000 C 
BRANCH   3   4
ATOM      4  C   UNL     1      -5.879  35.201  19.646  1.00  0.00     0.000 C 
BRANCH   4   5
ATOM      5  C   UNL     1      -4.405  35.400  19.251  1.00  0.00     0.001 C 
BRANCH   5   6
ATOM      6  C   UNL     1      -4.155  35.658  17.750  1.00  0.00     0.009 C 
BRANCH   6   7
ATOM      7  C   UNL     1      -3.432  36.985  17.425  1.00  0.00     0.032 C 
ATOM      8  C   UNL     1      -2.298  37.291  18.414  1.00  0.00     0.014 C 
BRANCH   7   9
ATOM      9  C   UNL     1      -2.888  36.936  16.023  1.00  0.00     0.044 C 
ATOM     10  O   UNL     1      -3.536  37.438  15.067  1.00  0.00    -0.550 OA
ATOM     11  O   UNL     1      -1.653  36.347  15.779  1.00  0.00    -0.550 OA
ENDBRANCH   7   9
ENDBRANCH   6   7
ENDBRANCH   5   6
ENDBRANCH   4   5
ENDBRANCH   3   4
ENDBRANCH   2   3
ENDBRANCH   1   2
BRANCH   1  12
ATOM     12  C   UNL     1      -5.967  34.904  24.099  1.00  0.00     0.000 C 
BRANCH  12  13
ATOM     13  C   UNL     1      -6.125  36.378  24.502  1.00  0.00    -0.000 C 
BRANCH  13  14
ATOM     14  C   UNL     1      -4.995  36.859  25.431  1.00  0.00    -0.000 C 
BRANCH  14  15
ATOM     15  C   UNL     1      -4.172  38.007  24.819  1.00  0.00    -0.000 C 
BRANCH  15  16
ATOM     16  C   UNL     1      -4.987  39.020  23.991  1.00  0.00    -0.000 C 
BRANCH  16  17
ATOM     17  C   UNL     1      -4.616  39.093  22.496  1.00  0.00    -0.000 C 
BRANCH  17  18
ATOM     18  C   UNL     1      -5.816  39.101  21.532  1.00  0.00    -0.003 C 
ATOM     19  C   UNL     1      -5.430  38.729  20.101  1.00  0.00     0.004 C 
ENDBRANCH  17  18
ENDBRANCH  16  17
ENDBRANCH  15  16
ENDBRANCH  14  15
ENDBRANCH  13  14
ENDBRANCH  12  13
ENDBRANCH   1  12
TORSDOF 14
ENDMDL
MODEL 2
REMARK VINA RESULT:    -3.830      2.802      6.578
REMARK INTER + INTRA:          -8.877
REMARK INTER:                  -7.359
REMARK INTRA:                  -1.519
REMARK UNBOUND:                -1.913
REMARK SMILES CCCCCCCCCCCCCC[C@@H](C)C(=O)[O-]
REMARK SMILES IDX 9 1 10 2 11 3 12 4 13 5 14 6 15 7 16 8 17 9 18 10 19 11 8 12
REMARK SMILES IDX 7 13 6 14 5 15 4 16 3 17 2 18 1 19
REMARK H PARENT
REMARK Flexibility Score: inf
ROOT
ATOM      1  C   UNL     1      -5.255  36.237  19.882  1.00  0.00     0.000 C 
ENDROOT
BRANCH   1   2
ATOM      2  C   UNL     1      -4.176  35.173  20.140  1.00  0.00     0.000 C 
BRANCH   2   3
ATOM      3  C   UNL     1      -3.758  35.104  21.617  1.00  0.00     0.000 C 
BRANCH   3   4
ATOM      4  C   UNL     1      -4.885  34.517  22.480  1.00  0.00     0.000 C 
BRANCH   4   5
ATOM      5  C   UNL     1      -5.283  35.432  23.651  1.00  0.00     0.001 C 
BRANCH   5   6
ATOM      6  C   UNL     1      -6.037  36.718  23.253  1.00  0.00     0.009 C 
BRANCH   6   7
ATOM      7  C   UNL     1      -5.538  38.010  23.941  1.00  0.00     0.032 C 
ATOM      8  C   UNL     1      -4.477  37.729  25.014  1.00  0.00     0.014 C 
BRANCH   7   9
ATOM      9  C   UNL     1      -4.982  38.952  22.907  1.00  0.00     0.044 C 
ATOM     10  O   UNL     1      -3.772  38.887  22.566  1.00  0.00    -0.550 OA
ATOM     11  O   UNL     1      -5.812  39.894  22.311  1.00  0.00    -0.550 OA
ENDBRANCH   7   9
ENDBRANCH   6   7
ENDBRANCH   5   6
ENDBRANCH   4   5
ENDBRANCH   3   4
ENDBRANCH   2   3
ENDBRANCH   1   2
BRANCH   1  12
ATOM     12  C   UNL     1      -4.658  37.591  19.455  1.00  0.00     0.000 C 
BRANCH  12  13
ATOM     13  C   UNL     1      -3.895  37.503  18.125  1.00  0.00    -0.000 C 
BRANCH  13  14
ATOM     14  C   UNL     1      -2.369  37.482  18.321  1.00  0.00    -0.000 C 
BRANCH  14  15
ATOM     15  C   UNL     1      -1.632  36.758  17.180  1.00  0.00    -0.000 C 
BRANCH  15  16
ATOM     16  C   UNL     1      -2.543  35.969  16.218  1.00  0.00    -0.000 C 
BRANCH  16  17
ATOM     17  C   UNL     1      -2.429  36.366  14.733  1.00  0.00    -0.000 C 
BRANCH  17  18
ATOM     18  C   UNL     1      -3.758  36.765  14.066  1.00  0.00    -0.003 C 
ATOM     19  C   UNL     1      -4.107  38.239  14.272  1.00  0.00     0.004 C 
ENDBRANCH  17  18
ENDBRANCH  16  17
ENDBRANCH  15  16
ENDBRANCH  14  15
ENDBRANCH  13  14
ENDBRANCH  12  13
ENDBRANCH   1  12
TORSDOF 14
ENDMDL
MODEL 3
REMARK VINA RESULT:    -3.742      1.196      3.055
REMARK INTER + INTRA:          -8.718
REMARK INTER:                  -7.376
REMARK INTRA:                  -1.342
REMARK UNBOUND:                -1.913
REMARK SMILES CCCCCCCCCCCCCC[C@@H](C)C(=O)[O-]
REMARK SMILES IDX 9 1 10 2 11 3 12 4 13 5 14 6 15 7 16 8 17 9 18 10 19 11 8 12
REMARK SMILES IDX 7 13 6 14 5 15 4 16 3 17 2 18 1 19
REMARK H PARENT
REMARK Flexibility Score: inf
ROOT
ATOM      1  C   UNL     1      -4.782  36.023  20.759  1.00  0.00     0.000 C 
ENDROOT
BRANCH   1   2
ATOM      2  C   UNL     1      -6.086  35.348  20.303  1.00  0.00     0.000 C 
BRANCH   2   3
ATOM      3  C   UNL     1      -6.032  34.890  18.837  1.00  0.00     0.000 C 
BRANCH   3   4
ATOM      4  C   UNL     1      -4.639  34.346  18.484  1.00  0.00     0.000 C 
BRANCH   4   5
ATOM      5  C   UNL     1      -4.052  34.981  17.212  1.00  0.00     0.001 C 
BRANCH   5   6
ATOM      6  C   UNL     1      -3.785  36.499  17.297  1.00  0.00     0.009 C 
BRANCH   6   7
ATOM      7  C   UNL     1      -2.791  37.050  16.249  1.00  0.00     0.032 C 
ATOM      8  C   UNL     1      -1.579  36.128  16.052  1.00  0.00     0.014 C 
BRANCH   7   9
ATOM      9  C   UNL     1      -3.498  37.253  14.937  1.00  0.00     0.044 C 
ATOM     10  O   UNL     1      -3.639  36.295  14.130  1.00  0.00    -0.550 OA
ATOM     11  O   UNL     1      -4.015  38.501  14.614  1.00  0.00    -0.550 OA
ENDBRANCH   7   9
ENDBRANCH   6   7
ENDBRANCH   5   6
ENDBRANCH   4   5
ENDBRANCH   3   4
ENDBRANCH   2   3
ENDBRANCH   1   2
BRANCH   1  12
ATOM     12  C   UNL     1      -4.709  37.505  20.347  1.00  0.00     0.000 C 
BRANCH  12  13
ATOM     13  C   UNL     1      -4.112  38.392  21.450  1.00  0.00    -0.000 C 
BRANCH  13  14
ATOM     14  C   UNL     1      -5.171  38.870  22.459  1.00  0.00    -0.000 C 
BRANCH  14  15
ATOM     15  C   UNL     1      -4.640  38.914  23.903  1.00  0.00    -0.000 C 
BRANCH  15  16
ATOM     16  C   UNL     1      -5.102  37.748  24.800  1.00  0.00    -0.000 C 
BRANCH  16  17
ATOM     17  C   UNL     1      -6.078  36.756  24.135  1.00  0.00    -0.000 C 
BRANCH  17  18
ATOM     18  C   UNL     1      -6.125  35.362  24.784  1.00  0.00    -0.003 C 
ATOM     19  C   UNL     1      -6.043  34.228  23.762  1.00  0.00     0.004 C 
ENDBRANCH  17  18
ENDBRANCH  16  17
ENDBRANCH  15  16
ENDBRANCH  14  15
ENDBRANCH  13  14
ENDBRANCH  12  13
ENDBRANCH   1  12
TORSDOF 14
ENDMDL
MODEL 4
REMARK VINA RESULT:    -3.510      2.698      6.305
REMARK INTER + INTRA:          -8.297
REMARK INTER:                  -7.004
REMARK INTRA:                  -1.293
REMARK UNBOUND:                -1.913
REMARK SMILES CCCCCCCCCCCCCC[C@@H](C)C(=O)[O-]
REMARK SMILES IDX 9 1 10 2 11 3 12 4 13 5 14 6 15 7 16 8 17 9 18 10 19 11 8 12
REMARK SMILES IDX 7 13 6 14 5 15 4 16 3 17 2 18 1 19
REMARK H PARENT
REMARK Flexibility Score: inf
ROOT
ATOM      1  C   UNL     1      -3.904  35.484  21.107  1.00  0.00     0.000 C 
ENDROOT
BRANCH   1   2
ATOM      2  C   UNL     1      -4.365  34.486  22.182  1.00  0.00     0.000 C 
BRANCH   2   3
ATOM      3  C   UNL     1      -5.865  34.606  22.494  1.00  0.00     0.000 C 
BRANCH   3   4
ATOM      4  C   UNL     1      -6.111  34.618  24.010  1.00  0.00     0.000 C 
BRANCH   4   5
ATOM      5  C   UNL     1      -6.037  36.029  24.618  1.00  0.00     0.001 C 
BRANCH   5   6
ATOM      6  C   UNL     1      -6.125  37.189  23.603  1.00  0.00     0.009 C 
BRANCH   6   7
ATOM      7  C   UNL     1      -5.364  38.472  24.008  1.00  0.00     0.032 C 
ATOM      8  C   UNL     1      -4.180  38.182  24.940  1.00  0.00     0.014 C 
BRANCH   7   9
ATOM      9  C   UNL     1      -4.881  39.185  22.774  1.00  0.00     0.044 C 
ATOM     10  O   UNL     1      -3.676  39.102  22.417  1.00  0.00    -0.550 OA
ATOM     11  O   UNL     1      -5.771  39.930  22.010  1.00  0.00    -0.550 OA
ENDBRANCH   7   9
ENDBRANCH   6   7
ENDBRANCH   5   6
ENDBRANCH   4   5
ENDBRANCH   3   4
ENDBRANCH   2   3
ENDBRANCH   1   2
BRANCH   1  12
ATOM     12  C   UNL     1      -4.993  35.764  20.055  1.00  0.00     0.000 C 
BRANCH  12  13
ATOM     13  C   UNL     1      -4.582  36.863  19.063  1.00  0.00    -0.000 C 
BRANCH  13  14
ATOM     14  C   UNL     1      -3.105  37.270  19.213  1.00  0.00    -0.000 C 
BRANCH  14  15
ATOM     15  C   UNL     1      -2.288  37.026  17.932  1.00  0.00    -0.000 C 
BRANCH  15  16
ATOM     16  C   UNL     1      -3.129  36.786  16.662  1.00  0.00    -0.000 C 
BRANCH  16  17
ATOM     17  C   UNL     1      -2.317  36.529  15.377  1.00  0.00    -0.000 C 
BRANCH  17  18
ATOM     18  C   UNL     1      -3.139  36.555  14.076  1.00  0.00    -0.003 C 
ATOM     19  C   UNL     1      -4.176  37.677  14.051  1.00  0.00     0.004 C 
ENDBRANCH  17  18
ENDBRANCH  16  17
ENDBRANCH  15  16
ENDBRANCH  14  15
ENDBRANCH  13  14
ENDBRANCH  12  13
ENDBRANCH   1  12
TORSDOF 14
ENDMDL
MODEL 5
REMARK VINA RESULT:    -3.285      2.079      5.823
REMARK INTER + INTRA:          -7.887
REMARK INTER:                  -6.886
REMARK INTRA:                  -1.001
REMARK UNBOUND:                -1.913
REMARK SMILES CCCCCCCCCCCCCC[C@@H](C)C(=O)[O-]
REMARK SMILES IDX 9 1 10 2 11 3 12 4 13 5 14 6 15 7 16 8 17 9 18 10 19 11 8 12
REMARK SMILES IDX 7 13 6 14 5 15 4 16 3 17 2 18 1 19
REMARK H PARENT
REMARK Flexibility Score: inf
ROOT
ATOM      1  C   UNL     1      -5.798  34.975  21.453  1.00  0.00     0.000 C 
ENDROOT
BRANCH   1   2
ATOM      2  C   UNL     1      -5.121  35.059  22.831  1.00  0.00     0.000 C 
BRANCH   2   3
ATOM      3  C   UNL     1      -6.114  35.387  23.957  1.00  0.00     0.000 C 
BRANCH   3   4
ATOM      4  C   UNL     1      -5.870  36.799  24.509  1.00  0.00     0.000 C 
BRANCH   4   5
ATOM      5  C   UNL     1      -4.694  37.516  23.823  1.00  0.00     0.001 C 
BRANCH   5   6
ATOM      6  C   UNL     1      -4.970  38.974  23.398  1.00  0.00     0.009 C 
BRANCH   6   7
ATOM      7  C   UNL     1      -5.782  39.134  22.093  1.00  0.00     0.032 C 
ATOM      8  C   UNL     1      -6.066  40.604  21.755  1.00  0.00     0.014 C 
BRANCH   7   9
ATOM      9  C   UNL     1      -5.047  38.480  20.954  1.00  0.00     0.044 C 
ATOM     10  O   UNL     1      -5.654  38.162  19.898  1.00  0.00    -0.550 OA
ATOM     11  O   UNL     1      -3.683  38.237  21.059  1.00  0.00    -0.550 OA
ENDBRANCH   7   9
ENDBRANCH   6   7
ENDBRANCH   5   6
ENDBRANCH   4   5
ENDBRANCH   3   4
ENDBRANCH   2   3
ENDBRANCH   1   2
BRANCH   1  12
ATOM     12  C   UNL     1      -4.790  35.063  20.294  1.00  0.00     0.000 C 
BRANCH  12  13
ATOM     13  C   UNL     1      -5.398  34.627  18.952  1.00  0.00    -0.000 C 
BRANCH  13  14
ATOM     14  C   UNL     1      -4.615  35.173  17.744  1.00  0.00    -0.000 C 
BRANCH  14  15
ATOM     15  C   UNL     1      -3.516  36.171  18.151  1.00  0.00    -0.000 C 
BRANCH  15  16
ATOM     16  C   UNL     1      -3.116  37.178  17.054  1.00  0.00    -0.000 C 
BRANCH  16  17
ATOM     17  C   UNL     1      -2.240  36.602  15.924  1.00  0.00    -0.000 C 
BRANCH  17  18
ATOM     18  C   UNL     1      -2.967  36.394  14.584  1.00  0.00    -0.003 C 
ATOM     19  C   UNL     1      -3.934  37.530  14.250  1.00  0.00     0.004 C 
ENDBRANCH  17  18
ENDBRANCH  16  17
ENDBRANCH  15  16
ENDBRANCH  14  15
ENDBRANCH  13  14
ENDBRANCH  12  13
ENDBRANCH   1  12
TORSDOF 14
ENDMDL
MODEL 6
REMARK VINA RESULT:    -3.269      1.027      1.873
REMARK INTER + INTRA:          -7.858
REMARK INTER:                  -6.799
REMARK INTRA:                  -1.059
REMARK UNBOUND:                -1.913
REMARK SMILES CCCCCCCCCCCCCC[C@@H](C)C(=O)[O-]
REMARK SMILES IDX 9 1 10 2 11 3 12 4 13 5 14 6 15 7 16 8 17 9 18 10 19 11 8 12
REMARK SMILES IDX 7 13 6 14 5 15 4 16 3 17 2 18 1 19
REMARK H PARENT
REMARK Flexibility Score: inf
ROOT
ATOM      1  C   UNL     1      -4.755  35.749  22.405  1.00  0.00     0.000 C 
ENDROOT
BRANCH   1   2
ATOM      2  C   UNL     1      -4.880  36.231  20.951  1.00  0.00     0.000 C 
BRANCH   2   3
ATOM      3  C   UNL     1      -4.587  35.118  19.933  1.00  0.00     0.000 C 
BRANCH   3   4
ATOM      4  C   UNL     1      -4.135  35.708  18.589  1.00  0.00     0.000 C 
BRANCH   4   5
ATOM      5  C   UNL     1      -3.314  37.000  18.748  1.00  0.00     0.001 C 
BRANCH   5   6
ATOM      6  C   UNL     1      -2.712  37.561  17.442  1.00  0.00     0.009 C 
BRANCH   6   7
ATOM      7  C   UNL     1      -3.229  36.898  16.145  1.00  0.00     0.032 C 
ATOM      8  C   UNL     1      -3.739  37.926  15.125  1.00  0.00     0.014 C 
BRANCH   7   9
ATOM      9  C   UNL     1      -2.135  36.067  15.529  1.00  0.00     0.044 C 
ATOM     10  O   UNL     1      -1.572  35.158  16.194  1.00  0.00    -0.550 OA
ATOM     11  O   UNL     1      -1.750  36.293  14.213  1.00  0.00    -0.550 OA
ENDBRANCH   7   9
ENDBRANCH   6   7
ENDBRANCH   5   6
ENDBRANCH   4   5
ENDBRANCH   3   4
ENDBRANCH   2   3
ENDBRANCH   1   2
BRANCH   1  12
ATOM     12  C   UNL     1      -6.034  35.058  22.911  1.00  0.00     0.000 C 
BRANCH  12  13
ATOM     13  C   UNL     1      -6.125  35.039  24.444  1.00  0.00    -0.000 C 
BRANCH  13  14
ATOM     14  C   UNL     1      -6.089  36.452  25.054  1.00  0.00    -0.000 C 
BRANCH  14  15
ATOM     15  C   UNL     1      -4.659  36.928  25.366  1.00  0.00    -0.000 C 
BRANCH  15  16
ATOM     16  C   UNL     1      -4.364  38.392  24.984  1.00  0.00    -0.000 C 
BRANCH  16  17
ATOM     17  C   UNL     1      -5.349  39.017  23.976  1.00  0.00    -0.000 C 
BRANCH  17  18
ATOM     18  C   UNL     1      -4.709  39.509  22.666  1.00  0.00    -0.003 C 
ATOM     19  C   UNL     1      -5.650  39.398  21.467  1.00  0.00     0.004 C 
ENDBRANCH  17  18
ENDBRANCH  16  17
ENDBRANCH  15  16
ENDBRANCH  14  15
ENDBRANCH  13  14
ENDBRANCH  12  13
ENDBRANCH   1  12
TORSDOF 14
ENDMDL
MODEL 7
REMARK VINA RESULT:    -3.153      0.860      2.900
REMARK INTER + INTRA:          -7.646
REMARK INTER:                  -7.055
REMARK INTRA:                  -0.591
REMARK UNBOUND:                -1.913
REMARK SMILES CCCCCCCCCCCCCC[C@@H](C)C(=O)[O-]
REMARK SMILES IDX 9 1 10 2 11 3 12 4 13 5 14 6 15 7 16 8 17 9 18 10 19 11 8 12
REMARK SMILES IDX 7 13 6 14 5 15 4 16 3 17 2 18 1 19
REMARK H PARENT
REMARK Flexibility Score: inf
ROOT
ATOM      1  C   UNL     1      -5.629  37.619  20.565  1.00  0.00     0.000 C 
ENDROOT
BRANCH   1   2
ATOM      2  C   UNL     1      -5.835  36.113  20.797  1.00  0.00     0.000 C 
BRANCH   2   3
ATOM      3  C   UNL     1      -6.045  35.338  19.487  1.00  0.00     0.000 C 
BRANCH   3   4
ATOM      4  C   UNL     1      -4.712  34.794  18.951  1.00  0.00     0.000 C 
BRANCH   4   5
ATOM      5  C   UNL     1      -4.019  35.760  17.974  1.00  0.00     0.001 C 
BRANCH   5   6
ATOM      6  C   UNL     1      -3.180  36.874  18.635  1.00  0.00     0.009 C 
BRANCH   6   7
ATOM      7  C   UNL     1      -2.190  37.595  17.691  1.00  0.00     0.032 C 
ATOM      8  C   UNL     1      -0.726  37.352  18.083  1.00  0.00     0.014 C 
BRANCH   7   9
ATOM      9  C   UNL     1      -2.422  37.145  16.274  1.00  0.00     0.044 C 
ATOM     10  O   UNL     1      -3.342  37.657  15.582  1.00  0.00    -0.550 OA
ATOM     11  O   UNL     1      -1.607  36.169  15.714  1.00  0.00    -0.550 OA
ENDBRANCH   7   9
ENDBRANCH   6   7
ENDBRANCH   5   6
ENDBRANCH   4   5
ENDBRANCH   3   4
ENDBRANCH   2   3
ENDBRANCH   1   2
BRANCH   1  12
ATOM     12  C   UNL     1      -4.557  38.218  21.492  1.00  0.00     0.000 C 
BRANCH  12  13
ATOM     13  C   UNL     1      -5.044  39.484  22.214  1.00  0.00    -0.000 C 
BRANCH  13  14
ATOM     14  C   UNL     1      -5.060  39.321  23.744  1.00  0.00    -0.000 C 
BRANCH  14  15
ATOM     15  C   UNL     1      -4.368  38.028  24.211  1.00  0.00    -0.000 C 
BRANCH  15  16
ATOM     16  C   UNL     1      -4.950  37.409  25.497  1.00  0.00    -0.000 C 
BRANCH  16  17
ATOM     17  C   UNL     1      -5.879  36.198  25.280  1.00  0.00    -0.000 C 
BRANCH  17  18
ATOM     18  C   UNL     1      -5.651  35.436  23.963  1.00  0.00    -0.003 C 
ATOM     19  C   UNL     1      -6.102  33.977  24.034  1.00  0.00     0.004 C 
ENDBRANCH  17  18
ENDBRANCH  16  17
ENDBRANCH  15  16
ENDBRANCH  14  15
ENDBRANCH  13  14
ENDBRANCH  12  13
ENDBRANCH   1  12
TORSDOF 14
ENDMDL
MODEL 8
REMARK VINA RESULT:    -3.045      3.103      7.006
REMARK INTER + INTRA:          -7.451
REMARK INTER:                  -6.639
REMARK INTRA:                  -0.811
REMARK UNBOUND:                -1.913
REMARK SMILES CCCCCCCCCCCCCC[C@@H](C)C(=O)[O-]
REMARK SMILES IDX 9 1 10 2 11 3 12 4 13 5 14 6 15 7 16 8 17 9 18 10 19 11 8 12
REMARK SMILES IDX 7 13 6 14 5 15 4 16 3 17 2 18 1 19
REMARK H PARENT
REMARK Flexibility Score: inf
ROOT
ATOM      1  C   UNL     1      -3.779  36.649  19.954  1.00  0.00     0.000 C 
ENDROOT
BRANCH   1   2
ATOM      2  C   UNL     1      -3.837  38.036  20.615  1.00  0.00     0.000 C 
BRANCH   2   3
ATOM      3  C   UNL     1      -5.267  38.448  20.999  1.00  0.00     0.000 C 
BRANCH   3   4
ATOM      4  C   UNL     1      -5.252  39.573  22.044  1.00  0.00     0.000 C 
BRANCH   4   5
ATOM      5  C   UNL     1      -5.369  39.052  23.487  1.00  0.00     0.001 C 
BRANCH   5   6
ATOM      6  C   UNL     1      -6.091  37.697  23.641  1.00  0.00     0.009 C 
BRANCH   6   7
ATOM      7  C   UNL     1      -5.171  36.496  23.960  1.00  0.00     0.032 C 
ATOM      8  C   UNL     1      -4.990  36.282  25.469  1.00  0.00     0.014 C 
BRANCH   7   9
ATOM      9  C   UNL     1      -5.729  35.249  23.329  1.00  0.00     0.044 C 
ATOM     10  O   UNL     1      -5.856  34.193  24.003  1.00  0.00    -0.550 OA
ATOM     11  O   UNL     1      -6.121  35.262  21.996  1.00  0.00    -0.550 OA
ENDBRANCH   7   9
ENDBRANCH   6   7
ENDBRANCH   5   6
ENDBRANCH   4   5
ENDBRANCH   3   4
ENDBRANCH   2   3
ENDBRANCH   1   2
BRANCH   1  12
ATOM     12  C   UNL     1      -4.944  36.412  18.976  1.00  0.00     0.000 C 
BRANCH  12  13
ATOM     13  C   UNL     1      -4.859  35.044  18.282  1.00  0.00    -0.000 C 
BRANCH  13  14
ATOM     14  C   UNL     1      -3.730  34.982  17.238  1.00  0.00    -0.000 C 
BRANCH  14  15
ATOM     15  C   UNL     1      -3.291  36.375  16.754  1.00  0.00    -0.000 C 
BRANCH  15  16
ATOM     16  C   UNL     1      -2.096  36.377  15.780  1.00  0.00    -0.000 C 
BRANCH  16  17
ATOM     17  C   UNL     1      -2.462  36.549  14.292  1.00  0.00    -0.000 C 
BRANCH  17  18
ATOM     18  C   UNL     1      -3.933  36.914  14.026  1.00  0.00    -0.003 C 
ATOM     19  C   UNL     1      -4.219  38.403  14.215  1.00  0.00     0.004 C 
ENDBRANCH  17  18
ENDBRANCH  16  17
ENDBRANCH  15  16
ENDBRANCH  14  15
ENDBRANCH  13  14
ENDBRANCH  12  13
ENDBRANCH   1  12
TORSDOF 14
ENDMDL
MODEL 9
REMARK VINA RESULT:    -2.817      3.004      6.875
REMARK INTER + INTRA:          -7.036
REMARK INTER:                  -5.628
REMARK INTRA:                  -1.408
REMARK UNBOUND:                -1.913
REMARK SMILES CCCCCCCCCCCCCC[C@@H](C)C(=O)[O-]
REMARK SMILES IDX 9 1 10 2 11 3 12 4 13 5 14 6 15 7 16 8 17 9 18 10 19 11 8 12
REMARK SMILES IDX 7 13 6 14 5 15 4 16 3 17 2 18 1 19
REMARK H PARENT
REMARK Flexibility Score: inf
ROOT
ATOM      1  C   UNL     1      -4.902  36.868  19.370  1.00  0.00     0.000 C 
ENDROOT
BRANCH   1   2
ATOM      2  C   UNL     1      -4.153  37.617  20.484  1.00  0.00     0.000 C 
BRANCH   2   3
ATOM      3  C   UNL     1      -5.052  38.612  21.233  1.00  0.00     0.000 C 
BRANCH   3   4
ATOM      4  C   UNL     1      -4.331  39.185  22.462  1.00  0.00     0.000 C 
BRANCH   4   5
ATOM      5  C   UNL     1      -5.017  38.813  23.788  1.00  0.00     0.001 C 
BRANCH   5   6
ATOM      6  C   UNL     1      -5.991  37.618  23.711  1.00  0.00     0.009 C 
BRANCH   6   7
ATOM      7  C   UNL     1      -5.441  36.286  24.270  1.00  0.00     0.032 C 
ATOM      8  C   UNL     1      -5.955  35.987  25.685  1.00  0.00     0.014 C 
BRANCH   7   9
ATOM      9  C   UNL     1      -5.806  35.158  23.344  1.00  0.00     0.044 C 
ATOM     10  O   UNL     1      -6.125  35.389  22.148  1.00  0.00    -0.550 OA
ATOM     11  O   UNL     1      -5.780  33.847  23.805  1.00  0.00    -0.550 OA
ENDBRANCH   7   9
ENDBRANCH   6   7
ENDBRANCH   5   6
ENDBRANCH   4   5
ENDBRANCH   3   4
ENDBRANCH   2   3
ENDBRANCH   1   2
BRANCH   1  12
ATOM     12  C   UNL     1      -4.491  35.388  19.273  1.00  0.00     0.000 C 
BRANCH  12  13
ATOM     13  C   UNL     1      -4.732  34.802  17.873  1.00  0.00    -0.000 C 
BRANCH  13  14
ATOM     14  C   UNL     1      -3.510  34.958  16.950  1.00  0.00    -0.000 C 
BRANCH  14  15
ATOM     15  C   UNL     1      -3.658  36.128  15.961  1.00  0.00    -0.000 C 
BRANCH  15  16
ATOM     16  C   UNL     1      -2.334  36.800  15.549  1.00  0.00    -0.000 C 
BRANCH  16  17
ATOM     17  C   UNL     1      -1.254  36.851  16.649  1.00  0.00    -0.000 C 
BRANCH  17  18
ATOM     18  C   UNL     1      -1.634  37.678  17.890  1.00  0.00    -0.003 C 
ATOM     19  C   UNL     1      -0.764  37.359  19.106  1.00  0.00     0.004 C 
ENDBRANCH  17  18
ENDBRANCH  16  17
ENDBRANCH  15  16
ENDBRANCH  14  15
ENDBRANCH  13  14
ENDBRANCH  12  13
ENDBRANCH   1  12
TORSDOF 14
ENDMDL
