MODEL 1
REMARK VINA RESULT:    10.674      0.000      0.000
REMARK INTER + INTRA:          19.119
REMARK INTER:                  15.665
REMARK INTRA:                   3.453
REMARK UNBOUND:                 3.453
REMARK SMILES C=C1CC=CC(C)(C)CC=C(C)CCC1
REMARK SMILES IDX 2 1 1 2 15 3 14 4 13 5 11 6 12 7 10 8 3 10 4 11 5 12 6 13
REMARK SMILES IDX 7 14 8 15 9 16
REMARK H PARENT
REMARK Flexibility Score: 60.00
ROOT
ATOM      1  C   UNL     1      -1.851   5.464 -12.047  1.00  0.00    -0.074 C 
ATOM      2  C   UNL     1      -2.626   4.920 -13.000  1.00  0.00     0.008 C 
ENDROOT
BRANCH   1   3
ATOM      3  C   UNL     1      -2.501   6.101 -10.828  1.00  0.00     0.031 C 
BRANCH   3   4
ATOM      4  C   UNL     1      -1.701   5.901  -9.532  1.00  0.00     0.009 C 
BRANCH   4   5
ATOM      5  C   UNL     1      -2.040   6.922  -8.427  1.00  0.00     0.030 C 
BRANCH   5   6
ATOM      6  C   UNL     1      -0.790   7.334  -7.672  1.00  0.00    -0.077 C 
ATOM      7  C   UNL     1      -0.774   8.682  -6.995  1.00  0.00     0.039 C 
ATOM      8  C   UNL     1       0.296   6.536  -7.525  1.00  0.00    -0.027 CG0
ATOM      9  G   UNL     1       0.496   5.172  -8.161  1.00  0.00     0.000 G0
ENDBRANCH   5   6
ENDBRANCH   4   5
ENDBRANCH   3   4
ENDBRANCH   1   3
BRANCH   1  10
ATOM     10  C   UNL     1      -0.351   5.255 -12.098  1.00  0.00     0.057 C 
BRANCH  10  11
ATOM     11  C   UNL     1       0.437   6.369 -11.455  1.00  0.00    -0.026 C 
ATOM     12  C   UNL     1       1.190   6.335 -10.329  1.00  0.00    -0.024 C 
BRANCH  12  13
ATOM     13  C   UNL     1       1.468   5.172  -9.366  1.00  0.00    -0.014 C 
ATOM     14  C   UNL     1       2.925   5.191  -8.844  1.00  0.00     0.016 C 
ATOM     15  C   UNL     1       1.296   3.851 -10.157  1.00  0.00     0.016 C 
BRANCH  13  16
ATOM     16  C   UNL     1       0.489   5.183  -8.157  1.00  0.00     0.038 CG0
ATOM     17  G   UNL     1       0.307   6.544  -7.509  1.00  0.00     0.000 G0
ENDBRANCH  13  16
ENDBRANCH  12  13
ENDBRANCH  10  11
ENDBRANCH   1  10
TORSDOF 0
ENDMDL
MODEL 2
REMARK VINA RESULT:    10.913      1.565      4.643
REMARK INTER + INTRA:          19.470
REMARK INTER:                  16.884
REMARK INTRA:                   2.586
REMARK UNBOUND:                 3.453
REMARK SMILES C=C1CC=CC(C)(C)CC=C(C)CCC1
REMARK SMILES IDX 2 1 1 2 15 3 14 4 13 5 11 6 12 7 10 8 3 10 4 11 5 12 6 13
REMARK SMILES IDX 7 14 8 15 9 16
REMARK H PARENT
REMARK Flexibility Score: 60.00
ROOT
ATOM      1  C   UNL     1      -0.712   7.352  -7.749  1.00  0.00    -0.074 C 
ATOM      2  C   UNL     1      -1.661   7.922  -6.986  1.00  0.00     0.008 C 
ENDROOT
BRANCH   1   3
ATOM      3  C   UNL     1       0.539   6.792  -7.092  1.00  0.00     0.031 C 
BRANCH   3   4
ATOM      4  C   UNL     1       1.191   5.651  -7.888  1.00  0.00     0.009 C 
BRANCH   4   5
ATOM      5  C   UNL     1       1.270   5.916  -9.405  1.00  0.00     0.030 C 
BRANCH   5   6
ATOM      6  C   UNL     1       1.109   4.625 -10.186  1.00  0.00    -0.077 C 
ATOM      7  C   UNL     1       1.723   3.367  -9.625  1.00  0.00     0.039 C 
ATOM      8  C   UNL     1       0.396   4.526 -11.335  1.00  0.00    -0.027 CG0
ATOM      9  G   UNL     1      -0.257   5.674 -12.084  1.00  0.00     0.000 G0
ENDBRANCH   5   6
ENDBRANCH   4   5
ENDBRANCH   3   4
ENDBRANCH   1   3
BRANCH   1  10
ATOM     10  C   UNL     1      -0.994   7.095  -9.216  1.00  0.00     0.057 C 
BRANCH  10  11
ATOM     11  C   UNL     1      -1.998   5.995  -9.453  1.00  0.00    -0.026 C 
ATOM     12  C   UNL     1      -2.338   5.394 -10.619  1.00  0.00    -0.024 C 
BRANCH  12  13
ATOM     13  C   UNL     1      -1.822   5.646 -12.043  1.00  0.00    -0.014 C 
ATOM     14  C   UNL     1      -2.368   6.971 -12.628  1.00  0.00     0.016 C 
ATOM     15  C   UNL     1      -2.356   4.507 -12.948  1.00  0.00     0.016 C 
BRANCH  13  16
ATOM     16  C   UNL     1      -0.267   5.664 -12.095  1.00  0.00     0.038 CG0
ATOM     17  G   UNL     1       0.400   4.538 -11.325  1.00  0.00     0.000 G0
ENDBRANCH  13  16
ENDBRANCH  12  13
ENDBRANCH  10  11
ENDBRANCH   1  10
TORSDOF 0
ENDMDL
MODEL 3
REMARK VINA RESULT:    11.549      1.193      4.002
REMARK INTER + INTRA:          20.404
REMARK INTER:                  17.640
REMARK INTRA:                   2.764
REMARK UNBOUND:                 3.453
REMARK SMILES C=C1CC=CC(C)(C)CC=C(C)CCC1
REMARK SMILES IDX 2 1 1 2 15 3 14 4 13 5 11 6 12 7 10 8 3 10 4 11 5 12 6 13
REMARK SMILES IDX 7 14 8 15 9 16
REMARK H PARENT
REMARK Flexibility Score: 60.00
ROOT
ATOM      1  C   UNL     1      -1.494   7.701  -7.551  1.00  0.00    -0.074 C 
ATOM      2  C   UNL     1      -1.926   8.653  -6.707  1.00  0.00     0.008 C 
ENDROOT
BRANCH   1   3
ATOM      3  C   UNL     1      -2.493   6.983  -8.444  1.00  0.00     0.031 C 
BRANCH   3   4
ATOM      4  C   UNL     1      -1.849   5.946  -9.376  1.00  0.00     0.009 C 
BRANCH   4   5
ATOM      5  C   UNL     1      -2.368   6.004 -10.826  1.00  0.00     0.030 C 
BRANCH   5   6
ATOM      6  C   UNL     1      -1.307   5.523 -11.799  1.00  0.00    -0.077 C 
ATOM      7  C   UNL     1      -1.755   4.921 -13.107  1.00  0.00     0.039 C 
ATOM      8  C   UNL     1       0.025   5.652 -11.582  1.00  0.00    -0.027 CG0
ATOM      9  G   UNL     1       0.678   6.186 -10.319  1.00  0.00     0.000 G0
ENDBRANCH   5   6
ENDBRANCH   4   5
ENDBRANCH   3   4
ENDBRANCH   1   3
BRANCH   1  10
ATOM     10  C   UNL     1      -0.004   7.502  -7.747  1.00  0.00     0.057 C 
BRANCH  10  11
ATOM     11  C   UNL     1       0.489   6.150  -7.295  1.00  0.00    -0.026 C 
ATOM     12  C   UNL     1       1.112   5.189  -8.019  1.00  0.00    -0.024 C 
BRANCH  12  13
ATOM     13  C   UNL     1       1.499   5.171  -9.505  1.00  0.00    -0.014 C 
ATOM     14  C   UNL     1       1.331   3.764 -10.127  1.00  0.00     0.016 C 
ATOM     15  C   UNL     1       3.004   5.526  -9.606  1.00  0.00     0.016 C 
BRANCH  13  16
ATOM     16  C   UNL     1       0.667   6.198 -10.326  1.00  0.00     0.038 CG0
ATOM     17  G   UNL     1       0.027   5.629 -11.580  1.00  0.00     0.000 G0
ENDBRANCH  13  16
ENDBRANCH  12  13
ENDBRANCH  10  11
ENDBRANCH   1  10
TORSDOF 0
ENDMDL
MODEL 4
REMARK VINA RESULT:    12.396      1.380      3.703
REMARK INTER + INTRA:          21.647
REMARK INTER:                  20.108
REMARK INTRA:                   1.539
REMARK UNBOUND:                 3.453
REMARK SMILES C=C1CC=CC(C)(C)CC=C(C)CCC1
REMARK SMILES IDX 2 1 1 2 15 3 14 4 13 5 11 6 12 7 10 8 3 10 4 11 5 12 6 13
REMARK SMILES IDX 7 14 8 15 9 16
REMARK H PARENT
REMARK Flexibility Score: 60.00
ROOT
ATOM      1  C   UNL     1       1.233   5.127  -9.525  1.00  0.00    -0.074 C 
ATOM      2  C   UNL     1       1.353   3.876 -10.000  1.00  0.00     0.008 C 
ENDROOT
BRANCH   1   3
ATOM      3  C   UNL     1       1.571   5.409  -8.069  1.00  0.00     0.031 C 
BRANCH   3   4
ATOM      4  C   UNL     1       0.595   6.383  -7.391  1.00  0.00     0.009 C 
BRANCH   4   5
ATOM      5  C   UNL     1      -0.879   5.935  -7.459  1.00  0.00     0.030 C 
BRANCH   5   6
ATOM      6  C   UNL     1      -1.707   6.928  -8.253  1.00  0.00    -0.077 C 
ATOM      7  C   UNL     1      -2.036   8.257  -7.618  1.00  0.00     0.039 C 
ATOM      8  C   UNL     1      -2.124   6.712  -9.525  1.00  0.00    -0.027 CG0
ATOM      9  G   UNL     1      -1.938   5.432 -10.321  1.00  0.00     0.000 G0
ENDBRANCH   5   6
ENDBRANCH   4   5
ENDBRANCH   3   4
ENDBRANCH   1   3
BRANCH   1  10
ATOM     10  C   UNL     1       0.965   6.266 -10.488  1.00  0.00     0.057 C 
BRANCH  10  11
ATOM     11  C   UNL     1       0.678   5.810 -11.897  1.00  0.00    -0.026 C 
ATOM     12  C   UNL     1      -0.517   5.540 -12.474  1.00  0.00    -0.024 C 
BRANCH  12  13
ATOM     13  C   UNL     1      -1.933   5.604 -11.883  1.00  0.00    -0.014 C 
ATOM     14  C   UNL     1      -2.863   4.530 -12.496  1.00  0.00     0.016 C 
ATOM     15  C   UNL     1      -2.538   6.982 -12.254  1.00  0.00     0.016 C 
BRANCH  13  16
ATOM     16  C   UNL     1      -1.915   5.446 -10.336  1.00  0.00     0.038 CG0
ATOM     17  G   UNL     1      -2.135   6.738  -9.569  1.00  0.00     0.000 G0
ENDBRANCH  13  16
ENDBRANCH  12  13
ENDBRANCH  10  11
ENDBRANCH   1  10
TORSDOF 0
ENDMDL
