MODEL 1
REMARK VINA RESULT:    -6.000      0.000      0.000
REMARK INTER + INTRA:          -6.577
REMARK INTER:                  -6.351
REMARK INTRA:                  -0.226
REMARK UNBOUND:                -0.226
REMARK SMILES O=c1cc(-c2ccccc2)oc2ccccc12
REMARK SMILES IDX 4 1 3 2 2 3 1 4 17 5 16 6 15 7 14 8 13 9 12 10 11 11 5 12
REMARK SMILES IDX 8 13 7 14 9 15 6 16 10 17
REMARK H PARENT
REMARK Flexibility Score: inf
ROOT
ATOM      1  C   UNL     1       7.423  -9.771  -9.837  1.00  0.00     0.138 A 
ATOM      2  C   UNL     1       6.941 -10.540  -8.758  1.00  0.00     0.100 A 
ATOM      3  C   UNL     1       7.197 -10.127  -7.449  1.00  0.00     0.193 A 
ATOM      4  O   UNL     1       6.765 -10.816  -6.484  1.00  0.00    -0.289 OA
ATOM      5  C   UNL     1       7.931  -8.955  -7.226  1.00  0.00     0.065 A 
ATOM      6  C   UNL     1       8.225  -8.484  -5.933  1.00  0.00     0.016 A 
ATOM      7  C   UNL     1       8.963  -7.307  -5.768  1.00  0.00     0.001 A 
ATOM      8  C   UNL     1       9.410  -6.595  -6.884  1.00  0.00     0.004 A 
ATOM      9  C   UNL     1       9.122  -7.055  -8.172  1.00  0.00     0.048 A 
ATOM     10  C   UNL     1       8.386  -8.232  -8.349  1.00  0.00     0.138 A 
ATOM     11  O   UNL     1       8.118  -8.662  -9.578  1.00  0.00    -0.456 OA
ENDROOT
BRANCH   1  12
ATOM     12  C   UNL     1       7.193 -10.141 -11.268  1.00  0.00     0.017 A 
ATOM     13  C   UNL     1       6.694 -10.764 -13.975  1.00  0.00     0.000 A 
ATOM     14  C   UNL     1       6.031  -9.697 -13.371  1.00  0.00     0.001 A 
ATOM     15  C   UNL     1       7.604 -11.522 -13.240  1.00  0.00     0.001 A 
ATOM     16  C   UNL     1       6.276  -9.387 -12.031  1.00  0.00     0.012 A 
ATOM     17  C   UNL     1       7.856 -11.219 -11.898  1.00  0.00     0.012 A 
ENDBRANCH   1  12
TORSDOF 1
ENDMDL
MODEL 2
REMARK VINA RESULT:    -5.907      2.574      5.023
REMARK INTER + INTRA:          -6.478
REMARK INTER:                  -6.251
REMARK INTRA:                  -0.227
REMARK UNBOUND:                -0.226
REMARK SMILES O=c1cc(-c2ccccc2)oc2ccccc12
REMARK SMILES IDX 4 1 3 2 2 3 1 4 17 5 16 6 15 7 14 8 13 9 12 10 11 11 5 12
REMARK SMILES IDX 8 13 7 14 9 15 6 16 10 17
REMARK H PARENT
REMARK Flexibility Score: inf
ROOT
ATOM      1  C   UNL     1       6.927 -10.683  -7.017  1.00  0.00     0.138 A 
ATOM      2  C   UNL     1       7.085 -10.516  -8.408  1.00  0.00     0.100 A 
ATOM      3  C   UNL     1       7.773  -9.402  -8.894  1.00  0.00     0.193 A 
ATOM      4  O   UNL     1       7.914  -9.253 -10.138  1.00  0.00    -0.289 OA
ATOM      5  C   UNL     1       8.294  -8.465  -7.992  1.00  0.00     0.065 A 
ATOM      6  C   UNL     1       8.996  -7.321  -8.415  1.00  0.00     0.016 A 
ATOM      7  C   UNL     1       9.496  -6.418  -7.471  1.00  0.00     0.001 A 
ATOM      8  C   UNL     1       9.301  -6.647  -6.107  1.00  0.00     0.004 A 
ATOM      9  C   UNL     1       8.605  -7.780  -5.677  1.00  0.00     0.048 A 
ATOM     10  C   UNL     1       8.100  -8.691  -6.613  1.00  0.00     0.138 A 
ATOM     11  O   UNL     1       7.440  -9.765  -6.194  1.00  0.00    -0.456 OA
ENDROOT
BRANCH   1  12
ATOM     12  C   UNL     1       6.206 -11.847  -6.413  1.00  0.00     0.017 A 
ATOM     13  C   UNL     1       4.932 -14.074  -5.239  1.00  0.00     0.000 A 
ATOM     14  C   UNL     1       6.312 -13.918  -5.122  1.00  0.00     0.001 A 
ATOM     15  C   UNL     1       4.182 -13.129  -5.937  1.00  0.00     0.001 A 
ATOM     16  C   UNL     1       6.945 -12.815  -5.702  1.00  0.00     0.012 A 
ATOM     17  C   UNL     1       4.807 -12.022  -6.521  1.00  0.00     0.012 A 
ENDBRANCH   1  12
TORSDOF 1
ENDMDL
MODEL 3
REMARK VINA RESULT:    -5.864      9.306     12.013
REMARK INTER + INTRA:          -6.434
REMARK INTER:                  -6.169
REMARK INTRA:                  -0.264
REMARK UNBOUND:                -0.226
REMARK SMILES O=c1cc(-c2ccccc2)oc2ccccc12
REMARK SMILES IDX 4 1 3 2 2 3 1 4 17 5 16 6 15 7 14 8 13 9 12 10 11 11 5 12
REMARK SMILES IDX 8 13 7 14 9 15 6 16 10 17
REMARK H PARENT
REMARK Flexibility Score: inf
ROOT
ATOM      1  C   UNL     1       5.913 -19.192  -9.782  1.00  0.00     0.138 A 
ATOM      2  C   UNL     1       6.659 -19.702 -10.865  1.00  0.00     0.100 A 
ATOM      3  C   UNL     1       6.050 -20.573 -11.771  1.00  0.00     0.193 A 
ATOM      4  O   UNL     1       6.718 -21.029 -12.740  1.00  0.00    -0.289 OA
ATOM      5  C   UNL     1       4.707 -20.929 -11.591  1.00  0.00     0.065 A 
ATOM      6  C   UNL     1       4.035 -21.802 -12.467  1.00  0.00     0.016 A 
ATOM      7  C   UNL     1       2.693 -22.124 -12.239  1.00  0.00     0.001 A 
ATOM      8  C   UNL     1       2.015 -21.581 -11.145  1.00  0.00     0.004 A 
ATOM      9  C   UNL     1       2.674 -20.713 -10.270  1.00  0.00     0.048 A 
ATOM     10  C   UNL     1       4.018 -20.384 -10.487  1.00  0.00     0.138 A 
ATOM     11  O   UNL     1       4.636 -19.558  -9.649  1.00  0.00    -0.456 OA
ENDROOT
BRANCH   1  12
ATOM     12  C   UNL     1       6.487 -18.254  -8.768  1.00  0.00     0.017 A 
ATOM     13  C   UNL     1       7.490 -16.501  -6.797  1.00  0.00     0.000 A 
ATOM     14  C   UNL     1       6.257 -17.126  -6.613  1.00  0.00     0.001 A 
ATOM     15  C   UNL     1       8.226 -16.743  -7.956  1.00  0.00     0.001 A 
ATOM     16  C   UNL     1       5.759 -17.995  -7.587  1.00  0.00     0.012 A 
ATOM     17  C   UNL     1       7.734 -17.612  -8.936  1.00  0.00     0.012 A 
ENDBRANCH   1  12
TORSDOF 1
ENDMDL
MODEL 4
REMARK VINA RESULT:    -5.862      8.793     11.540
REMARK INTER + INTRA:          -6.431
REMARK INTER:                  -6.166
REMARK INTRA:                  -0.265
REMARK UNBOUND:                -0.226
REMARK SMILES O=c1cc(-c2ccccc2)oc2ccccc12
REMARK SMILES IDX 4 1 3 2 2 3 1 4 17 5 16 6 15 7 14 8 13 9 12 10 11 11 5 12
REMARK SMILES IDX 8 13 7 14 9 15 6 16 10 17
REMARK H PARENT
REMARK Flexibility Score: inf
ROOT
ATOM      1  C   UNL     1       5.240 -18.672  -8.860  1.00  0.00     0.138 A 
ATOM      2  C   UNL     1       3.907 -19.112  -8.721  1.00  0.00     0.100 A 
ATOM      3  C   UNL     1       3.378 -20.011  -9.648  1.00  0.00     0.193 A 
ATOM      4  O   UNL     1       2.187 -20.405  -9.523  1.00  0.00    -0.289 OA
ATOM      5  C   UNL     1       4.179 -20.463 -10.706  1.00  0.00     0.065 A 
ATOM      6  C   UNL     1       3.708 -21.368 -11.675  1.00  0.00     0.016 A 
ATOM      7  C   UNL     1       4.550 -21.786 -12.710  1.00  0.00     0.001 A 
ATOM      8  C   UNL     1       5.861 -21.308 -12.787  1.00  0.00     0.004 A 
ATOM      9  C   UNL     1       6.338 -20.409 -11.829  1.00  0.00     0.048 A 
ATOM     10  C   UNL     1       5.503 -19.983 -10.789  1.00  0.00     0.138 A 
ATOM     11  O   UNL     1       5.966 -19.128  -9.883  1.00  0.00    -0.456 OA
ENDROOT
BRANCH   1  12
ATOM     12  C   UNL     1       5.884 -17.711  -7.911  1.00  0.00     0.017 A 
ATOM     13  C   UNL     1       7.185 -15.912  -6.169  1.00  0.00     0.000 A 
ATOM     14  C   UNL     1       7.902 -16.541  -7.185  1.00  0.00     0.001 A 
ATOM     15  C   UNL     1       5.824 -16.173  -6.015  1.00  0.00     0.001 A 
ATOM     16  C   UNL     1       7.260 -17.432  -8.049  1.00  0.00     0.012 A 
ATOM     17  C   UNL     1       5.173 -17.063  -6.875  1.00  0.00     0.012 A 
ENDBRANCH   1  12
TORSDOF 1
ENDMDL
MODEL 5
REMARK VINA RESULT:    -5.732      8.950     10.493
REMARK INTER + INTRA:          -6.294
REMARK INTER:                  -6.034
REMARK INTRA:                  -0.260
REMARK UNBOUND:                -0.226
REMARK SMILES O=c1cc(-c2ccccc2)oc2ccccc12
REMARK SMILES IDX 4 1 3 2 2 3 1 4 17 5 16 6 15 7 14 8 13 9 12 10 11 11 5 12
REMARK SMILES IDX 8 13 7 14 9 15 6 16 10 17
REMARK H PARENT
REMARK Flexibility Score: inf
ROOT
ATOM      1  C   UNL     1       5.805 -19.560  -9.789  1.00  0.00     0.138 A 
ATOM      2  C   UNL     1       6.873 -18.661  -9.988  1.00  0.00     0.100 A 
ATOM      3  C   UNL     1       7.343 -17.902  -8.914  1.00  0.00     0.193 A 
ATOM      4  O   UNL     1       8.299 -17.098  -9.093  1.00  0.00    -0.289 OA
ATOM      5  C   UNL     1       6.747 -18.044  -7.654  1.00  0.00     0.065 A 
ATOM      6  C   UNL     1       7.172 -17.310  -6.532  1.00  0.00     0.016 A 
ATOM      7  C   UNL     1       6.540 -17.490  -5.297  1.00  0.00     0.001 A 
ATOM      8  C   UNL     1       5.487 -18.400  -5.173  1.00  0.00     0.004 A 
ATOM      9  C   UNL     1       5.058 -19.134  -6.282  1.00  0.00     0.048 A 
ATOM     10  C   UNL     1       5.682 -18.960  -7.523  1.00  0.00     0.138 A 
ATOM     11  O   UNL     1       5.266 -19.663  -8.572  1.00  0.00    -0.456 OA
ENDROOT
BRANCH   1  12
ATOM     12  C   UNL     1       5.241 -20.411 -10.883  1.00  0.00     0.017 A 
ATOM     13  C   UNL     1       4.264 -22.005 -12.996  1.00  0.00     0.000 A 
ATOM     14  C   UNL     1       5.552 -21.477 -13.059  1.00  0.00     0.001 A 
ATOM     15  C   UNL     1       3.459 -21.745 -11.888  1.00  0.00     0.001 A 
ATOM     16  C   UNL     1       6.038 -20.687 -12.014  1.00  0.00     0.012 A 
ATOM     17  C   UNL     1       3.938 -20.955 -10.837  1.00  0.00     0.012 A 
ENDBRANCH   1  12
TORSDOF 1
ENDMDL
MODEL 6
REMARK VINA RESULT:    -5.724      8.788     10.119
REMARK INTER + INTRA:          -6.285
REMARK INTER:                  -6.019
REMARK INTRA:                  -0.266
REMARK UNBOUND:                -0.226
REMARK SMILES O=c1cc(-c2ccccc2)oc2ccccc12
REMARK SMILES IDX 4 1 3 2 2 3 1 4 17 5 16 6 15 7 14 8 13 9 12 10 11 11 5 12
REMARK SMILES IDX 8 13 7 14 9 15 6 16 10 17
REMARK H PARENT
REMARK Flexibility Score: inf
ROOT
ATOM      1  C   UNL     1       5.134 -19.555  -9.548  1.00  0.00     0.138 A 
ATOM      2  C   UNL     1       4.137 -19.533  -8.552  1.00  0.00     0.100 A 
ATOM      3  C   UNL     1       4.314 -18.738  -7.417  1.00  0.00     0.193 A 
ATOM      4  O   UNL     1       3.421 -18.719  -6.526  1.00  0.00    -0.289 OA
ATOM      5  C   UNL     1       5.482 -17.975  -7.285  1.00  0.00     0.065 A 
ATOM      6  C   UNL     1       5.723 -17.154  -6.167  1.00  0.00     0.016 A 
ATOM      7  C   UNL     1       6.906 -16.413  -6.086  1.00  0.00     0.001 A 
ATOM      8  C   UNL     1       7.852 -16.484  -7.112  1.00  0.00     0.004 A 
ATOM      9  C   UNL     1       7.621 -17.296  -8.225  1.00  0.00     0.048 A 
ATOM     10  C   UNL     1       6.440 -18.043  -8.318  1.00  0.00     0.138 A 
ATOM     11  O   UNL     1       6.230 -18.812  -9.380  1.00  0.00    -0.456 OA
ENDROOT
BRANCH   1  12
ATOM     12  C   UNL     1       5.023 -20.377 -10.794  1.00  0.00     0.017 A 
ATOM     13  C   UNL     1       4.722 -21.950 -13.117  1.00  0.00     0.000 A 
ATOM     14  C   UNL     1       3.672 -21.843 -12.206  1.00  0.00     0.001 A 
ATOM     15  C   UNL     1       5.920 -21.279 -12.879  1.00  0.00     0.001 A 
ATOM     16  C   UNL     1       3.819 -21.064 -11.055  1.00  0.00     0.012 A 
ATOM     17  C   UNL     1       6.076 -20.497 -11.729  1.00  0.00     0.012 A 
ENDBRANCH   1  12
TORSDOF 1
ENDMDL
MODEL 7
REMARK VINA RESULT:    -5.647      9.690     11.051
REMARK INTER + INTRA:          -6.203
REMARK INTER:                  -5.973
REMARK INTRA:                  -0.231
REMARK UNBOUND:                -0.226
REMARK SMILES O=c1cc(-c2ccccc2)oc2ccccc12
REMARK SMILES IDX 4 1 3 2 2 3 1 4 17 5 16 6 15 7 14 8 13 9 12 10 11 11 5 12
REMARK SMILES IDX 8 13 7 14 9 15 6 16 10 17
REMARK H PARENT
REMARK Flexibility Score: inf
ROOT
ATOM      1  C   UNL     1       6.104 -20.672  -9.288  1.00  0.00     0.138 A 
ATOM      2  C   UNL     1       6.799 -21.414  -8.310  1.00  0.00     0.100 A 
ATOM      3  C   UNL     1       7.157 -20.802  -7.107  1.00  0.00     0.193 A 
ATOM      4  O   UNL     1       7.778 -21.466  -6.233  1.00  0.00    -0.289 OA
ATOM      5  C   UNL     1       6.822 -19.459  -6.889  1.00  0.00     0.065 A 
ATOM      6  C   UNL     1       7.153 -18.784  -5.699  1.00  0.00     0.016 A 
ATOM      7  C   UNL     1       6.795 -17.442  -5.534  1.00  0.00     0.001 A 
ATOM      8  C   UNL     1       6.107 -16.768  -6.546  1.00  0.00     0.004 A 
ATOM      9  C   UNL     1       5.773 -17.431  -7.730  1.00  0.00     0.048 A 
ATOM     10  C   UNL     1       6.127 -18.774  -7.908  1.00  0.00     0.138 A 
ATOM     11  O   UNL     1       5.806 -19.395  -9.038  1.00  0.00    -0.456 OA
ENDROOT
BRANCH   1  12
ATOM     12  C   UNL     1       5.683 -21.249 -10.602  1.00  0.00     0.017 A 
ATOM     13  C   UNL     1       4.830 -22.402 -13.032  1.00  0.00     0.000 A 
ATOM     14  C   UNL     1       4.348 -22.894 -11.820  1.00  0.00     0.001 A 
ATOM     15  C   UNL     1       5.733 -21.341 -13.043  1.00  0.00     0.001 A 
ATOM     16  C   UNL     1       4.769 -22.324 -10.615  1.00  0.00     0.012 A 
ATOM     17  C   UNL     1       6.159 -20.764 -11.842  1.00  0.00     0.012 A 
ENDBRANCH   1  12
TORSDOF 1
ENDMDL
MODEL 8
REMARK VINA RESULT:    -5.465      1.802      6.165
REMARK INTER + INTRA:          -6.010
REMARK INTER:                  -5.790
REMARK INTRA:                  -0.221
REMARK UNBOUND:                -0.226
REMARK SMILES O=c1cc(-c2ccccc2)oc2ccccc12
REMARK SMILES IDX 4 1 3 2 2 3 1 4 17 5 16 6 15 7 14 8 13 9 12 10 11 11 5 12
REMARK SMILES IDX 8 13 7 14 9 15 6 16 10 17
REMARK H PARENT
REMARK Flexibility Score: inf
ROOT
ATOM      1  C   UNL     1       7.113  -9.906 -10.617  1.00  0.00     0.138 A 
ATOM      2  C   UNL     1       7.558 -10.942 -11.464  1.00  0.00     0.100 A 
ATOM      3  C   UNL     1       7.130 -10.977 -12.793  1.00  0.00     0.193 A 
ATOM      4  O   UNL     1       7.528 -11.904 -13.550  1.00  0.00    -0.289 OA
ATOM      5  C   UNL     1       6.264  -9.982 -13.266  1.00  0.00     0.065 A 
ATOM      6  C   UNL     1       5.795  -9.960 -14.593  1.00  0.00     0.016 A 
ATOM      7  C   UNL     1       4.932  -8.943 -15.012  1.00  0.00     0.001 A 
ATOM      8  C   UNL     1       4.531  -7.947 -14.117  1.00  0.00     0.004 A 
ATOM      9  C   UNL     1       4.992  -7.961 -12.798  1.00  0.00     0.048 A 
ATOM     10  C   UNL     1       5.856  -8.974 -12.367  1.00  0.00     0.138 A 
ATOM     11  O   UNL     1       6.288  -8.980 -11.110  1.00  0.00    -0.456 OA
ENDROOT
BRANCH   1  12
ATOM     12  C   UNL     1       7.522  -9.793  -9.183  1.00  0.00     0.017 A 
ATOM     13  C   UNL     1       8.365  -9.517  -6.504  1.00  0.00     0.000 A 
ATOM     14  C   UNL     1       9.011  -8.808  -7.515  1.00  0.00     0.001 A 
ATOM     15  C   UNL     1       7.302 -10.362  -6.818  1.00  0.00     0.001 A 
ATOM     16  C   UNL     1       8.596  -8.943  -8.843  1.00  0.00     0.012 A 
ATOM     17  C   UNL     1       6.879 -10.504  -8.143  1.00  0.00     0.012 A 
ENDBRANCH   1  12
TORSDOF 1
ENDMDL
MODEL 9
REMARK VINA RESULT:    -5.422      1.372      2.563
REMARK INTER + INTRA:          -5.965
REMARK INTER:                  -5.727
REMARK INTRA:                  -0.238
REMARK UNBOUND:                -0.226
REMARK SMILES O=c1cc(-c2ccccc2)oc2ccccc12
REMARK SMILES IDX 4 1 3 2 2 3 1 4 17 5 16 6 15 7 14 8 13 9 12 10 11 11 5 12
REMARK SMILES IDX 8 13 7 14 9 15 6 16 10 17
REMARK H PARENT
REMARK Flexibility Score: inf
ROOT
ATOM      1  C   UNL     1       7.237  -8.985 -10.915  1.00  0.00     0.138 A 
ATOM      2  C   UNL     1       7.977  -7.788 -10.819  1.00  0.00     0.100 A 
ATOM      3  C   UNL     1       8.440  -7.363  -9.572  1.00  0.00     0.193 A 
ATOM      4  O   UNL     1       9.101  -6.292  -9.487  1.00  0.00    -0.289 OA
ATOM      5  C   UNL     1       8.162  -8.132  -8.434  1.00  0.00     0.065 A 
ATOM      6  C   UNL     1       8.599  -7.760  -7.149  1.00  0.00     0.016 A 
ATOM      7  C   UNL     1       8.294  -8.564  -6.046  1.00  0.00     0.001 A 
ATOM      8  C   UNL     1       7.555  -9.738  -6.216  1.00  0.00     0.004 A 
ATOM      9  C   UNL     1       7.118 -10.116  -7.488  1.00  0.00     0.048 A 
ATOM     10  C   UNL     1       7.417  -9.318  -8.599  1.00  0.00     0.138 A 
ATOM     11  O   UNL     1       6.996  -9.685  -9.805  1.00  0.00    -0.456 OA
ENDROOT
BRANCH   1  12
ATOM     12  C   UNL     1       6.705  -9.512 -12.210  1.00  0.00     0.017 A 
ATOM     13  C   UNL     1       5.660 -10.418 -14.670  1.00  0.00     0.000 A 
ATOM     14  C   UNL     1       5.410  -9.115 -14.243  1.00  0.00     0.001 A 
ATOM     15  C   UNL     1       6.427 -11.273 -13.880  1.00  0.00     0.001 A 
ATOM     16  C   UNL     1       5.926  -8.664 -13.026  1.00  0.00     0.012 A 
ATOM     17  C   UNL     1       6.949 -10.830 -12.660  1.00  0.00     0.012 A 
ENDBRANCH   1  12
TORSDOF 1
ENDMDL
