MODEL 1
REMARK VINA RESULT:    -3.756      0.000      0.000
REMARK INTER + INTRA:          -5.355
REMARK INTER:                  -5.073
REMARK INTRA:                  -0.282
REMARK UNBOUND:                -0.282
REMARK SMILES CCCCCCCC(=O)[O-]
REMARK SMILES IDX 5 1 6 2 7 3 8 4 9 5 10 6 4 7 3 8 2 9 1 10
REMARK H PARENT
REMARK Flexibility Score: inf
ROOT
ATOM      1  C   UNL     1      49.646  13.688  18.024  1.00  0.00     0.000 C 
ENDROOT
BRANCH   1   2
ATOM      2  C   UNL     1      49.240  12.899  16.769  1.00  0.00     0.006 C 
BRANCH   2   3
ATOM      3  C   UNL     1      48.517  13.778  15.740  1.00  0.00     0.053 C 
BRANCH   3   4
ATOM      4  C   UNL     1      49.340  14.966  15.346  1.00  0.00     0.041 C 
ATOM      5  O   UNL     1      48.980  16.125  15.682  1.00  0.00    -0.550 OA
ATOM      6  O   UNL     1      50.520  14.791  14.637  1.00  0.00    -0.550 OA
ENDBRANCH   3   4
ENDBRANCH   2   3
ENDBRANCH   1   2
BRANCH   1   7
ATOM      7  C   UNL     1      48.425  13.995  18.899  1.00  0.00     0.000 C 
BRANCH   7   8
ATOM      8  C   UNL     1      48.559  15.368  19.568  1.00  0.00    -0.000 C 
BRANCH   8   9
ATOM      9  C   UNL     1      47.681  15.457  20.822  1.00  0.00    -0.003 C 
ATOM     10  C   UNL     1      48.496  15.895  22.035  1.00  0.00     0.004 C 
ENDBRANCH   8   9
ENDBRANCH   7   8
ENDBRANCH   1   7
TORSDOF 6
ENDMDL
MODEL 2
REMARK VINA RESULT:    -3.609      4.293      5.453
REMARK INTER + INTRA:          -5.156
REMARK INTER:                  -4.960
REMARK INTRA:                  -0.196
REMARK UNBOUND:                -0.282
REMARK SMILES CCCCCCCC(=O)[O-]
REMARK SMILES IDX 5 1 6 2 7 3 8 4 9 5 10 6 4 7 3 8 2 9 1 10
REMARK H PARENT
REMARK Flexibility Score: inf
ROOT
ATOM      1  C   UNL     1      49.199  10.159  18.874  1.00  0.00     0.000 C 
ENDROOT
BRANCH   1   2
ATOM      2  C   UNL     1      49.613  11.490  18.228  1.00  0.00     0.006 C 
BRANCH   2   3
ATOM      3  C   UNL     1      48.736  12.660  18.695  1.00  0.00     0.053 C 
BRANCH   3   4
ATOM      4  C   UNL     1      49.304  13.982  18.278  1.00  0.00     0.041 C 
ATOM      5  O   UNL     1      49.600  14.192  17.074  1.00  0.00    -0.550 OA
ATOM      6  O   UNL     1      49.474  14.993  19.215  1.00  0.00    -0.550 OA
ENDBRANCH   3   4
ENDBRANCH   2   3
ENDBRANCH   1   2
BRANCH   1   7
ATOM      7  C   UNL     1      49.966   8.985  18.253  1.00  0.00     0.000 C 
BRANCH   7   8
ATOM      8  C   UNL     1      50.616   8.117  19.336  1.00  0.00    -0.000 C 
BRANCH   8   9
ATOM      9  C   UNL     1      49.738   8.054  20.591  1.00  0.00    -0.003 C 
ATOM     10  C   UNL     1      49.576   6.618  21.079  1.00  0.00     0.004 C 
ENDBRANCH   8   9
ENDBRANCH   7   8
ENDBRANCH   1   7
TORSDOF 6
ENDMDL
MODEL 3
REMARK VINA RESULT:    -3.432     14.320     15.566
REMARK INTER + INTRA:          -4.918
REMARK INTER:                  -4.567
REMARK INTRA:                  -0.352
REMARK UNBOUND:                -0.282
REMARK SMILES CCCCCCCC(=O)[O-]
REMARK SMILES IDX 5 1 6 2 7 3 8 4 9 5 10 6 4 7 3 8 2 9 1 10
REMARK H PARENT
REMARK Flexibility Score: inf
ROOT
ATOM      1  C   UNL     1      49.794   1.531  21.688  1.00  0.00     0.000 C 
ENDROOT
BRANCH   1   2
ATOM      2  C   UNL     1      50.086   0.273  22.520  1.00  0.00     0.006 C 
BRANCH   2   3
ATOM      3  C   UNL     1      51.454  -0.339  22.187  1.00  0.00     0.053 C 
BRANCH   3   4
ATOM      4  C   UNL     1      51.555  -1.761  22.647  1.00  0.00     0.041 C 
ATOM      5  O   UNL     1      51.900  -2.664  21.842  1.00  0.00    -0.550 OA
ATOM      6  O   UNL     1      51.298  -2.083  23.974  1.00  0.00    -0.550 OA
ENDBRANCH   3   4
ENDBRANCH   2   3
ENDBRANCH   1   2
BRANCH   1   7
ATOM      7  C   UNL     1      51.091   2.273  21.341  1.00  0.00     0.000 C 
BRANCH   7   8
ATOM      8  C   UNL     1      51.000   2.921  19.955  1.00  0.00    -0.000 C 
BRANCH   8   9
ATOM      9  C   UNL     1      52.285   2.684  19.152  1.00  0.00    -0.003 C 
ATOM     10  C   UNL     1      53.468   2.408  20.074  1.00  0.00     0.004 C 
ENDBRANCH   8   9
ENDBRANCH   7   8
ENDBRANCH   1   7
TORSDOF 6
ENDMDL
MODEL 4
REMARK VINA RESULT:    -3.419      9.694     10.804
REMARK INTER + INTRA:          -4.900
REMARK INTER:                  -4.539
REMARK INTRA:                  -0.361
REMARK UNBOUND:                -0.282
REMARK SMILES CCCCCCCC(=O)[O-]
REMARK SMILES IDX 5 1 6 2 7 3 8 4 9 5 10 6 4 7 3 8 2 9 1 10
REMARK H PARENT
REMARK Flexibility Score: inf
ROOT
ATOM      1  C   UNL     1      49.254   8.237  23.033  1.00  0.00     0.000 C 
ENDROOT
BRANCH   1   2
ATOM      2  C   UNL     1      50.025   8.184  24.361  1.00  0.00     0.006 C 
BRANCH   2   3
ATOM      3  C   UNL     1      50.312   6.745  24.809  1.00  0.00     0.053 C 
BRANCH   3   4
ATOM      4  C   UNL     1      49.700   6.445  26.143  1.00  0.00     0.041 C 
ATOM      5  O   UNL     1      48.670   7.062  26.520  1.00  0.00    -0.550 OA
ATOM      6  O   UNL     1      50.249   5.461  26.955  1.00  0.00    -0.550 OA
ENDBRANCH   3   4
ENDBRANCH   2   3
ENDBRANCH   1   2
BRANCH   1   7
ATOM      7  C   UNL     1      49.089   6.833  22.438  1.00  0.00     0.000 C 
BRANCH   7   8
ATOM      8  C   UNL     1      49.629   6.776  21.004  1.00  0.00    -0.000 C 
BRANCH   8   9
ATOM      9  C   UNL     1      49.651   8.171  20.369  1.00  0.00    -0.003 C 
ATOM     10  C   UNL     1      50.728   8.271  19.294  1.00  0.00     0.004 C 
ENDBRANCH   8   9
ENDBRANCH   7   8
ENDBRANCH   1   7
TORSDOF 6
ENDMDL
MODEL 5
REMARK VINA RESULT:    -3.389      6.059      7.485
REMARK INTER + INTRA:          -4.859
REMARK INTER:                  -4.449
REMARK INTRA:                  -0.410
REMARK UNBOUND:                -0.282
REMARK SMILES CCCCCCCC(=O)[O-]
REMARK SMILES IDX 5 1 6 2 7 3 8 4 9 5 10 6 4 7 3 8 2 9 1 10
REMARK H PARENT
REMARK Flexibility Score: inf
ROOT
ATOM      1  C   UNL     1      48.149   7.682  20.916  1.00  0.00     0.000 C 
ENDROOT
BRANCH   1   2
ATOM      2  C   UNL     1      47.358   8.808  21.600  1.00  0.00     0.006 C 
BRANCH   2   3
ATOM      3  C   UNL     1      47.107   9.995  20.661  1.00  0.00     0.053 C 
BRANCH   3   4
ATOM      4  C   UNL     1      46.664  11.214  21.411  1.00  0.00     0.041 C 
ATOM      5  O   UNL     1      45.923  12.065  20.854  1.00  0.00    -0.550 OA
ATOM      6  O   UNL     1      47.044  11.393  22.735  1.00  0.00    -0.550 OA
ENDBRANCH   3   4
ENDBRANCH   2   3
ENDBRANCH   1   2
BRANCH   1   7
ATOM      7  C   UNL     1      49.656   7.853  21.143  1.00  0.00     0.000 C 
BRANCH   7   8
ATOM      8  C   UNL     1      50.433   7.686  19.832  1.00  0.00    -0.000 C 
BRANCH   8   9
ATOM      9  C   UNL     1      50.403   8.978  19.007  1.00  0.00    -0.003 C 
ATOM     10  C   UNL     1      49.591   8.797  17.729  1.00  0.00     0.004 C 
ENDBRANCH   8   9
ENDBRANCH   7   8
ENDBRANCH   1   7
TORSDOF 6
ENDMDL
MODEL 6
REMARK VINA RESULT:    -3.379      8.144      8.707
REMARK INTER + INTRA:          -4.846
REMARK INTER:                  -4.643
REMARK INTRA:                  -0.203
REMARK UNBOUND:                -0.282
REMARK SMILES CCCCCCCC(=O)[O-]
REMARK SMILES IDX 5 1 6 2 7 3 8 4 9 5 10 6 4 7 3 8 2 9 1 10
REMARK H PARENT
REMARK Flexibility Score: inf
ROOT
ATOM      1  C   UNL     1      48.985   8.420  22.837  1.00  0.00     0.000 C 
ENDROOT
BRANCH   1   2
ATOM      2  C   UNL     1      49.503   7.490  21.729  1.00  0.00     0.006 C 
BRANCH   2   3
ATOM      3  C   UNL     1      49.119   7.987  20.328  1.00  0.00     0.053 C 
BRANCH   3   4
ATOM      4  C   UNL     1      50.325   8.342  19.514  1.00  0.00     0.041 C 
ATOM      5  O   UNL     1      51.307   7.557  19.461  1.00  0.00    -0.550 OA
ATOM      6  O   UNL     1      50.351   9.526  18.788  1.00  0.00    -0.550 OA
ENDBRANCH   3   4
ENDBRANCH   2   3
ENDBRANCH   1   2
BRANCH   1   7
ATOM      7  C   UNL     1      49.005   7.715  24.199  1.00  0.00     0.000 C 
BRANCH   7   8
ATOM      8  C   UNL     1      50.440   7.388  24.628  1.00  0.00    -0.000 C 
BRANCH   8   9
ATOM      9  C   UNL     1      50.507   6.029  25.335  1.00  0.00    -0.003 C 
ATOM     10  C   UNL     1      49.767   6.064  26.668  1.00  0.00     0.004 C 
ENDBRANCH   8   9
ENDBRANCH   7   8
ENDBRANCH   1   7
TORSDOF 6
ENDMDL
MODEL 7
REMARK VINA RESULT:    -3.378      3.095      5.745
REMARK INTER + INTRA:          -4.845
REMARK INTER:                  -4.577
REMARK INTRA:                  -0.268
REMARK UNBOUND:                -0.282
REMARK SMILES CCCCCCCC(=O)[O-]
REMARK SMILES IDX 5 1 6 2 7 3 8 4 9 5 10 6 4 7 3 8 2 9 1 10
REMARK H PARENT
REMARK Flexibility Score: inf
ROOT
ATOM      1  C   UNL     1      50.310  13.765  14.712  1.00  0.00     0.000 C 
ENDROOT
BRANCH   1   2
ATOM      2  C   UNL     1      49.312  13.233  15.752  1.00  0.00     0.006 C 
BRANCH   2   3
ATOM      3  C   UNL     1      49.483  13.908  17.119  1.00  0.00     0.053 C 
BRANCH   3   4
ATOM      4  C   UNL     1      49.088  12.999  18.242  1.00  0.00     0.041 C 
ATOM      5  O   UNL     1      49.650  11.881  18.378  1.00  0.00    -0.550 OA
ATOM      6  O   UNL     1      48.124  13.401  19.157  1.00  0.00    -0.550 OA
ENDBRANCH   3   4
ENDBRANCH   2   3
ENDBRANCH   1   2
BRANCH   1   7
ATOM      7  C   UNL     1      50.317  15.299  14.692  1.00  0.00     0.000 C 
BRANCH   7   8
ATOM      8  C   UNL     1      51.538  15.834  13.934  1.00  0.00    -0.000 C 
BRANCH   8   9
ATOM      9  C   UNL     1      52.361  14.687  13.336  1.00  0.00    -0.003 C 
ATOM     10  C   UNL     1      53.841  15.047  13.269  1.00  0.00     0.004 C 
ENDBRANCH   8   9
ENDBRANCH   7   8
ENDBRANCH   1   7
TORSDOF 6
ENDMDL
MODEL 8
REMARK VINA RESULT:    -3.371     11.845     12.646
REMARK INTER + INTRA:          -4.835
REMARK INTER:                  -4.661
REMARK INTRA:                  -0.173
REMARK UNBOUND:                -0.282
REMARK SMILES CCCCCCCC(=O)[O-]
REMARK SMILES IDX 5 1 6 2 7 3 8 4 9 5 10 6 4 7 3 8 2 9 1 10
REMARK H PARENT
REMARK Flexibility Score: inf
ROOT
ATOM      1  C   UNL     1      48.416   1.978  21.014  1.00  0.00     0.000 C 
ENDROOT
BRANCH   1   2
ATOM      2  C   UNL     1      49.523   2.957  20.592  1.00  0.00     0.006 C 
BRANCH   2   3
ATOM      3  C   UNL     1      50.918   2.321  20.664  1.00  0.00     0.053 C 
BRANCH   3   4
ATOM      4  C   UNL     1      51.768   2.709  19.494  1.00  0.00     0.041 C 
ATOM      5  O   UNL     1      52.650   1.922  19.063  1.00  0.00    -0.550 OA
ATOM      6  O   UNL     1      51.564   3.927  18.859  1.00  0.00    -0.550 OA
ENDBRANCH   3   4
ENDBRANCH   2   3
ENDBRANCH   1   2
BRANCH   1   7
ATOM      7  C   UNL     1      47.129   2.229  20.219  1.00  0.00     0.000 C 
BRANCH   7   8
ATOM      8  C   UNL     1      46.438   3.517  20.682  1.00  0.00    -0.000 C 
BRANCH   8   9
ATOM      9  C   UNL     1      44.942   3.488  20.349  1.00  0.00    -0.003 C 
ATOM     10  C   UNL     1      44.219   2.411  21.151  1.00  0.00     0.004 C 
ENDBRANCH   8   9
ENDBRANCH   7   8
ENDBRANCH   1   7
TORSDOF 6
ENDMDL
MODEL 9
REMARK VINA RESULT:    -3.353     16.427     17.966
REMARK INTER + INTRA:          -4.810
REMARK INTER:                  -4.457
REMARK INTRA:                  -0.353
REMARK UNBOUND:                -0.282
REMARK SMILES CCCCCCCC(=O)[O-]
REMARK SMILES IDX 5 1 6 2 7 3 8 4 9 5 10 6 4 7 3 8 2 9 1 10
REMARK H PARENT
REMARK Flexibility Score: inf
ROOT
ATOM      1  C   UNL     1      58.346  -0.629  17.099  1.00  0.00     0.000 C 
ENDROOT
BRANCH   1   2
ATOM      2  C   UNL     1      57.498  -0.328  18.345  1.00  0.00     0.006 C 
BRANCH   2   3
ATOM      3  C   UNL     1      57.445  -1.519  19.312  1.00  0.00     0.053 C 
BRANCH   3   4
ATOM      4  C   UNL     1      56.489  -2.573  18.845  1.00  0.00     0.041 C 
ATOM      5  O   UNL     1      55.247  -2.380  18.920  1.00  0.00    -0.550 OA
ATOM      6  O   UNL     1      56.970  -3.755  18.297  1.00  0.00    -0.550 OA
ENDBRANCH   3   4
ENDBRANCH   2   3
ENDBRANCH   1   2
BRANCH   1   7
ATOM      7  C   UNL     1      58.596   0.646  16.285  1.00  0.00     0.000 C 
BRANCH   7   8
ATOM      8  C   UNL     1      59.823   1.402  16.808  1.00  0.00    -0.000 C 
BRANCH   8   9
ATOM      9  C   UNL     1      59.529   2.900  16.947  1.00  0.00    -0.003 C 
ATOM     10  C   UNL     1      58.736   3.190  18.217  1.00  0.00     0.004 C 
ENDBRANCH   8   9
ENDBRANCH   7   8
ENDBRANCH   1   7
TORSDOF 6
ENDMDL
