MODEL 1
REMARK VINA RESULT:    -6.486      0.000      0.000
REMARK INTER + INTRA:         -11.192
REMARK INTER:                  -9.899
REMARK INTRA:                  -1.294
REMARK UNBOUND:                -1.294
REMARK SMILES OC[C@@H]1O[C@@H](O[C@]2(CO)O[C@@H](CO)[C@H](O)[C@H]2O)[C@H](O)[C@H](O)[C@H]1O
REMARK SMILES IDX 6 1 5 2 3 3 22 4 4 5 20 6 18 7 2 8 1 9 23 11 21 13 19 15
REMARK SMILES IDX 7 17 16 18 10 19 14 20 11 21 8 22 9 23 17 25 15 27 12 29
REMARK SMILES IDX 13 30
REMARK H PARENT 1 10 23 12 21 14 19 16 9 24 17 26 15 28 13 31
REMARK Flexibility Score: inf
ROOT
ATOM      1  O   UNL     1      14.719  -3.773  12.043  1.00  0.00    -0.313 OA
ENDROOT
BRANCH   1   2
ATOM      2  C   UNL     1      15.793  -4.637  11.685  1.00  0.00     0.285 C 
ATOM      3  C   UNL     1      17.371  -2.926  12.055  1.00  0.00     0.178 C 
ATOM      4  C   UNL     1      17.707  -2.793  10.548  1.00  0.00     0.177 C 
ATOM      5  O   UNL     1      16.980  -4.256  12.365  1.00  0.00    -0.341 OA
ATOM      6  C   UNL     1      16.497  -3.235   9.707  1.00  0.00     0.179 C 
ATOM      7  C   UNL     1      16.012  -4.621  10.156  1.00  0.00     0.202 C 
BRANCH   3   8
ATOM      8  C   UNL     1      18.583  -2.578  12.931  1.00  0.00     0.191 C 
BRANCH   8   9
ATOM      9  O   UNL     1      18.795  -1.193  12.947  1.00  0.00    -0.394 OA
ATOM     10  H   UNL     1      17.973  -0.784  12.569  1.00  0.00     0.210 HD
ENDBRANCH   8   9
ENDBRANCH   3   8
BRANCH   4  11
ATOM     11  O   UNL     1      18.010  -1.457  10.233  1.00  0.00    -0.387 OA
ATOM     12  H   UNL     1      17.423  -1.192   9.476  1.00  0.00     0.211 HD
ENDBRANCH   4  11
BRANCH   6  13
ATOM     13  O   UNL     1      16.839  -3.280   8.345  1.00  0.00    -0.387 OA
ATOM     14  H   UNL     1      16.287  -3.995   7.932  1.00  0.00     0.211 HD
ENDBRANCH   6  13
BRANCH   7  15
ATOM     15  O   UNL     1      16.962  -5.593   9.799  1.00  0.00    -0.385 OA
ATOM     16  H   UNL     1      16.724  -5.905   8.887  1.00  0.00     0.211 HD
ENDBRANCH   7  15
ENDBRANCH   1   2
BRANCH   1  17
ATOM     17  C   UNL     1      13.867  -4.282  13.066  1.00  0.00     0.224 C 
ATOM     18  C   UNL     1      13.657  -5.785  12.777  1.00  0.00     0.208 C 
ATOM     19  O   UNL     1      14.473  -4.176  14.350  1.00  0.00    -0.337 OA
ATOM     20  C   UNL     1      13.683  -6.419  14.148  1.00  0.00     0.180 C 
ATOM     21  C   UNL     1      14.620  -5.473  14.887  1.00  0.00     0.179 C 
BRANCH  17  22
ATOM     22  C   UNL     1      12.540  -3.482  13.071  1.00  0.00     0.225 C 
BRANCH  22  23
ATOM     23  O   UNL     1      11.995  -3.419  11.782  1.00  0.00    -0.391 OA
ATOM     24  H   UNL     1      12.360  -2.595  11.367  1.00  0.00     0.210 HD
ENDBRANCH  22  23
ENDBRANCH  17  22
BRANCH  18  25
ATOM     25  O   UNL     1      12.498  -6.083  12.031  1.00  0.00    -0.385 OA
ATOM     26  H   UNL     1      11.916  -6.685  12.560  1.00  0.00     0.211 HD
ENDBRANCH  18  25
BRANCH  20  27
ATOM     27  O   UNL     1      14.215  -7.717  14.106  1.00  0.00    -0.387 OA
ATOM     28  H   UNL     1      14.664  -7.863  14.978  1.00  0.00     0.211 HD
ENDBRANCH  20  27
BRANCH  21  29
ATOM     29  C   UNL     1      14.369  -5.456  16.402  1.00  0.00     0.191 C 
BRANCH  29  30
ATOM     30  O   UNL     1      14.048  -6.736  16.879  1.00  0.00    -0.394 OA
ATOM     31  H   UNL     1      14.888  -7.264  16.869  1.00  0.00     0.210 HD
ENDBRANCH  29  30
ENDBRANCH  21  29
ENDBRANCH   1  17
TORSDOF 13
ENDMDL
MODEL 2
REMARK VINA RESULT:    -6.304      1.488      2.588
REMARK INTER + INTRA:         -10.914
REMARK INTER:                  -9.668
REMARK INTRA:                  -1.246
REMARK UNBOUND:                -1.294
REMARK SMILES OC[C@@H]1O[C@@H](O[C@]2(CO)O[C@@H](CO)[C@H](O)[C@H]2O)[C@H](O)[C@H](O)[C@H]1O
REMARK SMILES IDX 6 1 5 2 3 3 22 4 4 5 20 6 18 7 2 8 1 9 23 11 21 13 19 15
REMARK SMILES IDX 7 17 16 18 10 19 14 20 11 21 8 22 9 23 17 25 15 27 12 29
REMARK SMILES IDX 13 30
REMARK H PARENT 1 10 23 12 21 14 19 16 9 24 17 26 15 28 13 31
REMARK Flexibility Score: inf
ROOT
ATOM      1  O   UNL     1      14.576  -4.358  12.193  1.00  0.00    -0.313 OA
ENDROOT
BRANCH   1   2
ATOM      2  C   UNL     1      15.747  -5.057  11.780  1.00  0.00     0.285 C 
ATOM      3  C   UNL     1      17.084  -3.150  12.144  1.00  0.00     0.178 C 
ATOM      4  C   UNL     1      17.347  -2.941  10.631  1.00  0.00     0.177 C 
ATOM      5  O   UNL     1      16.892  -4.528  12.432  1.00  0.00    -0.341 OA
ATOM      6  C   UNL     1      16.182  -3.530   9.818  1.00  0.00     0.179 C 
ATOM      7  C   UNL     1      15.909  -4.979  10.246  1.00  0.00     0.202 C 
BRANCH   3   8
ATOM      8  C   UNL     1      18.265  -2.656  12.991  1.00  0.00     0.191 C 
BRANCH   8   9
ATOM      9  O   UNL     1      18.393  -1.264  12.888  1.00  0.00    -0.394 OA
ATOM     10  H   UNL     1      18.302  -1.049  11.923  1.00  0.00     0.210 HD
ENDBRANCH   8   9
ENDBRANCH   3   8
BRANCH   4  11
ATOM     11  O   UNL     1      17.451  -1.569  10.341  1.00  0.00    -0.387 OA
ATOM     12  H   UNL     1      16.751  -1.102  10.870  1.00  0.00     0.211 HD
ENDBRANCH   4  11
BRANCH   6  13
ATOM     13  O   UNL     1      16.480  -3.499   8.445  1.00  0.00    -0.387 OA
ATOM     14  H   UNL     1      17.125  -2.757   8.307  1.00  0.00     0.211 HD
ENDBRANCH   6  13
BRANCH   7  15
ATOM     15  O   UNL     1      16.971  -5.802   9.835  1.00  0.00    -0.385 OA
ATOM     16  H   UNL     1      17.109  -6.473  10.553  1.00  0.00     0.211 HD
ENDBRANCH   7  15
ENDBRANCH   1   2
BRANCH   1  17
ATOM     17  C   UNL     1      13.831  -5.009  13.220  1.00  0.00     0.224 C 
ATOM     18  C   UNL     1      14.260  -4.376  14.564  1.00  0.00     0.208 C 
ATOM     19  O   UNL     1      12.434  -4.786  13.071  1.00  0.00    -0.337 OA
ATOM     20  C   UNL     1      12.968  -4.286  15.343  1.00  0.00     0.180 C 
ATOM     21  C   UNL     1      11.961  -4.107  14.215  1.00  0.00     0.179 C 
BRANCH  17  22
ATOM     22  C   UNL     1      14.105  -6.532  13.162  1.00  0.00     0.225 C 
BRANCH  22  23
ATOM     23  O   UNL     1      13.557  -7.177  14.279  1.00  0.00    -0.391 OA
ATOM     24  H   UNL     1      12.838  -7.766  13.934  1.00  0.00     0.210 HD
ENDBRANCH  22  23
ENDBRANCH  17  22
BRANCH  18  25
ATOM     25  O   UNL     1      15.288  -5.067  15.237  1.00  0.00    -0.385 OA
ATOM     26  H   UNL     1      15.403  -5.961  14.824  1.00  0.00     0.211 HD
ENDBRANCH  18  25
BRANCH  20  27
ATOM     27  O   UNL     1      12.960  -3.176  16.201  1.00  0.00    -0.387 OA
ATOM     28  H   UNL     1      13.831  -3.186  16.677  1.00  0.00     0.211 HD
ENDBRANCH  20  27
BRANCH  21  29
ATOM     29  C   UNL     1      10.558  -4.606  14.591  1.00  0.00     0.191 C 
BRANCH  29  30
ATOM     30  O   UNL     1      10.068  -3.939  15.724  1.00  0.00    -0.394 OA
ATOM     31  H   UNL     1       9.507  -4.592  16.219  1.00  0.00     0.210 HD
ENDBRANCH  29  30
ENDBRANCH  21  29
ENDBRANCH   1  17
TORSDOF 13
ENDMDL
MODEL 3
REMARK VINA RESULT:    -6.245     14.321     16.170
REMARK INTER + INTRA:         -10.824
REMARK INTER:                  -9.758
REMARK INTRA:                  -1.066
REMARK UNBOUND:                -1.294
REMARK SMILES OC[C@@H]1O[C@@H](O[C@]2(CO)O[C@@H](CO)[C@H](O)[C@H]2O)[C@H](O)[C@H](O)[C@H]1O
REMARK SMILES IDX 6 1 5 2 3 3 22 4 4 5 20 6 18 7 2 8 1 9 23 11 21 13 19 15
REMARK SMILES IDX 7 17 16 18 10 19 14 20 11 21 8 22 9 23 17 25 15 27 12 29
REMARK SMILES IDX 13 30
REMARK H PARENT 1 10 23 12 21 14 19 16 9 24 17 26 15 28 13 31
REMARK Flexibility Score: inf
ROOT
ATOM      1  O   UNL     1      22.129 -16.878   8.296  1.00  0.00    -0.313 OA
ENDROOT
BRANCH   1   2
ATOM      2  C   UNL     1      23.440 -17.185   7.829  1.00  0.00     0.285 C 
ATOM      3  C   UNL     1      23.653 -18.931   9.399  1.00  0.00     0.178 C 
ATOM      4  C   UNL     1      24.724 -18.172  10.223  1.00  0.00     0.177 C 
ATOM      5  O   UNL     1      23.723 -18.562   8.029  1.00  0.00    -0.341 OA
ATOM      6  C   UNL     1      24.543 -16.656  10.037  1.00  0.00     0.179 C 
ATOM      7  C   UNL     1      24.487 -16.304   8.544  1.00  0.00     0.202 C 
BRANCH   3   8
ATOM      8  C   UNL     1      23.852 -20.450   9.486  1.00  0.00     0.191 C 
BRANCH   8   9
ATOM      9  O   UNL     1      25.195 -20.755   9.742  1.00  0.00    -0.394 OA
ATOM     10  H   UNL     1      25.514 -20.074  10.391  1.00  0.00     0.210 HD
ENDBRANCH   8   9
ENDBRANCH   3   8
BRANCH   4  11
ATOM     11  O   UNL     1      24.592 -18.478  11.590  1.00  0.00    -0.387 OA
ATOM     12  H   UNL     1      24.968 -19.387  11.725  1.00  0.00     0.211 HD
ENDBRANCH   4  11
BRANCH   6  13
ATOM     13  O   UNL     1      25.604 -15.960  10.641  1.00  0.00    -0.387 OA
ATOM     14  H   UNL     1      26.216 -16.642  11.023  1.00  0.00     0.211 HD
ENDBRANCH   6  13
BRANCH   7  15
ATOM     15  O   UNL     1      25.752 -16.500   7.964  1.00  0.00    -0.385 OA
ATOM     16  H   UNL     1      25.974 -17.461   8.077  1.00  0.00     0.211 HD
ENDBRANCH   7  15
ENDBRANCH   1   2
BRANCH   1  17
ATOM     17  C   UNL     1      21.082 -17.237   7.397  1.00  0.00     0.224 C 
ATOM     18  C   UNL     1      20.307 -18.406   8.045  1.00  0.00     0.208 C 
ATOM     19  O   UNL     1      20.163 -16.166   7.213  1.00  0.00    -0.337 OA
ATOM     20  C   UNL     1      18.865 -18.106   7.710  1.00  0.00     0.180 C 
ATOM     21  C   UNL     1      18.890 -16.585   7.656  1.00  0.00     0.179 C 
BRANCH  17  22
ATOM     22  C   UNL     1      21.695 -17.613   6.025  1.00  0.00     0.225 C 
BRANCH  22  23
ATOM     23  O   UNL     1      20.701 -18.063   5.146  1.00  0.00    -0.391 OA
ATOM     24  H   UNL     1      20.325 -18.887   5.551  1.00  0.00     0.210 HD
ENDBRANCH  22  23
ENDBRANCH  17  22
BRANCH  18  25
ATOM     25  O   UNL     1      20.733 -19.688   7.643  1.00  0.00    -0.385 OA
ATOM     26  H   UNL     1      20.004 -20.130   7.139  1.00  0.00     0.211 HD
ENDBRANCH  18  25
BRANCH  20  27
ATOM     27  O   UNL     1      17.996 -18.556   8.717  1.00  0.00    -0.387 OA
ATOM     28  H   UNL     1      17.579 -17.745   9.108  1.00  0.00     0.211 HD
ENDBRANCH  20  27
BRANCH  21  29
ATOM     29  C   UNL     1      17.792 -16.007   6.750  1.00  0.00     0.191 C 
BRANCH  29  30
ATOM     30  O   UNL     1      18.082 -16.228   5.396  1.00  0.00    -0.394 OA
ATOM     31  H   UNL     1      17.269 -16.632   4.992  1.00  0.00     0.210 HD
ENDBRANCH  29  30
ENDBRANCH  21  29
ENDBRANCH   1  17
TORSDOF 13
ENDMDL
MODEL 4
REMARK VINA RESULT:    -6.182     14.416     16.499
REMARK INTER + INTRA:         -10.728
REMARK INTER:                  -9.734
REMARK INTRA:                  -0.994
REMARK UNBOUND:                -1.294
REMARK SMILES OC[C@@H]1O[C@@H](O[C@]2(CO)O[C@@H](CO)[C@H](O)[C@H]2O)[C@H](O)[C@H](O)[C@H]1O
REMARK SMILES IDX 6 1 5 2 3 3 22 4 4 5 20 6 18 7 2 8 1 9 23 11 21 13 19 15
REMARK SMILES IDX 7 17 16 18 10 19 14 20 11 21 8 22 9 23 17 25 15 27 12 29
REMARK SMILES IDX 13 30
REMARK H PARENT 1 10 23 12 21 14 19 16 9 24 17 26 15 28 13 31
REMARK Flexibility Score: inf
ROOT
ATOM      1  O   UNL     1      22.135 -16.923   8.309  1.00  0.00    -0.313 OA
ENDROOT
BRANCH   1   2
ATOM      2  C   UNL     1      23.443 -17.231   7.833  1.00  0.00     0.285 C 
ATOM      3  C   UNL     1      23.667 -18.974   9.404  1.00  0.00     0.178 C 
ATOM      4  C   UNL     1      24.744 -18.214  10.220  1.00  0.00     0.177 C 
ATOM      5  O   UNL     1      23.728 -18.607   8.033  1.00  0.00    -0.341 OA
ATOM      6  C   UNL     1      24.561 -16.698  10.032  1.00  0.00     0.179 C 
ATOM      7  C   UNL     1      24.495 -16.349   8.539  1.00  0.00     0.202 C 
BRANCH   3   8
ATOM      8  C   UNL     1      23.867 -20.493   9.492  1.00  0.00     0.191 C 
BRANCH   8   9
ATOM      9  O   UNL     1      25.215 -20.798   9.722  1.00  0.00    -0.394 OA
ATOM     10  H   UNL     1      25.330 -20.811  10.708  1.00  0.00     0.210 HD
ENDBRANCH   8   9
ENDBRANCH   3   8
BRANCH   4  11
ATOM     11  O   UNL     1      24.622 -18.517  11.587  1.00  0.00    -0.387 OA
ATOM     12  H   UNL     1      24.467 -19.496  11.659  1.00  0.00     0.211 HD
ENDBRANCH   4  11
BRANCH   6  13
ATOM     13  O   UNL     1      25.626 -16.001  10.627  1.00  0.00    -0.387 OA
ATOM     14  H   UNL     1      25.483 -15.037  10.435  1.00  0.00     0.211 HD
ENDBRANCH   6  13
BRANCH   7  15
ATOM     15  O   UNL     1      25.756 -16.546   7.951  1.00  0.00    -0.385 OA
ATOM     16  H   UNL     1      26.322 -16.996   8.630  1.00  0.00     0.211 HD
ENDBRANCH   7  15
ENDBRANCH   1   2
BRANCH   1  17
ATOM     17  C   UNL     1      21.089 -17.203   7.382  1.00  0.00     0.224 C 
ATOM     18  C   UNL     1      20.372 -15.866   7.088  1.00  0.00     0.208 C 
ATOM     19  O   UNL     1      21.603 -17.691   6.148  1.00  0.00    -0.337 OA
ATOM     20  C   UNL     1      20.074 -15.940   5.608  1.00  0.00     0.180 C 
ATOM     21  C   UNL     1      21.235 -16.795   5.121  1.00  0.00     0.179 C 
BRANCH  17  22
ATOM     22  C   UNL     1      20.143 -18.270   7.987  1.00  0.00     0.225 C 
BRANCH  22  23
ATOM     23  O   UNL     1      20.640 -19.560   7.760  1.00  0.00    -0.391 OA
ATOM     24  H   UNL     1      19.849 -20.154   7.691  1.00  0.00     0.210 HD
ENDBRANCH  22  23
ENDBRANCH  17  22
BRANCH  18  25
ATOM     25  O   UNL     1      19.238 -15.620   7.889  1.00  0.00    -0.385 OA
ATOM     26  H   UNL     1      18.972 -14.671   7.792  1.00  0.00     0.211 HD
ENDBRANCH  18  25
BRANCH  20  27
ATOM     27  O   UNL     1      20.104 -14.669   5.013  1.00  0.00    -0.387 OA
ATOM     28  H   UNL     1      19.305 -14.617   4.427  1.00  0.00     0.211 HD
ENDBRANCH  20  27
BRANCH  21  29
ATOM     29  C   UNL     1      20.904 -17.564   3.833  1.00  0.00     0.191 C 
BRANCH  29  30
ATOM     30  O   UNL     1      21.124 -18.940   3.991  1.00  0.00    -0.394 OA
ATOM     31  H   UNL     1      22.088 -19.053   4.199  1.00  0.00     0.210 HD
ENDBRANCH  29  30
ENDBRANCH  21  29
ENDBRANCH   1  17
TORSDOF 13
ENDMDL
MODEL 5
REMARK VINA RESULT:    -6.168      2.687      4.080
REMARK INTER + INTRA:         -10.707
REMARK INTER:                  -9.372
REMARK INTRA:                  -1.335
REMARK UNBOUND:                -1.294
REMARK SMILES OC[C@@H]1O[C@@H](O[C@]2(CO)O[C@@H](CO)[C@H](O)[C@H]2O)[C@H](O)[C@H](O)[C@H]1O
REMARK SMILES IDX 6 1 5 2 3 3 22 4 4 5 20 6 18 7 2 8 1 9 23 11 21 13 19 15
REMARK SMILES IDX 7 17 16 18 10 19 14 20 11 21 8 22 9 23 17 25 15 27 12 29
REMARK SMILES IDX 13 30
REMARK H PARENT 1 10 23 12 21 14 19 16 9 24 17 26 15 28 13 31
REMARK Flexibility Score: inf
ROOT
ATOM      1  O   UNL     1      12.157  -3.971  12.379  1.00  0.00    -0.313 OA
ENDROOT
BRANCH   1   2
ATOM      2  C   UNL     1      12.113  -5.191  11.643  1.00  0.00     0.285 C 
ATOM      3  C   UNL     1      13.453  -4.275   9.934  1.00  0.00     0.178 C 
ATOM      4  C   UNL     1      12.288  -4.260   8.912  1.00  0.00     0.177 C 
ATOM      5  O   UNL     1      13.290  -5.338  10.863  1.00  0.00    -0.341 OA
ATOM      6  C   UNL     1      10.947  -4.156   9.658  1.00  0.00     0.179 C 
ATOM      7  C   UNL     1      10.856  -5.234  10.747  1.00  0.00     0.202 C 
BRANCH   3   8
ATOM      8  C   UNL     1      14.807  -4.467   9.237  1.00  0.00     0.191 C 
BRANCH   8   9
ATOM      9  O   UNL     1      15.337  -3.230   8.846  1.00  0.00    -0.394 OA
ATOM     10  H   UNL     1      15.503  -3.298   7.869  1.00  0.00     0.210 HD
ENDBRANCH   8   9
ENDBRANCH   3   8
BRANCH   4  11
ATOM     11  O   UNL     1      12.411  -3.156   8.050  1.00  0.00    -0.387 OA
ATOM     12  H   UNL     1      11.715  -2.498   8.313  1.00  0.00     0.211 HD
ENDBRANCH   4  11
BRANCH   6  13
ATOM     13  O   UNL     1       9.876  -4.309   8.761  1.00  0.00    -0.387 OA
ATOM     14  H   UNL     1       9.041  -4.238   9.293  1.00  0.00     0.211 HD
ENDBRANCH   6  13
BRANCH   7  15
ATOM     15  O   UNL     1      10.738  -6.501  10.151  1.00  0.00    -0.385 OA
ATOM     16  H   UNL     1      11.584  -6.985  10.335  1.00  0.00     0.211 HD
ENDBRANCH   7  15
ENDBRANCH   1   2
BRANCH   1  17
ATOM     17  C   UNL     1      12.326  -4.136  13.785  1.00  0.00     0.224 C 
ATOM     18  C   UNL     1      11.856  -5.566  14.136  1.00  0.00     0.208 C 
ATOM     19  O   UNL     1      13.695  -4.034  14.161  1.00  0.00    -0.337 OA
ATOM     20  C   UNL     1      12.854  -6.025  15.174  1.00  0.00     0.180 C 
ATOM     21  C   UNL     1      14.095  -5.257  14.742  1.00  0.00     0.179 C 
BRANCH  17  22
ATOM     22  C   UNL     1      11.520  -3.042  14.528  1.00  0.00     0.225 C 
BRANCH  22  23
ATOM     23  O   UNL     1      10.247  -2.892  13.960  1.00  0.00    -0.391 OA
ATOM     24  H   UNL     1      10.393  -2.740  12.990  1.00  0.00     0.210 HD
ENDBRANCH  22  23
ENDBRANCH  17  22
BRANCH  18  25
ATOM     25  O   UNL     1      10.512  -5.657  14.553  1.00  0.00    -0.385 OA
ATOM     26  H   UNL     1      10.147  -4.744  14.672  1.00  0.00     0.211 HD
ENDBRANCH  18  25
BRANCH  20  27
ATOM     27  O   UNL     1      13.072  -7.409  15.102  1.00  0.00    -0.387 OA
ATOM     28  H   UNL     1      12.936  -7.664  14.153  1.00  0.00     0.211 HD
ENDBRANCH  20  27
BRANCH  21  29
ATOM     29  C   UNL     1      15.068  -5.004  15.903  1.00  0.00     0.191 C 
BRANCH  29  30
ATOM     30  O   UNL     1      14.776  -5.828  17.000  1.00  0.00    -0.394 OA
ATOM     31  H   UNL     1      13.786  -5.881  17.062  1.00  0.00     0.210 HD
ENDBRANCH  29  30
ENDBRANCH  21  29
ENDBRANCH   1  17
TORSDOF 13
ENDMDL
MODEL 6
REMARK VINA RESULT:    -6.064      2.168      4.366
REMARK INTER + INTRA:         -10.548
REMARK INTER:                  -9.367
REMARK INTRA:                  -1.181
REMARK UNBOUND:                -1.294
REMARK SMILES OC[C@@H]1O[C@@H](O[C@]2(CO)O[C@@H](CO)[C@H](O)[C@H]2O)[C@H](O)[C@H](O)[C@H]1O
REMARK SMILES IDX 6 1 5 2 3 3 22 4 4 5 20 6 18 7 2 8 1 9 23 11 21 13 19 15
REMARK SMILES IDX 7 17 16 18 10 19 14 20 11 21 8 22 9 23 17 25 15 27 12 29
REMARK SMILES IDX 13 30
REMARK H PARENT 1 10 23 12 21 14 19 16 9 24 17 26 15 28 13 31
REMARK Flexibility Score: inf
ROOT
ATOM      1  O   UNL     1      14.145  -5.816  12.417  1.00  0.00    -0.313 OA
ENDROOT
BRANCH   1   2
ATOM      2  C   UNL     1      14.245  -4.436  12.075  1.00  0.00     0.285 C 
ATOM      3  C   UNL     1      12.440  -4.618  10.570  1.00  0.00     0.178 C 
ATOM      4  C   UNL     1      13.346  -4.422   9.328  1.00  0.00     0.177 C 
ATOM      5  O   UNL     1      12.975  -3.930  11.692  1.00  0.00    -0.341 OA
ATOM      6  C   UNL     1      14.774  -4.893   9.649  1.00  0.00     0.179 C 
ATOM      7  C   UNL     1      15.276  -4.235  10.943  1.00  0.00     0.202 C 
BRANCH   3   8
ATOM      8  C   UNL     1      11.025  -4.078  10.321  1.00  0.00     0.191 C 
BRANCH   8   9
ATOM      9  O   UNL     1      11.044  -3.087   9.331  1.00  0.00    -0.394 OA
ATOM     10  H   UNL     1      10.460  -2.356   9.662  1.00  0.00     0.210 HD
ENDBRANCH   8   9
ENDBRANCH   3   8
BRANCH   4  11
ATOM     11  O   UNL     1      12.856  -5.174   8.245  1.00  0.00    -0.387 OA
ATOM     12  H   UNL     1      13.012  -6.132   8.458  1.00  0.00     0.211 HD
ENDBRANCH   4  11
BRANCH   6  13
ATOM     13  O   UNL     1      15.644  -4.569   8.594  1.00  0.00    -0.387 OA
ATOM     14  H   UNL     1      15.519  -5.262   7.894  1.00  0.00     0.211 HD
ENDBRANCH   6  13
BRANCH   7  15
ATOM     15  O   UNL     1      15.484  -2.862  10.725  1.00  0.00    -0.385 OA
ATOM     16  H   UNL     1      14.669  -2.394  11.043  1.00  0.00     0.211 HD
ENDBRANCH   7  15
ENDBRANCH   1   2
BRANCH   1  17
ATOM     17  C   UNL     1      13.768  -6.064  13.769  1.00  0.00     0.224 C 
ATOM     18  C   UNL     1      14.136  -4.802  14.582  1.00  0.00     0.208 C 
ATOM     19  O   UNL     1      12.363  -6.254  13.892  1.00  0.00    -0.337 OA
ATOM     20  C   UNL     1      12.984  -4.652  15.548  1.00  0.00     0.180 C 
ATOM     21  C   UNL     1      11.844  -5.247  14.734  1.00  0.00     0.179 C 
BRANCH  17  22
ATOM     22  C   UNL     1      14.493  -7.335  14.276  1.00  0.00     0.225 C 
BRANCH  22  23
ATOM     23  O   UNL     1      13.672  -8.056  15.154  1.00  0.00    -0.391 OA
ATOM     24  H   UNL     1      12.780  -7.624  15.117  1.00  0.00     0.210 HD
ENDBRANCH  22  23
ENDBRANCH  17  22
BRANCH  18  25
ATOM     25  O   UNL     1      15.401  -4.852  15.203  1.00  0.00    -0.385 OA
ATOM     26  H   UNL     1      16.103  -4.682  14.525  1.00  0.00     0.211 HD
ENDBRANCH  18  25
BRANCH  20  27
ATOM     27  O   UNL     1      12.734  -3.304  15.847  1.00  0.00    -0.387 OA
ATOM     28  H   UNL     1      13.331  -3.071  16.605  1.00  0.00     0.211 HD
ENDBRANCH  20  27
BRANCH  21  29
ATOM     29  C   UNL     1      10.721  -5.814  15.615  1.00  0.00     0.191 C 
BRANCH  29  30
ATOM     30  O   UNL     1      11.114  -7.010  16.234  1.00  0.00    -0.394 OA
ATOM     31  H   UNL     1      11.424  -6.771  17.147  1.00  0.00     0.210 HD
ENDBRANCH  29  30
ENDBRANCH  21  29
ENDBRANCH   1  17
TORSDOF 13
ENDMDL
MODEL 7
REMARK VINA RESULT:    -6.058     14.561     16.485
REMARK INTER + INTRA:         -10.538
REMARK INTER:                  -9.318
REMARK INTRA:                  -1.221
REMARK UNBOUND:                -1.294
REMARK SMILES OC[C@@H]1O[C@@H](O[C@]2(CO)O[C@@H](CO)[C@H](O)[C@H]2O)[C@H](O)[C@H](O)[C@H]1O
REMARK SMILES IDX 6 1 5 2 3 3 22 4 4 5 20 6 18 7 2 8 1 9 23 11 21 13 19 15
REMARK SMILES IDX 7 17 16 18 10 19 14 20 11 21 8 22 9 23 17 25 15 27 12 29
REMARK SMILES IDX 13 30
REMARK H PARENT 1 10 23 12 21 14 19 16 9 24 17 26 15 28 13 31
REMARK Flexibility Score: inf
ROOT
ATOM      1  O   UNL     1      21.741 -18.154   5.851  1.00  0.00    -0.313 OA
ENDROOT
BRANCH   1   2
ATOM      2  C   UNL     1      21.520 -16.987   5.064  1.00  0.00     0.285 C 
ATOM      3  C   UNL     1      19.213 -17.448   4.925  1.00  0.00     0.178 C 
ATOM      4  C   UNL     1      19.284 -17.781   3.413  1.00  0.00     0.177 C 
ATOM      5  O   UNL     1      20.206 -16.494   5.274  1.00  0.00    -0.341 OA
ATOM      6  C   UNL     1      20.695 -18.280   3.059  1.00  0.00     0.179 C 
ATOM      7  C   UNL     1      21.755 -17.293   3.569  1.00  0.00     0.202 C 
BRANCH   3   8
ATOM      8  C   UNL     1      17.846 -16.862   5.305  1.00  0.00     0.191 C 
BRANCH   8   9
ATOM      9  O   UNL     1      17.157 -16.441   4.160  1.00  0.00    -0.394 OA
ATOM     10  H   UNL     1      16.892 -15.499   4.328  1.00  0.00     0.210 HD
ENDBRANCH   8   9
ENDBRANCH   3   8
BRANCH   4  11
ATOM     11  O   UNL     1      18.356 -18.787   3.092  1.00  0.00    -0.387 OA
ATOM     12  H   UNL     1      17.605 -18.712   3.739  1.00  0.00     0.211 HD
ENDBRANCH   4  11
BRANCH   6  13
ATOM     13  O   UNL     1      20.826 -18.427   1.668  1.00  0.00    -0.387 OA
ATOM     14  H   UNL     1      20.128 -17.857   1.250  1.00  0.00     0.211 HD
ENDBRANCH   6  13
BRANCH   7  15
ATOM     15  O   UNL     1      21.692 -16.104   2.822  1.00  0.00    -0.385 OA
ATOM     16  H   UNL     1      22.610 -15.921   2.495  1.00  0.00     0.211 HD
ENDBRANCH   7  15
ENDBRANCH   1   2
BRANCH   1  17
ATOM     17  C   UNL     1      22.063 -17.894   7.215  1.00  0.00     0.224 C 
ATOM     18  C   UNL     1      23.143 -18.918   7.631  1.00  0.00     0.208 C 
ATOM     19  O   UNL     1      22.621 -16.596   7.381  1.00  0.00    -0.337 OA
ATOM     20  C   UNL     1      24.077 -18.115   8.507  1.00  0.00     0.180 C 
ATOM     21  C   UNL     1      23.929 -16.729   7.893  1.00  0.00     0.179 C 
BRANCH  17  22
ATOM     22  C   UNL     1      20.777 -18.000   8.072  1.00  0.00     0.225 C 
BRANCH  22  23
ATOM     23  O   UNL     1      20.196 -16.737   8.251  1.00  0.00    -0.391 OA
ATOM     24  H   UNL     1      19.223 -16.855   8.097  1.00  0.00     0.210 HD
ENDBRANCH  22  23
ENDBRANCH  17  22
BRANCH  18  25
ATOM     25  O   UNL     1      22.642 -20.083   8.247  1.00  0.00    -0.385 OA
ATOM     26  H   UNL     1      21.917 -19.833   8.874  1.00  0.00     0.211 HD
ENDBRANCH  18  25
BRANCH  20  27
ATOM     27  O   UNL     1      25.400 -18.570   8.402  1.00  0.00    -0.387 OA
ATOM     28  H   UNL     1      25.890 -18.180   9.172  1.00  0.00     0.211 HD
ENDBRANCH  20  27
BRANCH  21  29
ATOM     29  C   UNL     1      24.229 -15.604   8.895  1.00  0.00     0.191 C 
BRANCH  29  30
ATOM     30  O   UNL     1      25.211 -15.993   9.819  1.00  0.00    -0.394 OA
ATOM     31  H   UNL     1      24.733 -16.268  10.644  1.00  0.00     0.210 HD
ENDBRANCH  29  30
ENDBRANCH  21  29
ENDBRANCH   1  17
TORSDOF 13
ENDMDL
MODEL 8
REMARK VINA RESULT:    -5.941      1.338      2.055
REMARK INTER + INTRA:         -10.361
REMARK INTER:                  -9.009
REMARK INTRA:                  -1.352
REMARK UNBOUND:                -1.294
REMARK SMILES OC[C@@H]1O[C@@H](O[C@]2(CO)O[C@@H](CO)[C@H](O)[C@H]2O)[C@H](O)[C@H](O)[C@H]1O
REMARK SMILES IDX 6 1 5 2 3 3 22 4 4 5 20 6 18 7 2 8 1 9 23 11 21 13 19 15
REMARK SMILES IDX 7 17 16 18 10 19 14 20 11 21 8 22 9 23 17 25 15 27 12 29
REMARK SMILES IDX 13 30
REMARK H PARENT 1 10 23 12 21 14 19 16 9 24 17 26 15 28 13 31
REMARK Flexibility Score: inf
ROOT
ATOM      1  O   UNL     1      15.016  -3.785  12.466  1.00  0.00    -0.313 OA
ENDROOT
BRANCH   1   2
ATOM      2  C   UNL     1      16.069  -4.561  11.901  1.00  0.00     0.285 C 
ATOM      3  C   UNL     1      17.538  -2.719  11.962  1.00  0.00     0.178 C 
ATOM      4  C   UNL     1      17.561  -2.577  10.419  1.00  0.00     0.177 C 
ATOM      5  O   UNL     1      17.329  -4.073  12.337  1.00  0.00    -0.341 OA
ATOM      6  C   UNL     1      16.252  -3.130   9.830  1.00  0.00     0.179 C 
ATOM      7  C   UNL     1      15.983  -4.546  10.359  1.00  0.00     0.202 C 
BRANCH   3   8
ATOM      8  C   UNL     1      18.864  -2.260  12.586  1.00  0.00     0.191 C 
BRANCH   8   9
ATOM      9  O   UNL     1      18.925  -2.632  13.935  1.00  0.00    -0.394 OA
ATOM     10  H   UNL     1      18.151  -3.233  14.091  1.00  0.00     0.210 HD
ENDBRANCH   8   9
ENDBRANCH   3   8
BRANCH   4  11
ATOM     11  O   UNL     1      17.683  -1.224  10.057  1.00  0.00    -0.387 OA
ATOM     12  H   UNL     1      18.036  -0.738  10.848  1.00  0.00     0.211 HD
ENDBRANCH   4  11
BRANCH   6  13
ATOM     13  O   UNL     1      16.324  -3.163   8.427  1.00  0.00    -0.387 OA
ATOM     14  H   UNL     1      16.322  -2.220   8.115  1.00  0.00     0.211 HD
ENDBRANCH   6  13
BRANCH   7  15
ATOM     15  O   UNL     1      16.924  -5.439   9.819  1.00  0.00    -0.385 OA
ATOM     16  H   UNL     1      16.425  -6.256   9.555  1.00  0.00     0.211 HD
ENDBRANCH   7  15
ENDBRANCH   1   2
BRANCH   1  17
ATOM     17  C   UNL     1      14.565  -4.240  13.739  1.00  0.00     0.224 C 
ATOM     18  C   UNL     1      13.025  -4.115  13.748  1.00  0.00     0.208 C 
ATOM     19  O   UNL     1      14.883  -5.612  13.945  1.00  0.00    -0.337 OA
ATOM     20  C   UNL     1      12.571  -5.355  14.482  1.00  0.00     0.180 C 
ATOM     21  C   UNL     1      13.680  -6.332  14.114  1.00  0.00     0.179 C 
BRANCH  17  22
ATOM     22  C   UNL     1      15.241  -3.398  14.851  1.00  0.00     0.225 C 
BRANCH  22  23
ATOM     23  O   UNL     1      16.515  -3.900  15.148  1.00  0.00    -0.391 OA
ATOM     24  H   UNL     1      16.576  -3.931  16.137  1.00  0.00     0.210 HD
ENDBRANCH  22  23
ENDBRANCH  17  22
BRANCH  18  25
ATOM     25  O   UNL     1      12.536  -2.913  14.299  1.00  0.00    -0.385 OA
ATOM     26  H   UNL     1      12.694  -2.916  15.277  1.00  0.00     0.211 HD
ENDBRANCH  18  25
BRANCH  20  27
ATOM     27  O   UNL     1      11.329  -5.808  14.010  1.00  0.00    -0.387 OA
ATOM     28  H   UNL     1      11.519  -6.343  13.196  1.00  0.00     0.211 HD
ENDBRANCH  20  27
BRANCH  21  29
ATOM     29  C   UNL     1      13.863  -7.440  15.162  1.00  0.00     0.191 C 
BRANCH  29  30
ATOM     30  O   UNL     1      12.627  -7.886  15.652  1.00  0.00    -0.394 OA
ATOM     31  H   UNL     1      12.633  -8.877  15.583  1.00  0.00     0.210 HD
ENDBRANCH  29  30
ENDBRANCH  21  29
ENDBRANCH   1  17
TORSDOF 13
ENDMDL
MODEL 9
REMARK VINA RESULT:    -5.874      1.334      3.136
REMARK INTER + INTRA:         -10.258
REMARK INTER:                  -9.375
REMARK INTRA:                  -0.883
REMARK UNBOUND:                -1.294
REMARK SMILES OC[C@@H]1O[C@@H](O[C@]2(CO)O[C@@H](CO)[C@H](O)[C@H]2O)[C@H](O)[C@H](O)[C@H]1O
REMARK SMILES IDX 6 1 5 2 3 3 22 4 4 5 20 6 18 7 2 8 1 9 23 11 21 13 19 15
REMARK SMILES IDX 7 17 16 18 10 19 14 20 11 21 8 22 9 23 17 25 15 27 12 29
REMARK SMILES IDX 13 30
REMARK H PARENT 1 10 23 12 21 14 19 16 9 24 17 26 15 28 13 31
REMARK Flexibility Score: inf
ROOT
ATOM      1  O   UNL     1      14.695  -4.163  12.233  1.00  0.00    -0.313 OA
ENDROOT
BRANCH   1   2
ATOM      2  C   UNL     1      15.834  -4.911  11.816  1.00  0.00     0.285 C 
ATOM      3  C   UNL     1      17.245  -3.050  12.131  1.00  0.00     0.178 C 
ATOM      4  C   UNL     1      17.494  -2.874  10.612  1.00  0.00     0.177 C 
ATOM      5  O   UNL     1      17.006  -4.415  12.445  1.00  0.00    -0.341 OA
ATOM      6  C   UNL     1      16.298  -3.433   9.824  1.00  0.00     0.179 C 
ATOM      7  C   UNL     1      15.978  -4.863  10.279  1.00  0.00     0.202 C 
BRANCH   3   8
ATOM      8  C   UNL     1      18.455  -2.586  12.955  1.00  0.00     0.191 C 
BRANCH   8   9
ATOM      9  O   UNL     1      18.625  -1.200  12.838  1.00  0.00    -0.394 OA
ATOM     10  H   UNL     1      19.502  -1.066  12.392  1.00  0.00     0.210 HD
ENDBRANCH   8   9
ENDBRANCH   3   8
BRANCH   4  11
ATOM     11  O   UNL     1      17.645  -1.512  10.298  1.00  0.00    -0.387 OA
ATOM     12  H   UNL     1      16.921  -1.020  10.767  1.00  0.00     0.211 HD
ENDBRANCH   4  11
BRANCH   6  13
ATOM     13  O   UNL     1      16.578  -3.434   8.447  1.00  0.00    -0.387 OA
ATOM     14  H   UNL     1      15.722  -3.253   7.977  1.00  0.00     0.211 HD
ENDBRANCH   6  13
BRANCH   7  15
ATOM     15  O   UNL     1      17.004  -5.732   9.868  1.00  0.00    -0.385 OA
ATOM     16  H   UNL     1      17.828  -5.446  10.341  1.00  0.00     0.211 HD
ENDBRANCH   7  15
ENDBRANCH   1   2
BRANCH   1  17
ATOM     17  C   UNL     1      13.567  -4.956  12.594  1.00  0.00     0.224 C 
ATOM     18  C   UNL     1      12.650  -4.072  13.469  1.00  0.00     0.208 C 
ATOM     19  O   UNL     1      12.817  -5.347  11.449  1.00  0.00    -0.337 OA
ATOM     20  C   UNL     1      11.258  -4.445  13.016  1.00  0.00     0.180 C 
ATOM     21  C   UNL     1      11.515  -4.812  11.561  1.00  0.00     0.179 C 
BRANCH  17  22
ATOM     22  C   UNL     1      14.053  -6.229  13.332  1.00  0.00     0.225 C 
BRANCH  22  23
ATOM     23  O   UNL     1      12.979  -6.884  13.948  1.00  0.00    -0.391 OA
ATOM     24  H   UNL     1      12.356  -6.174  14.249  1.00  0.00     0.210 HD
ENDBRANCH  22  23
ENDBRANCH  17  22
BRANCH  18  25
ATOM     25  O   UNL     1      12.856  -4.206  14.857  1.00  0.00    -0.385 OA
ATOM     26  H   UNL     1      13.796  -3.979  15.069  1.00  0.00     0.211 HD
ENDBRANCH  18  25
BRANCH  20  27
ATOM     27  O   UNL     1      10.376  -3.357  13.108  1.00  0.00    -0.387 OA
ATOM     28  H   UNL     1      10.875  -2.633  13.569  1.00  0.00     0.211 HD
ENDBRANCH  20  27
BRANCH  21  29
ATOM     29  C   UNL     1      10.481  -5.805  11.010  1.00  0.00     0.191 C 
BRANCH  29  30
ATOM     30  O   UNL     1      11.015  -6.566   9.959  1.00  0.00    -0.394 OA
ATOM     31  H   UNL     1      11.144  -7.486  10.309  1.00  0.00     0.210 HD
ENDBRANCH  29  30
ENDBRANCH  21  29
ENDBRANCH   1  17
TORSDOF 13
ENDMDL
