MODEL 1
REMARK VINA RESULT:    -3.855      0.000      0.000
REMARK INTER + INTRA:          -8.293
REMARK INTER:                  -7.010
REMARK INTRA:                  -1.283
REMARK UNBOUND:                -1.283
REMARK SMILES CCCCCC=CCC=CCCCCCCCC(=O)[O-]
REMARK SMILES IDX 11 1 12 2 13 3 14 4 15 5 16 6 17 7 18 8 19 9 20 10 10 11
REMARK SMILES IDX 9 12 8 13 7 14 6 15 5 16 4 17 3 18 2 19 1 20
REMARK H PARENT
REMARK Flexibility Score: inf
ROOT
ATOM      1  C   UNL     1      14.967 -18.504  -4.584  1.00  0.00     0.027 C 
ENDROOT
BRANCH   1   2
ATOM      2  C   UNL     1      16.061 -18.500  -3.510  1.00  0.00     0.004 C 
BRANCH   2   3
ATOM      3  C   UNL     1      17.355 -19.130  -4.041  1.00  0.00     0.000 C 
BRANCH   3   4
ATOM      4  C   UNL     1      17.951 -20.108  -3.018  1.00  0.00     0.000 C 
BRANCH   4   5
ATOM      5  C   UNL     1      16.995 -21.279  -2.705  1.00  0.00     0.000 C 
BRANCH   5   6
ATOM      6  C   UNL     1      17.620 -22.664  -2.948  1.00  0.00     0.006 C 
BRANCH   6   7
ATOM      7  C   UNL     1      16.578 -23.788  -2.989  1.00  0.00     0.053 C 
BRANCH   7   8
ATOM      8  C   UNL     1      15.931 -23.952  -1.650  1.00  0.00     0.041 C 
ATOM      9  O   UNL     1      14.676 -23.973  -1.550  1.00  0.00    -0.550 OA
ATOM     10  O   UNL     1      16.715 -24.124  -0.516  1.00  0.00    -0.550 OA
ENDBRANCH   7   8
ENDBRANCH   6   7
ENDBRANCH   5   6
ENDBRANCH   4   5
ENDBRANCH   3   4
ENDBRANCH   2   3
ENDBRANCH   1   2
BRANCH   1  11
ATOM     11  C   UNL     1      13.873 -17.531  -4.242  1.00  0.00    -0.031 C 
ATOM     12  C   UNL     1      14.107 -16.445  -3.489  1.00  0.00    -0.027 C 
BRANCH  12  13
ATOM     13  C   UNL     1      13.009 -15.477  -3.162  1.00  0.00     0.054 C 
BRANCH  13  14
ATOM     14  C   UNL     1      12.319 -15.014  -4.423  1.00  0.00    -0.027 C 
ATOM     15  C   UNL     1      10.984 -14.894  -4.552  1.00  0.00    -0.031 C 
BRANCH  15  16
ATOM     16  C   UNL     1       9.998 -15.113  -3.433  1.00  0.00     0.027 C 
BRANCH  16  17
ATOM     17  C   UNL     1       9.642 -16.602  -3.309  1.00  0.00     0.004 C 
BRANCH  17  18
ATOM     18  C   UNL     1       9.475 -17.285  -4.676  1.00  0.00     0.000 C 
BRANCH  18  19
ATOM     19  C   UNL     1      10.583 -18.307  -4.966  1.00  0.00    -0.003 C 
ATOM     20  C   UNL     1      11.033 -19.006  -3.684  1.00  0.00     0.004 C 
ENDBRANCH  18  19
ENDBRANCH  17  18
ENDBRANCH  16  17
ENDBRANCH  15  16
ENDBRANCH  13  14
ENDBRANCH  12  13
ENDBRANCH   1  11
TORSDOF 14
ENDMDL
MODEL 2
REMARK VINA RESULT:    -3.847      1.134      2.792
REMARK INTER + INTRA:          -8.278
REMARK INTER:                  -6.602
REMARK INTRA:                  -1.676
REMARK UNBOUND:                -1.283
REMARK SMILES CCCCCC=CCC=CCCCCCCCC(=O)[O-]
REMARK SMILES IDX 11 1 12 2 13 3 14 4 15 5 16 6 17 7 18 8 19 9 20 10 10 11
REMARK SMILES IDX 9 12 8 13 7 14 6 15 5 16 4 17 3 18 2 19 1 20
REMARK H PARENT
REMARK Flexibility Score: inf
ROOT
ATOM      1  C   UNL     1      13.577 -19.176  -4.397  1.00  0.00     0.027 C 
ENDROOT
BRANCH   1   2
ATOM      2  C   UNL     1      14.893 -18.428  -4.642  1.00  0.00     0.004 C 
BRANCH   2   3
ATOM      3  C   UNL     1      15.928 -18.768  -3.562  1.00  0.00     0.000 C 
BRANCH   3   4
ATOM      4  C   UNL     1      17.297 -19.074  -4.188  1.00  0.00     0.000 C 
BRANCH   4   5
ATOM      5  C   UNL     1      18.123 -20.059  -3.333  1.00  0.00     0.000 C 
BRANCH   5   6
ATOM      6  C   UNL     1      17.269 -20.901  -2.369  1.00  0.00     0.006 C 
BRANCH   6   7
ATOM      7  C   UNL     1      17.977 -22.181  -1.911  1.00  0.00     0.053 C 
BRANCH   7   8
ATOM      8  C   UNL     1      17.152 -23.384  -2.245  1.00  0.00     0.041 C 
ATOM      9  O   UNL     1      16.576 -24.032  -1.331  1.00  0.00    -0.550 OA
ATOM     10  O   UNL     1      16.984 -23.766  -3.570  1.00  0.00    -0.550 OA
ENDBRANCH   7   8
ENDBRANCH   6   7
ENDBRANCH   5   6
ENDBRANCH   4   5
ENDBRANCH   3   4
ENDBRANCH   2   3
ENDBRANCH   1   2
BRANCH   1  11
ATOM     11  C   UNL     1      12.426 -18.472  -5.058  1.00  0.00    -0.031 C 
ATOM     12  C   UNL     1      11.197 -18.472  -4.519  1.00  0.00    -0.027 C 
BRANCH  12  13
ATOM     13  C   UNL     1      10.058 -17.758  -5.184  1.00  0.00     0.054 C 
BRANCH  13  14
ATOM     14  C   UNL     1       9.323 -16.893  -4.188  1.00  0.00    -0.027 C 
ATOM     15  C   UNL     1       9.376 -15.548  -4.172  1.00  0.00    -0.031 C 
BRANCH  15  16
ATOM     16  C   UNL     1      10.098 -14.713  -5.199  1.00  0.00     0.027 C 
BRANCH  16  17
ATOM     17  C   UNL     1      11.330 -14.037  -4.579  1.00  0.00     0.004 C 
BRANCH  17  18
ATOM     18  C   UNL     1      12.514 -15.004  -4.416  1.00  0.00     0.000 C 
BRANCH  18  19
ATOM     19  C   UNL     1      12.628 -15.564  -2.991  1.00  0.00    -0.003 C 
ATOM     20  C   UNL     1      14.084 -15.592  -2.528  1.00  0.00     0.004 C 
ENDBRANCH  18  19
ENDBRANCH  17  18
ENDBRANCH  16  17
ENDBRANCH  15  16
ENDBRANCH  13  14
ENDBRANCH  12  13
ENDBRANCH   1  11
TORSDOF 14
ENDMDL
MODEL 3
REMARK VINA RESULT:    -3.795      2.508      7.589
REMARK INTER + INTRA:          -8.184
REMARK INTER:                  -7.023
REMARK INTRA:                  -1.161
REMARK UNBOUND:                -1.283
REMARK SMILES CCCCCC=CCC=CCCCCCCCC(=O)[O-]
REMARK SMILES IDX 11 1 12 2 13 3 14 4 15 5 16 6 17 7 18 8 19 9 20 10 10 11
REMARK SMILES IDX 9 12 8 13 7 14 6 15 5 16 4 17 3 18 2 19 1 20
REMARK H PARENT
REMARK Flexibility Score: inf
ROOT
ATOM      1  C   UNL     1      13.622 -15.605  -3.136  1.00  0.00     0.027 C 
ENDROOT
BRANCH   1   2
ATOM      2  C   UNL     1      12.108 -15.416  -3.287  1.00  0.00     0.004 C 
BRANCH   2   3
ATOM      3  C   UNL     1      11.779 -14.603  -4.545  1.00  0.00     0.000 C 
BRANCH   3   4
ATOM      4  C   UNL     1      10.349 -14.889  -5.027  1.00  0.00     0.000 C 
BRANCH   4   5
ATOM      5  C   UNL     1       9.505 -15.614  -3.956  1.00  0.00     0.000 C 
BRANCH   5   6
ATOM      6  C   UNL     1       9.069 -17.030  -4.373  1.00  0.00     0.006 C 
BRANCH   6   7
ATOM      7  C   UNL     1       9.992 -17.650  -5.428  1.00  0.00     0.053 C 
BRANCH   7   8
ATOM      8  C   UNL     1      11.027 -18.512  -4.777  1.00  0.00     0.041 C 
ATOM      9  O   UNL     1      11.998 -18.954  -5.447  1.00  0.00    -0.550 OA
ATOM     10  O   UNL     1      10.943 -18.794  -3.420  1.00  0.00    -0.550 OA
ENDBRANCH   7   8
ENDBRANCH   6   7
ENDBRANCH   5   6
ENDBRANCH   4   5
ENDBRANCH   3   4
ENDBRANCH   2   3
ENDBRANCH   1   2
BRANCH   1  11
ATOM     11  C   UNL     1      14.078 -16.866  -3.814  1.00  0.00    -0.031 C 
ATOM     12  C   UNL     1      15.231 -17.467  -3.482  1.00  0.00    -0.027 C 
BRANCH  12  13
ATOM     13  C   UNL     1      15.672 -18.731  -4.161  1.00  0.00     0.054 C 
BRANCH  13  14
ATOM     14  C   UNL     1      17.167 -18.902  -4.039  1.00  0.00    -0.027 C 
ATOM     15  C   UNL     1      17.761 -19.769  -3.198  1.00  0.00    -0.031 C 
BRANCH  15  16
ATOM     16  C   UNL     1      17.021 -20.756  -2.330  1.00  0.00     0.027 C 
BRANCH  16  17
ATOM     17  C   UNL     1      17.355 -22.197  -2.743  1.00  0.00     0.004 C 
BRANCH  17  18
ATOM     18  C   UNL     1      16.767 -23.239  -1.778  1.00  0.00     0.000 C 
BRANCH  18  19
ATOM     19  C   UNL     1      15.467 -23.864  -2.303  1.00  0.00    -0.003 C 
ATOM     20  C   UNL     1      14.485 -24.125  -1.163  1.00  0.00     0.004 C 
ENDBRANCH  18  19
ENDBRANCH  17  18
ENDBRANCH  16  17
ENDBRANCH  15  16
ENDBRANCH  13  14
ENDBRANCH  12  13
ENDBRANCH   1  11
TORSDOF 14
ENDMDL
MODEL 4
REMARK VINA RESULT:    -3.608      3.589      8.568
REMARK INTER + INTRA:          -7.844
REMARK INTER:                  -6.694
REMARK INTRA:                  -1.150
REMARK UNBOUND:                -1.283
REMARK SMILES CCCCCC=CCC=CCCCCCCCC(=O)[O-]
REMARK SMILES IDX 11 1 12 2 13 3 14 4 15 5 16 6 17 7 18 8 19 9 20 10 10 11
REMARK SMILES IDX 9 12 8 13 7 14 6 15 5 16 4 17 3 18 2 19 1 20
REMARK H PARENT
REMARK Flexibility Score: inf
ROOT
ATOM      1  C   UNL     1      13.795 -18.054  -4.309  1.00  0.00     0.027 C 
ENDROOT
BRANCH   1   2
ATOM      2  C   UNL     1      12.626 -18.908  -4.816  1.00  0.00     0.004 C 
BRANCH   2   3
ATOM      3  C   UNL     1      11.428 -18.821  -3.864  1.00  0.00     0.000 C 
BRANCH   3   4
ATOM      4  C   UNL     1      10.552 -17.602  -4.190  1.00  0.00     0.000 C 
BRANCH   4   5
ATOM      5  C   UNL     1      10.406 -17.378  -5.711  1.00  0.00     0.000 C 
BRANCH   5   6
ATOM      6  C   UNL     1      10.570 -15.908  -6.134  1.00  0.00     0.006 C 
BRANCH   6   7
ATOM      7  C   UNL     1      10.264 -14.924  -4.998  1.00  0.00     0.053 C 
BRANCH   7   8
ATOM      8  C   UNL     1      11.492 -14.153  -4.628  1.00  0.00     0.041 C 
ATOM      9  O   UNL     1      11.624 -12.957  -4.998  1.00  0.00    -0.550 OA
ATOM     10  O   UNL     1      12.471 -14.742  -3.840  1.00  0.00    -0.550 OA
ENDBRANCH   7   8
ENDBRANCH   6   7
ENDBRANCH   5   6
ENDBRANCH   4   5
ENDBRANCH   3   4
ENDBRANCH   2   3
ENDBRANCH   1   2
BRANCH   1  11
ATOM     11  C   UNL     1      15.103 -18.772  -4.485  1.00  0.00    -0.031 C 
ATOM     12  C   UNL     1      16.117 -18.610  -3.621  1.00  0.00    -0.027 C 
BRANCH  12  13
ATOM     13  C   UNL     1      17.416 -19.339  -3.803  1.00  0.00     0.054 C 
BRANCH  13  14
ATOM     14  C   UNL     1      17.846 -19.983  -2.507  1.00  0.00    -0.027 C 
ATOM     15  C   UNL     1      18.070 -21.303  -2.358  1.00  0.00    -0.031 C 
BRANCH  15  16
ATOM     16  C   UNL     1      18.016 -22.307  -3.481  1.00  0.00     0.027 C 
BRANCH  16  17
ATOM     17  C   UNL     1      17.707 -23.711  -2.937  1.00  0.00     0.004 C 
BRANCH  17  18
ATOM     18  C   UNL     1      17.579 -23.735  -1.406  1.00  0.00     0.000 C 
BRANCH  18  19
ATOM     19  C   UNL     1      16.170 -24.125  -0.937  1.00  0.00    -0.003 C 
ATOM     20  C   UNL     1      15.129 -23.814  -2.012  1.00  0.00     0.004 C 
ENDBRANCH  18  19
ENDBRANCH  17  18
ENDBRANCH  16  17
ENDBRANCH  15  16
ENDBRANCH  13  14
ENDBRANCH  12  13
ENDBRANCH   1  11
TORSDOF 14
ENDMDL
MODEL 5
REMARK VINA RESULT:    -3.586      3.459      8.234
REMARK INTER + INTRA:          -7.803
REMARK INTER:                  -6.325
REMARK INTRA:                  -1.479
REMARK UNBOUND:                -1.283
REMARK SMILES CCCCCC=CCC=CCCCCCCCC(=O)[O-]
REMARK SMILES IDX 11 1 12 2 13 3 14 4 15 5 16 6 17 7 18 8 19 9 20 10 10 11
REMARK SMILES IDX 9 12 8 13 7 14 6 15 5 16 4 17 3 18 2 19 1 20
REMARK H PARENT
REMARK Flexibility Score: inf
ROOT
ATOM      1  C   UNL     1      12.453 -18.523  -5.400  1.00  0.00     0.027 C 
ENDROOT
BRANCH   1   2
ATOM      2  C   UNL     1      11.078 -18.896  -4.833  1.00  0.00     0.004 C 
BRANCH   2   3
ATOM      3  C   UNL     1      11.045 -18.722  -3.310  1.00  0.00     0.000 C 
BRANCH   3   4
ATOM      4  C   UNL     1      10.294 -17.442  -2.917  1.00  0.00     0.000 C 
BRANCH   4   5
ATOM      5  C   UNL     1       9.226 -17.048  -3.961  1.00  0.00     0.000 C 
BRANCH   5   6
ATOM      6  C   UNL     1       9.373 -15.605  -4.476  1.00  0.00     0.006 C 
BRANCH   6   7
ATOM      7  C   UNL     1      10.586 -15.422  -5.396  1.00  0.00     0.053 C 
BRANCH   7   8
ATOM      8  C   UNL     1      11.611 -14.549  -4.744  1.00  0.00     0.041 C 
ATOM      9  O   UNL     1      11.502 -13.295  -4.800  1.00  0.00    -0.550 OA
ATOM     10  O   UNL     1      12.663 -15.118  -4.040  1.00  0.00    -0.550 OA
ENDBRANCH   7   8
ENDBRANCH   6   7
ENDBRANCH   5   6
ENDBRANCH   4   5
ENDBRANCH   3   4
ENDBRANCH   2   3
ENDBRANCH   1   2
BRANCH   1  11
ATOM     11  C   UNL     1      13.515 -18.614  -4.341  1.00  0.00    -0.031 C 
ATOM     12  C   UNL     1      14.817 -18.483  -4.636  1.00  0.00    -0.027 C 
BRANCH  12  13
ATOM     13  C   UNL     1      15.868 -18.568  -3.569  1.00  0.00     0.054 C 
BRANCH  13  14
ATOM     14  C   UNL     1      17.138 -19.168  -4.124  1.00  0.00    -0.027 C 
ATOM     15  C   UNL     1      18.013 -19.888  -3.396  1.00  0.00    -0.031 C 
BRANCH  15  16
ATOM     16  C   UNL     1      17.805 -20.277  -1.955  1.00  0.00     0.027 C 
BRANCH  16  17
ATOM     17  C   UNL     1      17.777 -21.806  -1.804  1.00  0.00     0.004 C 
BRANCH  17  18
ATOM     18  C   UNL     1      17.947 -22.533  -3.147  1.00  0.00     0.000 C 
BRANCH  18  19
ATOM     19  C   UNL     1      16.951 -23.688  -3.324  1.00  0.00    -0.003 C 
ATOM     20  C   UNL     1      15.670 -23.433  -2.532  1.00  0.00     0.004 C 
ENDBRANCH  18  19
ENDBRANCH  17  18
ENDBRANCH  16  17
ENDBRANCH  15  16
ENDBRANCH  13  14
ENDBRANCH  12  13
ENDBRANCH   1  11
TORSDOF 14
ENDMDL
MODEL 6
REMARK VINA RESULT:    -2.952      3.062      7.924
REMARK INTER + INTRA:          -6.650
REMARK INTER:                  -5.762
REMARK INTRA:                  -0.889
REMARK UNBOUND:                -1.283
REMARK SMILES CCCCCC=CCC=CCCCCCCCC(=O)[O-]
REMARK SMILES IDX 11 1 12 2 13 3 14 4 15 5 16 6 17 7 18 8 19 9 20 10 10 11
REMARK SMILES IDX 9 12 8 13 7 14 6 15 5 16 4 17 3 18 2 19 1 20
REMARK H PARENT
REMARK Flexibility Score: inf
ROOT
ATOM      1  C   UNL     1      12.051 -19.043  -4.796  1.00  0.00     0.027 C 
ENDROOT
BRANCH   1   2
ATOM      2  C   UNL     1      11.389 -18.515  -6.074  1.00  0.00     0.004 C 
BRANCH   2   3
ATOM      3  C   UNL     1      10.267 -17.524  -5.743  1.00  0.00     0.000 C 
BRANCH   3   4
ATOM      4  C   UNL     1      10.637 -16.102  -6.190  1.00  0.00     0.000 C 
BRANCH   4   5
ATOM      5  C   UNL     1      10.079 -15.025  -5.233  1.00  0.00     0.000 C 
BRANCH   5   6
ATOM      6  C   UNL     1      11.150 -14.049  -4.716  1.00  0.00     0.006 C 
BRANCH   6   7
ATOM      7  C   UNL     1      12.525 -14.706  -4.553  1.00  0.00     0.053 C 
BRANCH   7   8
ATOM      8  C   UNL     1      12.626 -15.388  -3.225  1.00  0.00     0.041 C 
ATOM      9  O   UNL     1      11.613 -15.936  -2.715  1.00  0.00    -0.550 OA
ATOM     10  O   UNL     1      13.848 -15.455  -2.568  1.00  0.00    -0.550 OA
ENDBRANCH   7   8
ENDBRANCH   6   7
ENDBRANCH   5   6
ENDBRANCH   4   5
ENDBRANCH   3   4
ENDBRANCH   2   3
ENDBRANCH   1   2
BRANCH   1  11
ATOM     11  C   UNL     1      13.297 -18.267  -4.474  1.00  0.00    -0.031 C 
ATOM     12  C   UNL     1      14.497 -18.864  -4.390  1.00  0.00    -0.027 C 
BRANCH  12  13
ATOM     13  C   UNL     1      15.735 -18.077  -4.077  1.00  0.00     0.054 C 
BRANCH  13  14
ATOM     14  C   UNL     1      16.943 -18.715  -4.722  1.00  0.00    -0.027 C 
ATOM     15  C   UNL     1      17.804 -19.524  -4.076  1.00  0.00    -0.031 C 
BRANCH  15  16
ATOM     16  C   UNL     1      17.635 -19.983  -2.650  1.00  0.00     0.027 C 
BRANCH  16  17
ATOM     17  C   UNL     1      18.018 -21.464  -2.509  1.00  0.00     0.004 C 
BRANCH  17  18
ATOM     18  C   UNL     1      17.330 -22.140  -1.312  1.00  0.00     0.000 C 
BRANCH  18  19
ATOM     19  C   UNL     1      16.317 -23.212  -1.740  1.00  0.00    -0.003 C 
ATOM     20  C   UNL     1      16.575 -23.667  -3.175  1.00  0.00     0.004 C 
ENDBRANCH  18  19
ENDBRANCH  17  18
ENDBRANCH  16  17
ENDBRANCH  15  16
ENDBRANCH  13  14
ENDBRANCH  12  13
ENDBRANCH   1  11
TORSDOF 14
ENDMDL
MODEL 7
REMARK VINA RESULT:    -2.769      2.438      7.774
REMARK INTER + INTRA:          -6.318
REMARK INTER:                  -5.982
REMARK INTRA:                  -0.336
REMARK UNBOUND:                -1.283
REMARK SMILES CCCCCC=CCC=CCCCCCCCC(=O)[O-]
REMARK SMILES IDX 11 1 12 2 13 3 14 4 15 5 16 6 17 7 18 8 19 9 20 10 10 11
REMARK SMILES IDX 9 12 8 13 7 14 6 15 5 16 4 17 3 18 2 19 1 20
REMARK H PARENT
REMARK Flexibility Score: inf
ROOT
ATOM      1  C   UNL     1      13.875 -17.381  -4.435  1.00  0.00     0.027 C 
ENDROOT
BRANCH   1   2
ATOM      2  C   UNL     1      14.045 -16.530  -3.171  1.00  0.00     0.004 C 
BRANCH   2   3
ATOM      3  C   UNL     1      13.137 -15.295  -3.214  1.00  0.00     0.000 C 
BRANCH   3   4
ATOM      4  C   UNL     1      12.444 -15.167  -4.579  1.00  0.00     0.000 C 
BRANCH   4   5
ATOM      5  C   UNL     1      11.007 -14.614  -4.455  1.00  0.00     0.000 C 
BRANCH   5   6
ATOM      6  C   UNL     1       9.959 -15.693  -4.132  1.00  0.00     0.006 C 
BRANCH   6   7
ATOM      7  C   UNL     1      10.355 -17.080  -4.652  1.00  0.00     0.053 C 
BRANCH   7   8
ATOM      8  C   UNL     1      10.612 -18.013  -3.511  1.00  0.00     0.041 C 
ATOM      9  O   UNL     1      10.445 -17.624  -2.325  1.00  0.00    -0.550 OA
ATOM     10  O   UNL     1      10.996 -19.324  -3.758  1.00  0.00    -0.550 OA
ENDBRANCH   7   8
ENDBRANCH   6   7
ENDBRANCH   5   6
ENDBRANCH   4   5
ENDBRANCH   3   4
ENDBRANCH   2   3
ENDBRANCH   1   2
BRANCH   1  11
ATOM     11  C   UNL     1      14.847 -18.527  -4.447  1.00  0.00    -0.031 C 
ATOM     12  C   UNL     1      16.008 -18.472  -3.777  1.00  0.00    -0.027 C 
BRANCH  12  13
ATOM     13  C   UNL     1      16.967 -19.626  -3.790  1.00  0.00     0.054 C 
BRANCH  13  14
ATOM     14  C   UNL     1      17.797 -19.638  -2.528  1.00  0.00    -0.027 C 
ATOM     15  C   UNL     1      17.802 -20.648  -1.638  1.00  0.00    -0.031 C 
BRANCH  15  16
ATOM     16  C   UNL     1      17.057 -21.946  -1.819  1.00  0.00     0.027 C 
BRANCH  16  17
ATOM     17  C   UNL     1      17.797 -23.097  -1.120  1.00  0.00     0.004 C 
BRANCH  17  18
ATOM     18  C   UNL     1      16.837 -24.104  -0.467  1.00  0.00     0.000 C 
BRANCH  18  19
ATOM     19  C   UNL     1      15.452 -24.114  -1.127  1.00  0.00    -0.003 C 
ATOM     20  C   UNL     1      15.571 -24.120  -2.651  1.00  0.00     0.004 C 
ENDBRANCH  18  19
ENDBRANCH  17  18
ENDBRANCH  16  17
ENDBRANCH  15  16
ENDBRANCH  13  14
ENDBRANCH  12  13
ENDBRANCH   1  11
TORSDOF 14
ENDMDL
MODEL 8
REMARK VINA RESULT:    -2.292     19.232     21.338
REMARK INTER + INTRA:          -5.451
REMARK INTER:                  -3.687
REMARK INTRA:                  -1.764
REMARK UNBOUND:                -1.283
REMARK SMILES CCCCCC=CCC=CCCCCCCCC(=O)[O-]
REMARK SMILES IDX 11 1 12 2 13 3 14 4 15 5 16 6 17 7 18 8 19 9 20 10 10 11
REMARK SMILES IDX 9 12 8 13 7 14 6 15 5 16 4 17 3 18 2 19 1 20
REMARK H PARENT
REMARK Flexibility Score: inf
ROOT
ATOM      1  C   UNL     1       3.620  -9.516 -14.564  1.00  0.00     0.027 C 
ENDROOT
BRANCH   1   2
ATOM      2  C   UNL     1       4.257  -8.121 -14.531  1.00  0.00     0.004 C 
BRANCH   2   3
ATOM      3  C   UNL     1       3.311  -7.071 -15.125  1.00  0.00     0.000 C 
BRANCH   3   4
ATOM      4  C   UNL     1       3.297  -5.795 -14.270  1.00  0.00     0.000 C 
BRANCH   4   5
ATOM      5  C   UNL     1       2.280  -4.756 -14.789  1.00  0.00     0.000 C 
BRANCH   5   6
ATOM      6  C   UNL     1       0.888  -5.348 -15.073  1.00  0.00     0.006 C 
BRANCH   6   7
ATOM      7  C   UNL     1       0.116  -5.694 -13.795  1.00  0.00     0.053 C 
BRANCH   7   8
ATOM      8  C   UNL     1      -1.216  -5.013 -13.787  1.00  0.00     0.041 C 
ATOM      9  O   UNL     1      -1.949  -5.066 -12.765  1.00  0.00    -0.550 OA
ATOM     10  O   UNL     1      -1.631  -4.284 -14.894  1.00  0.00    -0.550 OA
ENDBRANCH   7   8
ENDBRANCH   6   7
ENDBRANCH   5   6
ENDBRANCH   4   5
ENDBRANCH   3   4
ENDBRANCH   2   3
ENDBRANCH   1   2
BRANCH   1  11
ATOM     11  C   UNL     1       2.177  -9.440 -14.973  1.00  0.00    -0.031 C 
ATOM     12  C   UNL     1       1.318 -10.438 -14.716  1.00  0.00    -0.027 C 
BRANCH  12  13
ATOM     13  C   UNL     1      -0.123 -10.347 -15.123  1.00  0.00     0.054 C 
BRANCH  13  14
ATOM     14  C   UNL     1      -0.993 -11.126 -14.165  1.00  0.00    -0.027 C 
ATOM     15  C   UNL     1      -1.694 -10.570 -13.159  1.00  0.00    -0.031 C 
BRANCH  15  16
ATOM     16  C   UNL     1      -1.786  -9.087 -12.904  1.00  0.00     0.027 C 
BRANCH  16  17
ATOM     17  C   UNL     1      -0.734  -8.649 -11.874  1.00  0.00     0.004 C 
BRANCH  17  18
ATOM     18  C   UNL     1      -1.360  -7.992 -10.634  1.00  0.00     0.000 C 
BRANCH  18  19
ATOM     19  C   UNL     1      -0.580  -6.757 -10.162  1.00  0.00    -0.003 C 
ATOM     20  C   UNL     1       0.371  -7.112  -9.020  1.00  0.00     0.004 C 
ENDBRANCH  18  19
ENDBRANCH  17  18
ENDBRANCH  16  17
ENDBRANCH  15  16
ENDBRANCH  13  14
ENDBRANCH  12  13
ENDBRANCH   1  11
TORSDOF 14
ENDMDL
MODEL 9
REMARK VINA RESULT:    -2.223      1.169      2.481
REMARK INTER + INTRA:          -5.325
REMARK INTER:                  -3.611
REMARK INTRA:                  -1.714
REMARK UNBOUND:                -1.283
REMARK SMILES CCCCCC=CCC=CCCCCCCCC(=O)[O-]
REMARK SMILES IDX 11 1 12 2 13 3 14 4 15 5 16 6 17 7 18 8 19 9 20 10 10 11
REMARK SMILES IDX 9 12 8 13 7 14 6 15 5 16 4 17 3 18 2 19 1 20
REMARK H PARENT
REMARK Flexibility Score: inf
ROOT
ATOM      1  C   UNL     1      15.239 -18.423  -4.631  1.00  0.00     0.027 C 
ENDROOT
BRANCH   1   2
ATOM      2  C   UNL     1      16.249 -18.671  -3.503  1.00  0.00     0.004 C 
BRANCH   2   3
ATOM      3  C   UNL     1      16.664 -20.146  -3.451  1.00  0.00     0.000 C 
BRANCH   3   4
ATOM      4  C   UNL     1      17.870 -20.347  -2.521  1.00  0.00     0.000 C 
BRANCH   4   5
ATOM      5  C   UNL     1      17.511 -21.183  -1.273  1.00  0.00     0.000 C 
BRANCH   5   6
ATOM      6  C   UNL     1      18.125 -22.594  -1.282  1.00  0.00     0.006 C 
BRANCH   6   7
ATOM      7  C   UNL     1      17.081 -23.698  -1.078  1.00  0.00     0.053 C 
BRANCH   7   8
ATOM      8  C   UNL     1      16.146 -23.758  -2.244  1.00  0.00     0.041 C 
ATOM      9  O   UNL     1      14.901 -23.774  -2.058  1.00  0.00    -0.550 OA
ATOM     10  O   UNL     1      16.648 -23.752  -3.539  1.00  0.00    -0.550 OA
ENDBRANCH   7   8
ENDBRANCH   6   7
ENDBRANCH   5   6
ENDBRANCH   4   5
ENDBRANCH   3   4
ENDBRANCH   2   3
ENDBRANCH   1   2
BRANCH   1  11
ATOM     11  C   UNL     1      13.884 -18.959  -4.267  1.00  0.00    -0.031 C 
ATOM     12  C   UNL     1      12.780 -18.597  -4.938  1.00  0.00    -0.027 C 
BRANCH  12  13
ATOM     13  C   UNL     1      11.432 -19.145  -4.571  1.00  0.00     0.054 C 
BRANCH  13  14
ATOM     14  C   UNL     1      10.991 -18.608  -3.230  1.00  0.00    -0.027 C 
ATOM     15  C   UNL     1      10.086 -17.623  -3.072  1.00  0.00    -0.031 C 
BRANCH  15  16
ATOM     16  C   UNL     1       9.319 -16.984  -4.201  1.00  0.00     0.027 C 
BRANCH  16  17
ATOM     17  C   UNL     1       9.742 -15.518  -4.382  1.00  0.00     0.004 C 
BRANCH  17  18
ATOM     18  C   UNL     1      11.086 -15.378  -5.113  1.00  0.00     0.000 C 
BRANCH  18  19
ATOM     19  C   UNL     1      12.111 -14.559  -4.316  1.00  0.00    -0.003 C 
ATOM     20  C   UNL     1      12.971 -15.464  -3.436  1.00  0.00     0.004 C 
ENDBRANCH  18  19
ENDBRANCH  17  18
ENDBRANCH  16  17
ENDBRANCH  15  16
ENDBRANCH  13  14
ENDBRANCH  12  13
ENDBRANCH   1  11
TORSDOF 14
ENDMDL
