MODEL 1
REMARK VINA RESULT:    -4.315      0.000      0.000
REMARK INTER + INTRA:          -4.991
REMARK INTER:                  -4.946
REMARK INTRA:                  -0.045
REMARK UNBOUND:                -0.045
REMARK SMILES O=C([O-])c1cc(O)c(O)c(O)c1
REMARK SMILES IDX 4 1 5 2 12 3 6 4 10 5 8 6 2 7 1 8 3 9 7 10 11 12 9 14
REMARK H PARENT 7 11 11 13 9 15
REMARK Flexibility Score: inf
ROOT
ATOM      1  C   UNL     1      -4.036  -2.222  -5.052  1.00  0.00     0.005 A 
ATOM      2  C   UNL     1      -4.902  -1.550  -4.176  1.00  0.00     0.060 A 
ATOM      3  C   UNL     1      -3.682  -3.551  -4.773  1.00  0.00     0.060 A 
ATOM      4  C   UNL     1      -5.409  -2.191  -3.043  1.00  0.00     0.162 A 
ATOM      5  C   UNL     1      -4.181  -4.208  -3.642  1.00  0.00     0.162 A 
ATOM      6  C   UNL     1      -5.055  -3.524  -2.763  1.00  0.00     0.200 A 
ENDROOT
BRANCH   1   7
ATOM      7  C   UNL     1      -3.499  -1.542  -6.253  1.00  0.00     0.072 C 
ATOM      8  O   UNL     1      -4.225  -1.367  -7.268  1.00  0.00    -0.545 OA
ATOM      9  O   UNL     1      -2.186  -1.087  -6.277  1.00  0.00    -0.545 OA
ENDBRANCH   1   7
BRANCH   4  10
ATOM     10  O   UNL     1      -6.268  -1.483  -2.200  1.00  0.00    -0.504 OA
ATOM     11  H   UNL     1      -6.125  -1.433  -1.199  1.00  0.00     0.293 HD
ENDBRANCH   4  10
BRANCH   5  12
ATOM     12  O   UNL     1      -3.784  -5.530  -3.433  1.00  0.00    -0.504 OA
ATOM     13  H   UNL     1      -4.291  -6.192  -2.864  1.00  0.00     0.293 HD
ENDBRANCH   5  12
BRANCH   6  14
ATOM     14  O   UNL     1      -5.584  -4.126  -1.619  1.00  0.00    -0.502 OA
ATOM     15  H   UNL     1      -6.571  -4.178  -1.410  1.00  0.00     0.293 HD
ENDBRANCH   6  14
TORSDOF 4
ENDMDL
MODEL 2
REMARK VINA RESULT:    -4.305      0.085      2.446
REMARK INTER + INTRA:          -4.979
REMARK INTER:                  -4.935
REMARK INTRA:                  -0.045
REMARK UNBOUND:                -0.045
REMARK SMILES O=C([O-])c1cc(O)c(O)c(O)c1
REMARK SMILES IDX 4 1 5 2 12 3 6 4 10 5 8 6 2 7 1 8 3 9 7 10 11 12 9 14
REMARK H PARENT 7 11 11 13 9 15
REMARK Flexibility Score: inf
ROOT
ATOM      1  C   UNL     1      -4.060  -2.272  -5.002  1.00  0.00     0.005 A 
ATOM      2  C   UNL     1      -3.701  -3.597  -4.711  1.00  0.00     0.060 A 
ATOM      3  C   UNL     1      -4.926  -1.595  -4.131  1.00  0.00     0.060 A 
ATOM      4  C   UNL     1      -4.196  -4.236  -3.571  1.00  0.00     0.162 A 
ATOM      5  C   UNL     1      -5.431  -2.219  -2.984  1.00  0.00     0.162 A 
ATOM      6  C   UNL     1      -5.065  -3.556  -2.697  1.00  0.00     0.200 A 
ENDROOT
BRANCH   1   7
ATOM      7  C   UNL     1      -3.535  -1.596  -6.210  1.00  0.00     0.072 C 
ATOM      8  O   UNL     1      -4.259  -1.460  -7.233  1.00  0.00    -0.545 OA
ATOM      9  O   UNL     1      -2.236  -1.100  -6.232  1.00  0.00    -0.545 OA
ENDBRANCH   1   7
BRANCH   4  10
ATOM     10  O   UNL     1      -3.811  -5.555  -3.321  1.00  0.00    -0.504 OA
ATOM     11  H   UNL     1      -3.003  -5.976  -3.763  1.00  0.00     0.293 HD
ENDBRANCH   4  10
BRANCH   5  12
ATOM     12  O   UNL     1      -6.287  -1.479  -2.167  1.00  0.00    -0.504 OA
ATOM     13  H   UNL     1      -6.310  -1.547  -1.160  1.00  0.00     0.293 HD
ENDBRANCH   5  12
BRANCH   6  14
ATOM     14  O   UNL     1      -5.536  -4.232  -1.569  1.00  0.00    -0.502 OA
ATOM     15  H   UNL     1      -5.831  -3.778  -0.717  1.00  0.00     0.293 HD
ENDBRANCH   6  14
TORSDOF 4
ENDMDL
MODEL 3
REMARK VINA RESULT:    -4.064      1.593      3.178
REMARK INTER + INTRA:          -4.702
REMARK INTER:                  -4.658
REMARK INTRA:                  -0.045
REMARK UNBOUND:                -0.045
REMARK SMILES O=C([O-])c1cc(O)c(O)c(O)c1
REMARK SMILES IDX 4 1 5 2 12 3 6 4 10 5 8 6 2 7 1 8 3 9 7 10 11 12 9 14
REMARK H PARENT 7 11 11 13 9 15
REMARK Flexibility Score: inf
ROOT
ATOM      1  C   UNL     1      -3.394  -4.109  -4.560  1.00  0.00     0.005 A 
ATOM      2  C   UNL     1      -4.015  -4.543  -3.379  1.00  0.00     0.060 A 
ATOM      3  C   UNL     1      -3.677  -2.822  -5.044  1.00  0.00     0.060 A 
ATOM      4  C   UNL     1      -4.901  -3.710  -2.690  1.00  0.00     0.162 A 
ATOM      5  C   UNL     1      -4.562  -1.975  -4.367  1.00  0.00     0.162 A 
ATOM      6  C   UNL     1      -5.184  -2.420  -3.176  1.00  0.00     0.200 A 
ENDROOT
BRANCH   1   7
ATOM      7  C   UNL     1      -2.456  -4.992  -5.289  1.00  0.00     0.072 C 
ATOM      8  O   UNL     1      -2.889  -5.873  -6.079  1.00  0.00    -0.545 OA
ATOM      9  O   UNL     1      -1.083  -4.861  -5.112  1.00  0.00    -0.545 OA
ENDBRANCH   1   7
BRANCH   4  10
ATOM     10  O   UNL     1      -5.494  -4.185  -1.520  1.00  0.00    -0.504 OA
ATOM     11  H   UNL     1      -5.671  -3.587  -0.721  1.00  0.00     0.293 HD
ENDBRANCH   4  10
BRANCH   5  12
ATOM     12  O   UNL     1      -4.791  -0.710  -4.911  1.00  0.00    -0.504 OA
ATOM     13  H   UNL     1      -5.305   0.024  -4.445  1.00  0.00     0.293 HD
ENDBRANCH   5  12
BRANCH   6  14
ATOM     14  O   UNL     1      -6.075  -1.620  -2.457  1.00  0.00    -0.502 OA
ATOM     15  H   UNL     1      -6.635  -1.949  -1.683  1.00  0.00     0.293 HD
ENDBRANCH   6  14
TORSDOF 4
ENDMDL
MODEL 4
REMARK VINA RESULT:    -4.003      1.593      2.969
REMARK INTER + INTRA:          -4.633
REMARK INTER:                  -4.588
REMARK INTRA:                  -0.045
REMARK UNBOUND:                -0.045
REMARK SMILES O=C([O-])c1cc(O)c(O)c(O)c1
REMARK SMILES IDX 4 1 5 2 12 3 6 4 10 5 8 6 2 7 1 8 3 9 7 10 11 12 9 14
REMARK H PARENT 7 11 11 13 9 15
REMARK Flexibility Score: inf
ROOT
ATOM      1  C   UNL     1      -3.395  -4.086  -4.553  1.00  0.00     0.005 A 
ATOM      2  C   UNL     1      -3.682  -2.797  -5.026  1.00  0.00     0.060 A 
ATOM      3  C   UNL     1      -4.021  -4.536  -3.380  1.00  0.00     0.060 A 
ATOM      4  C   UNL     1      -4.578  -1.969  -4.344  1.00  0.00     0.162 A 
ATOM      5  C   UNL     1      -4.921  -3.720  -2.684  1.00  0.00     0.162 A 
ATOM      6  C   UNL     1      -5.206  -2.420  -3.167  1.00  0.00     0.200 A 
ENDROOT
BRANCH   1   7
ATOM      7  C   UNL     1      -2.446  -4.962  -5.276  1.00  0.00     0.072 C 
ATOM      8  O   UNL     1      -1.206  -4.871  -5.070  1.00  0.00    -0.545 OA
ATOM      9  O   UNL     1      -2.910  -5.898  -6.194  1.00  0.00    -0.545 OA
ENDBRANCH   1   7
BRANCH   4  10
ATOM     10  O   UNL     1      -4.832  -0.694  -4.851  1.00  0.00    -0.504 OA
ATOM     11  H   UNL     1      -4.535  -0.411  -5.777  1.00  0.00     0.293 HD
ENDBRANCH   4  10
BRANCH   5  12
ATOM     12  O   UNL     1      -5.504  -4.239  -1.526  1.00  0.00    -0.504 OA
ATOM     13  H   UNL     1      -6.261  -3.798  -1.025  1.00  0.00     0.293 HD
ENDBRANCH   5  12
BRANCH   6  14
ATOM     14  O   UNL     1      -6.094  -1.561  -2.517  1.00  0.00    -0.502 OA
ATOM     15  H   UNL     1      -6.705  -1.840  -1.763  1.00  0.00     0.293 HD
ENDBRANCH   6  14
TORSDOF 4
ENDMDL
MODEL 5
REMARK VINA RESULT:    -3.975      1.358      2.969
REMARK INTER + INTRA:          -4.601
REMARK INTER:                  -4.556
REMARK INTRA:                  -0.045
REMARK UNBOUND:                -0.045
REMARK SMILES O=C([O-])c1cc(O)c(O)c(O)c1
REMARK SMILES IDX 4 1 5 2 12 3 6 4 10 5 8 6 2 7 1 8 3 9 7 10 11 12 9 14
REMARK H PARENT 7 11 11 13 9 15
REMARK Flexibility Score: inf
ROOT
ATOM      1  C   UNL     1      -3.627  -3.406  -4.720  1.00  0.00     0.005 A 
ATOM      2  C   UNL     1      -2.729  -4.480  -4.620  1.00  0.00     0.060 A 
ATOM      3  C   UNL     1      -4.561  -3.202  -3.692  1.00  0.00     0.060 A 
ATOM      4  C   UNL     1      -2.759  -5.335  -3.514  1.00  0.00     0.162 A 
ATOM      5  C   UNL     1      -4.604  -4.048  -2.577  1.00  0.00     0.162 A 
ATOM      6  C   UNL     1      -3.695  -5.129  -2.484  1.00  0.00     0.200 A 
ENDROOT
BRANCH   1   7
ATOM      7  C   UNL     1      -3.595  -2.501  -5.891  1.00  0.00     0.072 C 
ATOM      8  O   UNL     1      -4.340  -2.714  -6.885  1.00  0.00    -0.545 OA
ATOM      9  O   UNL     1      -2.743  -1.403  -5.910  1.00  0.00    -0.545 OA
ENDBRANCH   1   7
BRANCH   4  10
ATOM     10  O   UNL     1      -1.846  -6.389  -3.458  1.00  0.00    -0.504 OA
ATOM     11  H   UNL     1      -2.121  -7.351  -3.613  1.00  0.00     0.293 HD
ENDBRANCH   4  10
BRANCH   5  12
ATOM     12  O   UNL     1      -5.561  -3.779  -1.597  1.00  0.00    -0.504 OA
ATOM     13  H   UNL     1      -5.463  -4.031  -0.624  1.00  0.00     0.293 HD
ENDBRANCH   5  12
BRANCH   6  14
ATOM     14  O   UNL     1      -3.690  -6.007  -1.397  1.00  0.00    -0.502 OA
ATOM     15  H   UNL     1      -4.505  -6.503  -1.065  1.00  0.00     0.293 HD
ENDBRANCH   6  14
TORSDOF 4
ENDMDL
MODEL 6
REMARK VINA RESULT:    -3.902      1.699      2.158
REMARK INTER + INTRA:          -4.518
REMARK INTER:                  -4.468
REMARK INTRA:                  -0.049
REMARK UNBOUND:                -0.045
REMARK SMILES O=C([O-])c1cc(O)c(O)c(O)c1
REMARK SMILES IDX 4 1 5 2 12 3 6 4 10 5 8 6 2 7 1 8 3 9 7 10 11 12 9 14
REMARK H PARENT 7 11 11 13 9 15
REMARK Flexibility Score: inf
ROOT
ATOM      1  C   UNL     1      -4.733  -2.325  -4.775  1.00  0.00     0.005 A 
ATOM      2  C   UNL     1      -5.996  -1.844  -5.150  1.00  0.00     0.060 A 
ATOM      3  C   UNL     1      -4.605  -3.035  -3.571  1.00  0.00     0.060 A 
ATOM      4  C   UNL     1      -7.113  -2.065  -4.341  1.00  0.00     0.162 A 
ATOM      5  C   UNL     1      -5.714  -3.267  -2.749  1.00  0.00     0.162 A 
ATOM      6  C   UNL     1      -6.985  -2.778  -3.133  1.00  0.00     0.200 A 
ENDROOT
BRANCH   1   7
ATOM      7  C   UNL     1      -3.549  -2.090  -5.633  1.00  0.00     0.072 C 
ATOM      8  O   UNL     1      -2.674  -2.985  -5.777  1.00  0.00    -0.545 OA
ATOM      9  O   UNL     1      -3.387  -0.877  -6.293  1.00  0.00    -0.545 OA
ENDBRANCH   1   7
BRANCH   4  10
ATOM     10  O   UNL     1      -8.350  -1.567  -4.754  1.00  0.00    -0.504 OA
ATOM     11  H   UNL     1      -9.212  -2.084  -4.628  1.00  0.00     0.293 HD
ENDBRANCH   4  10
BRANCH   5  12
ATOM     12  O   UNL     1      -5.506  -3.981  -1.568  1.00  0.00    -0.504 OA
ATOM     13  H   UNL     1      -4.665  -4.500  -1.359  1.00  0.00     0.293 HD
ENDBRANCH   5  12
BRANCH   6  14
ATOM     14  O   UNL     1      -8.127  -2.977  -2.355  1.00  0.00    -0.502 OA
ATOM     15  H   UNL     1      -8.204  -3.672  -1.627  1.00  0.00     0.293 HD
ENDBRANCH   6  14
TORSDOF 4
ENDMDL
MODEL 7
REMARK VINA RESULT:    -3.892      1.799      2.880
REMARK INTER + INTRA:          -4.506
REMARK INTER:                  -4.453
REMARK INTRA:                  -0.052
REMARK UNBOUND:                -0.045
REMARK SMILES O=C([O-])c1cc(O)c(O)c(O)c1
REMARK SMILES IDX 4 1 5 2 12 3 6 4 10 5 8 6 2 7 1 8 3 9 7 10 11 12 9 14
REMARK H PARENT 7 11 11 13 9 15
REMARK Flexibility Score: inf
ROOT
ATOM      1  C   UNL     1      -5.073  -1.813  -5.006  1.00  0.00     0.005 A 
ATOM      2  C   UNL     1      -4.771  -2.440  -3.787  1.00  0.00     0.060 A 
ATOM      3  C   UNL     1      -6.418  -1.634  -5.364  1.00  0.00     0.060 A 
ATOM      4  C   UNL     1      -5.791  -2.881  -2.939  1.00  0.00     0.162 A 
ATOM      5  C   UNL     1      -7.452  -2.069  -4.527  1.00  0.00     0.162 A 
ATOM      6  C   UNL     1      -7.140  -2.701  -3.299  1.00  0.00     0.200 A 
ENDROOT
BRANCH   1   7
ATOM      7  C   UNL     1      -3.992  -1.347  -5.903  1.00  0.00     0.072 C 
ATOM      8  O   UNL     1      -2.801  -1.715  -5.716  1.00  0.00    -0.545 OA
ATOM      9  O   UNL     1      -4.275  -0.496  -6.965  1.00  0.00    -0.545 OA
ENDBRANCH   1   7
BRANCH   4  10
ATOM     10  O   UNL     1      -5.443  -3.499  -1.737  1.00  0.00    -0.504 OA
ATOM     11  H   UNL     1      -4.940  -4.377  -1.706  1.00  0.00     0.293 HD
ENDBRANCH   4  10
BRANCH   5  12
ATOM     12  O   UNL     1      -8.764  -1.855  -4.953  1.00  0.00    -0.504 OA
ATOM     13  H   UNL     1      -9.012  -1.410  -5.825  1.00  0.00     0.293 HD
ENDBRANCH   5  12
BRANCH   6  14
ATOM     14  O   UNL     1      -8.128  -3.156  -2.423  1.00  0.00    -0.502 OA
ATOM     15  H   UNL     1      -8.114  -4.060  -1.972  1.00  0.00     0.293 HD
ENDBRANCH   6  14
TORSDOF 4
ENDMDL
MODEL 8
REMARK VINA RESULT:    -3.734      1.617      4.662
REMARK INTER + INTRA:          -4.324
REMARK INTER:                  -4.280
REMARK INTRA:                  -0.045
REMARK UNBOUND:                -0.045
REMARK SMILES O=C([O-])c1cc(O)c(O)c(O)c1
REMARK SMILES IDX 4 1 5 2 12 3 6 4 10 5 8 6 2 7 1 8 3 9 7 10 11 12 9 14
REMARK H PARENT 7 11 11 13 9 15
REMARK Flexibility Score: inf
ROOT
ATOM      1  C   UNL     1      -4.462  -4.791  -2.866  1.00  0.00     0.005 A 
ATOM      2  C   UNL     1      -3.707  -4.486  -4.009  1.00  0.00     0.060 A 
ATOM      3  C   UNL     1      -5.274  -3.796  -2.301  1.00  0.00     0.060 A 
ATOM      4  C   UNL     1      -3.761  -3.211  -4.580  1.00  0.00     0.162 A 
ATOM      5  C   UNL     1      -5.341  -2.515  -2.861  1.00  0.00     0.162 A 
ATOM      6  C   UNL     1      -4.577  -2.214  -4.013  1.00  0.00     0.200 A 
ENDROOT
BRANCH   1   7
ATOM      7  C   UNL     1      -4.403  -6.141  -2.261  1.00  0.00     0.072 C 
ATOM      8  O   UNL     1      -5.114  -7.077  -2.716  1.00  0.00    -0.545 OA
ATOM      9  O   UNL     1      -3.564  -6.395  -1.183  1.00  0.00    -0.545 OA
ENDBRANCH   1   7
BRANCH   4  10
ATOM     10  O   UNL     1      -2.993  -2.953  -5.716  1.00  0.00    -0.504 OA
ATOM     11  H   UNL     1      -2.047  -3.299  -5.821  1.00  0.00     0.293 HD
ENDBRANCH   4  10
BRANCH   5  12
ATOM     12  O   UNL     1      -6.173  -1.580  -2.242  1.00  0.00    -0.504 OA
ATOM     13  H   UNL     1      -7.116  -1.375  -2.539  1.00  0.00     0.293 HD
ENDBRANCH   5  12
BRANCH   6  14
ATOM     14  O   UNL     1      -4.601  -0.954  -4.617  1.00  0.00    -0.502 OA
ATOM     15  H   UNL     1      -5.175  -0.185  -4.302  1.00  0.00     0.293 HD
ENDBRANCH   6  14
TORSDOF 4
ENDMDL
MODEL 9
REMARK VINA RESULT:    -3.495      9.552     10.606
REMARK INTER + INTRA:          -4.050
REMARK INTER:                  -4.000
REMARK INTRA:                  -0.050
REMARK UNBOUND:                -0.045
REMARK SMILES O=C([O-])c1cc(O)c(O)c(O)c1
REMARK SMILES IDX 4 1 5 2 12 3 6 4 10 5 8 6 2 7 1 8 3 9 7 10 11 12 9 14
REMARK H PARENT 7 11 11 13 9 15
REMARK Flexibility Score: inf
ROOT
ATOM      1  C   UNL     1       6.250  -1.303  -4.194  1.00  0.00     0.005 A 
ATOM      2  C   UNL     1       7.107  -1.974  -3.309  1.00  0.00     0.060 A 
ATOM      3  C   UNL     1       4.871  -1.297  -3.933  1.00  0.00     0.060 A 
ATOM      4  C   UNL     1       6.600  -2.627  -2.182  1.00  0.00     0.162 A 
ATOM      5  C   UNL     1       4.346  -1.946  -2.809  1.00  0.00     0.162 A 
ATOM      6  C   UNL     1       5.216  -2.621  -1.921  1.00  0.00     0.200 A 
ENDROOT
BRANCH   1   7
ATOM      7  C   UNL     1       6.787  -0.611  -5.387  1.00  0.00     0.072 C 
ATOM      8  O   UNL     1       7.808  -1.055  -5.979  1.00  0.00    -0.545 OA
ATOM      9  O   UNL     1       6.174   0.538  -5.872  1.00  0.00    -0.545 OA
ENDBRANCH   1   7
BRANCH   4  10
ATOM     10  O   UNL     1       7.490  -3.282  -1.329  1.00  0.00    -0.504 OA
ATOM     11  H   UNL     1       7.935  -2.814  -0.550  1.00  0.00     0.293 HD
ENDBRANCH   4  10
BRANCH   5  12
ATOM     12  O   UNL     1       2.964  -1.894  -2.618  1.00  0.00    -0.504 OA
ATOM     13  H   UNL     1       2.494  -2.213  -1.784  1.00  0.00     0.293 HD
ENDBRANCH   5  12
BRANCH   6  14
ATOM     14  O   UNL     1       4.752  -3.286  -0.784  1.00  0.00    -0.502 OA
ATOM     15  H   UNL     1       3.791  -3.278  -0.474  1.00  0.00     0.293 HD
ENDBRANCH   6  14
TORSDOF 4
ENDMDL
