MODEL 1
REMARK VINA RESULT:    -4.067      0.000      0.000
REMARK INTER + INTRA:          -7.733
REMARK INTER:                  -7.159
REMARK INTRA:                  -0.574
REMARK UNBOUND:                -0.574
REMARK SMILES CCCCCCC=CCCCCCCCC(=O)[O-]
REMARK SMILES IDX 10 1 11 2 12 3 13 4 14 5 15 6 16 7 17 8 18 9 9 10 8 11 7 12
REMARK SMILES IDX 6 13 5 14 4 15 3 16 2 17 1 18
REMARK H PARENT
REMARK Flexibility Score: inf
ROOT
ATOM      1  C   UNL     1     120.741  69.319  -0.612  1.00  0.00     0.004 C 
ENDROOT
BRANCH   1   2
ATOM      2  C   UNL     1     121.261  70.483   0.239  1.00  0.00     0.000 C 
BRANCH   2   3
ATOM      3  C   UNL     1     120.117  71.414   0.658  1.00  0.00     0.000 C 
BRANCH   3   4
ATOM      4  C   UNL     1     120.626  72.526   1.587  1.00  0.00     0.000 C 
BRANCH   4   5
ATOM      5  C   UNL     1     121.092  71.993   2.955  1.00  0.00     0.006 C 
BRANCH   5   6
ATOM      6  C   UNL     1     120.264  72.497   4.147  1.00  0.00     0.053 C 
BRANCH   6   7
ATOM      7  C   UNL     1     120.312  71.551   5.307  1.00  0.00     0.041 C 
ATOM      8  O   UNL     1     120.365  70.309   5.107  1.00  0.00    -0.550 OA
ATOM      9  O   UNL     1     120.264  72.038   6.606  1.00  0.00    -0.550 OA
ENDBRANCH   6   7
ENDBRANCH   5   6
ENDBRANCH   4   5
ENDBRANCH   3   4
ENDBRANCH   2   3
ENDBRANCH   1   2
BRANCH   1  10
ATOM     10  C   UNL     1     119.951  69.832  -1.822  1.00  0.00     0.027 C 
BRANCH  10  11
ATOM     11  C   UNL     1     120.047  68.875  -2.977  1.00  0.00    -0.031 C 
ATOM     12  C   UNL     1     120.177  69.309  -4.241  1.00  0.00    -0.031 C 
BRANCH  12  13
ATOM     13  C   UNL     1     120.254  68.350  -5.396  1.00  0.00     0.027 C 
BRANCH  13  14
ATOM     14  C   UNL     1     120.020  69.073  -6.731  1.00  0.00     0.004 C 
BRANCH  14  15
ATOM     15  C   UNL     1     120.601  68.289  -7.927  1.00  0.00     0.000 C 
BRANCH  15  16
ATOM     16  C   UNL     1     121.426  67.058  -7.513  1.00  0.00    -0.000 C 
BRANCH  16  17
ATOM     17  C   UNL     1     120.705  65.734  -7.798  1.00  0.00    -0.003 C 
ATOM     18  C   UNL     1     121.142  64.648  -6.819  1.00  0.00     0.004 C 
ENDBRANCH  16  17
ENDBRANCH  15  16
ENDBRANCH  14  15
ENDBRANCH  13  14
ENDBRANCH  12  13
ENDBRANCH  10  11
ENDBRANCH   1  10
TORSDOF 13
ENDMDL
MODEL 2
REMARK VINA RESULT:    -3.814      2.534      4.907
REMARK INTER + INTRA:          -7.287
REMARK INTER:                  -7.056
REMARK INTRA:                  -0.231
REMARK UNBOUND:                -0.574
REMARK SMILES CCCCCCC=CCCCCCCCC(=O)[O-]
REMARK SMILES IDX 10 1 11 2 12 3 13 4 14 5 15 6 16 7 17 8 18 9 9 10 8 11 7 12
REMARK SMILES IDX 6 13 5 14 4 15 3 16 2 17 1 18
REMARK H PARENT
REMARK Flexibility Score: inf
ROOT
ATOM      1  C   UNL     1     121.173  72.380   3.067  1.00  0.00     0.004 C 
ENDROOT
BRANCH   1   2
ATOM      2  C   UNL     1     119.894  72.591   3.886  1.00  0.00     0.000 C 
BRANCH   2   3
ATOM      3  C   UNL     1     120.169  72.439   5.387  1.00  0.00     0.000 C 
BRANCH   3   4
ATOM      4  C   UNL     1     120.379  70.964   5.759  1.00  0.00     0.000 C 
BRANCH   4   5
ATOM      5  C   UNL     1     120.374  70.726   7.281  1.00  0.00     0.006 C 
BRANCH   5   6
ATOM      6  C   UNL     1     121.193  71.749   8.084  1.00  0.00     0.053 C 
BRANCH   6   7
ATOM      7  C   UNL     1     120.431  72.284   9.257  1.00  0.00     0.041 C 
ATOM      8  O   UNL     1     120.078  71.513  10.187  1.00  0.00    -0.550 OA
ATOM      9  O   UNL     1     120.080  73.628   9.304  1.00  0.00    -0.550 OA
ENDBRANCH   6   7
ENDBRANCH   5   6
ENDBRANCH   4   5
ENDBRANCH   3   4
ENDBRANCH   2   3
ENDBRANCH   1   2
BRANCH   1  10
ATOM     10  C   UNL     1     120.989  72.866   1.624  1.00  0.00     0.027 C 
BRANCH  10  11
ATOM     11  C   UNL     1     120.185  71.882   0.820  1.00  0.00    -0.031 C 
ATOM     12  C   UNL     1     120.718  70.733   0.378  1.00  0.00    -0.031 C 
BRANCH  12  13
ATOM     13  C   UNL     1     119.918  69.761  -0.442  1.00  0.00     0.027 C 
BRANCH  13  14
ATOM     14  C   UNL     1     120.660  68.425  -0.598  1.00  0.00     0.004 C 
BRANCH  14  15
ATOM     15  C   UNL     1     119.875  67.420  -1.467  1.00  0.00     0.000 C 
BRANCH  15  16
ATOM     16  C   UNL     1     120.097  67.607  -2.977  1.00  0.00    -0.000 C 
BRANCH  16  17
ATOM     17  C   UNL     1     119.958  69.068  -3.424  1.00  0.00    -0.003 C 
ATOM     18  C   UNL     1     120.376  69.239  -4.882  1.00  0.00     0.004 C 
ENDBRANCH  16  17
ENDBRANCH  15  16
ENDBRANCH  14  15
ENDBRANCH  13  14
ENDBRANCH  12  13
ENDBRANCH  10  11
ENDBRANCH   1  10
TORSDOF 13
ENDMDL
MODEL 3
REMARK VINA RESULT:    -3.662      1.257      1.714
REMARK INTER + INTRA:          -7.020
REMARK INTER:                  -6.478
REMARK INTRA:                  -0.542
REMARK UNBOUND:                -0.574
REMARK SMILES CCCCCCC=CCCCCCCCC(=O)[O-]
REMARK SMILES IDX 10 1 11 2 12 3 13 4 14 5 15 6 16 7 17 8 18 9 9 10 8 11 7 12
REMARK SMILES IDX 6 13 5 14 4 15 3 16 2 17 1 18
REMARK H PARENT
REMARK Flexibility Score: inf
ROOT
ATOM      1  C   UNL     1     120.913  70.089  -0.353  1.00  0.00     0.004 C 
ENDROOT
BRANCH   1   2
ATOM      2  C   UNL     1     120.008  70.982   0.505  1.00  0.00     0.000 C 
BRANCH   2   3
ATOM      3  C   UNL     1     120.835  71.975   1.329  1.00  0.00     0.000 C 
BRANCH   3   4
ATOM      4  C   UNL     1     119.925  72.889   2.163  1.00  0.00     0.000 C 
BRANCH   4   5
ATOM      5  C   UNL     1     120.328  72.938   3.648  1.00  0.00     0.006 C 
BRANCH   5   6
ATOM      6  C   UNL     1     119.875  71.720   4.468  1.00  0.00     0.053 C 
BRANCH   6   7
ATOM      7  C   UNL     1     120.912  71.292   5.460  1.00  0.00     0.041 C 
ATOM      8  O   UNL     1     121.944  70.683   5.073  1.00  0.00    -0.550 OA
ATOM      9  O   UNL     1     120.722  71.535   6.814  1.00  0.00    -0.550 OA
ENDBRANCH   6   7
ENDBRANCH   5   6
ENDBRANCH   4   5
ENDBRANCH   3   4
ENDBRANCH   2   3
ENDBRANCH   1   2
BRANCH   1  10
ATOM     10  C   UNL     1     120.250  69.764  -1.697  1.00  0.00     0.027 C 
BRANCH  10  11
ATOM     11  C   UNL     1     120.332  68.293  -1.999  1.00  0.00    -0.031 C 
ATOM     12  C   UNL     1     120.019  67.805  -3.209  1.00  0.00    -0.031 C 
BRANCH  12  13
ATOM     13  C   UNL     1     120.083  66.333  -3.503  1.00  0.00     0.027 C 
BRANCH  13  14
ATOM     14  C   UNL     1     119.905  66.059  -5.004  1.00  0.00     0.004 C 
BRANCH  14  15
ATOM     15  C   UNL     1     121.177  66.393  -5.811  1.00  0.00     0.000 C 
BRANCH  15  16
ATOM     16  C   UNL     1     120.922  67.332  -7.003  1.00  0.00    -0.000 C 
BRANCH  16  17
ATOM     17  C   UNL     1     121.608  66.861  -8.291  1.00  0.00    -0.003 C 
ATOM     18  C   UNL     1     120.835  65.715  -8.939  1.00  0.00     0.004 C 
ENDBRANCH  16  17
ENDBRANCH  15  16
ENDBRANCH  14  15
ENDBRANCH  13  14
ENDBRANCH  12  13
ENDBRANCH  10  11
ENDBRANCH   1  10
TORSDOF 13
ENDMDL
MODEL 4
REMARK VINA RESULT:    -3.595      1.486      2.583
REMARK INTER + INTRA:          -6.901
REMARK INTER:                  -6.851
REMARK INTRA:                  -0.050
REMARK UNBOUND:                -0.574
REMARK SMILES CCCCCCC=CCCCCCCCC(=O)[O-]
REMARK SMILES IDX 10 1 11 2 12 3 13 4 14 5 15 6 16 7 17 8 18 9 9 10 8 11 7 12
REMARK SMILES IDX 6 13 5 14 4 15 3 16 2 17 1 18
REMARK H PARENT
REMARK Flexibility Score: inf
ROOT
ATOM      1  C   UNL     1     121.111  69.470  -0.018  1.00  0.00     0.004 C 
ENDROOT
BRANCH   1   2
ATOM      2  C   UNL     1     121.185  70.964   0.319  1.00  0.00     0.000 C 
BRANCH   2   3
ATOM      3  C   UNL     1     119.875  71.453   0.948  1.00  0.00     0.000 C 
BRANCH   3   4
ATOM      4  C   UNL     1     120.087  72.774   1.703  1.00  0.00     0.000 C 
BRANCH   4   5
ATOM      5  C   UNL     1     121.324  72.745   2.620  1.00  0.00     0.006 C 
BRANCH   5   6
ATOM      6  C   UNL     1     121.001  72.575   4.113  1.00  0.00     0.053 C 
BRANCH   6   7
ATOM      7  C   UNL     1     121.302  71.192   4.600  1.00  0.00     0.041 C 
ATOM      8  O   UNL     1     120.363  70.410   4.903  1.00  0.00    -0.550 OA
ATOM      9  O   UNL     1     122.620  70.778   4.752  1.00  0.00    -0.550 OA
ENDBRANCH   6   7
ENDBRANCH   5   6
ENDBRANCH   4   5
ENDBRANCH   3   4
ENDBRANCH   2   3
ENDBRANCH   1   2
BRANCH   1  10
ATOM     10  C   UNL     1     120.303  69.235  -1.300  1.00  0.00     0.027 C 
BRANCH  10  11
ATOM     11  C   UNL     1     120.347  67.789  -1.710  1.00  0.00    -0.031 C 
ATOM     12  C   UNL     1     119.880  67.381  -2.900  1.00  0.00    -0.031 C 
BRANCH  12  13
ATOM     13  C   UNL     1     119.907  65.933  -3.299  1.00  0.00     0.027 C 
BRANCH  13  14
ATOM     14  C   UNL     1     119.952  65.780  -4.827  1.00  0.00     0.004 C 
BRANCH  14  15
ATOM     15  C   UNL     1     120.720  66.935  -5.504  1.00  0.00     0.000 C 
BRANCH  15  16
ATOM     16  C   UNL     1     119.939  68.260  -5.535  1.00  0.00    -0.000 C 
BRANCH  16  17
ATOM     17  C   UNL     1     120.779  69.437  -6.046  1.00  0.00    -0.003 C 
ATOM     18  C   UNL     1     119.999  70.746  -5.965  1.00  0.00     0.004 C 
ENDBRANCH  16  17
ENDBRANCH  15  16
ENDBRANCH  14  15
ENDBRANCH  13  14
ENDBRANCH  12  13
ENDBRANCH  10  11
ENDBRANCH   1  10
TORSDOF 13
ENDMDL
MODEL 5
REMARK VINA RESULT:    -3.503      1.338      2.132
REMARK INTER + INTRA:          -6.739
REMARK INTER:                  -6.264
REMARK INTRA:                  -0.475
REMARK UNBOUND:                -0.574
REMARK SMILES CCCCCCC=CCCCCCCCC(=O)[O-]
REMARK SMILES IDX 10 1 11 2 12 3 13 4 14 5 15 6 16 7 17 8 18 9 9 10 8 11 7 12
REMARK SMILES IDX 6 13 5 14 4 15 3 16 2 17 1 18
REMARK H PARENT
REMARK Flexibility Score: inf
ROOT
ATOM      1  C   UNL     1     120.178  70.943   0.096  1.00  0.00     0.004 C 
ENDROOT
BRANCH   1   2
ATOM      2  C   UNL     1     120.005  70.667   1.595  1.00  0.00     0.000 C 
BRANCH   2   3
ATOM      3  C   UNL     1     120.210  71.945   2.417  1.00  0.00     0.000 C 
BRANCH   3   4
ATOM      4  C   UNL     1     120.773  71.617   3.808  1.00  0.00     0.000 C 
BRANCH   4   5
ATOM      5  C   UNL     1     120.030  72.350   4.941  1.00  0.00     0.006 C 
BRANCH   5   6
ATOM      6  C   UNL     1     119.878  71.531   6.232  1.00  0.00     0.053 C 
BRANCH   6   7
ATOM      7  C   UNL     1     120.294  72.308   7.443  1.00  0.00     0.041 C 
ATOM      8  O   UNL     1     120.997  71.762   8.333  1.00  0.00    -0.550 OA
ATOM      9  O   UNL     1     119.876  73.623   7.604  1.00  0.00    -0.550 OA
ENDBRANCH   6   7
ENDBRANCH   5   6
ENDBRANCH   4   5
ENDBRANCH   3   4
ENDBRANCH   2   3
ENDBRANCH   1   2
BRANCH   1  10
ATOM     10  C   UNL     1     120.155  69.639  -0.710  1.00  0.00     0.027 C 
BRANCH  10  11
ATOM     11  C   UNL     1     120.592  69.872  -2.130  1.00  0.00    -0.031 C 
ATOM     12  C   UNL     1     120.011  69.233  -3.158  1.00  0.00    -0.031 C 
BRANCH  12  13
ATOM     13  C   UNL     1     120.463  69.453  -4.574  1.00  0.00     0.027 C 
BRANCH  13  14
ATOM     14  C   UNL     1     119.879  68.388  -5.513  1.00  0.00     0.004 C 
BRANCH  14  15
ATOM     15  C   UNL     1     120.605  67.033  -5.380  1.00  0.00     0.000 C 
BRANCH  15  16
ATOM     16  C   UNL     1     121.023  66.423  -6.729  1.00  0.00    -0.000 C 
BRANCH  16  17
ATOM     17  C   UNL     1     120.720  67.343  -7.919  1.00  0.00    -0.003 C 
ATOM     18  C   UNL     1     121.971  67.586  -8.759  1.00  0.00     0.004 C 
ENDBRANCH  16  17
ENDBRANCH  15  16
ENDBRANCH  14  15
ENDBRANCH  13  14
ENDBRANCH  12  13
ENDBRANCH  10  11
ENDBRANCH   1  10
TORSDOF 13
ENDMDL
MODEL 6
REMARK VINA RESULT:    -3.498      4.357     10.960
REMARK INTER + INTRA:          -6.731
REMARK INTER:                  -6.119
REMARK INTRA:                  -0.612
REMARK UNBOUND:                -0.574
REMARK SMILES CCCCCCC=CCCCCCCCC(=O)[O-]
REMARK SMILES IDX 10 1 11 2 12 3 13 4 14 5 15 6 16 7 17 8 18 9 9 10 8 11 7 12
REMARK SMILES IDX 6 13 5 14 4 15 3 16 2 17 1 18
REMARK H PARENT
REMARK Flexibility Score: inf
ROOT
ATOM      1  C   UNL     1     121.538  71.727   0.919  1.00  0.00     0.004 C 
ENDROOT
BRANCH   1   2
ATOM      2  C   UNL     1     120.387  70.916   0.311  1.00  0.00     0.000 C 
BRANCH   2   3
ATOM      3  C   UNL     1     120.918  69.727  -0.498  1.00  0.00     0.000 C 
BRANCH   3   4
ATOM      4  C   UNL     1     119.875  69.248  -1.519  1.00  0.00     0.000 C 
BRANCH   4   5
ATOM      5  C   UNL     1     120.047  69.905  -2.901  1.00  0.00     0.006 C 
BRANCH   5   6
ATOM      6  C   UNL     1     120.172  68.909  -4.065  1.00  0.00     0.053 C 
BRANCH   6   7
ATOM      7  C   UNL     1     120.389  69.599  -5.375  1.00  0.00     0.041 C 
ATOM      8  O   UNL     1     121.028  69.024  -6.295  1.00  0.00    -0.550 OA
ATOM      9  O   UNL     1     119.916  70.891  -5.569  1.00  0.00    -0.550 OA
ENDBRANCH   6   7
ENDBRANCH   5   6
ENDBRANCH   4   5
ENDBRANCH   3   4
ENDBRANCH   2   3
ENDBRANCH   1   2
BRANCH   1  10
ATOM     10  C   UNL     1     121.015  72.987   1.618  1.00  0.00     0.027 C 
BRANCH  10  11
ATOM     11  C   UNL     1     120.224  72.637   2.847  1.00  0.00    -0.031 C 
ATOM     12  C   UNL     1     120.670  72.930   4.078  1.00  0.00    -0.031 C 
BRANCH  12  13
ATOM     13  C   UNL     1     119.886  72.561   5.306  1.00  0.00     0.027 C 
BRANCH  13  14
ATOM     14  C   UNL     1     119.977  71.053   5.588  1.00  0.00     0.004 C 
BRANCH  14  15
ATOM     15  C   UNL     1     119.907  70.738   7.097  1.00  0.00     0.000 C 
BRANCH  15  16
ATOM     16  C   UNL     1     120.961  71.487   7.932  1.00  0.00    -0.000 C 
BRANCH  16  17
ATOM     17  C   UNL     1     120.509  71.739   9.376  1.00  0.00    -0.003 C 
ATOM     18  C   UNL     1     120.157  73.208   9.594  1.00  0.00     0.004 C 
ENDBRANCH  16  17
ENDBRANCH  15  16
ENDBRANCH  14  15
ENDBRANCH  13  14
ENDBRANCH  12  13
ENDBRANCH  10  11
ENDBRANCH   1  10
TORSDOF 13
ENDMDL
MODEL 7
REMARK VINA RESULT:    -3.421      1.789      3.219
REMARK INTER + INTRA:          -6.595
REMARK INTER:                  -6.368
REMARK INTRA:                  -0.227
REMARK UNBOUND:                -0.574
REMARK SMILES CCCCCCC=CCCCCCCCC(=O)[O-]
REMARK SMILES IDX 10 1 11 2 12 3 13 4 14 5 15 6 16 7 17 8 18 9 9 10 8 11 7 12
REMARK SMILES IDX 6 13 5 14 4 15 3 16 2 17 1 18
REMARK H PARENT
REMARK Flexibility Score: inf
ROOT
ATOM      1  C   UNL     1     120.101  71.057   1.636  1.00  0.00     0.004 C 
ENDROOT
BRANCH   1   2
ATOM      2  C   UNL     1     120.828  71.592   2.875  1.00  0.00     0.000 C 
BRANCH   2   3
ATOM      3  C   UNL     1     120.173  71.079   4.163  1.00  0.00     0.000 C 
BRANCH   3   4
ATOM      4  C   UNL     1     121.113  71.253   5.365  1.00  0.00     0.000 C 
BRANCH   4   5
ATOM      5  C   UNL     1     120.432  70.923   6.707  1.00  0.00     0.006 C 
BRANCH   5   6
ATOM      6  C   UNL     1     121.036  71.651   7.918  1.00  0.00     0.053 C 
BRANCH   6   7
ATOM      7  C   UNL     1     120.371  72.969   8.171  1.00  0.00     0.041 C 
ATOM      8  O   UNL     1     119.945  73.658   7.207  1.00  0.00    -0.550 OA
ATOM      9  O   UNL     1     120.254  73.452   9.468  1.00  0.00    -0.550 OA
ENDBRANCH   6   7
ENDBRANCH   5   6
ENDBRANCH   4   5
ENDBRANCH   3   4
ENDBRANCH   2   3
ENDBRANCH   1   2
BRANCH   1  10
ATOM     10  C   UNL     1     121.088  70.420   0.650  1.00  0.00     0.027 C 
BRANCH  10  11
ATOM     11  C   UNL     1     120.419  70.101  -0.658  1.00  0.00    -0.031 C 
ATOM     12  C   UNL     1     120.529  68.891  -1.227  1.00  0.00    -0.031 C 
BRANCH  12  13
ATOM     13  C   UNL     1     119.875  68.580  -2.544  1.00  0.00     0.027 C 
BRANCH  13  14
ATOM     14  C   UNL     1     120.202  67.150  -3.000  1.00  0.00     0.004 C 
BRANCH  14  15
ATOM     15  C   UNL     1     120.627  67.096  -4.483  1.00  0.00     0.000 C 
BRANCH  15  16
ATOM     16  C   UNL     1     120.209  65.797  -5.196  1.00  0.00    -0.000 C 
BRANCH  16  17
ATOM     17  C   UNL     1     120.880  65.626  -6.564  1.00  0.00    -0.003 C 
ATOM     18  C   UNL     1     120.946  64.155  -6.965  1.00  0.00     0.004 C 
ENDBRANCH  16  17
ENDBRANCH  15  16
ENDBRANCH  14  15
ENDBRANCH  13  14
ENDBRANCH  12  13
ENDBRANCH  10  11
ENDBRANCH   1  10
TORSDOF 13
ENDMDL
MODEL 8
REMARK VINA RESULT:    -3.166      1.977      3.591
REMARK INTER + INTRA:          -6.147
REMARK INTER:                  -5.783
REMARK INTRA:                  -0.364
REMARK UNBOUND:                -0.574
REMARK SMILES CCCCCCC=CCCCCCCCC(=O)[O-]
REMARK SMILES IDX 10 1 11 2 12 3 13 4 14 5 15 6 16 7 17 8 18 9 9 10 8 11 7 12
REMARK SMILES IDX 6 13 5 14 4 15 3 16 2 17 1 18
REMARK H PARENT
REMARK Flexibility Score: inf
ROOT
ATOM      1  C   UNL     1     119.947  70.351   2.267  1.00  0.00     0.004 C 
ENDROOT
BRANCH   1   2
ATOM      2  C   UNL     1     120.283  71.632   3.040  1.00  0.00     0.000 C 
BRANCH   2   3
ATOM      3  C   UNL     1     120.939  71.306   4.387  1.00  0.00     0.000 C 
BRANCH   3   4
ATOM      4  C   UNL     1     119.888  71.217   5.503  1.00  0.00     0.000 C 
BRANCH   4   5
ATOM      5  C   UNL     1     120.315  71.956   6.785  1.00  0.00     0.006 C 
BRANCH   5   6
ATOM      6  C   UNL     1     120.150  71.135   8.074  1.00  0.00     0.053 C 
BRANCH   6   7
ATOM      7  C   UNL     1     120.281  71.982   9.302  1.00  0.00     0.041 C 
ATOM      8  O   UNL     1     119.889  71.547  10.415  1.00  0.00    -0.550 OA
ATOM      9  O   UNL     1     120.805  73.266   9.209  1.00  0.00    -0.550 OA
ENDBRANCH   6   7
ENDBRANCH   5   6
ENDBRANCH   4   5
ENDBRANCH   3   4
ENDBRANCH   2   3
ENDBRANCH   1   2
BRANCH   1  10
ATOM     10  C   UNL     1     120.297  70.498   0.781  1.00  0.00     0.027 C 
BRANCH  10  11
ATOM     11  C   UNL     1     119.876  69.282   0.003  1.00  0.00    -0.031 C 
ATOM     12  C   UNL     1     120.496  68.925  -1.133  1.00  0.00    -0.031 C 
BRANCH  12  13
ATOM     13  C   UNL     1     120.060  67.720  -1.919  1.00  0.00     0.027 C 
BRANCH  13  14
ATOM     14  C   UNL     1     119.967  68.043  -3.418  1.00  0.00     0.004 C 
BRANCH  14  15
ATOM     15  C   UNL     1     120.132  66.784  -4.295  1.00  0.00     0.000 C 
BRANCH  15  16
ATOM     16  C   UNL     1     120.962  67.025  -5.568  1.00  0.00    -0.000 C 
BRANCH  16  17
ATOM     17  C   UNL     1     120.093  67.272  -6.808  1.00  0.00    -0.003 C 
ATOM     18  C   UNL     1     120.009  68.761  -7.133  1.00  0.00     0.004 C 
ENDBRANCH  16  17
ENDBRANCH  15  16
ENDBRANCH  14  15
ENDBRANCH  13  14
ENDBRANCH  12  13
ENDBRANCH  10  11
ENDBRANCH   1  10
TORSDOF 13
ENDMDL
