MODEL 1
REMARK VINA RESULT:    -3.546      0.000      0.000
REMARK INTER + INTRA:          -9.134
REMARK INTER:                  -6.656
REMARK INTRA:                  -2.479
REMARK UNBOUND:                -2.479
REMARK SMILES O=C([O-])CCCCCCCCCCCCCCC(=O)[O-]
REMARK SMILES IDX 10 1 9 2 8 3 7 4 6 5 5 6 4 7 2 8 1 9 3 10 11 11 12 12 13 13
REMARK SMILES IDX 14 14 15 15 16 16 17 17 18 18 19 19 20 20
REMARK H PARENT
REMARK Flexibility Score: inf
ROOT
ATOM      1  C   UNL     1       6.793   1.579  51.304  1.00  0.00     0.000 C 
ENDROOT
BRANCH   1   2
ATOM      2  C   UNL     1       5.726   2.093  52.281  1.00  0.00     0.000 C 
BRANCH   2   3
ATOM      3  C   UNL     1       4.840   0.943  52.784  1.00  0.00     0.000 C 
BRANCH   3   4
ATOM      4  C   UNL     1       3.338   1.218  52.562  1.00  0.00     0.000 C 
BRANCH   4   5
ATOM      5  C   UNL     1       3.052   2.255  51.459  1.00  0.00     0.000 C 
BRANCH   5   6
ATOM      6  C   UNL     1       2.515   1.671  50.139  1.00  0.00     0.006 C 
BRANCH   6   7
ATOM      7  C   UNL     1       2.397   0.139  50.126  1.00  0.00     0.053 C 
BRANCH   7   8
ATOM      8  C   UNL     1       1.004  -0.312  49.816  1.00  0.00     0.041 C 
ATOM      9  O   UNL     1       0.675  -0.588  48.632  1.00  0.00    -0.550 OA
ATOM     10  O   UNL     1       0.077  -0.460  50.840  1.00  0.00    -0.550 OA
ENDBRANCH   7   8
ENDBRANCH   6   7
ENDBRANCH   5   6
ENDBRANCH   4   5
ENDBRANCH   3   4
ENDBRANCH   2   3
ENDBRANCH   1   2
BRANCH   1  11
ATOM     11  C   UNL     1       6.358   0.310  50.549  1.00  0.00     0.000 C 
BRANCH  11  12
ATOM     12  C   UNL     1       5.940   0.527  49.083  1.00  0.00     0.000 C 
BRANCH  12  13
ATOM     13  C   UNL     1       7.009   1.263  48.257  1.00  0.00     0.000 C 
BRANCH  13  14
ATOM     14  C   UNL     1       6.520   2.618  47.712  1.00  0.00     0.000 C 
BRANCH  14  15
ATOM     15  C   UNL     1       5.174   3.106  48.277  1.00  0.00     0.000 C 
BRANCH  15  16
ATOM     16  C   UNL     1       5.322   4.293  49.241  1.00  0.00     0.006 C 
BRANCH  16  17
ATOM     17  C   UNL     1       6.799   4.612  49.494  1.00  0.00     0.053 C 
BRANCH  17  18
ATOM     18  C   UNL     1       7.118   6.004  49.047  1.00  0.00     0.041 C 
ATOM     19  O   UNL     1       6.750   6.990  49.738  1.00  0.00    -0.550 OA
ATOM     20  O   UNL     1       7.863   6.212  47.893  1.00  0.00    -0.550 OA
ENDBRANCH  17  18
ENDBRANCH  16  17
ENDBRANCH  15  16
ENDBRANCH  14  15
ENDBRANCH  13  14
ENDBRANCH  12  13
ENDBRANCH  11  12
ENDBRANCH   1  11
TORSDOF 15
ENDMDL
MODEL 2
REMARK VINA RESULT:    -3.542      1.450      6.526
REMARK INTER + INTRA:          -9.126
REMARK INTER:                  -6.696
REMARK INTRA:                  -2.430
REMARK UNBOUND:                -2.479
REMARK SMILES O=C([O-])CCCCCCCCCCCCCCC(=O)[O-]
REMARK SMILES IDX 10 1 9 2 8 3 7 4 6 5 5 6 4 7 2 8 1 9 3 10 11 11 12 12 13 13
REMARK SMILES IDX 14 14 15 15 16 16 17 17 18 18 19 19 20 20
REMARK H PARENT
REMARK Flexibility Score: inf
ROOT
ATOM      1  C   UNL     1       6.690   1.018  50.504  1.00  0.00     0.000 C 
ENDROOT
BRANCH   1   2
ATOM      2  C   UNL     1       7.346   2.358  50.871  1.00  0.00     0.000 C 
BRANCH   2   3
ATOM      3  C   UNL     1       6.684   2.973  52.114  1.00  0.00     0.000 C 
BRANCH   3   4
ATOM      4  C   UNL     1       6.642   4.515  52.054  1.00  0.00     0.000 C 
BRANCH   4   5
ATOM      5  C   UNL     1       7.519   5.118  50.940  1.00  0.00     0.000 C 
BRANCH   5   6
ATOM      6  C   UNL     1       6.777   6.037  49.952  1.00  0.00     0.006 C 
BRANCH   6   7
ATOM      7  C   UNL     1       7.482   6.210  48.597  1.00  0.00     0.053 C 
BRANCH   7   8
ATOM      8  C   UNL     1       8.253   7.491  48.528  1.00  0.00     0.041 C 
ATOM      9  O   UNL     1       8.077   8.386  49.397  1.00  0.00    -0.550 OA
ATOM     10  O   UNL     1       9.192   7.684  47.523  1.00  0.00    -0.550 OA
ENDBRANCH   7   8
ENDBRANCH   6   7
ENDBRANCH   5   6
ENDBRANCH   4   5
ENDBRANCH   3   4
ENDBRANCH   2   3
ENDBRANCH   1   2
BRANCH   1  11
ATOM     11  C   UNL     1       6.282   0.933  49.022  1.00  0.00     0.000 C 
BRANCH  11  12
ATOM     12  C   UNL     1       6.742   2.112  48.144  1.00  0.00     0.000 C 
BRANCH  12  13
ATOM     13  C   UNL     1       5.627   3.143  47.895  1.00  0.00     0.000 C 
BRANCH  13  14
ATOM     14  C   UNL     1       4.335   2.830  48.673  1.00  0.00     0.000 C 
BRANCH  14  15
ATOM     15  C   UNL     1       3.998   3.814  49.809  1.00  0.00     0.000 C 
BRANCH  15  16
ATOM     16  C   UNL     1       3.019   3.230  50.838  1.00  0.00     0.006 C 
BRANCH  16  17
ATOM     17  C   UNL     1       3.020   1.698  50.788  1.00  0.00     0.053 C 
BRANCH  17  18
ATOM     18  C   UNL     1       1.620   1.174  50.768  1.00  0.00     0.041 C 
ATOM     19  O   UNL     1       1.298   0.259  49.966  1.00  0.00    -0.550 OA
ATOM     20  O   UNL     1       0.681   1.661  51.669  1.00  0.00    -0.550 OA
ENDBRANCH  17  18
ENDBRANCH  16  17
ENDBRANCH  15  16
ENDBRANCH  14  15
ENDBRANCH  13  14
ENDBRANCH  12  13
ENDBRANCH  11  12
ENDBRANCH   1  11
TORSDOF 15
ENDMDL
MODEL 3
REMARK VINA RESULT:    -3.529      1.210      2.254
REMARK INTER + INTRA:          -9.102
REMARK INTER:                  -6.893
REMARK INTRA:                  -2.209
REMARK UNBOUND:                -2.479
REMARK SMILES O=C([O-])CCCCCCCCCCCCCCC(=O)[O-]
REMARK SMILES IDX 10 1 9 2 8 3 7 4 6 5 5 6 4 7 2 8 1 9 3 10 11 11 12 12 13 13
REMARK SMILES IDX 14 14 15 15 16 16 17 17 18 18 19 19 20 20
REMARK H PARENT
REMARK Flexibility Score: inf
ROOT
ATOM      1  C   UNL     1       6.108   0.870  49.054  1.00  0.00     0.000 C 
ENDROOT
BRANCH   1   2
ATOM      2  C   UNL     1       7.013   0.896  50.295  1.00  0.00     0.000 C 
BRANCH   2   3
ATOM      3  C   UNL     1       6.231   1.352  51.537  1.00  0.00     0.000 C 
BRANCH   3   4
ATOM      4  C   UNL     1       4.745   0.940  51.479  1.00  0.00     0.000 C 
BRANCH   4   5
ATOM      5  C   UNL     1       3.779   2.028  51.987  1.00  0.00     0.000 C 
BRANCH   5   6
ATOM      6  C   UNL     1       2.617   2.366  51.032  1.00  0.00     0.006 C 
BRANCH   6   7
ATOM      7  C   UNL     1       2.408   1.343  49.905  1.00  0.00     0.053 C 
BRANCH   7   8
ATOM      8  C   UNL     1       1.279   0.405  50.203  1.00  0.00     0.041 C 
ATOM      9  O   UNL     1       1.000  -0.527  49.404  1.00  0.00    -0.550 OA
ATOM     10  O   UNL     1       0.556   0.541  51.381  1.00  0.00    -0.550 OA
ENDBRANCH   7   8
ENDBRANCH   6   7
ENDBRANCH   5   6
ENDBRANCH   4   5
ENDBRANCH   3   4
ENDBRANCH   2   3
ENDBRANCH   1   2
BRANCH   1  11
ATOM     11  C   UNL     1       6.722   1.601  47.846  1.00  0.00     0.000 C 
BRANCH  11  12
ATOM     12  C   UNL     1       6.263   3.059  47.658  1.00  0.00     0.000 C 
BRANCH  12  13
ATOM     13  C   UNL     1       5.062   3.429  48.545  1.00  0.00     0.000 C 
BRANCH  13  14
ATOM     14  C   UNL     1       5.420   4.440  49.650  1.00  0.00     0.000 C 
BRANCH  14  15
ATOM     15  C   UNL     1       6.927   4.627  49.906  1.00  0.00     0.000 C 
BRANCH  15  16
ATOM     16  C   UNL     1       7.374   6.094  49.822  1.00  0.00     0.006 C 
BRANCH  16  17
ATOM     17  C   UNL     1       7.534   6.535  48.363  1.00  0.00     0.053 C 
BRANCH  17  18
ATOM     18  C   UNL     1       7.523   8.028  48.263  1.00  0.00     0.041 C 
ATOM     19  O   UNL     1       6.525   8.622  47.779  1.00  0.00    -0.550 OA
ATOM     20  O   UNL     1       8.595   8.766  48.750  1.00  0.00    -0.550 OA
ENDBRANCH  17  18
ENDBRANCH  16  17
ENDBRANCH  15  16
ENDBRANCH  14  15
ENDBRANCH  13  14
ENDBRANCH  12  13
ENDBRANCH  11  12
ENDBRANCH   1  11
TORSDOF 15
ENDMDL
MODEL 4
REMARK VINA RESULT:    -3.500      2.167      6.797
REMARK INTER + INTRA:          -9.048
REMARK INTER:                  -6.832
REMARK INTRA:                  -2.216
REMARK UNBOUND:                -2.479
REMARK SMILES O=C([O-])CCCCCCCCCCCCCCC(=O)[O-]
REMARK SMILES IDX 10 1 9 2 8 3 7 4 6 5 5 6 4 7 2 8 1 9 3 10 11 11 12 12 13 13
REMARK SMILES IDX 14 14 15 15 16 16 17 17 18 18 19 19 20 20
REMARK H PARENT
REMARK Flexibility Score: inf
ROOT
ATOM      1  C   UNL     1       5.784  -0.065  50.533  1.00  0.00     0.000 C 
ENDROOT
BRANCH   1   2
ATOM      2  C   UNL     1       5.978   0.062  49.015  1.00  0.00     0.000 C 
BRANCH   2   3
ATOM      3  C   UNL     1       7.048   1.113  48.682  1.00  0.00     0.000 C 
BRANCH   3   4
ATOM      4  C   UNL     1       6.668   1.970  47.456  1.00  0.00     0.000 C 
BRANCH   4   5
ATOM      5  C   UNL     1       5.787   3.187  47.796  1.00  0.00     0.000 C 
BRANCH   5   6
ATOM      6  C   UNL     1       6.537   4.382  48.415  1.00  0.00     0.006 C 
BRANCH   6   7
ATOM      7  C   UNL     1       6.098   4.733  49.845  1.00  0.00     0.053 C 
BRANCH   7   8
ATOM      8  C   UNL     1       7.269   4.935  50.756  1.00  0.00     0.041 C 
ATOM      9  O   UNL     1       7.685   6.098  51.006  1.00  0.00    -0.550 OA
ATOM     10  O   UNL     1       7.881   3.842  51.355  1.00  0.00    -0.550 OA
ENDBRANCH   7   8
ENDBRANCH   6   7
ENDBRANCH   5   6
ENDBRANCH   4   5
ENDBRANCH   3   4
ENDBRANCH   2   3
ENDBRANCH   1   2
BRANCH   1  11
ATOM     11  C   UNL     1       5.561   1.291  51.227  1.00  0.00     0.000 C 
BRANCH  11  12
ATOM     12  C   UNL     1       4.089   1.657  51.500  1.00  0.00     0.000 C 
BRANCH  12  13
ATOM     13  C   UNL     1       3.318   2.031  50.222  1.00  0.00     0.000 C 
BRANCH  13  14
ATOM     14  C   UNL     1       2.042   1.192  50.024  1.00  0.00     0.000 C 
BRANCH  14  15
ATOM     15  C   UNL     1       2.079  -0.217  50.645  1.00  0.00     0.000 C 
BRANCH  15  16
ATOM     16  C   UNL     1       2.202  -1.333  49.597  1.00  0.00     0.006 C 
BRANCH  16  17
ATOM     17  C   UNL     1       3.054  -2.490  50.126  1.00  0.00     0.053 C 
BRANCH  17  18
ATOM     18  C   UNL     1       3.786  -3.157  49.004  1.00  0.00     0.041 C 
ATOM     19  O   UNL     1       5.025  -3.361  49.089  1.00  0.00    -0.550 OA
ATOM     20  O   UNL     1       3.092  -3.597  47.884  1.00  0.00    -0.550 OA
ENDBRANCH  17  18
ENDBRANCH  16  17
ENDBRANCH  15  16
ENDBRANCH  14  15
ENDBRANCH  13  14
ENDBRANCH  12  13
ENDBRANCH  11  12
ENDBRANCH   1  11
TORSDOF 15
ENDMDL
MODEL 5
REMARK VINA RESULT:    -3.402      1.978      3.828
REMARK INTER + INTRA:          -8.864
REMARK INTER:                  -6.512
REMARK INTRA:                  -2.352
REMARK UNBOUND:                -2.479
REMARK SMILES O=C([O-])CCCCCCCCCCCCCCC(=O)[O-]
REMARK SMILES IDX 10 1 9 2 8 3 7 4 6 5 5 6 4 7 2 8 1 9 3 10 11 11 12 12 13 13
REMARK SMILES IDX 14 14 15 15 16 16 17 17 18 18 19 19 20 20
REMARK H PARENT
REMARK Flexibility Score: inf
ROOT
ATOM      1  C   UNL     1       4.327   3.879  49.966  1.00  0.00     0.000 C 
ENDROOT
BRANCH   1   2
ATOM      2  C   UNL     1       4.498   3.087  48.661  1.00  0.00     0.000 C 
BRANCH   2   3
ATOM      3  C   UNL     1       5.933   3.212  48.125  1.00  0.00     0.000 C 
BRANCH   3   4
ATOM      4  C   UNL     1       6.560   1.840  47.801  1.00  0.00     0.000 C 
BRANCH   4   5
ATOM      5  C   UNL     1       6.812   0.963  49.044  1.00  0.00     0.000 C 
BRANCH   5   6
ATOM      6  C   UNL     1       5.813  -0.193  49.238  1.00  0.00     0.006 C 
BRANCH   6   7
ATOM      7  C   UNL     1       5.496  -0.515  50.707  1.00  0.00     0.053 C 
BRANCH   7   8
ATOM      8  C   UNL     1       4.023  -0.516  50.974  1.00  0.00     0.041 C 
ATOM      9  O   UNL     1       3.575  -0.967  52.062  1.00  0.00    -0.550 OA
ATOM     10  O   UNL     1       3.146   0.013  50.036  1.00  0.00    -0.550 OA
ENDBRANCH   7   8
ENDBRANCH   6   7
ENDBRANCH   5   6
ENDBRANCH   4   5
ENDBRANCH   3   4
ENDBRANCH   2   3
ENDBRANCH   1   2
BRANCH   1  11
ATOM     11  C   UNL     1       4.618   3.038  51.222  1.00  0.00     0.000 C 
BRANCH  11  12
ATOM     12  C   UNL     1       5.676   3.625  52.176  1.00  0.00     0.000 C 
BRANCH  12  13
ATOM     13  C   UNL     1       7.117   3.299  51.745  1.00  0.00     0.000 C 
BRANCH  13  14
ATOM     14  C   UNL     1       7.843   4.504  51.119  1.00  0.00     0.000 C 
BRANCH  14  15
ATOM     15  C   UNL     1       7.266   5.883  51.489  1.00  0.00     0.000 C 
BRANCH  15  16
ATOM     16  C   UNL     1       6.724   6.652  50.275  1.00  0.00     0.006 C 
BRANCH  16  17
ATOM     17  C   UNL     1       7.352   6.138  48.975  1.00  0.00     0.053 C 
BRANCH  17  18
ATOM     18  C   UNL     1       7.826   7.282  48.135  1.00  0.00     0.041 C 
ATOM     19  O   UNL     1       9.025   7.334  47.754  1.00  0.00    -0.550 OA
ATOM     20  O   UNL     1       6.933   8.267  47.732  1.00  0.00    -0.550 OA
ENDBRANCH  17  18
ENDBRANCH  16  17
ENDBRANCH  15  16
ENDBRANCH  14  15
ENDBRANCH  13  14
ENDBRANCH  12  13
ENDBRANCH  11  12
ENDBRANCH   1  11
TORSDOF 15
ENDMDL
MODEL 6
REMARK VINA RESULT:    -3.386      1.284      7.209
REMARK INTER + INTRA:          -8.834
REMARK INTER:                  -7.255
REMARK INTRA:                  -1.579
REMARK UNBOUND:                -2.479
REMARK SMILES O=C([O-])CCCCCCCCCCCCCCC(=O)[O-]
REMARK SMILES IDX 10 1 9 2 8 3 7 4 6 5 5 6 4 7 2 8 1 9 3 10 11 11 12 12 13 13
REMARK SMILES IDX 14 14 15 15 16 16 17 17 18 18 19 19 20 20
REMARK H PARENT
REMARK Flexibility Score: inf
ROOT
ATOM      1  C   UNL     1       6.535   0.867  48.656  1.00  0.00     0.000 C 
ENDROOT
BRANCH   1   2
ATOM      2  C   UNL     1       6.729   1.983  47.619  1.00  0.00     0.000 C 
BRANCH   2   3
ATOM      3  C   UNL     1       5.886   3.217  47.973  1.00  0.00     0.000 C 
BRANCH   3   4
ATOM      4  C   UNL     1       6.749   4.480  48.179  1.00  0.00     0.000 C 
BRANCH   4   5
ATOM      5  C   UNL     1       6.597   5.115  49.575  1.00  0.00     0.000 C 
BRANCH   5   6
ATOM      6  C   UNL     1       7.519   6.320  49.846  1.00  0.00     0.006 C 
BRANCH   6   7
ATOM      7  C   UNL     1       6.836   7.687  49.682  1.00  0.00     0.053 C 
BRANCH   7   8
ATOM      8  C   UNL     1       6.929   8.193  48.275  1.00  0.00     0.041 C 
ATOM      9  O   UNL     1       7.853   7.794  47.517  1.00  0.00    -0.550 OA
ATOM     10  O   UNL     1       5.975   9.078  47.791  1.00  0.00    -0.550 OA
ENDBRANCH   7   8
ENDBRANCH   6   7
ENDBRANCH   5   6
ENDBRANCH   4   5
ENDBRANCH   3   4
ENDBRANCH   2   3
ENDBRANCH   1   2
BRANCH   1  11
ATOM     11  C   UNL     1       6.680   1.361  50.107  1.00  0.00     0.000 C 
BRANCH  11  12
ATOM     12  C   UNL     1       5.756   0.676  51.131  1.00  0.00     0.000 C 
BRANCH  12  13
ATOM     13  C   UNL     1       4.839   1.668  51.868  1.00  0.00     0.000 C 
BRANCH  13  14
ATOM     14  C   UNL     1       4.067   2.596  50.912  1.00  0.00     0.000 C 
BRANCH  14  15
ATOM     15  C   UNL     1       3.080   1.888  49.964  1.00  0.00     0.000 C 
BRANCH  15  16
ATOM     16  C   UNL     1       1.873   1.284  50.697  1.00  0.00     0.006 C 
BRANCH  16  17
ATOM     17  C   UNL     1       1.826  -0.237  50.514  1.00  0.00     0.053 C 
BRANCH  17  18
ATOM     18  C   UNL     1       0.618  -0.633  49.726  1.00  0.00     0.041 C 
ATOM     19  O   UNL     1      -0.323  -1.258  50.280  1.00  0.00    -0.550 OA
ATOM     20  O   UNL     1       0.509  -0.269  48.389  1.00  0.00    -0.550 OA
ENDBRANCH  17  18
ENDBRANCH  16  17
ENDBRANCH  15  16
ENDBRANCH  14  15
ENDBRANCH  13  14
ENDBRANCH  12  13
ENDBRANCH  11  12
ENDBRANCH   1  11
TORSDOF 15
ENDMDL
MODEL 7
REMARK VINA RESULT:    -3.363      1.251      2.797
REMARK INTER + INTRA:          -8.790
REMARK INTER:                  -6.561
REMARK INTRA:                  -2.229
REMARK UNBOUND:                -2.479
REMARK SMILES O=C([O-])CCCCCCCCCCCCCCC(=O)[O-]
REMARK SMILES IDX 10 1 9 2 8 3 7 4 6 5 5 6 4 7 2 8 1 9 3 10 11 11 12 12 13 13
REMARK SMILES IDX 14 14 15 15 16 16 17 17 18 18 19 19 20 20
REMARK H PARENT
REMARK Flexibility Score: inf
ROOT
ATOM      1  C   UNL     1       6.799   1.526  48.370  1.00  0.00     0.000 C 
ENDROOT
BRANCH   1   2
ATOM      2  C   UNL     1       6.374   3.002  48.401  1.00  0.00     0.000 C 
BRANCH   2   3
ATOM      3  C   UNL     1       4.844   3.136  48.375  1.00  0.00     0.000 C 
BRANCH   3   4
ATOM      4  C   UNL     1       4.295   3.847  49.630  1.00  0.00     0.000 C 
BRANCH   4   5
ATOM      5  C   UNL     1       3.341   2.977  50.471  1.00  0.00     0.000 C 
BRANCH   5   6
ATOM      6  C   UNL     1       2.801   1.724  49.755  1.00  0.00     0.006 C 
BRANCH   6   7
ATOM      7  C   UNL     1       1.732   0.954  50.546  1.00  0.00     0.053 C 
BRANCH   7   8
ATOM      8  C   UNL     1       1.175  -0.193  49.762  1.00  0.00     0.041 C 
ATOM      9  O   UNL     1       0.747  -0.014  48.591  1.00  0.00    -0.550 OA
ATOM     10  O   UNL     1       1.159  -1.468  50.312  1.00  0.00    -0.550 OA
ENDBRANCH   7   8
ENDBRANCH   6   7
ENDBRANCH   5   6
ENDBRANCH   4   5
ENDBRANCH   3   4
ENDBRANCH   2   3
ENDBRANCH   1   2
BRANCH   1  11
ATOM     11  C   UNL     1       6.296   0.729  49.587  1.00  0.00     0.000 C 
BRANCH  11  12
ATOM     12  C   UNL     1       7.080   0.956  50.893  1.00  0.00     0.000 C 
BRANCH  12  13
ATOM     13  C   UNL     1       6.288   1.763  51.935  1.00  0.00     0.000 C 
BRANCH  13  14
ATOM     14  C   UNL     1       7.152   2.804  52.672  1.00  0.00     0.000 C 
BRANCH  14  15
ATOM     15  C   UNL     1       7.843   3.843  51.769  1.00  0.00     0.000 C 
BRANCH  15  16
ATOM     16  C   UNL     1       6.978   5.086  51.516  1.00  0.00     0.006 C 
BRANCH  16  17
ATOM     17  C   UNL     1       7.503   5.884  50.317  1.00  0.00     0.053 C 
BRANCH  17  18
ATOM     18  C   UNL     1       6.501   6.910  49.891  1.00  0.00     0.041 C 
ATOM     19  O   UNL     1       5.462   7.101  50.575  1.00  0.00    -0.550 OA
ATOM     20  O   UNL     1       6.738   7.689  48.766  1.00  0.00    -0.550 OA
ENDBRANCH  17  18
ENDBRANCH  16  17
ENDBRANCH  15  16
ENDBRANCH  14  15
ENDBRANCH  13  14
ENDBRANCH  12  13
ENDBRANCH  11  12
ENDBRANCH   1  11
TORSDOF 15
ENDMDL
MODEL 8
REMARK VINA RESULT:    -3.330      1.467      3.444
REMARK INTER + INTRA:          -8.728
REMARK INTER:                  -6.183
REMARK INTRA:                  -2.545
REMARK UNBOUND:                -2.479
REMARK SMILES O=C([O-])CCCCCCCCCCCCCCC(=O)[O-]
REMARK SMILES IDX 10 1 9 2 8 3 7 4 6 5 5 6 4 7 2 8 1 9 3 10 11 11 12 12 13 13
REMARK SMILES IDX 14 14 15 15 16 16 17 17 18 18 19 19 20 20
REMARK H PARENT
REMARK Flexibility Score: inf
ROOT
ATOM      1  C   UNL     1       4.862   3.155  48.221  1.00  0.00     0.000 C 
ENDROOT
BRANCH   1   2
ATOM      2  C   UNL     1       6.323   2.690  48.134  1.00  0.00     0.000 C 
BRANCH   2   3
ATOM      3  C   UNL     1       6.441   1.186  48.428  1.00  0.00     0.000 C 
BRANCH   3   4
ATOM      4  C   UNL     1       6.953   0.906  49.857  1.00  0.00     0.000 C 
BRANCH   4   5
ATOM      5  C   UNL     1       5.972   0.088  50.719  1.00  0.00     0.000 C 
BRANCH   5   6
ATOM      6  C   UNL     1       4.792  -0.534  49.948  1.00  0.00     0.006 C 
BRANCH   6   7
ATOM      7  C   UNL     1       3.471  -0.569  50.734  1.00  0.00     0.053 C 
BRANCH   7   8
ATOM      8  C   UNL     1       2.285  -0.691  49.828  1.00  0.00     0.041 C 
ATOM      9  O   UNL     1       2.163  -1.692  49.074  1.00  0.00    -0.550 OA
ATOM     10  O   UNL     1       1.298   0.286  49.841  1.00  0.00    -0.550 OA
ENDBRANCH   7   8
ENDBRANCH   6   7
ENDBRANCH   5   6
ENDBRANCH   4   5
ENDBRANCH   3   4
ENDBRANCH   2   3
ENDBRANCH   1   2
BRANCH   1  11
ATOM     11  C   UNL     1       4.538   3.875  49.543  1.00  0.00     0.000 C 
BRANCH  11  12
ATOM     12  C   UNL     1       3.592   3.114  50.492  1.00  0.00     0.000 C 
BRANCH  12  13
ATOM     13  C   UNL     1       4.171   2.946  51.907  1.00  0.00     0.000 C 
BRANCH  13  14
ATOM     14  C   UNL     1       5.252   3.991  52.242  1.00  0.00     0.000 C 
BRANCH  14  15
ATOM     15  C   UNL     1       6.690   3.448  52.318  1.00  0.00     0.000 C 
BRANCH  15  16
ATOM     16  C   UNL     1       7.687   4.267  51.485  1.00  0.00     0.006 C 
BRANCH  16  17
ATOM     17  C   UNL     1       7.412   5.768  51.622  1.00  0.00     0.053 C 
BRANCH  17  18
ATOM     18  C   UNL     1       7.569   6.452  50.301  1.00  0.00     0.041 C 
ATOM     19  O   UNL     1       7.401   5.810  49.231  1.00  0.00    -0.550 OA
ATOM     20  O   UNL     1       7.853   7.811  50.250  1.00  0.00    -0.550 OA
ENDBRANCH  17  18
ENDBRANCH  16  17
ENDBRANCH  15  16
ENDBRANCH  14  15
ENDBRANCH  13  14
ENDBRANCH  12  13
ENDBRANCH  11  12
ENDBRANCH   1  11
TORSDOF 15
ENDMDL
MODEL 9
REMARK VINA RESULT:    -3.312      2.046      6.659
REMARK INTER + INTRA:          -8.695
REMARK INTER:                  -6.258
REMARK INTRA:                  -2.437
REMARK UNBOUND:                -2.479
REMARK SMILES O=C([O-])CCCCCCCCCCCCCCC(=O)[O-]
REMARK SMILES IDX 10 1 9 2 8 3 7 4 6 5 5 6 4 7 2 8 1 9 3 10 11 11 12 12 13 13
REMARK SMILES IDX 14 14 15 15 16 16 17 17 18 18 19 19 20 20
REMARK H PARENT
REMARK Flexibility Score: inf
ROOT
ATOM      1  C   UNL     1       3.763   3.354  51.479  1.00  0.00     0.000 C 
ENDROOT
BRANCH   1   2
ATOM      2  C   UNL     1       4.736   3.892  52.538  1.00  0.00     0.000 C 
BRANCH   2   3
ATOM      3  C   UNL     1       5.367   5.217  52.084  1.00  0.00     0.000 C 
BRANCH   3   4
ATOM      4  C   UNL     1       6.910   5.158  52.064  1.00  0.00     0.000 C 
BRANCH   4   5
ATOM      5  C   UNL     1       7.515   5.218  50.648  1.00  0.00     0.000 C 
BRANCH   5   6
ATOM      6  C   UNL     1       6.890   6.275  49.717  1.00  0.00     0.006 C 
BRANCH   6   7
ATOM      7  C   UNL     1       7.498   6.313  48.306  1.00  0.00     0.053 C 
BRANCH   7   8
ATOM      8  C   UNL     1       7.657   7.714  47.804  1.00  0.00     0.041 C 
ATOM      9  O   UNL     1       8.752   8.090  47.307  1.00  0.00    -0.550 OA
ATOM     10  O   UNL     1       6.585   8.596  47.853  1.00  0.00    -0.550 OA
ENDBRANCH   7   8
ENDBRANCH   6   7
ENDBRANCH   5   6
ENDBRANCH   4   5
ENDBRANCH   3   4
ENDBRANCH   2   3
ENDBRANCH   1   2
BRANCH   1  11
ATOM     11  C   UNL     1       3.963   3.999  50.095  1.00  0.00     0.000 C 
BRANCH  11  12
ATOM     12  C   UNL     1       4.143   3.009  48.928  1.00  0.00     0.000 C 
BRANCH  12  13
ATOM     13  C   UNL     1       5.512   3.139  48.238  1.00  0.00     0.000 C 
BRANCH  13  14
ATOM     14  C   UNL     1       6.432   1.932  48.498  1.00  0.00     0.000 C 
BRANCH  14  15
ATOM     15  C   UNL     1       6.820   1.707  49.971  1.00  0.00     0.000 C 
BRANCH  15  16
ATOM     16  C   UNL     1       6.275   0.389  50.542  1.00  0.00     0.006 C 
BRANCH  16  17
ATOM     17  C   UNL     1       5.558  -0.423  49.457  1.00  0.00     0.053 C 
BRANCH  17  18
ATOM     18  C   UNL     1       4.221  -0.883  49.946  1.00  0.00     0.041 C 
ATOM     19  O   UNL     1       3.405  -0.057  50.429  1.00  0.00    -0.550 OA
ATOM     20  O   UNL     1       3.858  -2.219  49.823  1.00  0.00    -0.550 OA
ENDBRANCH  17  18
ENDBRANCH  16  17
ENDBRANCH  15  16
ENDBRANCH  14  15
ENDBRANCH  13  14
ENDBRANCH  12  13
ENDBRANCH  11  12
ENDBRANCH   1  11
TORSDOF 15
ENDMDL
