MODEL 1
REMARK VINA RESULT:    -4.472      0.000      0.000
REMARK INTER + INTRA:          -6.666
REMARK INTER:                  -6.302
REMARK INTRA:                  -0.364
REMARK UNBOUND:                -0.364
REMARK SMILES CCCCCCCCC(=O)[O-]
REMARK SMILES IDX 6 1 7 2 8 3 9 4 10 5 11 6 5 7 4 8 3 9 2 10 1 11
REMARK H PARENT
REMARK Flexibility Score: inf
ROOT
ATOM      1  C   UNL     1      40.330  64.760   7.736  1.00  0.00     0.000 C 
ENDROOT
BRANCH   1   2
ATOM      2  C   UNL     1      39.692  65.214   6.414  1.00  0.00     0.006 C 
BRANCH   2   3
ATOM      3  C   UNL     1      38.192  65.509   6.551  1.00  0.00     0.053 C 
BRANCH   3   4
ATOM      4  C   UNL     1      37.803  66.650   5.664  1.00  0.00     0.041 C 
ATOM      5  O   UNL     1      38.170  66.671   4.461  1.00  0.00    -0.550 OA
ATOM      6  O   UNL     1      36.992  67.666   6.155  1.00  0.00    -0.550 OA
ENDBRANCH   3   4
ENDBRANCH   2   3
ENDBRANCH   1   2
BRANCH   1   7
ATOM      7  C   UNL     1      39.398  63.857   8.562  1.00  0.00     0.000 C 
BRANCH   7   8
ATOM      8  C   UNL     1      39.758  62.367   8.439  1.00  0.00    -0.000 C 
BRANCH   8   9
ATOM      9  C   UNL     1      41.200  62.142   7.960  1.00  0.00    -0.000 C 
BRANCH   9  10
ATOM     10  C   UNL     1      41.561  60.653   7.985  1.00  0.00    -0.003 C 
ATOM     11  C   UNL     1      40.371  59.804   8.422  1.00  0.00     0.004 C 
ENDBRANCH   9  10
ENDBRANCH   8   9
ENDBRANCH   7   8
ENDBRANCH   1   7
TORSDOF 7
ENDMDL
MODEL 2
REMARK VINA RESULT:    -4.471      0.976      1.480
REMARK INTER + INTRA:          -6.665
REMARK INTER:                  -6.346
REMARK INTRA:                  -0.319
REMARK UNBOUND:                -0.364
REMARK SMILES CCCCCCCCC(=O)[O-]
REMARK SMILES IDX 6 1 7 2 8 3 9 4 10 5 11 6 5 7 4 8 3 9 2 10 1 11
REMARK H PARENT
REMARK Flexibility Score: inf
ROOT
ATOM      1  C   UNL     1      39.380  63.541   8.507  1.00  0.00     0.000 C 
ENDROOT
BRANCH   1   2
ATOM      2  C   UNL     1      38.976  64.959   8.072  1.00  0.00     0.006 C 
BRANCH   2   3
ATOM      3  C   UNL     1      39.076  65.164   6.555  1.00  0.00     0.053 C 
BRANCH   3   4
ATOM      4  C   UNL     1      38.018  66.115   6.087  1.00  0.00     0.041 C 
ATOM      5  O   UNL     1      38.085  66.618   4.936  1.00  0.00    -0.550 OA
ATOM      6  O   UNL     1      36.934  66.406   6.905  1.00  0.00    -0.550 OA
ENDBRANCH   3   4
ENDBRANCH   2   3
ENDBRANCH   1   2
BRANCH   1   7
ATOM      7  C   UNL     1      40.903  63.324   8.468  1.00  0.00     0.000 C 
BRANCH   7   8
ATOM      8  C   UNL     1      41.283  61.859   8.195  1.00  0.00    -0.000 C 
BRANCH   8   9
ATOM      9  C   UNL     1      40.145  60.879   8.517  1.00  0.00    -0.000 C 
BRANCH   9  10
ATOM     10  C   UNL     1      40.492  59.462   8.048  1.00  0.00    -0.003 C 
ATOM     11  C   UNL     1      41.998  59.291   7.873  1.00  0.00     0.004 C 
ENDBRANCH   9  10
ENDBRANCH   8   9
ENDBRANCH   7   8
ENDBRANCH   1   7
TORSDOF 7
ENDMDL
MODEL 3
REMARK VINA RESULT:    -4.422      1.045      1.679
REMARK INTER + INTRA:          -6.596
REMARK INTER:                  -6.294
REMARK INTRA:                  -0.302
REMARK UNBOUND:                -0.364
REMARK SMILES CCCCCCCCC(=O)[O-]
REMARK SMILES IDX 6 1 7 2 8 3 9 4 10 5 11 6 5 7 4 8 3 9 2 10 1 11
REMARK H PARENT
REMARK Flexibility Score: inf
ROOT
ATOM      1  C   UNL     1      39.382  63.744   8.667  1.00  0.00     0.000 C 
ENDROOT
BRANCH   1   2
ATOM      2  C   UNL     1      38.913  65.110   8.139  1.00  0.00     0.006 C 
BRANCH   2   3
ATOM      3  C   UNL     1      38.807  65.147   6.609  1.00  0.00     0.053 C 
BRANCH   3   4
ATOM      4  C   UNL     1      37.833  66.199   6.179  1.00  0.00     0.041 C 
ATOM      5  O   UNL     1      36.882  66.528   6.936  1.00  0.00    -0.550 OA
ATOM      6  O   UNL     1      38.005  66.851   4.964  1.00  0.00    -0.550 OA
ENDBRANCH   3   4
ENDBRANCH   2   3
ENDBRANCH   1   2
BRANCH   1   7
ATOM      7  C   UNL     1      40.878  63.494   8.410  1.00  0.00     0.000 C 
BRANCH   7   8
ATOM      8  C   UNL     1      41.221  61.997   8.329  1.00  0.00    -0.000 C 
BRANCH   8   9
ATOM      9  C   UNL     1      39.986  61.117   8.084  1.00  0.00    -0.000 C 
BRANCH   9  10
ATOM     10  C   UNL     1      40.280  59.653   8.427  1.00  0.00    -0.003 C 
ATOM     11  C   UNL     1      39.718  58.713   7.364  1.00  0.00     0.004 C 
ENDBRANCH   9  10
ENDBRANCH   8   9
ENDBRANCH   7   8
ENDBRANCH   1   7
TORSDOF 7
ENDMDL
MODEL 4
REMARK VINA RESULT:    -4.417      3.281      5.745
REMARK INTER + INTRA:          -6.589
REMARK INTER:                  -6.290
REMARK INTRA:                  -0.299
REMARK UNBOUND:                -0.364
REMARK SMILES CCCCCCCCC(=O)[O-]
REMARK SMILES IDX 6 1 7 2 8 3 9 4 10 5 11 6 5 7 4 8 3 9 2 10 1 11
REMARK H PARENT
REMARK Flexibility Score: inf
ROOT
ATOM      1  C   UNL     1      40.872  63.441   8.574  1.00  0.00     0.000 C 
ENDROOT
BRANCH   1   2
ATOM      2  C   UNL     1      41.259  62.004   8.189  1.00  0.00     0.006 C 
BRANCH   2   3
ATOM      3  C   UNL     1      40.112  61.007   8.394  1.00  0.00     0.053 C 
BRANCH   3   4
ATOM      4  C   UNL     1      39.859  60.237   7.136  1.00  0.00     0.041 C 
ATOM      5  O   UNL     1      38.864  60.512   6.415  1.00  0.00    -0.550 OA
ATOM      6  O   UNL     1      40.749  59.249   6.734  1.00  0.00    -0.550 OA
ENDBRANCH   3   4
ENDBRANCH   2   3
ENDBRANCH   1   2
BRANCH   1   7
ATOM      7  C   UNL     1      39.348  63.637   8.663  1.00  0.00     0.000 C 
BRANCH   7   8
ATOM      8  C   UNL     1      38.907  65.042   8.219  1.00  0.00    -0.000 C 
BRANCH   8   9
ATOM      9  C   UNL     1      38.637  65.132   6.710  1.00  0.00    -0.000 C 
BRANCH   9  10
ATOM     10  C   UNL     1      37.545  66.163   6.409  1.00  0.00    -0.003 C 
ATOM     11  C   UNL     1      37.841  66.921   5.118  1.00  0.00     0.004 C 
ENDBRANCH   9  10
ENDBRANCH   8   9
ENDBRANCH   7   8
ENDBRANCH   1   7
TORSDOF 7
ENDMDL
MODEL 5
REMARK VINA RESULT:    -4.328      1.571      2.417
REMARK INTER + INTRA:          -6.464
REMARK INTER:                  -6.092
REMARK INTRA:                  -0.372
REMARK UNBOUND:                -0.364
REMARK SMILES CCCCCCCCC(=O)[O-]
REMARK SMILES IDX 6 1 7 2 8 3 9 4 10 5 11 6 5 7 4 8 3 9 2 10 1 11
REMARK H PARENT
REMARK Flexibility Score: inf
ROOT
ATOM      1  C   UNL     1      41.138  62.497   8.078  1.00  0.00     0.000 C 
ENDROOT
BRANCH   1   2
ATOM      2  C   UNL     1      40.863  63.982   8.364  1.00  0.00     0.006 C 
BRANCH   2   3
ATOM      3  C   UNL     1      39.371  64.333   8.286  1.00  0.00     0.053 C 
BRANCH   3   4
ATOM      4  C   UNL     1      39.081  65.094   7.031  1.00  0.00     0.041 C 
ATOM      5  O   UNL     1      39.873  65.031   6.054  1.00  0.00    -0.550 OA
ATOM      6  O   UNL     1      37.911  65.836   6.922  1.00  0.00    -0.550 OA
ENDBRANCH   3   4
ENDBRANCH   2   3
ENDBRANCH   1   2
BRANCH   1   7
ATOM      7  C   UNL     1      39.913  61.606   8.351  1.00  0.00     0.000 C 
BRANCH   7   8
ATOM      8  C   UNL     1      40.236  60.107   8.239  1.00  0.00    -0.000 C 
BRANCH   8   9
ATOM      9  C   UNL     1      41.710  59.841   7.897  1.00  0.00    -0.000 C 
BRANCH   9  10
ATOM     10  C   UNL     1      42.059  58.361   8.090  1.00  0.00    -0.003 C 
ATOM     11  C   UNL     1      40.965  57.632   8.865  1.00  0.00     0.004 C 
ENDBRANCH   9  10
ENDBRANCH   8   9
ENDBRANCH   7   8
ENDBRANCH   1   7
TORSDOF 7
ENDMDL
MODEL 6
REMARK VINA RESULT:    -4.323      1.470      2.344
REMARK INTER + INTRA:          -6.456
REMARK INTER:                  -5.880
REMARK INTRA:                  -0.576
REMARK UNBOUND:                -0.364
REMARK SMILES CCCCCCCCC(=O)[O-]
REMARK SMILES IDX 6 1 7 2 8 3 9 4 10 5 11 6 5 7 4 8 3 9 2 10 1 11
REMARK H PARENT
REMARK Flexibility Score: inf
ROOT
ATOM      1  C   UNL     1      39.817  63.766   8.875  1.00  0.00     0.000 C 
ENDROOT
BRANCH   1   2
ATOM      2  C   UNL     1      38.946  64.878   8.270  1.00  0.00     0.006 C 
BRANCH   2   3
ATOM      3  C   UNL     1      39.110  64.997   6.749  1.00  0.00     0.053 C 
BRANCH   3   4
ATOM      4  C   UNL     1      38.130  65.983   6.195  1.00  0.00     0.041 C 
ATOM      5  O   UNL     1      37.137  66.341   6.879  1.00  0.00    -0.550 OA
ATOM      6  O   UNL     1      38.342  66.542   4.941  1.00  0.00    -0.550 OA
ENDBRANCH   3   4
ENDBRANCH   2   3
ENDBRANCH   1   2
BRANCH   1   7
ATOM      7  C   UNL     1      39.766  62.465   8.055  1.00  0.00     0.000 C 
BRANCH   7   8
ATOM      8  C   UNL     1      41.094  61.690   8.095  1.00  0.00    -0.000 C 
BRANCH   8   9
ATOM      9  C   UNL     1      41.677  61.439   6.696  1.00  0.00    -0.000 C 
BRANCH   9  10
ATOM     10  C   UNL     1      42.039  62.759   6.008  1.00  0.00    -0.003 C 
ATOM     11  C   UNL     1      41.331  62.893   4.663  1.00  0.00     0.004 C 
ENDBRANCH   9  10
ENDBRANCH   8   9
ENDBRANCH   7   8
ENDBRANCH   1   7
TORSDOF 7
ENDMDL
MODEL 7
REMARK VINA RESULT:    -4.308      4.133      6.373
REMARK INTER + INTRA:          -6.435
REMARK INTER:                  -6.208
REMARK INTRA:                  -0.226
REMARK UNBOUND:                -0.364
REMARK SMILES CCCCCCCCC(=O)[O-]
REMARK SMILES IDX 6 1 7 2 8 3 9 4 10 5 11 6 5 7 4 8 3 9 2 10 1 11
REMARK H PARENT
REMARK Flexibility Score: inf
ROOT
ATOM      1  C   UNL     1      41.250  61.723   8.371  1.00  0.00     0.000 C 
ENDROOT
BRANCH   1   2
ATOM      2  C   UNL     1      40.050  60.776   8.207  1.00  0.00     0.006 C 
BRANCH   2   3
ATOM      3  C   UNL     1      40.420  59.306   8.442  1.00  0.00     0.053 C 
BRANCH   3   4
ATOM      4  C   UNL     1      39.525  58.410   7.645  1.00  0.00     0.041 C 
ATOM      5  O   UNL     1      38.405  58.063   8.103  1.00  0.00    -0.550 OA
ATOM      6  O   UNL     1      39.907  57.997   6.375  1.00  0.00    -0.550 OA
ENDBRANCH   3   4
ENDBRANCH   2   3
ENDBRANCH   1   2
BRANCH   1   7
ATOM      7  C   UNL     1      40.825  63.195   8.513  1.00  0.00     0.000 C 
BRANCH   7   8
ATOM      8  C   UNL     1      39.368  63.432   8.083  1.00  0.00    -0.000 C 
BRANCH   8   9
ATOM      9  C   UNL     1      39.006  64.923   8.010  1.00  0.00    -0.000 C 
BRANCH   9  10
ATOM     10  C   UNL     1      38.696  65.342   6.569  1.00  0.00    -0.003 C 
ATOM     11  C   UNL     1      37.446  66.215   6.503  1.00  0.00     0.004 C 
ENDBRANCH   9  10
ENDBRANCH   8   9
ENDBRANCH   7   8
ENDBRANCH   1   7
TORSDOF 7
ENDMDL
MODEL 8
REMARK VINA RESULT:    -4.202      4.791      7.073
REMARK INTER + INTRA:          -6.286
REMARK INTER:                  -5.820
REMARK INTRA:                  -0.466
REMARK UNBOUND:                -0.364
REMARK SMILES CCCCCCCCC(=O)[O-]
REMARK SMILES IDX 6 1 7 2 8 3 9 4 10 5 11 6 5 7 4 8 3 9 2 10 1 11
REMARK H PARENT
REMARK Flexibility Score: inf
ROOT
ATOM      1  C   UNL     1      39.517  59.917   7.306  1.00  0.00     0.000 C 
ENDROOT
BRANCH   1   2
ATOM      2  C   UNL     1      39.415  58.446   7.739  1.00  0.00     0.006 C 
BRANCH   2   3
ATOM      3  C   UNL     1      40.523  58.040   8.719  1.00  0.00     0.053 C 
BRANCH   3   4
ATOM      4  C   UNL     1      41.724  57.547   7.974  1.00  0.00     0.041 C 
ATOM      5  O   UNL     1      42.709  58.308   7.785  1.00  0.00    -0.550 OA
ATOM      6  O   UNL     1      41.775  56.232   7.530  1.00  0.00    -0.550 OA
ENDBRANCH   3   4
ENDBRANCH   2   3
ENDBRANCH   1   2
BRANCH   1   7
ATOM      7  C   UNL     1      40.028  60.830   8.434  1.00  0.00     0.000 C 
BRANCH   7   8
ATOM      8  C   UNL     1      41.207  61.713   7.991  1.00  0.00    -0.000 C 
BRANCH   8   9
ATOM      9  C   UNL     1      41.062  63.172   8.450  1.00  0.00    -0.000 C 
BRANCH   9  10
ATOM     10  C   UNL     1      39.617  63.477   8.858  1.00  0.00    -0.003 C 
ATOM     11  C   UNL     1      39.073  64.687   8.104  1.00  0.00     0.004 C 
ENDBRANCH   9  10
ENDBRANCH   8   9
ENDBRANCH   7   8
ENDBRANCH   1   7
TORSDOF 7
ENDMDL
MODEL 9
REMARK VINA RESULT:    -4.134      4.352      6.192
REMARK INTER + INTRA:          -6.190
REMARK INTER:                  -5.748
REMARK INTRA:                  -0.442
REMARK UNBOUND:                -0.364
REMARK SMILES CCCCCCCCC(=O)[O-]
REMARK SMILES IDX 6 1 7 2 8 3 9 4 10 5 11 6 5 7 4 8 3 9 2 10 1 11
REMARK H PARENT
REMARK Flexibility Score: inf
ROOT
ATOM      1  C   UNL     1      40.483  62.319   8.465  1.00  0.00     0.000 C 
ENDROOT
BRANCH   1   2
ATOM      2  C   UNL     1      39.898  60.935   8.138  1.00  0.00     0.006 C 
BRANCH   2   3
ATOM      3  C   UNL     1      40.961  59.829   8.131  1.00  0.00     0.053 C 
BRANCH   3   4
ATOM      4  C   UNL     1      40.330  58.499   8.401  1.00  0.00     0.041 C 
ATOM      5  O   UNL     1      40.956  57.622   9.053  1.00  0.00    -0.550 OA
ATOM      6  O   UNL     1      39.033  58.245   7.974  1.00  0.00    -0.550 OA
ENDBRANCH   3   4
ENDBRANCH   2   3
ENDBRANCH   1   2
BRANCH   1   7
ATOM      7  C   UNL     1      39.401  63.338   8.861  1.00  0.00     0.000 C 
BRANCH   7   8
ATOM      8  C   UNL     1      39.505  64.649   8.062  1.00  0.00    -0.000 C 
BRANCH   8   9
ATOM      9  C   UNL     1      40.795  64.739   7.234  1.00  0.00    -0.000 C 
BRANCH   9  10
ATOM     10  C   UNL     1      40.480  64.832   5.737  1.00  0.00    -0.003 C 
ATOM     11  C   UNL     1      41.088  63.661   4.971  1.00  0.00     0.004 C 
ENDBRANCH   9  10
ENDBRANCH   8   9
ENDBRANCH   7   8
ENDBRANCH   1   7
TORSDOF 7
ENDMDL
