MODEL 1
REMARK VINA RESULT:     7.350      0.000      0.000
REMARK INTER + INTRA:           7.702
REMARK INTER:                   7.780
REMARK INTRA:                  -0.077
REMARK UNBOUND:                -0.077
REMARK SMILES CC1=CC[C@@]23[C@@H]([C@H](C(C)C)CC[C@@H]2C)[C@H]13
REMARK SMILES IDX 14 1 13 2 12 3 11 4 7 5 6 6 5 7 15 8 2 9 3 10 4 11 1 12 8 13
REMARK SMILES IDX 9 14 10 15
REMARK H PARENT
REMARK Flexibility Score: inf
ROOT
ATOM      1  C   UNL     1     135.440 141.574 161.830  1.00  0.00     0.008 C 
ATOM      2  C   UNL     1     134.882 140.161 162.068  1.00  0.00    -0.007 C 
ATOM      3  C   UNL     1     135.308 139.241 160.909  1.00  0.00     0.004 C 
ATOM      4  C   UNL     1     134.875 137.800 161.154  1.00  0.00     0.004 C 
ATOM      5  C   UNL     1     135.467 137.172 162.441  1.00  0.00    -0.004 C 
ATOM      6  C   UNL     1     135.627 138.128 163.653  1.00  0.00     0.007 C 
ATOM      7  C   UNL     1     135.282 139.611 163.465  1.00  0.00    -0.013 C 
ATOM      8  C   UNL     1     136.740 139.185 163.632  1.00  0.00     0.025 C 
ATOM      9  C   UNL     1     137.120 139.753 164.958  1.00  0.00    -0.073 C 
ATOM     10  C   UNL     1     136.125 140.404 165.551  1.00  0.00    -0.027 C 
ATOM     11  C   UNL     1     134.875 140.365 164.742  1.00  0.00     0.035 C 
ATOM     12  C   UNL     1     138.483 139.579 165.554  1.00  0.00     0.039 C 
ENDROOT
BRANCH   5  13
ATOM     13  C   UNL     1     136.671 136.206 162.194  1.00  0.00    -0.014 C 
ATOM     14  C   UNL     1     136.313 134.879 161.509  1.00  0.00     0.007 C 
ATOM     15  C   UNL     1     137.809 136.901 161.429  1.00  0.00     0.007 C 
ENDBRANCH   5  13
TORSDOF 1
ENDMDL
MODEL 2
REMARK VINA RESULT:     9.750      1.566      4.296
REMARK INTER + INTRA:          10.243
REMARK INTER:                  10.487
REMARK INTRA:                  -0.244
REMARK UNBOUND:                -0.077
REMARK SMILES CC1=CC[C@@]23[C@@H]([C@H](C(C)C)CC[C@@H]2C)[C@H]13
REMARK SMILES IDX 14 1 13 2 12 3 11 4 7 5 6 6 5 7 15 8 2 9 3 10 4 11 1 12 8 13
REMARK SMILES IDX 9 14 10 15
REMARK H PARENT
REMARK Flexibility Score: inf
ROOT
ATOM      1  C   UNL     1     134.875 140.557 161.872  1.00  0.00     0.008 C 
ATOM      2  C   UNL     1     136.039 140.293 162.843  1.00  0.00    -0.007 C 
ATOM      3  C   UNL     1     135.568 140.551 164.286  1.00  0.00     0.004 C 
ATOM      4  C   UNL     1     136.652 140.194 165.298  1.00  0.00     0.004 C 
ATOM      5  C   UNL     1     137.098 138.711 165.250  1.00  0.00    -0.004 C 
ATOM      6  C   UNL     1     137.135 138.058 163.843  1.00  0.00     0.007 C 
ATOM      7  C   UNL     1     136.650 138.879 162.641  1.00  0.00    -0.013 C 
ATOM      8  C   UNL     1     135.813 137.703 163.147  1.00  0.00     0.025 C 
ATOM      9  C   UNL     1     135.910 136.706 162.041  1.00  0.00    -0.073 C 
ATOM     10  C   UNL     1     136.659 137.123 161.026  1.00  0.00    -0.027 C 
ATOM     11  C   UNL     1     137.235 138.473 161.279  1.00  0.00     0.035 C 
ATOM     12  C   UNL     1     135.240 135.367 162.097  1.00  0.00     0.039 C 
ENDROOT
BRANCH   5  13
ATOM     13  C   UNL     1     136.496 137.818 166.382  1.00  0.00    -0.014 C 
ATOM     14  C   UNL     1     137.510 136.940 167.130  1.00  0.00     0.007 C 
ATOM     15  C   UNL     1     135.681 138.649 167.387  1.00  0.00     0.007 C 
ENDBRANCH   5  13
TORSDOF 1
ENDMDL
