MODEL 1
REMARK VINA RESULT:    -7.704      0.000      0.000
REMARK INTER + INTRA:         -12.817
REMARK INTER:                 -11.307
REMARK INTRA:                  -1.511
REMARK UNBOUND:                -1.511
REMARK SMILES O=c1c(O[C@H]2O[C@@H](CO)[C@@H](O)[C@@H](O)[C@@H]2O)c(-c2ccc(O)c(O)c2)oc2cc(O)cc(O)c12
REMARK SMILES IDX 4 1 3 2 16 3 25 4 2 5 26 6 1 7 33 8 27 9 31 10 28 11 30 12
REMARK SMILES IDX 17 13 18 14 19 15 20 16 24 17 22 18 21 19 23 21 32 23 29 25
REMARK SMILES IDX 5 27 14 28 6 29 12 30 7 31 10 32 15 33 13 35 8 37 9 38 11 40
REMARK H PARENT 21 20 23 22 32 24 29 26 15 34 13 36 9 39 11 41
REMARK Flexibility Score: inf
ROOT
ATOM      1  O   UNL     1     -16.177  -7.135  44.239  1.00  0.00    -0.454 OA
ENDROOT
BRANCH   1   2
ATOM      2  C   UNL     1     -15.872  -6.500  42.974  1.00  0.00     0.214 A 
ATOM      3  C   UNL     1     -14.621  -5.833  42.733  1.00  0.00     0.180 A 
ATOM      4  O   UNL     1     -14.335  -5.300  41.563  1.00  0.00    -0.452 OA
ATOM      5  C   UNL     1     -16.751  -6.582  41.847  1.00  0.00     0.239 A 
ATOM      6  C   UNL     1     -15.060  -5.488  40.470  1.00  0.00     0.146 A 
ATOM      7  O   UNL     1     -17.924  -7.002  41.982  1.00  0.00    -0.285 OA
ATOM      8  C   UNL     1     -16.290  -6.176  40.541  1.00  0.00     0.111 A 
ATOM      9  C   UNL     1     -14.469  -5.206  39.236  1.00  0.00     0.094 A 
ATOM     10  C   UNL     1     -16.903  -6.627  39.334  1.00  0.00     0.134 A 
ATOM     11  C   UNL     1     -14.963  -5.862  38.093  1.00  0.00     0.123 A 
ATOM     12  C   UNL     1     -16.222  -6.456  38.113  1.00  0.00     0.093 A 
BRANCH   3  13
ATOM     13  C   UNL     1     -13.500  -5.969  43.721  1.00  0.00     0.025 A 
ATOM     14  C   UNL     1     -13.655  -5.273  44.937  1.00  0.00     0.016 A 
ATOM     15  C   UNL     1     -12.925  -5.619  46.039  1.00  0.00     0.051 A 
ATOM     16  C   UNL     1     -11.872  -6.543  45.903  1.00  0.00     0.157 A 
ATOM     17  C   UNL     1     -12.610  -7.070  43.701  1.00  0.00     0.062 A 
ATOM     18  C   UNL     1     -11.660  -7.194  44.695  1.00  0.00     0.158 A 
BRANCH  16  19
ATOM     19  O   UNL     1     -11.049  -6.849  46.980  1.00  0.00    -0.504 OA
ATOM     20  H   UNL     1     -10.835  -7.826  47.135  1.00  0.00     0.293 HD
ENDBRANCH  16  19
BRANCH  18  21
ATOM     21  O   UNL     1     -10.452  -7.852  44.411  1.00  0.00    -0.504 OA
ATOM     22  H   UNL     1     -10.335  -8.291  43.498  1.00  0.00     0.293 HD
ENDBRANCH  18  21
ENDBRANCH   3  13
BRANCH  10  23
ATOM     23  O   UNL     1     -18.123  -7.310  39.329  1.00  0.00    -0.507 OA
ATOM     24  H   UNL     1     -18.337  -7.964  38.587  1.00  0.00     0.293 HD
ENDBRANCH  10  23
BRANCH  11  25
ATOM     25  O   UNL     1     -14.218  -5.925  36.914  1.00  0.00    -0.508 OA
ATOM     26  H   UNL     1     -14.641  -6.164  36.025  1.00  0.00     0.293 HD
ENDBRANCH  11  25
ENDBRANCH   1   2
BRANCH   1  27
ATOM     27  C   UNL     1     -15.891  -8.504  44.612  1.00  0.00     0.339 C 
ATOM     28  C   UNL     1     -17.249  -9.171  44.967  1.00  0.00     0.214 C 
ATOM     29  O   UNL     1     -14.937  -8.534  45.713  1.00  0.00    -0.332 OA
ATOM     30  C   UNL     1     -17.370  -9.281  46.503  1.00  0.00     0.180 C 
ATOM     31  C   UNL     1     -14.873  -9.848  46.316  1.00  0.00     0.179 C 
ATOM     32  C   UNL     1     -16.256 -10.227  46.985  1.00  0.00     0.177 C 
BRANCH  28  33
ATOM     33  O   UNL     1     -17.335 -10.463  44.369  1.00  0.00    -0.384 OA
ATOM     34  H   UNL     1     -17.198 -10.342  43.385  1.00  0.00     0.211 HD
ENDBRANCH  28  33
BRANCH  30  35
ATOM     35  O   UNL     1     -17.258  -7.995  47.081  1.00  0.00    -0.387 OA
ATOM     36  H   UNL     1     -18.208  -7.655  47.204  1.00  0.00     0.211 HD
ENDBRANCH  30  35
BRANCH  31  37
ATOM     37  C   UNL     1     -13.714 -10.071  47.323  1.00  0.00     0.191 C 
BRANCH  37  38
ATOM     38  O   UNL     1     -13.691 -11.396  47.837  1.00  0.00    -0.394 OA
ATOM     39  H   UNL     1     -14.565 -11.540  48.312  1.00  0.00     0.210 HD
ENDBRANCH  37  38
ENDBRANCH  31  37
BRANCH  32  40
ATOM     40  O   UNL     1     -16.202 -10.228  48.413  1.00  0.00    -0.387 OA
ATOM     41  H   UNL     1     -15.550  -9.514  48.700  1.00  0.00     0.211 HD
ENDBRANCH  32  40
ENDBRANCH   1  27
TORSDOF 12
ENDMDL
MODEL 2
REMARK VINA RESULT:    -7.153      3.507      6.582
REMARK INTER + INTRA:         -12.008
REMARK INTER:                 -10.471
REMARK INTRA:                  -1.537
REMARK UNBOUND:                -1.511
REMARK SMILES O=c1c(O[C@H]2O[C@@H](CO)[C@@H](O)[C@@H](O)[C@@H]2O)c(-c2ccc(O)c(O)c2)oc2cc(O)cc(O)c12
REMARK SMILES IDX 4 1 3 2 16 3 25 4 2 5 26 6 1 7 33 8 27 9 31 10 28 11 30 12
REMARK SMILES IDX 17 13 18 14 19 15 20 16 24 17 22 18 21 19 23 21 32 23 29 25
REMARK SMILES IDX 5 27 14 28 6 29 12 30 7 31 10 32 15 33 13 35 8 37 9 38 11 40
REMARK H PARENT 21 20 23 22 32 24 29 26 15 34 13 36 9 39 11 41
REMARK Flexibility Score: inf
ROOT
ATOM      1  O   UNL     1     -14.711  -6.104  46.853  1.00  0.00    -0.454 OA
ENDROOT
BRANCH   1   2
ATOM      2  C   UNL     1     -13.421  -5.664  47.340  1.00  0.00     0.214 A 
ATOM      3  C   UNL     1     -12.657  -6.429  48.290  1.00  0.00     0.180 A 
ATOM      4  O   UNL     1     -11.463  -6.042  48.690  1.00  0.00    -0.452 OA
ATOM      5  C   UNL     1     -12.772  -4.494  46.832  1.00  0.00     0.239 A 
ATOM      6  C   UNL     1     -10.783  -5.052  48.132  1.00  0.00     0.146 A 
ATOM      7  O   UNL     1     -13.399  -3.674  46.120  1.00  0.00    -0.285 OA
ATOM      8  C   UNL     1     -11.384  -4.246  47.140  1.00  0.00     0.111 A 
ATOM      9  C   UNL     1      -9.408  -4.985  48.371  1.00  0.00     0.094 A 
ATOM     10  C   UNL     1     -10.559  -3.393  46.347  1.00  0.00     0.134 A 
ATOM     11  C   UNL     1      -8.597  -4.327  47.429  1.00  0.00     0.123 A 
ATOM     12  C   UNL     1      -9.161  -3.446  46.510  1.00  0.00     0.093 A 
BRANCH   3  13
ATOM     13  C   UNL     1     -13.084  -7.825  48.639  1.00  0.00     0.025 A 
ATOM     14  C   UNL     1     -14.202  -7.939  49.491  1.00  0.00     0.016 A 
ATOM     15  C   UNL     1     -14.911  -9.104  49.561  1.00  0.00     0.051 A 
ATOM     16  C   UNL     1     -14.402 -10.257  48.933  1.00  0.00     0.157 A 
ATOM     17  C   UNL     1     -12.761  -8.935  47.823  1.00  0.00     0.062 A 
ATOM     18  C   UNL     1     -13.263 -10.180  48.141  1.00  0.00     0.158 A 
BRANCH  16  19
ATOM     19  O   UNL     1     -15.046 -11.481  49.061  1.00  0.00    -0.504 OA
ATOM     20  H   UNL     1     -14.825 -12.193  48.376  1.00  0.00     0.293 HD
ENDBRANCH  16  19
BRANCH  18  21
ATOM     21  O   UNL     1     -12.538 -11.326  47.776  1.00  0.00    -0.504 OA
ATOM     22  H   UNL     1     -12.490 -12.107  48.430  1.00  0.00     0.293 HD
ENDBRANCH  18  21
ENDBRANCH   3  13
BRANCH  10  23
ATOM     23  O   UNL     1     -11.086  -2.564  45.352  1.00  0.00    -0.507 OA
ATOM     24  H   UNL     1     -11.618  -2.961  44.588  1.00  0.00     0.293 HD
ENDBRANCH  10  23
BRANCH  11  25
ATOM     25  O   UNL     1      -7.216  -4.527  47.395  1.00  0.00    -0.508 OA
ATOM     26  H   UNL     1      -6.565  -3.823  47.724  1.00  0.00     0.293 HD
ENDBRANCH  11  25
ENDBRANCH   1   2
BRANCH   1  27
ATOM     27  C   UNL     1     -14.974  -6.820  45.624  1.00  0.00     0.339 C 
ATOM     28  C   UNL     1     -16.266  -6.210  45.011  1.00  0.00     0.214 C 
ATOM     29  O   UNL     1     -15.091  -8.249  45.890  1.00  0.00    -0.332 OA
ATOM     30  C   UNL     1     -17.447  -7.173  45.264  1.00  0.00     0.180 C 
ATOM     31  C   UNL     1     -15.662  -8.948  44.760  1.00  0.00     0.179 C 
ATOM     32  C   UNL     1     -17.150  -8.475  44.501  1.00  0.00     0.177 C 
BRANCH  28  33
ATOM     33  O   UNL     1     -16.093  -5.994  43.612  1.00  0.00    -0.384 OA
ATOM     34  H   UNL     1     -15.362  -5.320  43.506  1.00  0.00     0.211 HD
ENDBRANCH  28  33
BRANCH  30  35
ATOM     35  O   UNL     1     -17.588  -7.395  46.654  1.00  0.00    -0.387 OA
ATOM     36  H   UNL     1     -18.103  -6.598  47.018  1.00  0.00     0.211 HD
ENDBRANCH  30  35
BRANCH  31  37
ATOM     37  C   UNL     1     -15.598 -10.497  44.824  1.00  0.00     0.191 C 
BRANCH  37  38
ATOM     38  O   UNL     1     -15.939 -11.000  46.109  1.00  0.00    -0.394 OA
ATOM     39  H   UNL     1     -16.112 -10.204  46.698  1.00  0.00     0.210 HD
ENDBRANCH  37  38
ENDBRANCH  31  37
BRANCH  32  40
ATOM     40  O   UNL     1     -18.118  -9.471  44.841  1.00  0.00    -0.387 OA
ATOM     41  H   UNL     1     -17.727 -10.047  45.570  1.00  0.00     0.211 HD
ENDBRANCH  32  40
ENDBRANCH   1  27
TORSDOF 12
ENDMDL
MODEL 3
REMARK VINA RESULT:    -7.018      3.062      6.251
REMARK INTER + INTRA:         -11.810
REMARK INTER:                 -10.299
REMARK INTRA:                  -1.511
REMARK UNBOUND:                -1.511
REMARK SMILES O=c1c(O[C@H]2O[C@@H](CO)[C@@H](O)[C@@H](O)[C@@H]2O)c(-c2ccc(O)c(O)c2)oc2cc(O)cc(O)c12
REMARK SMILES IDX 4 1 3 2 16 3 25 4 2 5 26 6 1 7 33 8 27 9 31 10 28 11 30 12
REMARK SMILES IDX 17 13 18 14 19 15 20 16 24 17 22 18 21 19 23 21 32 23 29 25
REMARK SMILES IDX 5 27 14 28 6 29 12 30 7 31 10 32 15 33 13 35 8 37 9 38 11 40
REMARK H PARENT 21 20 23 22 32 24 29 26 15 34 13 36 9 39 11 41
REMARK Flexibility Score: inf
ROOT
ATOM      1  O   UNL     1     -13.973  -8.545  47.001  1.00  0.00    -0.454 OA
ENDROOT
BRANCH   1   2
ATOM      2  C   UNL     1     -12.819  -7.969  46.346  1.00  0.00     0.214 A 
ATOM      3  C   UNL     1     -12.487  -6.574  46.460  1.00  0.00     0.180 A 
ATOM      4  O   UNL     1     -11.407  -6.070  45.898  1.00  0.00    -0.452 OA
ATOM      5  C   UNL     1     -11.874  -8.767  45.625  1.00  0.00     0.239 A 
ATOM      6  C   UNL     1     -10.448  -6.805  45.356  1.00  0.00     0.146 A 
ATOM      7  O   UNL     1     -12.135  -9.957  45.332  1.00  0.00    -0.285 OA
ATOM      8  C   UNL     1     -10.607  -8.202  45.225  1.00  0.00     0.111 A 
ATOM      9  C   UNL     1      -9.203  -6.205  45.146  1.00  0.00     0.094 A 
ATOM     10  C   UNL     1      -9.467  -9.004  44.923  1.00  0.00     0.134 A 
ATOM     11  C   UNL     1      -8.065  -7.030  45.088  1.00  0.00     0.123 A 
ATOM     12  C   UNL     1      -8.199  -8.396  44.854  1.00  0.00     0.093 A 
BRANCH   3  13
ATOM     13  C   UNL     1     -13.214  -5.713  47.452  1.00  0.00     0.025 A 
ATOM     14  C   UNL     1     -12.652  -5.643  48.744  1.00  0.00     0.016 A 
ATOM     15  C   UNL     1     -12.974  -4.621  49.591  1.00  0.00     0.051 A 
ATOM     16  C   UNL     1     -14.022  -3.747  49.247  1.00  0.00     0.157 A 
ATOM     17  C   UNL     1     -14.071  -4.662  47.048  1.00  0.00     0.062 A 
ATOM     18  C   UNL     1     -14.634  -3.840  48.003  1.00  0.00     0.158 A 
BRANCH  16  19
ATOM     19  O   UNL     1     -14.440  -2.755  50.125  1.00  0.00    -0.504 OA
ATOM     20  H   UNL     1     -15.402  -2.791  50.440  1.00  0.00     0.293 HD
ENDBRANCH  16  19
BRANCH  18  21
ATOM     21  O   UNL     1     -15.875  -3.235  47.742  1.00  0.00    -0.504 OA
ATOM     22  H   UNL     1     -15.967  -2.228  47.870  1.00  0.00     0.293 HD
ENDBRANCH  18  21
ENDBRANCH   3  13
BRANCH  10  23
ATOM     23  O   UNL     1      -9.552 -10.392  44.774  1.00  0.00    -0.507 OA
ATOM     24  H   UNL     1      -9.684 -10.983  45.585  1.00  0.00     0.293 HD
ENDBRANCH  10  23
BRANCH  11  25
ATOM     25  O   UNL     1      -6.782  -6.506  45.250  1.00  0.00    -0.508 OA
ATOM     26  H   UNL     1      -6.007  -7.076  45.572  1.00  0.00     0.293 HD
ENDBRANCH  11  25
ENDBRANCH   1   2
BRANCH   1  27
ATOM     27  C   UNL     1     -15.361  -8.347  46.642  1.00  0.00     0.339 C 
ATOM     28  C   UNL     1     -16.098  -9.688  46.920  1.00  0.00     0.214 C 
ATOM     29  O   UNL     1     -15.463  -7.920  45.252  1.00  0.00    -0.332 OA
ATOM     30  C   UNL     1     -16.350 -10.412  45.580  1.00  0.00     0.180 C 
ATOM     31  C   UNL     1     -16.824  -8.022  44.771  1.00  0.00     0.179 C 
ATOM     32  C   UNL     1     -17.303  -9.530  44.753  1.00  0.00     0.177 C 
BRANCH  28  33
ATOM     33  O   UNL     1     -17.332  -9.442  47.592  1.00  0.00    -0.384 OA
ATOM     34  H   UNL     1     -17.921 -10.233  47.426  1.00  0.00     0.211 HD
ENDBRANCH  28  33
BRANCH  30  35
ATOM     35  O   UNL     1     -15.119 -10.625  44.917  1.00  0.00    -0.387 OA
ATOM     36  H   UNL     1     -14.396 -10.543  45.626  1.00  0.00     0.211 HD
ENDBRANCH  30  35
BRANCH  31  37
ATOM     37  C   UNL     1     -17.104  -7.357  43.397  1.00  0.00     0.191 C 
BRANCH  37  38
ATOM     38  O   UNL     1     -17.811  -6.130  43.523  1.00  0.00    -0.394 OA
ATOM     39  H   UNL     1     -18.646  -6.327  44.047  1.00  0.00     0.210 HD
ENDBRANCH  37  38
ENDBRANCH  31  37
BRANCH  32  40
ATOM     40  O   UNL     1     -17.432 -10.057  43.431  1.00  0.00    -0.387 OA
ATOM     41  H   UNL     1     -18.226 -10.679  43.421  1.00  0.00     0.211 HD
ENDBRANCH  32  40
ENDBRANCH   1  27
TORSDOF 12
ENDMDL
MODEL 4
REMARK VINA RESULT:    -6.950      4.196      7.191
REMARK INTER + INTRA:         -11.712
REMARK INTER:                 -10.100
REMARK INTRA:                  -1.612
REMARK UNBOUND:                -1.511
REMARK SMILES O=c1c(O[C@H]2O[C@@H](CO)[C@@H](O)[C@@H](O)[C@@H]2O)c(-c2ccc(O)c(O)c2)oc2cc(O)cc(O)c12
REMARK SMILES IDX 4 1 3 2 16 3 25 4 2 5 26 6 1 7 33 8 27 9 31 10 28 11 30 12
REMARK SMILES IDX 17 13 18 14 19 15 20 16 24 17 22 18 21 19 23 21 32 23 29 25
REMARK SMILES IDX 5 27 14 28 6 29 12 30 7 31 10 32 15 33 13 35 8 37 9 38 11 40
REMARK H PARENT 21 20 23 22 32 24 29 26 15 34 13 36 9 39 11 41
REMARK Flexibility Score: inf
ROOT
ATOM      1  O   UNL     1     -12.824  -5.287  45.711  1.00  0.00    -0.454 OA
ENDROOT
BRANCH   1   2
ATOM      2  C   UNL     1     -12.925  -6.707  45.969  1.00  0.00     0.214 A 
ATOM      3  C   UNL     1     -11.797  -7.493  46.394  1.00  0.00     0.180 A 
ATOM      4  O   UNL     1     -11.912  -8.776  46.671  1.00  0.00    -0.452 OA
ATOM      5  C   UNL     1     -14.174  -7.405  45.919  1.00  0.00     0.239 A 
ATOM      6  C   UNL     1     -13.072  -9.407  46.775  1.00  0.00     0.146 A 
ATOM      7  O   UNL     1     -15.188  -6.864  45.418  1.00  0.00    -0.285 OA
ATOM      8  C   UNL     1     -14.275  -8.745  46.445  1.00  0.00     0.111 A 
ATOM      9  C   UNL     1     -13.091 -10.636  47.438  1.00  0.00     0.094 A 
ATOM     10  C   UNL     1     -15.516  -9.326  46.842  1.00  0.00     0.134 A 
ATOM     11  C   UNL     1     -14.298 -11.062  48.022  1.00  0.00     0.123 A 
ATOM     12  C   UNL     1     -15.507 -10.493  47.630  1.00  0.00     0.093 A 
BRANCH   3  13
ATOM     13  C   UNL     1     -10.522  -6.811  46.796  1.00  0.00     0.025 A 
ATOM     14  C   UNL     1      -9.780  -6.215  45.756  1.00  0.00     0.016 A 
ATOM     15  C   UNL     1      -8.846  -5.256  46.025  1.00  0.00     0.051 A 
ATOM     16  C   UNL     1      -8.482  -5.007  47.362  1.00  0.00     0.157 A 
ATOM     17  C   UNL     1     -10.306  -6.340  48.113  1.00  0.00     0.062 A 
ATOM     18  C   UNL     1      -9.157  -5.633  48.402  1.00  0.00     0.158 A 
BRANCH  16  19
ATOM     19  O   UNL     1      -7.469  -4.107  47.668  1.00  0.00    -0.504 OA
ATOM     20  H   UNL     1      -7.175  -4.054  48.636  1.00  0.00     0.293 HD
ENDBRANCH  16  19
BRANCH  18  21
ATOM     21  O   UNL     1      -8.630  -5.681  49.703  1.00  0.00    -0.504 OA
ATOM     22  H   UNL     1      -8.046  -4.910  50.025  1.00  0.00     0.293 HD
ENDBRANCH  18  21
ENDBRANCH   3  13
BRANCH  10  23
ATOM     23  O   UNL     1     -16.745  -8.730  46.544  1.00  0.00    -0.507 OA
ATOM     24  H   UNL     1     -17.607  -9.241  46.687  1.00  0.00     0.293 HD
ENDBRANCH  10  23
BRANCH  11  25
ATOM     25  O   UNL     1     -14.320 -12.065  48.992  1.00  0.00    -0.508 OA
ATOM     26  H   UNL     1     -15.182 -12.365  49.433  1.00  0.00     0.293 HD
ENDBRANCH  11  25
ENDBRANCH   1   2
BRANCH   1  27
ATOM     27  C   UNL     1     -12.861  -4.224  46.693  1.00  0.00     0.339 C 
ATOM     28  C   UNL     1     -13.773  -4.710  47.854  1.00  0.00     0.214 C 
ATOM     29  O   UNL     1     -13.334  -2.990  46.077  1.00  0.00    -0.332 OA
ATOM     30  C   UNL     1     -15.145  -4.010  47.746  1.00  0.00     0.180 C 
ATOM     31  C   UNL     1     -13.686  -2.006  47.078  1.00  0.00     0.179 C 
ATOM     32  C   UNL     1     -14.909  -2.503  47.950  1.00  0.00     0.177 C 
BRANCH  28  33
ATOM     33  O   UNL     1     -13.165  -4.419  49.112  1.00  0.00    -0.384 OA
ATOM     34  H   UNL     1     -12.297  -4.916  49.142  1.00  0.00     0.211 HD
ENDBRANCH  28  33
BRANCH  30  35
ATOM     35  O   UNL     1     -15.721  -4.289  46.484  1.00  0.00    -0.387 OA
ATOM     36  H   UNL     1     -16.484  -4.936  46.658  1.00  0.00     0.211 HD
ENDBRANCH  30  35
BRANCH  31  37
ATOM     37  C   UNL     1     -13.955  -0.573  46.548  1.00  0.00     0.191 C 
BRANCH  37  38
ATOM     38  O   UNL     1     -14.690  -0.575  45.332  1.00  0.00    -0.394 OA
ATOM     39  H   UNL     1     -15.577  -1.007  45.527  1.00  0.00     0.210 HD
ENDBRANCH  37  38
ENDBRANCH  31  37
BRANCH  32  40
ATOM     40  O   UNL     1     -16.113  -1.781  47.682  1.00  0.00    -0.387 OA
ATOM     41  H   UNL     1     -16.497  -2.128  46.817  1.00  0.00     0.211 HD
ENDBRANCH  32  40
ENDBRANCH   1  27
TORSDOF 12
ENDMDL
MODEL 5
REMARK VINA RESULT:    -6.931      2.413      5.213
REMARK INTER + INTRA:         -11.683
REMARK INTER:                 -10.071
REMARK INTRA:                  -1.611
REMARK UNBOUND:                -1.511
REMARK SMILES O=c1c(O[C@H]2O[C@@H](CO)[C@@H](O)[C@@H](O)[C@@H]2O)c(-c2ccc(O)c(O)c2)oc2cc(O)cc(O)c12
REMARK SMILES IDX 4 1 3 2 16 3 25 4 2 5 26 6 1 7 33 8 27 9 31 10 28 11 30 12
REMARK SMILES IDX 17 13 18 14 19 15 20 16 24 17 22 18 21 19 23 21 32 23 29 25
REMARK SMILES IDX 5 27 14 28 6 29 12 30 7 31 10 32 15 33 13 35 8 37 9 38 11 40
REMARK H PARENT 21 20 23 22 32 24 29 26 15 34 13 36 9 39 11 41
REMARK Flexibility Score: inf
ROOT
ATOM      1  O   UNL     1     -15.718  -7.318  44.654  1.00  0.00    -0.454 OA
ENDROOT
BRANCH   1   2
ATOM      2  C   UNL     1     -14.850  -6.232  45.057  1.00  0.00     0.214 A 
ATOM      3  C   UNL     1     -13.793  -5.742  44.214  1.00  0.00     0.180 A 
ATOM      4  O   UNL     1     -13.039  -4.722  44.570  1.00  0.00    -0.452 OA
ATOM      5  C   UNL     1     -15.050  -5.506  46.274  1.00  0.00     0.239 A 
ATOM      6  C   UNL     1     -13.294  -3.946  45.613  1.00  0.00     0.146 A 
ATOM      7  O   UNL     1     -15.837  -5.935  47.151  1.00  0.00    -0.285 OA
ATOM      8  C   UNL     1     -14.342  -4.270  46.503  1.00  0.00     0.111 A 
ATOM      9  C   UNL     1     -12.671  -2.697  45.668  1.00  0.00     0.094 A 
ATOM     10  C   UNL     1     -14.792  -3.284  47.431  1.00  0.00     0.134 A 
ATOM     11  C   UNL     1     -13.284  -1.676  46.416  1.00  0.00     0.123 A 
ATOM     12  C   UNL     1     -14.245  -1.988  47.374  1.00  0.00     0.093 A 
BRANCH   3  13
ATOM     13  C   UNL     1     -13.701  -6.203  42.788  1.00  0.00     0.025 A 
ATOM     14  C   UNL     1     -14.719  -5.754  41.922  1.00  0.00     0.016 A 
ATOM     15  C   UNL     1     -14.542  -5.769  40.568  1.00  0.00     0.051 A 
ATOM     16  C   UNL     1     -13.417  -6.422  40.030  1.00  0.00     0.157 A 
ATOM     17  C   UNL     1     -12.476  -6.612  42.209  1.00  0.00     0.062 A 
ATOM     18  C   UNL     1     -12.432  -6.930  40.867  1.00  0.00     0.158 A 
BRANCH  16  19
ATOM     19  O   UNL     1     -13.252  -6.540  38.655  1.00  0.00    -0.504 OA
ATOM     20  H   UNL     1     -13.573  -7.398  38.223  1.00  0.00     0.293 HD
ENDBRANCH  16  19
BRANCH  18  21
ATOM     21  O   UNL     1     -11.484  -7.863  40.414  1.00  0.00    -0.504 OA
ATOM     22  H   UNL     1     -11.624  -8.304  39.505  1.00  0.00     0.293 HD
ENDBRANCH  18  21
ENDBRANCH   3  13
BRANCH  10  23
ATOM     23  O   UNL     1     -15.820  -3.537  48.345  1.00  0.00    -0.507 OA
ATOM     24  H   UNL     1     -16.705  -3.053  48.261  1.00  0.00     0.293 HD
ENDBRANCH  10  23
BRANCH  11  25
ATOM     25  O   UNL     1     -12.942  -0.335  46.230  1.00  0.00    -0.508 OA
ATOM     26  H   UNL     1     -13.645   0.388  46.130  1.00  0.00     0.293 HD
ENDBRANCH  11  25
ENDBRANCH   1   2
BRANCH   1  27
ATOM     27  C   UNL     1     -15.485  -8.732  44.852  1.00  0.00     0.339 C 
ATOM     28  C   UNL     1     -16.861  -9.380  45.174  1.00  0.00     0.214 C 
ATOM     29  O   UNL     1     -14.500  -8.935  45.908  1.00  0.00    -0.332 OA
ATOM     30  C   UNL     1     -16.941  -9.669  46.688  1.00  0.00     0.180 C 
ATOM     31  C   UNL     1     -14.479 -10.313  46.348  1.00  0.00     0.179 C 
ATOM     32  C   UNL     1     -15.857 -10.711  47.016  1.00  0.00     0.177 C 
BRANCH  28  33
ATOM     33  O   UNL     1     -17.024 -10.585  44.429  1.00  0.00    -0.384 OA
ATOM     34  H   UNL     1     -17.784 -11.087  44.842  1.00  0.00     0.211 HD
ENDBRANCH  28  33
BRANCH  30  35
ATOM     35  O   UNL     1     -16.752  -8.467  47.411  1.00  0.00    -0.387 OA
ATOM     36  H   UNL     1     -16.166  -8.702  48.206  1.00  0.00     0.211 HD
ENDBRANCH  30  35
BRANCH  31  37
ATOM     37  C   UNL     1     -13.302 -10.705  47.280  1.00  0.00     0.191 C 
BRANCH  37  38
ATOM     38  O   UNL     1     -13.392 -12.050  47.729  1.00  0.00    -0.394 OA
ATOM     39  H   UNL     1     -14.330 -12.184  48.064  1.00  0.00     0.210 HD
ENDBRANCH  37  38
ENDBRANCH  31  37
BRANCH  32  40
ATOM     40  O   UNL     1     -15.761 -10.886  48.431  1.00  0.00    -0.387 OA
ATOM     41  H   UNL     1     -15.369 -11.799  48.604  1.00  0.00     0.211 HD
ENDBRANCH  32  40
ENDBRANCH   1  27
TORSDOF 12
ENDMDL
MODEL 6
REMARK VINA RESULT:    -6.929      3.488      6.437
REMARK INTER + INTRA:         -11.680
REMARK INTER:                 -10.042
REMARK INTRA:                  -1.638
REMARK UNBOUND:                -1.511
REMARK SMILES O=c1c(O[C@H]2O[C@@H](CO)[C@@H](O)[C@@H](O)[C@@H]2O)c(-c2ccc(O)c(O)c2)oc2cc(O)cc(O)c12
REMARK SMILES IDX 4 1 3 2 16 3 25 4 2 5 26 6 1 7 33 8 27 9 31 10 28 11 30 12
REMARK SMILES IDX 17 13 18 14 19 15 20 16 24 17 22 18 21 19 23 21 32 23 29 25
REMARK SMILES IDX 5 27 14 28 6 29 12 30 7 31 10 32 15 33 13 35 8 37 9 38 11 40
REMARK H PARENT 21 20 23 22 32 24 29 26 15 34 13 36 9 39 11 41
REMARK Flexibility Score: inf
ROOT
ATOM      1  O   UNL     1     -13.928  -7.854  45.252  1.00  0.00    -0.454 OA
ENDROOT
BRANCH   1   2
ATOM      2  C   UNL     1     -12.769  -7.583  46.075  1.00  0.00     0.214 A 
ATOM      3  C   UNL     1     -11.448  -8.023  45.710  1.00  0.00     0.180 A 
ATOM      4  O   UNL     1     -10.393  -7.730  46.442  1.00  0.00    -0.452 OA
ATOM      5  C   UNL     1     -12.841  -6.773  47.252  1.00  0.00     0.239 A 
ATOM      6  C   UNL     1     -10.410  -6.866  47.446  1.00  0.00     0.146 A 
ATOM      7  O   UNL     1     -13.951  -6.464  47.747  1.00  0.00    -0.285 OA
ATOM      8  C   UNL     1     -11.630  -6.305  47.883  1.00  0.00     0.111 A 
ATOM      9  C   UNL     1      -9.188  -6.353  47.889  1.00  0.00     0.094 A 
ATOM     10  C   UNL     1     -11.600  -5.170  48.748  1.00  0.00     0.134 A 
ATOM     11  C   UNL     1      -9.184  -5.104  48.537  1.00  0.00     0.123 A 
ATOM     12  C   UNL     1     -10.361  -4.584  49.068  1.00  0.00     0.093 A 
BRANCH   3  13
ATOM     13  C   UNL     1     -11.202  -8.591  44.342  1.00  0.00     0.025 A 
ATOM     14  C   UNL     1     -11.387  -7.706  43.259  1.00  0.00     0.016 A 
ATOM     15  C   UNL     1     -10.831  -7.970  42.040  1.00  0.00     0.051 A 
ATOM     16  C   UNL     1     -10.241  -9.226  41.811  1.00  0.00     0.157 A 
ATOM     17  C   UNL     1     -10.377  -9.722  44.136  1.00  0.00     0.062 A 
ATOM     18  C   UNL     1     -10.107 -10.139  42.849  1.00  0.00     0.158 A 
BRANCH  16  19
ATOM     19  O   UNL     1      -9.749  -9.565  40.556  1.00  0.00    -0.504 OA
ATOM     20  H   UNL     1      -8.790  -9.311  40.351  1.00  0.00     0.293 HD
ENDBRANCH  16  19
BRANCH  18  21
ATOM     21  O   UNL     1      -9.842 -11.498  42.610  1.00  0.00    -0.504 OA
ATOM     22  H   UNL     1     -10.047 -11.884  41.689  1.00  0.00     0.293 HD
ENDBRANCH  18  21
ENDBRANCH   3  13
BRANCH  10  23
ATOM     23  O   UNL     1     -12.769  -4.567  49.224  1.00  0.00    -0.507 OA
ATOM     24  H   UNL     1     -13.341  -5.039  49.912  1.00  0.00     0.293 HD
ENDBRANCH  10  23
BRANCH  11  25
ATOM     25  O   UNL     1      -8.008  -4.364  48.677  1.00  0.00    -0.508 OA
ATOM     26  H   UNL     1      -7.808  -3.561  48.091  1.00  0.00     0.293 HD
ENDBRANCH  11  25
ENDBRANCH   1   2
BRANCH   1  27
ATOM     27  C   UNL     1     -14.721  -9.065  45.245  1.00  0.00     0.339 C 
ATOM     28  C   UNL     1     -16.210  -8.631  45.129  1.00  0.00     0.214 C 
ATOM     29  O   UNL     1     -14.449  -9.849  46.443  1.00  0.00    -0.332 OA
ATOM     30  C   UNL     1     -16.883  -8.767  46.512  1.00  0.00     0.180 C 
ATOM     31  C   UNL     1     -15.440 -10.887  46.627  1.00  0.00     0.179 C 
ATOM     32  C   UNL     1     -16.869 -10.260  46.886  1.00  0.00     0.177 C 
BRANCH  28  33
ATOM     33  O   UNL     1     -16.884  -9.440  44.167  1.00  0.00    -0.384 OA
ATOM     34  H   UNL     1     -17.437 -10.102  44.673  1.00  0.00     0.211 HD
ENDBRANCH  28  33
BRANCH  30  35
ATOM     35  O   UNL     1     -16.187  -7.979  47.458  1.00  0.00    -0.387 OA
ATOM     36  H   UNL     1     -15.257  -8.382  47.534  1.00  0.00     0.211 HD
ENDBRANCH  30  35
BRANCH  31  37
ATOM     37  C   UNL     1     -15.115 -11.943  47.715  1.00  0.00     0.191 C 
BRANCH  37  38
ATOM     38  O   UNL     1     -14.438 -11.380  48.831  1.00  0.00    -0.394 OA
ATOM     39  H   UNL     1     -13.546 -11.057  48.498  1.00  0.00     0.210 HD
ENDBRANCH  37  38
ENDBRANCH  31  37
BRANCH  32  40
ATOM     40  O   UNL     1     -17.316 -10.430  48.233  1.00  0.00    -0.387 OA
ATOM     41  H   UNL     1     -16.593 -10.916  48.740  1.00  0.00     0.211 HD
ENDBRANCH  32  40
ENDBRANCH   1  27
TORSDOF 12
ENDMDL
MODEL 7
REMARK VINA RESULT:    -6.897      4.335      7.341
REMARK INTER + INTRA:         -11.633
REMARK INTER:                  -9.980
REMARK INTRA:                  -1.653
REMARK UNBOUND:                -1.511
REMARK SMILES O=c1c(O[C@H]2O[C@@H](CO)[C@@H](O)[C@@H](O)[C@@H]2O)c(-c2ccc(O)c(O)c2)oc2cc(O)cc(O)c12
REMARK SMILES IDX 4 1 3 2 16 3 25 4 2 5 26 6 1 7 33 8 27 9 31 10 28 11 30 12
REMARK SMILES IDX 17 13 18 14 19 15 20 16 24 17 22 18 21 19 23 21 32 23 29 25
REMARK SMILES IDX 5 27 14 28 6 29 12 30 7 31 10 32 15 33 13 35 8 37 9 38 11 40
REMARK H PARENT 21 20 23 22 32 24 29 26 15 34 13 36 9 39 11 41
REMARK Flexibility Score: inf
ROOT
ATOM      1  O   UNL     1     -12.819  -7.215  49.416  1.00  0.00    -0.454 OA
ENDROOT
BRANCH   1   2
ATOM      2  C   UNL     1     -14.077  -7.550  48.784  1.00  0.00     0.214 A 
ATOM      3  C   UNL     1     -14.994  -6.544  48.318  1.00  0.00     0.180 A 
ATOM      4  O   UNL     1     -16.114  -6.860  47.702  1.00  0.00    -0.452 OA
ATOM      5  C   UNL     1     -14.447  -8.900  48.489  1.00  0.00     0.239 A 
ATOM      6  C   UNL     1     -16.408  -8.083  47.289  1.00  0.00     0.146 A 
ATOM      7  O   UNL     1     -13.805  -9.860  48.979  1.00  0.00    -0.285 OA
ATOM      8  C   UNL     1     -15.569  -9.169  47.622  1.00  0.00     0.111 A 
ATOM      9  C   UNL     1     -17.415  -8.226  46.330  1.00  0.00     0.094 A 
ATOM     10  C   UNL     1     -15.730 -10.407  46.931  1.00  0.00     0.134 A 
ATOM     11  C   UNL     1     -17.395  -9.365  45.505  1.00  0.00     0.123 A 
ATOM     12  C   UNL     1     -16.656 -10.486  45.872  1.00  0.00     0.093 A 
BRANCH   3  13
ATOM     13  C   UNL     1     -14.565  -5.106  48.276  1.00  0.00     0.025 A 
ATOM     14  C   UNL     1     -14.011  -4.657  47.059  1.00  0.00     0.016 A 
ATOM     15  C   UNL     1     -13.953  -3.325  46.767  1.00  0.00     0.051 A 
ATOM     16  C   UNL     1     -14.264  -2.387  47.769  1.00  0.00     0.157 A 
ATOM     17  C   UNL     1     -15.108  -4.134  49.150  1.00  0.00     0.062 A 
ATOM     18  C   UNL     1     -14.751  -2.810  49.000  1.00  0.00     0.158 A 
BRANCH  16  19
ATOM     19  O   UNL     1     -14.126  -1.024  47.538  1.00  0.00    -0.504 OA
ATOM     20  H   UNL     1     -13.728  -0.467  48.284  1.00  0.00     0.293 HD
ENDBRANCH  16  19
BRANCH  18  21
ATOM     21  O   UNL     1     -14.757  -1.966  50.123  1.00  0.00    -0.504 OA
ATOM     22  H   UNL     1     -13.949  -1.366  50.291  1.00  0.00     0.293 HD
ENDBRANCH  18  21
ENDBRANCH   3  13
BRANCH  10  23
ATOM     23  O   UNL     1     -14.939 -11.525  47.213  1.00  0.00    -0.507 OA
ATOM     24  H   UNL     1     -14.072 -11.673  46.713  1.00  0.00     0.293 HD
ENDBRANCH  10  23
BRANCH  11  25
ATOM     25  O   UNL     1     -18.117  -9.409  44.311  1.00  0.00    -0.508 OA
ATOM     26  H   UNL     1     -19.131  -9.393  44.298  1.00  0.00     0.293 HD
ENDBRANCH  11  25
ENDBRANCH   1   2
BRANCH   1  27
ATOM     27  C   UNL     1     -11.493  -7.457  48.888  1.00  0.00     0.339 C 
ATOM     28  C   UNL     1     -10.487  -6.770  49.853  1.00  0.00     0.214 C 
ATOM     29  O   UNL     1     -11.399  -6.960  47.521  1.00  0.00    -0.332 OA
ATOM     30  C   UNL     1      -9.984  -5.461  49.208  1.00  0.00     0.180 C 
ATOM     31  C   UNL     1     -10.023  -6.895  47.079  1.00  0.00     0.179 C 
ATOM     32  C   UNL     1      -9.208  -5.843  47.936  1.00  0.00     0.177 C 
BRANCH  28  33
ATOM     33  O   UNL     1      -9.391  -7.642  50.125  1.00  0.00    -0.384 OA
ATOM     34  H   UNL     1      -9.614  -8.530  49.721  1.00  0.00     0.211 HD
ENDBRANCH  28  33
BRANCH  30  35
ATOM     35  O   UNL     1     -11.085  -4.619  48.923  1.00  0.00    -0.387 OA
ATOM     36  H   UNL     1     -11.108  -3.921  49.661  1.00  0.00     0.211 HD
ENDBRANCH  30  35
BRANCH  31  37
ATOM     37  C   UNL     1      -9.812  -6.629  45.566  1.00  0.00     0.191 C 
BRANCH  37  38
ATOM     38  O   UNL     1     -10.485  -5.457  45.124  1.00  0.00    -0.394 OA
ATOM     39  H   UNL     1     -10.578  -5.533  44.126  1.00  0.00     0.210 HD
ENDBRANCH  37  38
ENDBRANCH  31  37
BRANCH  32  40
ATOM     40  O   UNL     1      -8.871  -4.666  47.198  1.00  0.00    -0.387 OA
ATOM     41  H   UNL     1      -8.257  -4.107  47.769  1.00  0.00     0.211 HD
ENDBRANCH  32  40
ENDBRANCH   1  27
TORSDOF 12
ENDMDL
MODEL 8
REMARK VINA RESULT:    -6.812      4.836      7.804
REMARK INTER + INTRA:         -11.508
REMARK INTER:                 -10.389
REMARK INTRA:                  -1.119
REMARK UNBOUND:                -1.511
REMARK SMILES O=c1c(O[C@H]2O[C@@H](CO)[C@@H](O)[C@@H](O)[C@@H]2O)c(-c2ccc(O)c(O)c2)oc2cc(O)cc(O)c12
REMARK SMILES IDX 4 1 3 2 16 3 25 4 2 5 26 6 1 7 33 8 27 9 31 10 28 11 30 12
REMARK SMILES IDX 17 13 18 14 19 15 20 16 24 17 22 18 21 19 23 21 32 23 29 25
REMARK SMILES IDX 5 27 14 28 6 29 12 30 7 31 10 32 15 33 13 35 8 37 9 38 11 40
REMARK H PARENT 21 20 23 22 32 24 29 26 15 34 13 36 9 39 11 41
REMARK Flexibility Score: inf
ROOT
ATOM      1  O   UNL     1     -12.358  -5.954  48.478  1.00  0.00    -0.454 OA
ENDROOT
BRANCH   1   2
ATOM      2  C   UNL     1     -13.558  -6.739  48.282  1.00  0.00     0.214 A 
ATOM      3  C   UNL     1     -14.874  -6.167  48.382  1.00  0.00     0.180 A 
ATOM      4  O   UNL     1     -15.958  -6.880  48.155  1.00  0.00    -0.452 OA
ATOM      5  C   UNL     1     -13.514  -8.111  47.875  1.00  0.00     0.239 A 
ATOM      6  C   UNL     1     -15.943  -8.100  47.638  1.00  0.00     0.146 A 
ATOM      7  O   UNL     1     -12.437  -8.751  47.904  1.00  0.00    -0.285 OA
ATOM      8  C   UNL     1     -14.718  -8.770  47.429  1.00  0.00     0.111 A 
ATOM      9  C   UNL     1     -17.131  -8.594  47.092  1.00  0.00     0.094 A 
ATOM     10  C   UNL     1     -14.698  -9.937  46.609  1.00  0.00     0.134 A 
ATOM     11  C   UNL     1     -17.047  -9.593  46.105  1.00  0.00     0.123 A 
ATOM     12  C   UNL     1     -15.880 -10.337  45.956  1.00  0.00     0.093 A 
BRANCH   3  13
ATOM     13  C   UNL     1     -15.035  -4.678  48.476  1.00  0.00     0.025 A 
ATOM     14  C   UNL     1     -14.967  -4.126  49.772  1.00  0.00     0.016 A 
ATOM     15  C   UNL     1     -14.708  -2.797  49.952  1.00  0.00     0.051 A 
ATOM     16  C   UNL     1     -14.706  -1.939  48.837  1.00  0.00     0.157 A 
ATOM     17  C   UNL     1     -14.767  -3.823  47.380  1.00  0.00     0.062 A 
ATOM     18  C   UNL     1     -14.837  -2.455  47.553  1.00  0.00     0.158 A 
BRANCH  16  19
ATOM     19  O   UNL     1     -14.539  -0.569  48.992  1.00  0.00    -0.504 OA
ATOM     20  H   UNL     1     -14.525  -0.006  48.149  1.00  0.00     0.293 HD
ENDBRANCH  16  19
BRANCH  18  21
ATOM     21  O   UNL     1     -15.173  -1.641  46.459  1.00  0.00    -0.504 OA
ATOM     22  H   UNL     1     -14.603  -0.819  46.265  1.00  0.00     0.293 HD
ENDBRANCH  18  21
ENDBRANCH   3  13
BRANCH  10  23
ATOM     23  O   UNL     1     -13.523 -10.655  46.364  1.00  0.00    -0.507 OA
ATOM     24  H   UNL     1     -13.416 -11.594  46.724  1.00  0.00     0.293 HD
ENDBRANCH  10  23
BRANCH  11  25
ATOM     25  O   UNL     1     -18.125  -9.872  45.263  1.00  0.00    -0.508 OA
ATOM     26  H   UNL     1     -18.137  -9.579  44.293  1.00  0.00     0.293 HD
ENDBRANCH  11  25
ENDBRANCH   1   2
BRANCH   1  27
ATOM     27  C   UNL     1     -11.267  -5.790  47.540  1.00  0.00     0.339 C 
ATOM     28  C   UNL     1     -10.086  -6.657  48.062  1.00  0.00     0.214 C 
ATOM     29  O   UNL     1     -10.924  -4.379  47.412  1.00  0.00    -0.332 OA
ATOM     30  C   UNL     1      -9.033  -5.734  48.713  1.00  0.00     0.180 C 
ATOM     31  C   UNL     1      -9.652  -4.207  46.744  1.00  0.00     0.179 C 
ATOM     32  C   UNL     1      -8.476  -4.820  47.607  1.00  0.00     0.177 C 
BRANCH  28  33
ATOM     33  O   UNL     1      -9.505  -7.394  46.988  1.00  0.00    -0.384 OA
ATOM     34  H   UNL     1      -9.938  -8.295  46.980  1.00  0.00     0.211 HD
ENDBRANCH  28  33
BRANCH  30  35
ATOM     35  O   UNL     1      -9.633  -4.994  49.758  1.00  0.00    -0.387 OA
ATOM     36  H   UNL     1      -9.840  -4.076  49.374  1.00  0.00     0.211 HD
ENDBRANCH  30  35
BRANCH  31  37
ATOM     37  C   UNL     1      -9.305  -2.756  46.321  1.00  0.00     0.191 C 
BRANCH  37  38
ATOM     38  O   UNL     1      -7.999  -2.651  45.769  1.00  0.00    -0.394 OA
ATOM     39  H   UNL     1      -8.049  -3.008  44.830  1.00  0.00     0.210 HD
ENDBRANCH  37  38
ENDBRANCH  31  37
BRANCH  32  40
ATOM     40  O   UNL     1      -7.629  -3.822  48.181  1.00  0.00    -0.387 OA
ATOM     41  H   UNL     1      -8.212  -3.060  48.489  1.00  0.00     0.211 HD
ENDBRANCH  32  40
ENDBRANCH   1  27
TORSDOF 12
ENDMDL
MODEL 9
REMARK VINA RESULT:    -6.776      3.944      6.484
REMARK INTER + INTRA:         -11.456
REMARK INTER:                  -9.968
REMARK INTRA:                  -1.488
REMARK UNBOUND:                -1.511
REMARK SMILES O=c1c(O[C@H]2O[C@@H](CO)[C@@H](O)[C@@H](O)[C@@H]2O)c(-c2ccc(O)c(O)c2)oc2cc(O)cc(O)c12
REMARK SMILES IDX 4 1 3 2 16 3 25 4 2 5 26 6 1 7 33 8 27 9 31 10 28 11 30 12
REMARK SMILES IDX 17 13 18 14 19 15 20 16 24 17 22 18 21 19 23 21 32 23 29 25
REMARK SMILES IDX 5 27 14 28 6 29 12 30 7 31 10 32 15 33 13 35 8 37 9 38 11 40
REMARK H PARENT 21 20 23 22 32 24 29 26 15 34 13 36 9 39 11 41
REMARK Flexibility Score: inf
ROOT
ATOM      1  O   UNL     1     -10.653  -7.485  41.872  1.00  0.00    -0.454 OA
ENDROOT
BRANCH   1   2
ATOM      2  C   UNL     1     -11.723  -6.956  41.054  1.00  0.00     0.214 A 
ATOM      3  C   UNL     1     -11.741  -7.104  39.623  1.00  0.00     0.180 A 
ATOM      4  O   UNL     1     -12.743  -6.660  38.893  1.00  0.00    -0.452 OA
ATOM      5  C   UNL     1     -12.885  -6.341  41.621  1.00  0.00     0.239 A 
ATOM      6  C   UNL     1     -13.887  -6.224  39.399  1.00  0.00     0.146 A 
ATOM      7  O   UNL     1     -12.911  -6.023  42.833  1.00  0.00    -0.285 OA
ATOM      8  C   UNL     1     -14.039  -6.079  40.795  1.00  0.00     0.111 A 
ATOM      9  C   UNL     1     -14.993  -6.148  38.548  1.00  0.00     0.094 A 
ATOM     10  C   UNL     1     -15.347  -5.901  41.335  1.00  0.00     0.134 A 
ATOM     11  C   UNL     1     -16.278  -6.213  39.116  1.00  0.00     0.123 A 
ATOM     12  C   UNL     1     -16.460  -5.967  40.474  1.00  0.00     0.093 A 
BRANCH   3  13
ATOM     13  C   UNL     1     -10.750  -8.012  38.955  1.00  0.00     0.025 A 
ATOM     14  C   UNL     1     -11.281  -9.157  38.326  1.00  0.00     0.016 A 
ATOM     15  C   UNL     1     -10.564  -9.828  37.376  1.00  0.00     0.051 A 
ATOM     16  C   UNL     1      -9.213  -9.492  37.170  1.00  0.00     0.157 A 
ATOM     17  C   UNL     1      -9.481  -7.553  38.526  1.00  0.00     0.062 A 
ATOM     18  C   UNL     1      -8.651  -8.406  37.829  1.00  0.00     0.158 A 
BRANCH  16  19
ATOM     19  O   UNL     1      -8.427 -10.214  36.280  1.00  0.00    -0.504 OA
ATOM     20  H   UNL     1      -8.820 -10.404  35.366  1.00  0.00     0.293 HD
ENDBRANCH  16  19
BRANCH  18  21
ATOM     21  O   UNL     1      -7.259  -8.236  37.919  1.00  0.00    -0.504 OA
ATOM     22  H   UNL     1      -6.811  -7.537  37.327  1.00  0.00     0.293 HD
ENDBRANCH  18  21
ENDBRANCH   3  13
BRANCH  10  23
ATOM     23  O   UNL     1     -15.572  -5.745  42.707  1.00  0.00    -0.507 OA
ATOM     24  H   UNL     1     -15.006  -6.252  43.376  1.00  0.00     0.293 HD
ENDBRANCH  10  23
BRANCH  11  25
ATOM     25  O   UNL     1     -17.399  -6.510  38.339  1.00  0.00    -0.508 OA
ATOM     26  H   UNL     1     -18.224  -5.921  38.341  1.00  0.00     0.293 HD
ENDBRANCH  11  25
ENDBRANCH   1   2
BRANCH   1  27
ATOM     27  C   UNL     1     -10.590  -8.801  42.471  1.00  0.00     0.339 C 
ATOM     28  C   UNL     1     -10.821  -8.616  43.997  1.00  0.00     0.214 C 
ATOM     29  O   UNL     1      -9.314  -9.433  42.161  1.00  0.00    -0.332 OA
ATOM     30  C   UNL     1      -9.468  -8.742  44.731  1.00  0.00     0.180 C 
ATOM     31  C   UNL     1      -9.088 -10.594  42.994  1.00  0.00     0.179 C 
ATOM     32  C   UNL     1      -8.960 -10.179  44.516  1.00  0.00     0.177 C 
BRANCH  28  33
ATOM     33  O   UNL     1     -11.739  -9.596  44.479  1.00  0.00    -0.384 OA
ATOM     34  H   UNL     1     -12.038  -9.301  45.386  1.00  0.00     0.211 HD
ENDBRANCH  28  33
BRANCH  30  35
ATOM     35  O   UNL     1      -8.563  -7.780  44.224  1.00  0.00    -0.387 OA
ATOM     36  H   UNL     1      -8.779  -6.909  44.699  1.00  0.00     0.211 HD
ENDBRANCH  30  35
BRANCH  31  37
ATOM     37  C   UNL     1      -7.892 -11.494  42.584  1.00  0.00     0.191 C 
BRANCH  37  38
ATOM     38  O   UNL     1      -6.724 -10.741  42.287  1.00  0.00    -0.394 OA
ATOM     39  H   UNL     1      -6.579 -10.807  41.295  1.00  0.00     0.210 HD
ENDBRANCH  37  38
ENDBRANCH  31  37
BRANCH  32  40
ATOM     40  O   UNL     1      -7.628 -10.305  45.017  1.00  0.00    -0.387 OA
ATOM     41  H   UNL     1      -7.202  -9.391  45.000  1.00  0.00     0.211 HD
ENDBRANCH  32  40
ENDBRANCH   1  27
TORSDOF 12
ENDMDL
