MODEL 1
REMARK VINA RESULT:    -3.885      0.000      0.000
REMARK INTER + INTRA:         -13.174
REMARK INTER:                  -8.882
REMARK INTRA:                  -4.292
REMARK UNBOUND:                -4.292
REMARK SMILES CCCCCCCCCCCCCCCCCCCCCCCC(=O)[O-]
REMARK SMILES IDX 13 1 14 2 15 3 16 4 17 5 18 6 19 7 20 8 21 9 22 10 23 11
REMARK SMILES IDX 24 12 25 13 26 14 12 15 11 16 10 17 9 18 8 19 7 20 6 21 5 22
REMARK SMILES IDX 4 23 3 24 2 25 1 26
REMARK H PARENT
REMARK Flexibility Score: inf
ROOT
ATOM      1  C   UNL     1      87.498 124.103 131.249  1.00  0.00     0.000 C 
ENDROOT
BRANCH   1   2
ATOM      2  C   UNL     1      87.492 123.115 130.064  1.00  0.00     0.000 C 
BRANCH   2   3
ATOM      3  C   UNL     1      87.715 121.645 130.472  1.00  0.00     0.000 C 
BRANCH   3   4
ATOM      4  C   UNL     1      86.578 120.678 130.092  1.00  0.00     0.000 C 
BRANCH   4   5
ATOM      5  C   UNL     1      86.003 119.852 131.258  1.00  0.00     0.000 C 
BRANCH   5   6
ATOM      6  C   UNL     1      84.899 118.878 130.819  1.00  0.00     0.000 C 
BRANCH   6   7
ATOM      7  C   UNL     1      83.618 119.635 130.438  1.00  0.00     0.000 C 
BRANCH   7   8
ATOM      8  C   UNL     1      83.179 119.349 128.991  1.00  0.00     0.000 C 
BRANCH   8   9
ATOM      9  C   UNL     1      83.193 120.617 128.119  1.00  0.00     0.000 C 
BRANCH   9  10
ATOM     10  C   UNL     1      84.372 120.644 127.134  1.00  0.00     0.006 C 
BRANCH  10  11
ATOM     11  C   UNL     1      84.399 121.916 126.276  1.00  0.00     0.053 C 
BRANCH  11  12
ATOM     12  C   UNL     1      83.501 121.764 125.091  1.00  0.00     0.041 C 
ATOM     13  O   UNL     1      83.010 122.780 124.531  1.00  0.00    -0.550 OA
ATOM     14  O   UNL     1      83.245 120.500 124.569  1.00  0.00    -0.550 OA
ENDBRANCH  11  12
ENDBRANCH  10  11
ENDBRANCH   9  10
ENDBRANCH   8   9
ENDBRANCH   7   8
ENDBRANCH   6   7
ENDBRANCH   5   6
ENDBRANCH   4   5
ENDBRANCH   3   4
ENDBRANCH   2   3
ENDBRANCH   1   2
BRANCH   1  15
ATOM     15  C   UNL     1      86.082 124.546 131.660  1.00  0.00     0.000 C 
BRANCH  15  16
ATOM     16  C   UNL     1      85.452 123.610 132.703  1.00  0.00     0.000 C 
BRANCH  16  17
ATOM     17  C   UNL     1      84.204 122.886 132.171  1.00  0.00     0.000 C 
BRANCH  17  18
ATOM     18  C   UNL     1      83.902 123.221 130.700  1.00  0.00    -0.000 C 
BRANCH  18  19
ATOM     19  C   UNL     1      82.414 123.480 130.382  1.00  0.00    -0.000 C 
BRANCH  19  20
ATOM     20  C   UNL     1      82.104 124.871 129.798  1.00  0.00    -0.000 C 
BRANCH  20  21
ATOM     21  C   UNL     1      82.206 126.033 130.804  1.00  0.00    -0.000 C 
BRANCH  21  22
ATOM     22  C   UNL     1      83.014 127.239 130.279  1.00  0.00    -0.000 C 
BRANCH  22  23
ATOM     23  C   UNL     1      84.531 127.004 130.344  1.00  0.00    -0.000 C 
BRANCH  23  24
ATOM     24  C   UNL     1      85.204 127.383 129.019  1.00  0.00    -0.000 C 
BRANCH  24  25
ATOM     25  C   UNL     1      85.993 126.201 128.446  1.00  0.00    -0.003 C 
ATOM     26  C   UNL     1      85.068 125.199 127.764  1.00  0.00     0.004 C 
ENDBRANCH  24  25
ENDBRANCH  23  24
ENDBRANCH  22  23
ENDBRANCH  21  22
ENDBRANCH  20  21
ENDBRANCH  19  20
ENDBRANCH  18  19
ENDBRANCH  17  18
ENDBRANCH  16  17
ENDBRANCH  15  16
ENDBRANCH   1  15
TORSDOF 22
ENDMDL
MODEL 2
REMARK VINA RESULT:    -3.686      2.446      3.432
REMARK INTER + INTRA:         -12.718
REMARK INTER:                  -9.521
REMARK INTRA:                  -3.197
REMARK UNBOUND:                -4.292
REMARK SMILES CCCCCCCCCCCCCCCCCCCCCCCC(=O)[O-]
REMARK SMILES IDX 13 1 14 2 15 3 16 4 17 5 18 6 19 7 20 8 21 9 22 10 23 11
REMARK SMILES IDX 24 12 25 13 26 14 12 15 11 16 10 17 9 18 8 19 7 20 6 21 5 22
REMARK SMILES IDX 4 23 3 24 2 25 1 26
REMARK H PARENT
REMARK Flexibility Score: inf
ROOT
ATOM      1  C   UNL     1      87.300 123.397 129.827  1.00  0.00     0.000 C 
ENDROOT
BRANCH   1   2
ATOM      2  C   UNL     1      87.165 121.868 129.663  1.00  0.00     0.000 C 
BRANCH   2   3
ATOM      3  C   UNL     1      87.293 121.083 130.982  1.00  0.00     0.000 C 
BRANCH   3   4
ATOM      4  C   UNL     1      86.058 120.251 131.375  1.00  0.00     0.000 C 
BRANCH   4   5
ATOM      5  C   UNL     1      85.242 120.806 132.558  1.00  0.00     0.000 C 
BRANCH   5   6
ATOM      6  C   UNL     1      83.905 121.430 132.127  1.00  0.00     0.000 C 
BRANCH   6   7
ATOM      7  C   UNL     1      83.572 121.065 130.673  1.00  0.00     0.000 C 
BRANCH   7   8
ATOM      8  C   UNL     1      82.480 121.971 130.078  1.00  0.00     0.000 C 
BRANCH   8   9
ATOM      9  C   UNL     1      83.003 122.819 128.906  1.00  0.00     0.000 C 
BRANCH   9  10
ATOM     10  C   UNL     1      84.080 122.093 128.085  1.00  0.00     0.006 C 
BRANCH  10  11
ATOM     11  C   UNL     1      84.627 122.949 126.935  1.00  0.00     0.053 C 
BRANCH  11  12
ATOM     12  C   UNL     1      84.060 124.331 126.999  1.00  0.00     0.041 C 
ATOM     13  O   UNL     1      84.738 125.273 127.490  1.00  0.00    -0.550 OA
ATOM     14  O   UNL     1      82.802 124.592 126.469  1.00  0.00    -0.550 OA
ENDBRANCH  11  12
ENDBRANCH  10  11
ENDBRANCH   9  10
ENDBRANCH   8   9
ENDBRANCH   7   8
ENDBRANCH   6   7
ENDBRANCH   5   6
ENDBRANCH   4   5
ENDBRANCH   3   4
ENDBRANCH   2   3
ENDBRANCH   1   2
BRANCH   1  15
ATOM     15  C   UNL     1      86.083 124.029 130.527  1.00  0.00     0.000 C 
BRANCH  15  16
ATOM     16  C   UNL     1      86.468 124.784 131.808  1.00  0.00     0.000 C 
BRANCH  16  17
ATOM     17  C   UNL     1      85.251 125.386 132.529  1.00  0.00     0.000 C 
BRANCH  17  18
ATOM     18  C   UNL     1      83.932 124.687 132.156  1.00  0.00    -0.000 C 
BRANCH  18  19
ATOM     19  C   UNL     1      82.775 125.635 131.777  1.00  0.00    -0.000 C 
BRANCH  19  20
ATOM     20  C   UNL     1      82.961 126.396 130.451  1.00  0.00    -0.000 C 
BRANCH  20  21
ATOM     21  C   UNL     1      82.593 127.891 130.507  1.00  0.00    -0.000 C 
BRANCH  21  22
ATOM     22  C   UNL     1      83.238 128.645 131.690  1.00  0.00    -0.000 C 
BRANCH  22  23
ATOM     23  C   UNL     1      82.594 130.018 131.934  1.00  0.00    -0.000 C 
BRANCH  23  24
ATOM     24  C   UNL     1      83.378 130.816 132.983  1.00  0.00    -0.000 C 
BRANCH  24  25
ATOM     25  C   UNL     1      83.898 132.133 132.395  1.00  0.00    -0.003 C 
ATOM     26  C   UNL     1      82.771 132.930 131.746  1.00  0.00     0.004 C 
ENDBRANCH  24  25
ENDBRANCH  23  24
ENDBRANCH  22  23
ENDBRANCH  21  22
ENDBRANCH  20  21
ENDBRANCH  19  20
ENDBRANCH  18  19
ENDBRANCH  17  18
ENDBRANCH  16  17
ENDBRANCH  15  16
ENDBRANCH   1  15
TORSDOF 22
ENDMDL
MODEL 3
REMARK VINA RESULT:    -3.628      2.610      6.112
REMARK INTER + INTRA:         -12.586
REMARK INTER:                  -8.253
REMARK INTRA:                  -4.334
REMARK UNBOUND:                -4.292
REMARK SMILES CCCCCCCCCCCCCCCCCCCCCCCC(=O)[O-]
REMARK SMILES IDX 13 1 14 2 15 3 16 4 17 5 18 6 19 7 20 8 21 9 22 10 23 11
REMARK SMILES IDX 24 12 25 13 26 14 12 15 11 16 10 17 9 18 8 19 7 20 6 21 5 22
REMARK SMILES IDX 4 23 3 24 2 25 1 26
REMARK H PARENT
REMARK Flexibility Score: inf
ROOT
ATOM      1  C   UNL     1      86.074 125.393 128.895  1.00  0.00     0.000 C 
ENDROOT
BRANCH   1   2
ATOM      2  C   UNL     1      84.918 125.623 127.899  1.00  0.00     0.000 C 
BRANCH   2   3
ATOM      3  C   UNL     1      84.531 124.370 127.089  1.00  0.00     0.000 C 
BRANCH   3   4
ATOM      4  C   UNL     1      83.020 124.174 126.863  1.00  0.00     0.000 C 
BRANCH   4   5
ATOM      5  C   UNL     1      82.154 124.239 128.135  1.00  0.00     0.000 C 
BRANCH   5   6
ATOM      6  C   UNL     1      82.072 122.895 128.877  1.00  0.00     0.000 C 
BRANCH   6   7
ATOM      7  C   UNL     1      83.231 122.747 129.874  1.00  0.00     0.000 C 
BRANCH   7   8
ATOM      8  C   UNL     1      82.741 122.634 131.328  1.00  0.00     0.000 C 
BRANCH   8   9
ATOM      9  C   UNL     1      82.717 123.998 132.041  1.00  0.00     0.000 C 
BRANCH   9  10
ATOM     10  C   UNL     1      83.787 124.963 131.507  1.00  0.00     0.006 C 
BRANCH  10  11
ATOM     11  C   UNL     1      83.764 126.324 132.215  1.00  0.00     0.053 C 
BRANCH  11  12
ATOM     12  C   UNL     1      83.188 127.369 131.314  1.00  0.00     0.041 C 
ATOM     13  O   UNL     1      82.689 127.046 130.204  1.00  0.00    -0.550 OA
ATOM     14  O   UNL     1      83.154 128.698 131.724  1.00  0.00    -0.550 OA
ENDBRANCH  11  12
ENDBRANCH  10  11
ENDBRANCH   9  10
ENDBRANCH   8   9
ENDBRANCH   7   8
ENDBRANCH   6   7
ENDBRANCH   5   6
ENDBRANCH   4   5
ENDBRANCH   3   4
ENDBRANCH   2   3
ENDBRANCH   1   2
BRANCH   1  15
ATOM     15  C   UNL     1      86.428 123.904 129.060  1.00  0.00     0.000 C 
BRANCH  15  16
ATOM     16  C   UNL     1      87.168 123.618 130.376  1.00  0.00     0.000 C 
BRANCH  16  17
ATOM     17  C   UNL     1      87.566 122.140 130.522  1.00  0.00     0.000 C 
BRANCH  17  18
ATOM     18  C   UNL     1      86.561 121.183 129.856  1.00  0.00    -0.000 C 
BRANCH  18  19
ATOM     19  C   UNL     1      85.989 120.090 130.781  1.00  0.00    -0.000 C 
BRANCH  19  20
ATOM     20  C   UNL     1      85.270 118.934 130.060  1.00  0.00    -0.000 C 
BRANCH  20  21
ATOM     21  C   UNL     1      83.739 119.080 129.974  1.00  0.00    -0.000 C 
BRANCH  21  22
ATOM     22  C   UNL     1      83.214 119.262 128.533  1.00  0.00    -0.000 C 
BRANCH  22  23
ATOM     23  C   UNL     1      84.346 119.330 127.498  1.00  0.00    -0.000 C 
BRANCH  23  24
ATOM     24  C   UNL     1      84.308 120.654 126.725  1.00  0.00    -0.000 C 
BRANCH  24  25
ATOM     25  C   UNL     1      83.131 120.683 125.743  1.00  0.00    -0.003 C 
ATOM     26  C   UNL     1      83.519 121.368 124.437  1.00  0.00     0.004 C 
ENDBRANCH  24  25
ENDBRANCH  23  24
ENDBRANCH  22  23
ENDBRANCH  21  22
ENDBRANCH  20  21
ENDBRANCH  19  20
ENDBRANCH  18  19
ENDBRANCH  17  18
ENDBRANCH  16  17
ENDBRANCH  15  16
ENDBRANCH   1  15
TORSDOF 22
ENDMDL
MODEL 4
REMARK VINA RESULT:    -3.411      2.390      6.631
REMARK INTER + INTRA:         -12.091
REMARK INTER:                  -7.904
REMARK INTRA:                  -4.187
REMARK UNBOUND:                -4.292
REMARK SMILES CCCCCCCCCCCCCCCCCCCCCCCC(=O)[O-]
REMARK SMILES IDX 13 1 14 2 15 3 16 4 17 5 18 6 19 7 20 8 21 9 22 10 23 11
REMARK SMILES IDX 24 12 25 13 26 14 12 15 11 16 10 17 9 18 8 19 7 20 6 21 5 22
REMARK SMILES IDX 4 23 3 24 2 25 1 26
REMARK H PARENT
REMARK Flexibility Score: inf
ROOT
ATOM      1  C   UNL     1      82.556 123.990 127.642  1.00  0.00     0.000 C 
ENDROOT
BRANCH   1   2
ATOM      2  C   UNL     1      81.984 122.593 127.963  1.00  0.00     0.000 C 
BRANCH   2   3
ATOM      3  C   UNL     1      82.147 122.172 129.437  1.00  0.00     0.000 C 
BRANCH   3   4
ATOM      4  C   UNL     1      82.404 123.326 130.424  1.00  0.00     0.000 C 
BRANCH   4   5
ATOM      5  C   UNL     1      83.490 123.053 131.483  1.00  0.00     0.000 C 
BRANCH   5   6
ATOM      6  C   UNL     1      83.488 124.080 132.626  1.00  0.00     0.000 C 
BRANCH   6   7
ATOM      7  C   UNL     1      82.721 125.349 132.223  1.00  0.00     0.000 C 
BRANCH   7   8
ATOM      8  C   UNL     1      83.606 126.606 132.267  1.00  0.00     0.000 C 
BRANCH   8   9
ATOM      9  C   UNL     1      83.500 127.437 130.976  1.00  0.00     0.000 C 
BRANCH   9  10
ATOM     10  C   UNL     1      83.888 126.635 129.724  1.00  0.00     0.006 C 
BRANCH  10  11
ATOM     11  C   UNL     1      85.404 126.604 129.485  1.00  0.00     0.053 C 
BRANCH  11  12
ATOM     12  C   UNL     1      85.958 125.259 129.828  1.00  0.00     0.041 C 
ATOM     13  O   UNL     1      85.941 124.329 128.978  1.00  0.00    -0.550 OA
ATOM     14  O   UNL     1      86.541 125.043 131.072  1.00  0.00    -0.550 OA
ENDBRANCH  11  12
ENDBRANCH  10  11
ENDBRANCH   9  10
ENDBRANCH   8   9
ENDBRANCH   7   8
ENDBRANCH   6   7
ENDBRANCH   5   6
ENDBRANCH   4   5
ENDBRANCH   3   4
ENDBRANCH   2   3
ENDBRANCH   1   2
BRANCH   1  15
ATOM     15  C   UNL     1      83.150 124.077 126.224  1.00  0.00     0.000 C 
BRANCH  15  16
ATOM     16  C   UNL     1      84.428 123.239 126.069  1.00  0.00     0.000 C 
BRANCH  16  17
ATOM     17  C   UNL     1      84.348 122.249 124.895  1.00  0.00     0.000 C 
BRANCH  17  18
ATOM     18  C   UNL     1      82.920 122.092 124.345  1.00  0.00    -0.000 C 
BRANCH  18  19
ATOM     19  C   UNL     1      82.219 120.769 124.717  1.00  0.00    -0.000 C 
BRANCH  19  20
ATOM     20  C   UNL     1      83.095 119.758 125.480  1.00  0.00    -0.000 C 
BRANCH  20  21
ATOM     21  C   UNL     1      82.444 119.164 126.744  1.00  0.00    -0.000 C 
BRANCH  21  22
ATOM     22  C   UNL     1      83.417 119.023 127.935  1.00  0.00    -0.000 C 
BRANCH  22  23
ATOM     23  C   UNL     1      84.651 119.927 127.797  1.00  0.00    -0.000 C 
BRANCH  23  24
ATOM     24  C   UNL     1      85.704 119.587 128.859  1.00  0.00    -0.000 C 
BRANCH  24  25
ATOM     25  C   UNL     1      85.908 120.760 129.825  1.00  0.00    -0.003 C 
ATOM     26  C   UNL     1      86.112 120.268 131.254  1.00  0.00     0.004 C 
ENDBRANCH  24  25
ENDBRANCH  23  24
ENDBRANCH  22  23
ENDBRANCH  21  22
ENDBRANCH  20  21
ENDBRANCH  19  20
ENDBRANCH  18  19
ENDBRANCH  17  18
ENDBRANCH  16  17
ENDBRANCH  15  16
ENDBRANCH   1  15
TORSDOF 22
ENDMDL
MODEL 5
REMARK VINA RESULT:    -3.240     11.808     14.385
REMARK INTER + INTRA:         -11.700
REMARK INTER:                 -10.805
REMARK INTRA:                  -0.894
REMARK UNBOUND:                -4.292
REMARK SMILES CCCCCCCCCCCCCCCCCCCCCCCC(=O)[O-]
REMARK SMILES IDX 13 1 14 2 15 3 16 4 17 5 18 6 19 7 20 8 21 9 22 10 23 11
REMARK SMILES IDX 24 12 25 13 26 14 12 15 11 16 10 17 9 18 8 19 7 20 6 21 5 22
REMARK SMILES IDX 4 23 3 24 2 25 1 26
REMARK H PARENT
REMARK Flexibility Score: inf
ROOT
ATOM      1  C   UNL     1      92.974 123.855 124.371  1.00  0.00     0.000 C 
ENDROOT
BRANCH   1   2
ATOM      2  C   UNL     1      92.734 123.580 122.871  1.00  0.00     0.000 C 
BRANCH   2   3
ATOM      3  C   UNL     1      93.159 122.171 122.417  1.00  0.00     0.000 C 
BRANCH   3   4
ATOM      4  C   UNL     1      92.843 121.830 120.948  1.00  0.00     0.000 C 
BRANCH   4   5
ATOM      5  C   UNL     1      93.265 122.899 119.922  1.00  0.00     0.000 C 
BRANCH   5   6
ATOM      6  C   UNL     1      94.619 122.596 119.260  1.00  0.00     0.000 C 
BRANCH   6   7
ATOM      7  C   UNL     1      94.979 121.109 119.403  1.00  0.00     0.000 C 
BRANCH   7   8
ATOM      8  C   UNL     1      94.937 120.365 118.057  1.00  0.00     0.000 C 
BRANCH   8   9
ATOM      9  C   UNL     1      93.521 120.333 117.456  1.00  0.00     0.000 C 
BRANCH   9  10
ATOM     10  C   UNL     1      93.521 120.515 115.930  1.00  0.00     0.006 C 
BRANCH  10  11
ATOM     11  C   UNL     1      92.401 121.443 115.443  1.00  0.00     0.053 C 
BRANCH  11  12
ATOM     12  C   UNL     1      91.987 122.377 116.535  1.00  0.00     0.041 C 
ATOM     13  O   UNL     1      91.337 121.948 117.525  1.00  0.00    -0.550 OA
ATOM     14  O   UNL     1      92.362 123.715 116.486  1.00  0.00    -0.550 OA
ENDBRANCH  11  12
ENDBRANCH  10  11
ENDBRANCH   9  10
ENDBRANCH   8   9
ENDBRANCH   7   8
ENDBRANCH   6   7
ENDBRANCH   5   6
ENDBRANCH   4   5
ENDBRANCH   3   4
ENDBRANCH   2   3
ENDBRANCH   1   2
BRANCH   1  15
ATOM     15  C   UNL     1      93.573 122.643 125.108  1.00  0.00     0.000 C 
BRANCH  15  16
ATOM     16  C   UNL     1      94.975 122.929 125.667  1.00  0.00     0.000 C 
BRANCH  16  17
ATOM     17  C   UNL     1      96.004 123.219 124.563  1.00  0.00     0.000 C 
BRANCH  17  18
ATOM     18  C   UNL     1      96.628 124.621 124.683  1.00  0.00    -0.000 C 
BRANCH  18  19
ATOM     19  C   UNL     1      97.220 124.955 126.069  1.00  0.00    -0.000 C 
BRANCH  19  20
ATOM     20  C   UNL     1      98.576 124.293 126.376  1.00  0.00    -0.000 C 
BRANCH  20  21
ATOM     21  C   UNL     1      98.567 122.753 126.341  1.00  0.00    -0.000 C 
BRANCH  21  22
ATOM     22  C   UNL     1      99.926 122.133 125.951  1.00  0.00    -0.000 C 
BRANCH  22  23
ATOM     23  C   UNL     1      99.932 120.602 126.074  1.00  0.00    -0.000 C 
BRANCH  23  24
ATOM     24  C   UNL     1     101.314 120.088 126.495  1.00  0.00    -0.000 C 
BRANCH  24  25
ATOM     25  C   UNL     1     101.932 119.213 125.398  1.00  0.00    -0.003 C 
ATOM     26  C   UNL     1     101.025 119.139 124.175  1.00  0.00     0.004 C 
ENDBRANCH  24  25
ENDBRANCH  23  24
ENDBRANCH  22  23
ENDBRANCH  21  22
ENDBRANCH  20  21
ENDBRANCH  19  20
ENDBRANCH  18  19
ENDBRANCH  17  18
ENDBRANCH  16  17
ENDBRANCH  15  16
ENDBRANCH   1  15
TORSDOF 22
ENDMDL
MODEL 6
REMARK VINA RESULT:    -3.153      1.483      2.392
REMARK INTER + INTRA:         -11.501
REMARK INTER:                  -8.442
REMARK INTRA:                  -3.060
REMARK UNBOUND:                -4.292
REMARK SMILES CCCCCCCCCCCCCCCCCCCCCCCC(=O)[O-]
REMARK SMILES IDX 13 1 14 2 15 3 16 4 17 5 18 6 19 7 20 8 21 9 22 10 23 11
REMARK SMILES IDX 24 12 25 13 26 14 12 15 11 16 10 17 9 18 8 19 7 20 6 21 5 22
REMARK SMILES IDX 4 23 3 24 2 25 1 26
REMARK H PARENT
REMARK Flexibility Score: inf
ROOT
ATOM      1  C   UNL     1      86.966 122.923 130.865  1.00  0.00     0.000 C 
ENDROOT
BRANCH   1   2
ATOM      2  C   UNL     1      87.204 121.487 130.350  1.00  0.00     0.000 C 
BRANCH   2   3
ATOM      3  C   UNL     1      86.755 120.388 131.332  1.00  0.00     0.000 C 
BRANCH   3   4
ATOM      4  C   UNL     1      85.669 119.434 130.798  1.00  0.00     0.000 C 
BRANCH   4   5
ATOM      5  C   UNL     1      84.234 119.747 131.265  1.00  0.00     0.000 C 
BRANCH   5   6
ATOM      6  C   UNL     1      83.316 120.204 130.121  1.00  0.00     0.000 C 
BRANCH   6   7
ATOM      7  C   UNL     1      82.844 119.005 129.284  1.00  0.00     0.000 C 
BRANCH   7   8
ATOM      8  C   UNL     1      82.368 119.422 127.881  1.00  0.00     0.000 C 
BRANCH   8   9
ATOM      9  C   UNL     1      83.511 119.405 126.851  1.00  0.00     0.000 C 
BRANCH   9  10
ATOM     10  C   UNL     1      83.399 120.543 125.825  1.00  0.00     0.006 C 
BRANCH  10  11
ATOM     11  C   UNL     1      82.147 120.428 124.945  1.00  0.00     0.053 C 
BRANCH  11  12
ATOM     12  C   UNL     1      82.392 121.050 123.608  1.00  0.00     0.041 C 
ATOM     13  O   UNL     1      82.245 122.291 123.448  1.00  0.00    -0.550 OA
ATOM     14  O   UNL     1      82.833 120.267 122.547  1.00  0.00    -0.550 OA
ENDBRANCH  11  12
ENDBRANCH  10  11
ENDBRANCH   9  10
ENDBRANCH   8   9
ENDBRANCH   7   8
ENDBRANCH   6   7
ENDBRANCH   5   6
ENDBRANCH   4   5
ENDBRANCH   3   4
ENDBRANCH   2   3
ENDBRANCH   1   2
BRANCH   1  15
ATOM     15  C   UNL     1      85.494 123.185 131.235  1.00  0.00     0.000 C 
BRANCH  15  16
ATOM     16  C   UNL     1      85.332 123.701 132.672  1.00  0.00     0.000 C 
BRANCH  16  17
ATOM     17  C   UNL     1      85.226 125.233 132.743  1.00  0.00     0.000 C 
BRANCH  17  18
ATOM     18  C   UNL     1      83.804 125.746 132.450  1.00  0.00    -0.000 C 
BRANCH  18  19
ATOM     19  C   UNL     1      83.738 127.109 131.730  1.00  0.00    -0.000 C 
BRANCH  19  20
ATOM     20  C   UNL     1      83.189 127.061 130.292  1.00  0.00    -0.000 C 
BRANCH  20  21
ATOM     21  C   UNL     1      83.692 125.875 129.446  1.00  0.00    -0.000 C 
BRANCH  21  22
ATOM     22  C   UNL     1      84.916 126.214 128.568  1.00  0.00    -0.000 C 
BRANCH  22  23
ATOM     23  C   UNL     1      85.624 124.959 128.036  1.00  0.00    -0.000 C 
BRANCH  23  24
ATOM     24  C   UNL     1      84.609 123.902 127.586  1.00  0.00    -0.000 C 
BRANCH  24  25
ATOM     25  C   UNL     1      84.063 124.225 126.190  1.00  0.00    -0.003 C 
ATOM     26  C   UNL     1      82.546 124.380 126.213  1.00  0.00     0.004 C 
ENDBRANCH  24  25
ENDBRANCH  23  24
ENDBRANCH  22  23
ENDBRANCH  21  22
ENDBRANCH  20  21
ENDBRANCH  19  20
ENDBRANCH  18  19
ENDBRANCH  17  18
ENDBRANCH  16  17
ENDBRANCH  15  16
ENDBRANCH   1  15
TORSDOF 22
ENDMDL
MODEL 7
REMARK VINA RESULT:    -2.845      4.342      8.418
REMARK INTER + INTRA:         -10.795
REMARK INTER:                  -8.094
REMARK INTRA:                  -2.701
REMARK UNBOUND:                -4.292
REMARK SMILES CCCCCCCCCCCCCCCCCCCCCCCC(=O)[O-]
REMARK SMILES IDX 13 1 14 2 15 3 16 4 17 5 18 6 19 7 20 8 21 9 22 10 23 11
REMARK SMILES IDX 24 12 25 13 26 14 12 15 11 16 10 17 9 18 8 19 7 20 6 21 5 22
REMARK SMILES IDX 4 23 3 24 2 25 1 26
REMARK H PARENT
REMARK Flexibility Score: inf
ROOT
ATOM      1  C   UNL     1      82.856 124.522 126.493  1.00  0.00     0.000 C 
ENDROOT
BRANCH   1   2
ATOM      2  C   UNL     1      82.356 123.343 127.355  1.00  0.00     0.000 C 
BRANCH   2   3
ATOM      3  C   UNL     1      82.314 123.646 128.865  1.00  0.00     0.000 C 
BRANCH   3   4
ATOM      4  C   UNL     1      82.821 125.042 129.270  1.00  0.00     0.000 C 
BRANCH   4   5
ATOM      5  C   UNL     1      84.141 125.055 130.066  1.00  0.00     0.000 C 
BRANCH   5   6
ATOM      6  C   UNL     1      84.348 126.350 130.866  1.00  0.00     0.000 C 
BRANCH   6   7
ATOM      7  C   UNL     1      83.494 127.492 130.295  1.00  0.00     0.000 C 
BRANCH   7   8
ATOM      8  C   UNL     1      83.049 128.488 131.379  1.00  0.00     0.000 C 
BRANCH   8   9
ATOM      9  C   UNL     1      81.962 129.452 130.872  1.00  0.00     0.000 C 
BRANCH   9  10
ATOM     10  C   UNL     1      82.392 130.925 130.955  1.00  0.00     0.006 C 
BRANCH  10  11
ATOM     11  C   UNL     1      83.344 131.200 132.127  1.00  0.00     0.053 C 
BRANCH  11  12
ATOM     12  C   UNL     1      83.321 132.651 132.486  1.00  0.00     0.041 C 
ATOM     13  O   UNL     1      84.281 133.162 133.123  1.00  0.00    -0.550 OA
ATOM     14  O   UNL     1      82.264 133.454 132.073  1.00  0.00    -0.550 OA
ENDBRANCH  11  12
ENDBRANCH  10  11
ENDBRANCH   9  10
ENDBRANCH   8   9
ENDBRANCH   7   8
ENDBRANCH   6   7
ENDBRANCH   5   6
ENDBRANCH   4   5
ENDBRANCH   3   4
ENDBRANCH   2   3
ENDBRANCH   1   2
BRANCH   1  15
ATOM     15  C   UNL     1      83.655 124.060 125.261  1.00  0.00     0.000 C 
BRANCH  15  16
ATOM     16  C   UNL     1      84.790 123.090 125.626  1.00  0.00     0.000 C 
BRANCH  16  17
ATOM     17  C   UNL     1      84.654 121.729 124.924  1.00  0.00     0.000 C 
BRANCH  17  18
ATOM     18  C   UNL     1      83.279 121.536 124.259  1.00  0.00    -0.000 C 
BRANCH  18  19
ATOM     19  C   UNL     1      82.325 120.577 125.000  1.00  0.00    -0.000 C 
BRANCH  19  20
ATOM     20  C   UNL     1      83.015 119.539 125.905  1.00  0.00    -0.000 C 
BRANCH  20  21
ATOM     21  C   UNL     1      82.832 119.777 127.417  1.00  0.00    -0.000 C 
BRANCH  21  22
ATOM     22  C   UNL     1      83.851 119.014 128.292  1.00  0.00    -0.000 C 
BRANCH  22  23
ATOM     23  C   UNL     1      85.104 119.847 128.600  1.00  0.00    -0.000 C 
BRANCH  23  24
ATOM     24  C   UNL     1      84.726 121.225 129.156  1.00  0.00    -0.000 C 
BRANCH  24  25
ATOM     25  C   UNL     1      85.961 121.958 129.693  1.00  0.00    -0.003 C 
ATOM     26  C   UNL     1      87.052 120.974 130.101  1.00  0.00     0.004 C 
ENDBRANCH  24  25
ENDBRANCH  23  24
ENDBRANCH  22  23
ENDBRANCH  21  22
ENDBRANCH  20  21
ENDBRANCH  19  20
ENDBRANCH  18  19
ENDBRANCH  17  18
ENDBRANCH  16  17
ENDBRANCH  15  16
ENDBRANCH   1  15
TORSDOF 22
ENDMDL
MODEL 8
REMARK VINA RESULT:    -2.841      2.930      6.367
REMARK INTER + INTRA:         -10.786
REMARK INTER:                  -8.006
REMARK INTRA:                  -2.780
REMARK UNBOUND:                -4.292
REMARK SMILES CCCCCCCCCCCCCCCCCCCCCCCC(=O)[O-]
REMARK SMILES IDX 13 1 14 2 15 3 16 4 17 5 18 6 19 7 20 8 21 9 22 10 23 11
REMARK SMILES IDX 24 12 25 13 26 14 12 15 11 16 10 17 9 18 8 19 7 20 6 21 5 22
REMARK SMILES IDX 4 23 3 24 2 25 1 26
REMARK H PARENT
REMARK Flexibility Score: inf
ROOT
ATOM      1  C   UNL     1      86.680 123.586 129.279  1.00  0.00     0.000 C 
ENDROOT
BRANCH   1   2
ATOM      2  C   UNL     1      85.998 124.825 128.663  1.00  0.00     0.000 C 
BRANCH   2   3
ATOM      3  C   UNL     1      85.197 124.527 127.381  1.00  0.00     0.000 C 
BRANCH   3   4
ATOM      4  C   UNL     1      84.227 123.334 127.474  1.00  0.00     0.000 C 
BRANCH   4   5
ATOM      5  C   UNL     1      82.733 123.706 127.523  1.00  0.00     0.000 C 
BRANCH   5   6
ATOM      6  C   UNL     1      82.018 123.164 128.771  1.00  0.00     0.000 C 
BRANCH   6   7
ATOM      7  C   UNL     1      81.950 124.233 129.872  1.00  0.00     0.000 C 
BRANCH   7   8
ATOM      8  C   UNL     1      82.040 125.661 129.307  1.00  0.00     0.000 C 
BRANCH   8   9
ATOM      9  C   UNL     1      81.875 126.731 130.402  1.00  0.00     0.000 C 
BRANCH   9  10
ATOM     10  C   UNL     1      83.182 127.484 130.695  1.00  0.00     0.006 C 
BRANCH  10  11
ATOM     11  C   UNL     1      84.394 126.549 130.800  1.00  0.00     0.053 C 
BRANCH  11  12
ATOM     12  C   UNL     1      84.518 126.011 132.190  1.00  0.00     0.041 C 
ATOM     13  O   UNL     1      83.590 126.187 133.024  1.00  0.00    -0.550 OA
ATOM     14  O   UNL     1      85.637 125.270 132.552  1.00  0.00    -0.550 OA
ENDBRANCH  11  12
ENDBRANCH  10  11
ENDBRANCH   9  10
ENDBRANCH   8   9
ENDBRANCH   7   8
ENDBRANCH   6   7
ENDBRANCH   5   6
ENDBRANCH   4   5
ENDBRANCH   3   4
ENDBRANCH   2   3
ENDBRANCH   1   2
BRANCH   1  15
ATOM     15  C   UNL     1      85.730 122.765 130.170  1.00  0.00     0.000 C 
BRANCH  15  16
ATOM     16  C   UNL     1      86.483 121.893 131.186  1.00  0.00     0.000 C 
BRANCH  16  17
ATOM     17  C   UNL     1      86.276 120.389 130.943  1.00  0.00     0.000 C 
BRANCH  17  18
ATOM     18  C   UNL     1      86.376 120.006 129.456  1.00  0.00    -0.000 C 
BRANCH  18  19
ATOM     19  C   UNL     1      85.180 119.201 128.907  1.00  0.00    -0.000 C 
BRANCH  19  20
ATOM     20  C   UNL     1      83.794 119.794 129.220  1.00  0.00    -0.000 C 
BRANCH  20  21
ATOM     21  C   UNL     1      82.830 119.852 128.020  1.00  0.00    -0.000 C 
BRANCH  21  22
ATOM     22  C   UNL     1      83.540 119.803 126.650  1.00  0.00    -0.000 C 
BRANCH  22  23
ATOM     23  C   UNL     1      82.629 120.251 125.497  1.00  0.00    -0.000 C 
BRANCH  23  24
ATOM     24  C   UNL     1      83.373 121.189 124.539  1.00  0.00    -0.000 C 
BRANCH  24  25
ATOM     25  C   UNL     1      82.522 121.498 123.301  1.00  0.00    -0.003 C 
ATOM     26  C   UNL     1      82.201 120.227 122.522  1.00  0.00     0.004 C 
ENDBRANCH  24  25
ENDBRANCH  23  24
ENDBRANCH  22  23
ENDBRANCH  21  22
ENDBRANCH  20  21
ENDBRANCH  19  20
ENDBRANCH  18  19
ENDBRANCH  17  18
ENDBRANCH  16  17
ENDBRANCH  15  16
ENDBRANCH   1  15
TORSDOF 22
ENDMDL
MODEL 9
REMARK VINA RESULT:    -2.745      3.737      7.354
REMARK INTER + INTRA:         -10.568
REMARK INTER:                  -8.505
REMARK INTRA:                  -2.064
REMARK UNBOUND:                -4.292
REMARK SMILES CCCCCCCCCCCCCCCCCCCCCCCC(=O)[O-]
REMARK SMILES IDX 13 1 14 2 15 3 16 4 17 5 18 6 19 7 20 8 21 9 22 10 23 11
REMARK SMILES IDX 24 12 25 13 26 14 12 15 11 16 10 17 9 18 8 19 7 20 6 21 5 22
REMARK SMILES IDX 4 23 3 24 2 25 1 26
REMARK H PARENT
REMARK Flexibility Score: inf
ROOT
ATOM      1  C   UNL     1      86.763 123.708 128.850  1.00  0.00     0.000 C 
ENDROOT
BRANCH   1   2
ATOM      2  C   UNL     1      85.958 124.930 128.358  1.00  0.00     0.000 C 
BRANCH   2   3
ATOM      3  C   UNL     1      84.731 124.567 127.498  1.00  0.00     0.000 C 
BRANCH   3   4
ATOM      4  C   UNL     1      83.476 124.150 128.288  1.00  0.00     0.000 C 
BRANCH   4   5
ATOM      5  C   UNL     1      82.636 125.314 128.847  1.00  0.00     0.000 C 
BRANCH   5   6
ATOM      6  C   UNL     1      82.140 125.065 130.279  1.00  0.00     0.000 C 
BRANCH   6   7
ATOM      7  C   UNL     1      82.388 126.293 131.168  1.00  0.00     0.000 C 
BRANCH   7   8
ATOM      8  C   UNL     1      82.808 127.529 130.354  1.00  0.00     0.000 C 
BRANCH   8   9
ATOM      9  C   UNL     1      82.267 128.836 130.960  1.00  0.00     0.000 C 
BRANCH   9  10
ATOM     10  C   UNL     1      82.998 129.236 132.250  1.00  0.00     0.006 C 
BRANCH  10  11
ATOM     11  C   UNL     1      83.535 130.673 132.207  1.00  0.00     0.053 C 
BRANCH  11  12
ATOM     12  C   UNL     1      82.408 131.648 132.090  1.00  0.00     0.041 C 
ATOM     13  O   UNL     1      81.882 132.137 133.125  1.00  0.00    -0.550 OA
ATOM     14  O   UNL     1      81.969 132.057 130.836  1.00  0.00    -0.550 OA
ENDBRANCH  11  12
ENDBRANCH  10  11
ENDBRANCH   9  10
ENDBRANCH   8   9
ENDBRANCH   7   8
ENDBRANCH   6   7
ENDBRANCH   5   6
ENDBRANCH   4   5
ENDBRANCH   3   4
ENDBRANCH   2   3
ENDBRANCH   1   2
BRANCH   1  15
ATOM     15  C   UNL     1      85.889 122.682 129.594  1.00  0.00     0.000 C 
BRANCH  15  16
ATOM     16  C   UNL     1      86.478 122.287 130.957  1.00  0.00     0.000 C 
BRANCH  16  17
ATOM     17  C   UNL     1      85.899 120.966 131.491  1.00  0.00     0.000 C 
BRANCH  17  18
ATOM     18  C   UNL     1      86.001 119.816 130.474  1.00  0.00    -0.000 C 
BRANCH  18  19
ATOM     19  C   UNL     1      84.691 119.037 130.236  1.00  0.00    -0.000 C 
BRANCH  19  20
ATOM     20  C   UNL     1      83.402 119.865 130.389  1.00  0.00    -0.000 C 
BRANCH  20  21
ATOM     21  C   UNL     1      82.464 119.834 129.167  1.00  0.00    -0.000 C 
BRANCH  21  22
ATOM     22  C   UNL     1      83.203 119.662 127.822  1.00  0.00    -0.000 C 
BRANCH  22  23
ATOM     23  C   UNL     1      83.206 120.949 126.983  1.00  0.00    -0.000 C 
BRANCH  23  24
ATOM     24  C   UNL     1      84.500 121.074 126.170  1.00  0.00    -0.000 C 
BRANCH  24  25
ATOM     25  C   UNL     1      84.264 121.871 124.882  1.00  0.00    -0.003 C 
ATOM     26  C   UNL     1      82.865 121.624 124.329  1.00  0.00     0.004 C 
ENDBRANCH  24  25
ENDBRANCH  23  24
ENDBRANCH  22  23
ENDBRANCH  21  22
ENDBRANCH  20  21
ENDBRANCH  19  20
ENDBRANCH  18  19
ENDBRANCH  17  18
ENDBRANCH  16  17
ENDBRANCH  15  16
ENDBRANCH   1  15
TORSDOF 22
ENDMDL
