MODEL 1
REMARK VINA RESULT:    32.561      0.000      0.000
REMARK INTER + INTRA:          39.905
REMARK INTER:                  40.175
REMARK INTRA:                  -0.271
REMARK UNBOUND:                -0.271
REMARK SMILES O=c1c(O)c(-c2cc(O)c(O)c(O)c2)oc2cc(O)cc(O)c12
REMARK SMILES IDX 5 1 3 2 2 3 1 4 23 5 21 6 20 7 18 8 17 9 16 10 15 11 6 12
REMARK SMILES IDX 7 13 8 14 14 15 10 16 12 17 9 18 11 20 13 22 4 24 22 26
REMARK SMILES IDX 19 28
REMARK H PARENT 9 19 11 21 13 23 4 25 22 27 19 29
REMARK Flexibility Score: inf
ROOT
ATOM      1  C   UNL     1       9.547   2.206   8.369  1.00  0.00     0.180 A 
ATOM      2  C   UNL     1       9.637   3.539   7.923  1.00  0.00     0.208 A 
ATOM      3  C   UNL     1      10.713   3.909   7.100  1.00  0.00     0.238 A 
ATOM      4  O   UNL     1      10.809   5.102   6.704  1.00  0.00    -0.285 OA
ATOM      5  C   UNL     1      11.666   2.940   6.723  1.00  0.00     0.111 A 
ATOM      6  C   UNL     1      12.776   3.230   5.895  1.00  0.00     0.134 A 
ATOM      7  C   UNL     1      13.676   2.209   5.556  1.00  0.00     0.093 A 
ATOM      8  C   UNL     1      13.488   0.908   6.026  1.00  0.00     0.123 A 
ATOM      9  C   UNL     1      12.392   0.616   6.845  1.00  0.00     0.094 A 
ATOM     10  C   UNL     1      11.485   1.620   7.196  1.00  0.00     0.146 A 
ATOM     11  O   UNL     1      10.457   1.317   7.980  1.00  0.00    -0.452 OA
ENDROOT
BRANCH   1  12
ATOM     12  C   UNL     1       8.453   1.744   9.253  1.00  0.00     0.029 A 
ATOM     13  C   UNL     1       8.718   1.503  10.609  1.00  0.00     0.062 A 
ATOM     14  C   UNL     1       7.703   1.086  11.479  1.00  0.00     0.162 A 
ATOM     15  C   UNL     1       7.140   1.600   8.778  1.00  0.00     0.062 A 
ATOM     16  C   UNL     1       6.387   0.920  10.987  1.00  0.00     0.200 A 
ATOM     17  C   UNL     1       6.115   1.185   9.637  1.00  0.00     0.162 A 
BRANCH  14  18
ATOM     18  O   UNL     1       8.046   0.853  12.812  1.00  0.00    -0.504 OA
ATOM     19  H   UNL     1       7.519   0.258  13.435  1.00  0.00     0.293 HD
ENDBRANCH  14  18
BRANCH  16  20
ATOM     20  O   UNL     1       5.329   0.502  11.798  1.00  0.00    -0.502 OA
ATOM     21  H   UNL     1       5.364   0.481  12.808  1.00  0.00     0.293 HD
ENDBRANCH  16  20
BRANCH  17  22
ATOM     22  O   UNL     1       4.815   1.037   9.156  1.00  0.00    -0.504 OA
ATOM     23  H   UNL     1       4.506   1.501   8.309  1.00  0.00     0.293 HD
ENDBRANCH  17  22
ENDBRANCH   1  12
BRANCH   2  24
ATOM     24  O   UNL     1       8.652   4.467   8.272  1.00  0.00    -0.502 OA
ATOM     25  H   UNL     1       8.490   5.313   7.738  1.00  0.00     0.293 HD
ENDBRANCH   2  24
BRANCH   6  26
ATOM     26  O   UNL     1      12.992   4.519   5.407  1.00  0.00    -0.507 OA
ATOM     27  H   UNL     1      13.878   4.995   5.532  1.00  0.00     0.293 HD
ENDBRANCH   6  26
BRANCH   8  28
ATOM     28  O   UNL     1      14.396  -0.089   5.674  1.00  0.00    -0.508 OA
ATOM     29  H   UNL     1      14.085  -1.005   5.371  1.00  0.00     0.293 HD
ENDBRANCH   8  28
TORSDOF 7
ENDMDL
MODEL 2
REMARK VINA RESULT:    33.018      4.553      7.950
REMARK INTER + INTRA:          40.468
REMARK INTER:                  40.733
REMARK INTRA:                  -0.265
REMARK UNBOUND:                -0.271
REMARK SMILES O=c1c(O)c(-c2cc(O)c(O)c(O)c2)oc2cc(O)cc(O)c12
REMARK SMILES IDX 5 1 3 2 2 3 1 4 23 5 21 6 20 7 18 8 17 9 16 10 15 11 6 12
REMARK SMILES IDX 7 13 8 14 14 15 10 16 12 17 9 18 11 20 13 22 4 24 22 26
REMARK SMILES IDX 19 28
REMARK H PARENT 9 19 11 21 13 23 4 25 22 27 19 29
REMARK Flexibility Score: inf
ROOT
ATOM      1  C   UNL     1      14.892   2.983   8.239  1.00  0.00     0.180 A 
ATOM      2  C   UNL     1      14.793   1.659   7.769  1.00  0.00     0.208 A 
ATOM      3  C   UNL     1      13.697   1.303   6.968  1.00  0.00     0.238 A 
ATOM      4  O   UNL     1      13.592   0.117   6.551  1.00  0.00    -0.285 OA
ATOM      5  C   UNL     1      12.732   2.277   6.634  1.00  0.00     0.111 A 
ATOM      6  C   UNL     1      11.601   2.000   5.829  1.00  0.00     0.134 A 
ATOM      7  C   UNL     1      10.691   3.026   5.534  1.00  0.00     0.093 A 
ATOM      8  C   UNL     1      10.889   4.318   6.025  1.00  0.00     0.123 A 
ATOM      9  C   UNL     1      12.005   4.597   6.822  1.00  0.00     0.094 A 
ATOM     10  C   UNL     1      12.923   3.588   7.129  1.00  0.00     0.146 A 
ATOM     11  O   UNL     1      13.971   3.877   7.892  1.00  0.00    -0.452 OA
ENDROOT
BRANCH   1  12
ATOM     12  C   UNL     1      16.008   3.429   9.104  1.00  0.00     0.029 A 
ATOM     13  C   UNL     1      15.774   3.658  10.468  1.00  0.00     0.062 A 
ATOM     14  C   UNL     1      16.810   4.060  11.319  1.00  0.00     0.162 A 
ATOM     15  C   UNL     1      17.310   3.572   8.601  1.00  0.00     0.062 A 
ATOM     16  C   UNL     1      18.116   4.224  10.800  1.00  0.00     0.200 A 
ATOM     17  C   UNL     1      18.356   3.972   9.442  1.00  0.00     0.162 A 
BRANCH  14  18
ATOM     18  O   UNL     1      16.498   4.281  12.662  1.00  0.00    -0.504 OA
ATOM     19  H   UNL     1      16.203   5.171  13.035  1.00  0.00     0.293 HD
ENDBRANCH  14  18
BRANCH  16  20
ATOM     20  O   UNL     1      19.193   4.629  11.592  1.00  0.00    -0.502 OA
ATOM     21  H   UNL     1      19.348   5.581  11.894  1.00  0.00     0.293 HD
ENDBRANCH  16  20
BRANCH  17  22
ATOM     22  O   UNL     1      19.646   4.119   8.934  1.00  0.00    -0.504 OA
ATOM     23  H   UNL     1      20.408   3.523   9.238  1.00  0.00     0.293 HD
ENDBRANCH  17  22
ENDBRANCH   1  12
BRANCH   2  24
ATOM     24  O   UNL     1      15.788   0.726   8.074  1.00  0.00    -0.502 OA
ATOM     25  H   UNL     1      15.673   0.028   8.800  1.00  0.00     0.293 HD
ENDBRANCH   2  24
BRANCH   6  26
ATOM     26  O   UNL     1      11.375   0.721   5.322  1.00  0.00    -0.507 OA
ATOM     27  H   UNL     1      11.733  -0.107   5.785  1.00  0.00     0.293 HD
ENDBRANCH   6  26
BRANCH   8  28
ATOM     28  O   UNL     1       9.971   5.320   5.716  1.00  0.00    -0.508 OA
ATOM     29  H   UNL     1       9.016   5.284   6.053  1.00  0.00     0.293 HD
ENDBRANCH   8  28
TORSDOF 7
ENDMDL
MODEL 3
REMARK VINA RESULT:    33.873      1.172      3.286
REMARK INTER + INTRA:          41.524
REMARK INTER:                  41.841
REMARK INTRA:                  -0.317
REMARK UNBOUND:                -0.271
REMARK SMILES O=c1c(O)c(-c2cc(O)c(O)c(O)c2)oc2cc(O)cc(O)c12
REMARK SMILES IDX 5 1 3 2 2 3 1 4 23 5 21 6 20 7 18 8 17 9 16 10 15 11 6 12
REMARK SMILES IDX 7 13 8 14 14 15 10 16 12 17 9 18 11 20 13 22 4 24 22 26
REMARK SMILES IDX 19 28
REMARK H PARENT 9 19 11 21 13 23 4 25 22 27 19 29
REMARK Flexibility Score: inf
ROOT
ATOM      1  C   UNL     1       9.404   1.593   8.519  1.00  0.00     0.180 A 
ATOM      2  C   UNL     1      10.218   0.507   8.141  1.00  0.00     0.208 A 
ATOM      3  C   UNL     1      11.286   0.734   7.258  1.00  0.00     0.238 A 
ATOM      4  O   UNL     1      12.014  -0.232   6.904  1.00  0.00    -0.285 OA
ATOM      5  C   UNL     1      11.534   2.040   6.786  1.00  0.00     0.111 A 
ATOM      6  C   UNL     1      12.591   2.354   5.898  1.00  0.00     0.134 A 
ATOM      7  C   UNL     1      12.778   3.680   5.481  1.00  0.00     0.093 A 
ATOM      8  C   UNL     1      11.933   4.696   5.934  1.00  0.00     0.123 A 
ATOM      9  C   UNL     1      10.886   4.391   6.811  1.00  0.00     0.094 A 
ATOM     10  C   UNL     1      10.681   3.075   7.237  1.00  0.00     0.146 A 
ATOM     11  O   UNL     1       9.678   2.813   8.065  1.00  0.00    -0.452 OA
ENDROOT
BRANCH   1  12
ATOM     12  C   UNL     1       8.249   1.429   9.431  1.00  0.00     0.029 A 
ATOM     13  C   UNL     1       6.956   1.337   8.894  1.00  0.00     0.062 A 
ATOM     14  C   UNL     1       5.842   1.161   9.724  1.00  0.00     0.162 A 
ATOM     15  C   UNL     1       8.423   1.305  10.817  1.00  0.00     0.062 A 
ATOM     16  C   UNL     1       6.024   1.059  11.124  1.00  0.00     0.200 A 
ATOM     17  C   UNL     1       7.318   1.127  11.659  1.00  0.00     0.162 A 
BRANCH  14  18
ATOM     18  O   UNL     1       4.586   1.090   9.120  1.00  0.00    -0.504 OA
ATOM     19  H   UNL     1       3.824   1.721   9.322  1.00  0.00     0.293 HD
ENDBRANCH  14  18
BRANCH  16  20
ATOM     20  O   UNL     1       4.957   0.889  12.009  1.00  0.00    -0.502 OA
ATOM     21  H   UNL     1       4.844   1.410  12.868  1.00  0.00     0.293 HD
ENDBRANCH  16  20
BRANCH  17  22
ATOM     22  O   UNL     1       7.499   1.012  13.037  1.00  0.00    -0.504 OA
ATOM     23  H   UNL     1       8.401   1.176  13.470  1.00  0.00     0.293 HD
ENDBRANCH  17  22
ENDBRANCH   1  12
BRANCH   2  24
ATOM     24  O   UNL     1       9.980  -0.768   8.661  1.00  0.00    -0.502 OA
ATOM     25  H   UNL     1      10.718  -1.451   8.781  1.00  0.00     0.293 HD
ENDBRANCH   2  24
BRANCH   6  26
ATOM     26  O   UNL     1      13.453   1.363   5.429  1.00  0.00    -0.507 OA
ATOM     27  H   UNL     1      13.112   0.557   4.918  1.00  0.00     0.293 HD
ENDBRANCH   6  26
BRANCH   8  28
ATOM     28  O   UNL     1      12.141   6.005   5.505  1.00  0.00    -0.508 OA
ATOM     29  H   UNL     1      11.539   6.763   5.806  1.00  0.00     0.293 HD
ENDBRANCH   8  28
TORSDOF 7
ENDMDL
MODEL 4
REMARK VINA RESULT:    34.252      4.793      7.661
REMARK INTER + INTRA:          41.991
REMARK INTER:                  42.309
REMARK INTRA:                  -0.317
REMARK UNBOUND:                -0.271
REMARK SMILES O=c1c(O)c(-c2cc(O)c(O)c(O)c2)oc2cc(O)cc(O)c12
REMARK SMILES IDX 5 1 3 2 2 3 1 4 23 5 21 6 20 7 18 8 17 9 16 10 15 11 6 12
REMARK SMILES IDX 7 13 8 14 14 15 10 16 12 17 9 18 11 20 13 22 4 24 22 26
REMARK SMILES IDX 19 28
REMARK H PARENT 9 19 11 21 13 23 4 25 22 27 19 29
REMARK Flexibility Score: inf
ROOT
ATOM      1  C   UNL     1      15.006   3.574   8.436  1.00  0.00     0.180 A 
ATOM      2  C   UNL     1      14.188   4.669   8.097  1.00  0.00     0.208 A 
ATOM      3  C   UNL     1      13.101   4.463   7.232  1.00  0.00     0.238 A 
ATOM      4  O   UNL     1      12.368   5.438   6.913  1.00  0.00    -0.285 OA
ATOM      5  C   UNL     1      12.840   3.167   6.739  1.00  0.00     0.111 A 
ATOM      6  C   UNL     1      11.764   2.874   5.867  1.00  0.00     0.134 A 
ATOM      7  C   UNL     1      11.565   1.557   5.427  1.00  0.00     0.093 A 
ATOM      8  C   UNL     1      12.417   0.531   5.841  1.00  0.00     0.123 A 
ATOM      9  C   UNL     1      13.482   0.815   6.701  1.00  0.00     0.094 A 
ATOM     10  C   UNL     1      13.699   2.122   7.150  1.00  0.00     0.146 A 
ATOM     11  O   UNL     1      14.720   2.365   7.962  1.00  0.00    -0.452 OA
ENDROOT
BRANCH   1  12
ATOM     12  C   UNL     1      16.181   3.717   9.326  1.00  0.00     0.029 A 
ATOM     13  C   UNL     1      17.463   3.815   8.765  1.00  0.00     0.062 A 
ATOM     14  C   UNL     1      18.594   3.972   9.575  1.00  0.00     0.162 A 
ATOM     15  C   UNL     1      16.036   3.815  10.718  1.00  0.00     0.062 A 
ATOM     16  C   UNL     1      18.441   4.047  10.980  1.00  0.00     0.200 A 
ATOM     17  C   UNL     1      17.158   3.973  11.540  1.00  0.00     0.162 A 
BRANCH  14  18
ATOM     18  O   UNL     1      19.838   4.050   8.946  1.00  0.00    -0.504 OA
ATOM     19  H   UNL     1      20.577   4.677   9.229  1.00  0.00     0.293 HD
ENDBRANCH  14  18
BRANCH  16  20
ATOM     20  O   UNL     1      19.527   4.197  11.846  1.00  0.00    -0.502 OA
ATOM     21  H   UNL     1      19.625   4.956  12.506  1.00  0.00     0.293 HD
ENDBRANCH  16  20
BRANCH  17  22
ATOM     22  O   UNL     1      17.007   4.062  12.923  1.00  0.00    -0.504 OA
ATOM     23  H   UNL     1      16.206   4.524  13.341  1.00  0.00     0.293 HD
ENDBRANCH  17  22
ENDBRANCH   1  12
BRANCH   2  24
ATOM     24  O   UNL     1      14.439   5.933   8.639  1.00  0.00    -0.502 OA
ATOM     25  H   UNL     1      14.813   6.058   9.572  1.00  0.00     0.293 HD
ENDBRANCH   2  24
BRANCH   6  26
ATOM     26  O   UNL     1      10.895   3.876   5.437  1.00  0.00    -0.507 OA
ATOM     27  H   UNL     1      11.198   4.614   4.811  1.00  0.00     0.293 HD
ENDBRANCH   6  26
BRANCH   8  28
ATOM     28  O   UNL     1      12.197  -0.769   5.389  1.00  0.00    -0.508 OA
ATOM     29  H   UNL     1      12.068  -1.539   6.036  1.00  0.00     0.293 HD
ENDBRANCH   8  28
TORSDOF 7
ENDMDL
MODEL 5
REMARK VINA RESULT:    34.920      1.472      7.289
REMARK INTER + INTRA:          42.815
REMARK INTER:                  43.157
REMARK INTRA:                  -0.342
REMARK UNBOUND:                -0.271
REMARK SMILES O=c1c(O)c(-c2cc(O)c(O)c(O)c2)oc2cc(O)cc(O)c12
REMARK SMILES IDX 5 1 3 2 2 3 1 4 23 5 21 6 20 7 18 8 17 9 16 10 15 11 6 12
REMARK SMILES IDX 7 13 8 14 14 15 10 16 12 17 9 18 11 20 13 22 4 24 22 26
REMARK SMILES IDX 19 28
REMARK H PARENT 9 19 11 21 13 23 4 25 22 27 19 29
REMARK Flexibility Score: inf
ROOT
ATOM      1  C   UNL     1       8.892   1.757   8.669  1.00  0.00     0.180 A 
ATOM      2  C   UNL     1       8.964   1.458  10.043  1.00  0.00     0.208 A 
ATOM      3  C   UNL     1       7.774   1.237  10.754  1.00  0.00     0.238 A 
ATOM      4  O   UNL     1       7.826   0.980  11.987  1.00  0.00    -0.285 OA
ATOM      5  C   UNL     1       6.537   1.299  10.077  1.00  0.00     0.111 A 
ATOM      6  C   UNL     1       5.294   1.085  10.719  1.00  0.00     0.134 A 
ATOM      7  C   UNL     1       4.107   1.154   9.975  1.00  0.00     0.093 A 
ATOM      8  C   UNL     1       4.139   1.430   8.606  1.00  0.00     0.123 A 
ATOM      9  C   UNL     1       5.364   1.643   7.967  1.00  0.00     0.094 A 
ATOM     10  C   UNL     1       6.559   1.580   8.692  1.00  0.00     0.146 A 
ATOM     11  O   UNL     1       7.708   1.792   8.062  1.00  0.00    -0.452 OA
ENDROOT
BRANCH   1  12
ATOM     12  C   UNL     1      10.101   2.021   7.856  1.00  0.00     0.029 A 
ATOM     13  C   UNL     1      10.821   0.942   7.322  1.00  0.00     0.062 A 
ATOM     14  C   UNL     1      11.957   1.155   6.532  1.00  0.00     0.162 A 
ATOM     15  C   UNL     1      10.512   3.329   7.560  1.00  0.00     0.062 A 
ATOM     16  C   UNL     1      12.378   2.477   6.256  1.00  0.00     0.200 A 
ATOM     17  C   UNL     1      11.646   3.557   6.770  1.00  0.00     0.162 A 
BRANCH  14  18
ATOM     18  O   UNL     1      12.629   0.032   6.045  1.00  0.00    -0.504 OA
ATOM     19  H   UNL     1      12.251  -0.904   6.059  1.00  0.00     0.293 HD
ENDBRANCH  14  18
BRANCH  16  20
ATOM     20  O   UNL     1      13.506   2.760   5.481  1.00  0.00    -0.502 OA
ATOM     21  H   UNL     1      13.844   3.693   5.292  1.00  0.00     0.293 HD
ENDBRANCH  16  20
BRANCH  17  22
ATOM     22  O   UNL     1      12.052   4.860   6.486  1.00  0.00    -0.504 OA
ATOM     23  H   UNL     1      12.359   5.130   5.559  1.00  0.00     0.293 HD
ENDBRANCH  17  22
ENDBRANCH   1  12
BRANCH   2  24
ATOM     24  O   UNL     1      10.205   1.355  10.678  1.00  0.00    -0.502 OA
ATOM     25  H   UNL     1      11.074   1.288  10.162  1.00  0.00     0.293 HD
ENDBRANCH   2  24
BRANCH   6  26
ATOM     26  O   UNL     1       5.228   0.806  12.084  1.00  0.00    -0.507 OA
ATOM     27  H   UNL     1       5.937   1.133  12.730  1.00  0.00     0.293 HD
ENDBRANCH   6  26
BRANCH   8  28
ATOM     28  O   UNL     1       2.945   1.493   7.890  1.00  0.00    -0.508 OA
ATOM     29  H   UNL     1       2.853   2.074   7.064  1.00  0.00     0.293 HD
ENDBRANCH   8  28
TORSDOF 7
ENDMDL
