MODEL 1
REMARK VINA RESULT:    -5.230      0.000      0.000
REMARK INTER + INTRA:         -14.084
REMARK INTER:                 -11.957
REMARK INTRA:                  -2.127
REMARK UNBOUND:                -2.127
REMARK SMILES CCCCCCCCCCCCCCCCCCCCCCCC(=O)[O-]
REMARK SMILES IDX 13 1 14 2 15 3 16 4 17 5 18 6 19 7 20 8 21 9 22 10 23 11
REMARK SMILES IDX 24 12 25 13 26 14 12 15 11 16 10 17 9 18 8 19 7 20 6 21 5 22
REMARK SMILES IDX 4 23 3 24 2 25 1 26
REMARK H PARENT
REMARK Flexibility Score: inf
ROOT
ATOM      1  C   UNL     1      -8.136  37.271   5.944  1.00  0.00     0.000 C 
ENDROOT
BRANCH   1   2
ATOM      2  C   UNL     1      -8.732  38.677   6.128  1.00  0.00     0.000 C 
BRANCH   2   3
ATOM      3  C   UNL     1     -10.153  38.650   6.712  1.00  0.00     0.000 C 
BRANCH   3   4
ATOM      4  C   UNL     1     -11.169  39.217   5.710  1.00  0.00     0.000 C 
BRANCH   4   5
ATOM      5  C   UNL     1     -12.268  40.053   6.385  1.00  0.00     0.000 C 
BRANCH   5   6
ATOM      6  C   UNL     1     -12.972  39.300   7.522  1.00  0.00     0.000 C 
BRANCH   6   7
ATOM      7  C   UNL     1     -12.589  39.882   8.890  1.00  0.00     0.000 C 
BRANCH   7   8
ATOM      8  C   UNL     1     -12.118  38.809   9.887  1.00  0.00     0.000 C 
BRANCH   8   9
ATOM      9  C   UNL     1     -12.591  37.384   9.528  1.00  0.00     0.000 C 
BRANCH   9  10
ATOM     10  C   UNL     1     -11.412  36.410   9.351  1.00  0.00     0.006 C 
BRANCH  10  11
ATOM     11  C   UNL     1     -11.834  35.105   8.663  1.00  0.00     0.053 C 
BRANCH  11  12
ATOM     12  C   UNL     1     -11.030  33.937   9.144  1.00  0.00     0.041 C 
ATOM     13  O   UNL     1     -10.932  33.701  10.378  1.00  0.00    -0.550 OA
ATOM     14  O   UNL     1     -10.362  33.129   8.233  1.00  0.00    -0.550 OA
ENDBRANCH  11  12
ENDBRANCH  10  11
ENDBRANCH   9  10
ENDBRANCH   8   9
ENDBRANCH   7   8
ENDBRANCH   6   7
ENDBRANCH   5   6
ENDBRANCH   4   5
ENDBRANCH   3   4
ENDBRANCH   2   3
ENDBRANCH   1   2
BRANCH   1  15
ATOM     15  C   UNL     1      -9.076  36.159   6.440  1.00  0.00     0.000 C 
BRANCH  15  16
ATOM     16  C   UNL     1      -9.168  34.971   5.463  1.00  0.00     0.000 C 
BRANCH  16  17
ATOM     17  C   UNL     1      -7.827  34.300   5.113  1.00  0.00     0.000 C 
BRANCH  17  18
ATOM     18  C   UNL     1      -7.394  33.247   6.147  1.00  0.00    -0.000 C 
BRANCH  18  19
ATOM     19  C   UNL     1      -5.891  32.921   6.087  1.00  0.00    -0.000 C 
BRANCH  19  20
ATOM     20  C   UNL     1      -5.495  31.513   6.574  1.00  0.00    -0.000 C 
BRANCH  20  21
ATOM     21  C   UNL     1      -6.350  30.397   5.953  1.00  0.00    -0.000 C 
BRANCH  21  22
ATOM     22  C   UNL     1      -5.504  29.236   5.400  1.00  0.00    -0.000 C 
BRANCH  22  23
ATOM     23  C   UNL     1      -4.031  29.266   5.863  1.00  0.00    -0.000 C 
BRANCH  23  24
ATOM     24  C   UNL     1      -3.754  28.243   6.978  1.00  0.00    -0.000 C 
BRANCH  24  25
ATOM     25  C   UNL     1      -2.770  28.774   8.033  1.00  0.00    -0.003 C 
ATOM     26  C   UNL     1      -2.197  27.665   8.915  1.00  0.00     0.004 C 
ENDBRANCH  24  25
ENDBRANCH  23  24
ENDBRANCH  22  23
ENDBRANCH  21  22
ENDBRANCH  20  21
ENDBRANCH  19  20
ENDBRANCH  18  19
ENDBRANCH  17  18
ENDBRANCH  16  17
ENDBRANCH  15  16
ENDBRANCH   1  15
TORSDOF 22
ENDMDL
MODEL 2
REMARK VINA RESULT:    -5.207      2.759      9.409
REMARK INTER + INTRA:         -14.031
REMARK INTER:                 -11.581
REMARK INTRA:                  -2.451
REMARK UNBOUND:                -2.127
REMARK SMILES CCCCCCCCCCCCCCCCCCCCCCCC(=O)[O-]
REMARK SMILES IDX 13 1 14 2 15 3 16 4 17 5 18 6 19 7 20 8 21 9 22 10 23 11
REMARK SMILES IDX 24 12 25 13 26 14 12 15 11 16 10 17 9 18 8 19 7 20 6 21 5 22
REMARK SMILES IDX 4 23 3 24 2 25 1 26
REMARK H PARENT
REMARK Flexibility Score: inf
ROOT
ATOM      1  C   UNL     1      -8.189  34.081   5.257  1.00  0.00     0.000 C 
ENDROOT
BRANCH   1   2
ATOM      2  C   UNL     1      -6.769  33.736   5.736  1.00  0.00     0.000 C 
BRANCH   2   3
ATOM      3  C   UNL     1      -6.594  32.242   6.053  1.00  0.00     0.000 C 
BRANCH   3   4
ATOM      4  C   UNL     1      -7.763  31.721   6.903  1.00  0.00     0.000 C 
BRANCH   4   5
ATOM      5  C   UNL     1      -8.517  30.562   6.230  1.00  0.00     0.000 C 
BRANCH   5   6
ATOM      6  C   UNL     1      -7.886  30.139   4.896  1.00  0.00     0.000 C 
BRANCH   6   7
ATOM      7  C   UNL     1      -7.977  28.619   4.700  1.00  0.00     0.000 C 
BRANCH   7   8
ATOM      8  C   UNL     1      -7.210  27.830   5.775  1.00  0.00     0.000 C 
BRANCH   8   9
ATOM      9  C   UNL     1      -5.785  27.425   5.343  1.00  0.00     0.000 C 
BRANCH   9  10
ATOM     10  C   UNL     1      -4.758  27.625   6.473  1.00  0.00     0.006 C 
BRANCH  10  11
ATOM     11  C   UNL     1      -3.738  28.723   6.144  1.00  0.00     0.053 C 
BRANCH  11  12
ATOM     12  C   UNL     1      -2.952  29.131   7.352  1.00  0.00     0.041 C 
ATOM     13  O   UNL     1      -3.116  30.272   7.859  1.00  0.00    -0.550 OA
ATOM     14  O   UNL     1      -2.013  28.263   7.897  1.00  0.00    -0.550 OA
ENDBRANCH  11  12
ENDBRANCH  10  11
ENDBRANCH   9  10
ENDBRANCH   8   9
ENDBRANCH   7   8
ENDBRANCH   6   7
ENDBRANCH   5   6
ENDBRANCH   4   5
ENDBRANCH   3   4
ENDBRANCH   2   3
ENDBRANCH   1   2
BRANCH   1  15
ATOM     15  C   UNL     1      -8.858  35.168   6.116  1.00  0.00     0.000 C 
BRANCH  15  16
ATOM     16  C   UNL     1      -8.981  36.519   5.386  1.00  0.00     0.000 C 
BRANCH  16  17
ATOM     17  C   UNL     1      -8.190  37.682   6.013  1.00  0.00     0.000 C 
BRANCH  17  18
ATOM     18  C   UNL     1      -9.065  38.912   6.310  1.00  0.00    -0.000 C 
BRANCH  18  19
ATOM     19  C   UNL     1     -10.406  38.898   5.555  1.00  0.00    -0.000 C 
BRANCH  19  20
ATOM     20  C   UNL     1     -11.615  39.448   6.335  1.00  0.00    -0.000 C 
BRANCH  20  21
ATOM     21  C   UNL     1     -11.514  39.213   7.851  1.00  0.00    -0.000 C 
BRANCH  21  22
ATOM     22  C   UNL     1     -12.529  38.175   8.362  1.00  0.00    -0.000 C 
BRANCH  22  23
ATOM     23  C   UNL     1     -12.129  36.715   8.060  1.00  0.00    -0.000 C 
BRANCH  23  24
ATOM     24  C   UNL     1     -10.867  36.289   8.831  1.00  0.00    -0.000 C 
BRANCH  24  25
ATOM     25  C   UNL     1     -11.055  34.961   9.582  1.00  0.00    -0.003 C 
ATOM     26  C   UNL     1     -10.954  33.745   8.661  1.00  0.00     0.004 C 
ENDBRANCH  24  25
ENDBRANCH  23  24
ENDBRANCH  22  23
ENDBRANCH  21  22
ENDBRANCH  20  21
ENDBRANCH  19  20
ENDBRANCH  18  19
ENDBRANCH  17  18
ENDBRANCH  16  17
ENDBRANCH  15  16
ENDBRANCH   1  15
TORSDOF 22
ENDMDL
MODEL 3
REMARK VINA RESULT:    -5.147      1.628      3.813
REMARK INTER + INTRA:         -13.893
REMARK INTER:                 -11.665
REMARK INTRA:                  -2.228
REMARK UNBOUND:                -2.127
REMARK SMILES CCCCCCCCCCCCCCCCCCCCCCCC(=O)[O-]
REMARK SMILES IDX 13 1 14 2 15 3 16 4 17 5 18 6 19 7 20 8 21 9 22 10 23 11
REMARK SMILES IDX 24 12 25 13 26 14 12 15 11 16 10 17 9 18 8 19 7 20 6 21 5 22
REMARK SMILES IDX 4 23 3 24 2 25 1 26
REMARK H PARENT
REMARK Flexibility Score: inf
ROOT
ATOM      1  C   UNL     1      -6.730  33.628   5.761  1.00  0.00     0.000 C 
ENDROOT
BRANCH   1   2
ATOM      2  C   UNL     1      -8.136  33.963   5.237  1.00  0.00     0.000 C 
BRANCH   2   3
ATOM      3  C   UNL     1      -9.120  34.328   6.359  1.00  0.00     0.000 C 
BRANCH   3   4
ATOM      4  C   UNL     1      -9.058  35.830   6.677  1.00  0.00     0.000 C 
BRANCH   4   5
ATOM      5  C   UNL     1      -8.552  36.667   5.491  1.00  0.00     0.000 C 
BRANCH   5   6
ATOM      6  C   UNL     1      -8.092  38.071   5.910  1.00  0.00     0.000 C 
BRANCH   6   7
ATOM      7  C   UNL     1      -9.209  38.818   6.653  1.00  0.00     0.000 C 
BRANCH   7   8
ATOM      8  C   UNL     1     -10.439  39.089   5.769  1.00  0.00     0.000 C 
BRANCH   8   9
ATOM      9  C   UNL     1     -11.727  39.367   6.573  1.00  0.00     0.000 C 
BRANCH   9  10
ATOM     10  C   UNL     1     -11.466  39.411   8.090  1.00  0.00     0.006 C 
BRANCH  10  11
ATOM     11  C   UNL     1     -12.327  38.400   8.858  1.00  0.00     0.053 C 
BRANCH  11  12
ATOM     12  C   UNL     1     -11.671  37.056   8.935  1.00  0.00     0.041 C 
ATOM     13  O   UNL     1     -10.638  36.895   9.639  1.00  0.00    -0.550 OA
ATOM     14  O   UNL     1     -12.179  35.990   8.204  1.00  0.00    -0.550 OA
ENDBRANCH  11  12
ENDBRANCH  10  11
ENDBRANCH   9  10
ENDBRANCH   8   9
ENDBRANCH   7   8
ENDBRANCH   6   7
ENDBRANCH   5   6
ENDBRANCH   4   5
ENDBRANCH   3   4
ENDBRANCH   2   3
ENDBRANCH   1   2
BRANCH   1  15
ATOM     15  C   UNL     1      -6.571  32.143   6.131  1.00  0.00     0.000 C 
BRANCH  15  16
ATOM     16  C   UNL     1      -7.544  31.227   5.363  1.00  0.00     0.000 C 
BRANCH  16  17
ATOM     17  C   UNL     1      -8.234  30.142   6.210  1.00  0.00     0.000 C 
BRANCH  17  18
ATOM     18  C   UNL     1      -8.601  28.889   5.398  1.00  0.00    -0.000 C 
BRANCH  18  19
ATOM     19  C   UNL     1      -7.810  28.766   4.082  1.00  0.00    -0.000 C 
BRANCH  19  20
ATOM     20  C   UNL     1      -6.607  27.804   4.116  1.00  0.00    -0.000 C 
BRANCH  20  21
ATOM     21  C   UNL     1      -5.252  28.528   4.079  1.00  0.00    -0.000 C 
BRANCH  21  22
ATOM     22  C   UNL     1      -4.414  28.290   5.347  1.00  0.00    -0.000 C 
BRANCH  22  23
ATOM     23  C   UNL     1      -5.007  27.223   6.292  1.00  0.00    -0.000 C 
BRANCH  23  24
ATOM     24  C   UNL     1      -4.097  26.952   7.503  1.00  0.00    -0.000 C 
BRANCH  24  25
ATOM     25  C   UNL     1      -3.345  28.209   7.969  1.00  0.00    -0.003 C 
ATOM     26  C   UNL     1      -1.902  27.915   8.377  1.00  0.00     0.004 C 
ENDBRANCH  24  25
ENDBRANCH  23  24
ENDBRANCH  22  23
ENDBRANCH  21  22
ENDBRANCH  20  21
ENDBRANCH  19  20
ENDBRANCH  18  19
ENDBRANCH  17  18
ENDBRANCH  16  17
ENDBRANCH  15  16
ENDBRANCH   1  15
TORSDOF 22
ENDMDL
MODEL 4
REMARK VINA RESULT:    -5.063      2.791      9.541
REMARK INTER + INTRA:         -13.702
REMARK INTER:                 -11.549
REMARK INTRA:                  -2.153
REMARK UNBOUND:                -2.127
REMARK SMILES CCCCCCCCCCCCCCCCCCCCCCCC(=O)[O-]
REMARK SMILES IDX 13 1 14 2 15 3 16 4 17 5 18 6 19 7 20 8 21 9 22 10 23 11
REMARK SMILES IDX 24 12 25 13 26 14 12 15 11 16 10 17 9 18 8 19 7 20 6 21 5 22
REMARK SMILES IDX 4 23 3 24 2 25 1 26
REMARK H PARENT
REMARK Flexibility Score: inf
ROOT
ATOM      1  C   UNL     1      -8.217  35.124   5.812  1.00  0.00     0.000 C 
ENDROOT
BRANCH   1   2
ATOM      2  C   UNL     1      -9.269  34.182   6.420  1.00  0.00     0.000 C 
BRANCH   2   3
ATOM      3  C   UNL     1      -8.690  32.811   6.804  1.00  0.00     0.000 C 
BRANCH   3   4
ATOM      4  C   UNL     1      -7.264  32.644   6.257  1.00  0.00     0.000 C 
BRANCH   4   5
ATOM      5  C   UNL     1      -6.877  31.172   6.044  1.00  0.00     0.000 C 
BRANCH   5   6
ATOM      6  C   UNL     1      -8.097  30.244   5.961  1.00  0.00     0.000 C 
BRANCH   6   7
ATOM      7  C   UNL     1      -7.670  28.769   5.958  1.00  0.00     0.000 C 
BRANCH   7   8
ATOM      8  C   UNL     1      -6.264  28.554   5.372  1.00  0.00     0.000 C 
BRANCH   8   9
ATOM      9  C   UNL     1      -5.497  27.383   6.021  1.00  0.00     0.000 C 
BRANCH   9  10
ATOM     10  C   UNL     1      -4.075  27.786   6.449  1.00  0.00     0.006 C 
BRANCH  10  11
ATOM     11  C   UNL     1      -3.646  27.109   7.757  1.00  0.00     0.053 C 
BRANCH  11  12
ATOM     12  C   UNL     1      -2.858  28.035   8.631  1.00  0.00     0.041 C 
ATOM     13  O   UNL     1      -2.655  29.225   8.271  1.00  0.00    -0.550 OA
ATOM     14  O   UNL     1      -2.320  27.576   9.826  1.00  0.00    -0.550 OA
ENDBRANCH  11  12
ENDBRANCH  10  11
ENDBRANCH   9  10
ENDBRANCH   8   9
ENDBRANCH   7   8
ENDBRANCH   6   7
ENDBRANCH   5   6
ENDBRANCH   4   5
ENDBRANCH   3   4
ENDBRANCH   2   3
ENDBRANCH   1   2
BRANCH   1  15
ATOM     15  C   UNL     1      -8.822  36.449   5.317  1.00  0.00     0.000 C 
BRANCH  15  16
ATOM     16  C   UNL     1      -8.202  37.684   5.999  1.00  0.00     0.000 C 
BRANCH  16  17
ATOM     17  C   UNL     1      -9.148  38.887   6.169  1.00  0.00     0.000 C 
BRANCH  17  18
ATOM     18  C   UNL     1     -10.576  38.603   5.674  1.00  0.00    -0.000 C 
BRANCH  18  19
ATOM     19  C   UNL     1     -11.549  39.768   5.930  1.00  0.00    -0.000 C 
BRANCH  19  20
ATOM     20  C   UNL     1     -12.484  39.601   7.143  1.00  0.00    -0.000 C 
BRANCH  20  21
ATOM     21  C   UNL     1     -11.734  39.566   8.484  1.00  0.00    -0.000 C 
BRANCH  21  22
ATOM     22  C   UNL     1     -11.988  38.272   9.276  1.00  0.00    -0.000 C 
BRANCH  22  23
ATOM     23  C   UNL     1     -10.949  37.163   9.003  1.00  0.00    -0.000 C 
BRANCH  23  24
ATOM     24  C   UNL     1     -11.610  35.791   8.785  1.00  0.00    -0.000 C 
BRANCH  24  25
ATOM     25  C   UNL     1     -11.076  34.720   9.749  1.00  0.00    -0.003 C 
ATOM     26  C   UNL     1     -11.393  33.298   9.285  1.00  0.00     0.004 C 
ENDBRANCH  24  25
ENDBRANCH  23  24
ENDBRANCH  22  23
ENDBRANCH  21  22
ENDBRANCH  20  21
ENDBRANCH  19  20
ENDBRANCH  18  19
ENDBRANCH  17  18
ENDBRANCH  16  17
ENDBRANCH  15  16
ENDBRANCH   1  15
TORSDOF 22
ENDMDL
MODEL 5
REMARK VINA RESULT:    -5.016      1.355      2.858
REMARK INTER + INTRA:         -13.595
REMARK INTER:                 -11.225
REMARK INTRA:                  -2.370
REMARK UNBOUND:                -2.127
REMARK SMILES CCCCCCCCCCCCCCCCCCCCCCCC(=O)[O-]
REMARK SMILES IDX 13 1 14 2 15 3 16 4 17 5 18 6 19 7 20 8 21 9 22 10 23 11
REMARK SMILES IDX 24 12 25 13 26 14 12 15 11 16 10 17 9 18 8 19 7 20 6 21 5 22
REMARK SMILES IDX 4 23 3 24 2 25 1 26
REMARK H PARENT
REMARK Flexibility Score: inf
ROOT
ATOM      1  C   UNL     1      -8.464  35.167   6.125  1.00  0.00     0.000 C 
ENDROOT
BRANCH   1   2
ATOM      2  C   UNL     1      -8.635  36.503   5.384  1.00  0.00     0.000 C 
BRANCH   2   3
ATOM      3  C   UNL     1      -7.998  37.685   6.132  1.00  0.00     0.000 C 
BRANCH   3   4
ATOM      4  C   UNL     1      -9.030  38.794   6.386  1.00  0.00     0.000 C 
BRANCH   4   5
ATOM      5  C   UNL     1     -10.450  38.396   5.952  1.00  0.00     0.000 C 
BRANCH   5   6
ATOM      6  C   UNL     1     -11.332  39.609   5.626  1.00  0.00     0.000 C 
BRANCH   6   7
ATOM      7  C   UNL     1     -12.524  39.699   6.589  1.00  0.00     0.000 C 
BRANCH   7   8
ATOM      8  C   UNL     1     -12.105  40.029   8.032  1.00  0.00     0.000 C 
BRANCH   8   9
ATOM      9  C   UNL     1     -12.588  38.991   9.067  1.00  0.00     0.000 C 
BRANCH   9  10
ATOM     10  C   UNL     1     -13.120  37.710   8.400  1.00  0.00     0.006 C 
BRANCH  10  11
ATOM     11  C   UNL     1     -12.679  36.441   9.140  1.00  0.00     0.053 C 
BRANCH  11  12
ATOM     12  C   UNL     1     -11.442  35.849   8.540  1.00  0.00     0.041 C 
ATOM     13  O   UNL     1     -11.524  34.853   7.772  1.00  0.00    -0.550 OA
ATOM     14  O   UNL     1     -10.195  36.374   8.854  1.00  0.00    -0.550 OA
ENDBRANCH  11  12
ENDBRANCH  10  11
ENDBRANCH   9  10
ENDBRANCH   8   9
ENDBRANCH   7   8
ENDBRANCH   6   7
ENDBRANCH   5   6
ENDBRANCH   4   5
ENDBRANCH   3   4
ENDBRANCH   2   3
ENDBRANCH   1   2
BRANCH   1  15
ATOM     15  C   UNL     1      -8.928  33.961   5.290  1.00  0.00     0.000 C 
BRANCH  15  16
ATOM     16  C   UNL     1      -7.928  32.790   5.319  1.00  0.00     0.000 C 
BRANCH  16  17
ATOM     17  C   UNL     1      -6.520  33.139   5.837  1.00  0.00     0.000 C 
BRANCH  17  18
ATOM     18  C   UNL     1      -6.003  32.143   6.888  1.00  0.00    -0.000 C 
BRANCH  18  19
ATOM     19  C   UNL     1      -4.996  31.127   6.317  1.00  0.00    -0.000 C 
BRANCH  19  20
ATOM     20  C   UNL     1      -3.863  30.704   7.272  1.00  0.00    -0.000 C 
BRANCH  20  21
ATOM     21  C   UNL     1      -3.336  29.287   6.994  1.00  0.00    -0.000 C 
BRANCH  21  22
ATOM     22  C   UNL     1      -4.010  28.629   5.777  1.00  0.00    -0.000 C 
BRANCH  22  23
ATOM     23  C   UNL     1      -4.800  27.348   6.124  1.00  0.00    -0.000 C 
BRANCH  23  24
ATOM     24  C   UNL     1      -6.196  27.336   5.476  1.00  0.00    -0.000 C 
BRANCH  24  25
ATOM     25  C   UNL     1      -6.265  28.204   4.209  1.00  0.00    -0.003 C 
ATOM     26  C   UNL     1      -7.422  29.202   4.242  1.00  0.00     0.004 C 
ENDBRANCH  24  25
ENDBRANCH  23  24
ENDBRANCH  22  23
ENDBRANCH  21  22
ENDBRANCH  20  21
ENDBRANCH  19  20
ENDBRANCH  18  19
ENDBRANCH  17  18
ENDBRANCH  16  17
ENDBRANCH  15  16
ENDBRANCH   1  15
TORSDOF 22
ENDMDL
MODEL 6
REMARK VINA RESULT:    -5.013      2.870      8.478
REMARK INTER + INTRA:         -13.588
REMARK INTER:                 -11.636
REMARK INTRA:                  -1.952
REMARK UNBOUND:                -2.127
REMARK SMILES CCCCCCCCCCCCCCCCCCCCCCCC(=O)[O-]
REMARK SMILES IDX 13 1 14 2 15 3 16 4 17 5 18 6 19 7 20 8 21 9 22 10 23 11
REMARK SMILES IDX 24 12 25 13 26 14 12 15 11 16 10 17 9 18 8 19 7 20 6 21 5 22
REMARK SMILES IDX 4 23 3 24 2 25 1 26
REMARK H PARENT
REMARK Flexibility Score: inf
ROOT
ATOM      1  C   UNL     1      -9.105  38.379   6.134  1.00  0.00     0.000 C 
ENDROOT
BRANCH   1   2
ATOM      2  C   UNL     1      -8.710  36.893   6.107  1.00  0.00     0.000 C 
BRANCH   2   3
ATOM      3  C   UNL     1      -9.774  36.006   5.443  1.00  0.00     0.000 C 
BRANCH   3   4
ATOM      4  C   UNL     1      -9.318  34.539   5.401  1.00  0.00     0.000 C 
BRANCH   4   5
ATOM      5  C   UNL     1      -7.835  34.367   5.771  1.00  0.00     0.000 C 
BRANCH   5   6
ATOM      6  C   UNL     1      -7.491  32.930   6.185  1.00  0.00     0.000 C 
BRANCH   6   7
ATOM      7  C   UNL     1      -5.971  32.732   6.275  1.00  0.00     0.000 C 
BRANCH   7   8
ATOM      8  C   UNL     1      -5.553  31.254   6.181  1.00  0.00     0.000 C 
BRANCH   8   9
ATOM      9  C   UNL     1      -4.254  30.931   6.949  1.00  0.00     0.000 C 
BRANCH   9  10
ATOM     10  C   UNL     1      -3.838  29.457   6.790  1.00  0.00     0.006 C 
BRANCH  10  11
ATOM     11  C   UNL     1      -2.655  29.085   7.694  1.00  0.00     0.053 C 
BRANCH  11  12
ATOM     12  C   UNL     1      -2.822  27.723   8.295  1.00  0.00     0.041 C 
ATOM     13  O   UNL     1      -1.843  27.149   8.842  1.00  0.00    -0.550 OA
ATOM     14  O   UNL     1      -4.047  27.075   8.220  1.00  0.00    -0.550 OA
ENDBRANCH  11  12
ENDBRANCH  10  11
ENDBRANCH   9  10
ENDBRANCH   8   9
ENDBRANCH   7   8
ENDBRANCH   6   7
ENDBRANCH   5   6
ENDBRANCH   4   5
ENDBRANCH   3   4
ENDBRANCH   2   3
ENDBRANCH   1   2
BRANCH   1  15
ATOM     15  C   UNL     1     -10.488  38.637   5.510  1.00  0.00     0.000 C 
BRANCH  15  16
ATOM     16  C   UNL     1     -11.534  39.100   6.542  1.00  0.00     0.000 C 
BRANCH  16  17
ATOM     17  C   UNL     1     -11.003  39.307   7.972  1.00  0.00     0.000 C 
BRANCH  17  18
ATOM     18  C   UNL     1     -12.100  39.727   8.965  1.00  0.00    -0.000 C 
BRANCH  18  19
ATOM     19  C   UNL     1     -12.542  38.584   9.898  1.00  0.00    -0.000 C 
BRANCH  19  20
ATOM     20  C   UNL     1     -11.574  37.390   9.994  1.00  0.00    -0.000 C 
BRANCH  20  21
ATOM     21  C   UNL     1     -12.081  36.140   9.257  1.00  0.00    -0.000 C 
BRANCH  21  22
ATOM     22  C   UNL     1     -10.938  35.260   8.721  1.00  0.00    -0.000 C 
BRANCH  22  23
ATOM     23  C   UNL     1     -11.402  33.868   8.239  1.00  0.00    -0.000 C 
BRANCH  23  24
ATOM     24  C   UNL     1     -11.180  32.782   9.306  1.00  0.00    -0.000 C 
BRANCH  24  25
ATOM     25  C   UNL     1     -10.918  33.372  10.701  1.00  0.00    -0.003 C 
ATOM     26  C   UNL     1     -10.159  32.409  11.614  1.00  0.00     0.004 C 
ENDBRANCH  24  25
ENDBRANCH  23  24
ENDBRANCH  22  23
ENDBRANCH  21  22
ENDBRANCH  20  21
ENDBRANCH  19  20
ENDBRANCH  18  19
ENDBRANCH  17  18
ENDBRANCH  16  17
ENDBRANCH  15  16
ENDBRANCH   1  15
TORSDOF 22
ENDMDL
MODEL 7
REMARK VINA RESULT:    -4.988     13.821     16.074
REMARK INTER + INTRA:         -13.531
REMARK INTER:                  -9.433
REMARK INTRA:                  -4.098
REMARK UNBOUND:                -2.127
REMARK SMILES CCCCCCCCCCCCCCCCCCCCCCCC(=O)[O-]
REMARK SMILES IDX 13 1 14 2 15 3 16 4 17 5 18 6 19 7 20 8 21 9 22 10 23 11
REMARK SMILES IDX 24 12 25 13 26 14 12 15 11 16 10 17 9 18 8 19 7 20 6 21 5 22
REMARK SMILES IDX 4 23 3 24 2 25 1 26
REMARK H PARENT
REMARK Flexibility Score: inf
ROOT
ATOM      1  C   UNL     1      -0.456  42.855   1.291  1.00  0.00     0.000 C 
ENDROOT
BRANCH   1   2
ATOM      2  C   UNL     1      -0.494  41.817   0.158  1.00  0.00     0.000 C 
BRANCH   2   3
ATOM      3  C   UNL     1      -0.210  42.430  -1.223  1.00  0.00     0.000 C 
BRANCH   3   4
ATOM      4  C   UNL     1       1.284  42.339  -1.567  1.00  0.00     0.000 C 
BRANCH   4   5
ATOM      5  C   UNL     1       1.942  43.719  -1.732  1.00  0.00     0.000 C 
BRANCH   5   6
ATOM      6  C   UNL     1       2.346  44.347  -0.391  1.00  0.00     0.000 C 
BRANCH   6   7
ATOM      7  C   UNL     1       1.801  45.776  -0.265  1.00  0.00     0.000 C 
BRANCH   7   8
ATOM      8  C   UNL     1       2.014  46.378   1.134  1.00  0.00     0.000 C 
BRANCH   8   9
ATOM      9  C   UNL     1       0.800  46.205   2.072  1.00  0.00     0.000 C 
BRANCH   9  10
ATOM     10  C   UNL     1       1.222  45.837   3.506  1.00  0.00     0.006 C 
BRANCH  10  11
ATOM     11  C   UNL     1       0.018  45.666   4.441  1.00  0.00     0.053 C 
BRANCH  11  12
ATOM     12  C   UNL     1       0.235  44.563   5.431  1.00  0.00     0.041 C 
ATOM     13  O   UNL     1       1.289  44.529   6.120  1.00  0.00    -0.550 OA
ATOM     14  O   UNL     1      -0.710  43.555   5.568  1.00  0.00    -0.550 OA
ENDBRANCH  11  12
ENDBRANCH  10  11
ENDBRANCH   9  10
ENDBRANCH   8   9
ENDBRANCH   7   8
ENDBRANCH   6   7
ENDBRANCH   5   6
ENDBRANCH   4   5
ENDBRANCH   3   4
ENDBRANCH   2   3
ENDBRANCH   1   2
BRANCH   1  15
ATOM     15  C   UNL     1       0.583  42.516   2.373  1.00  0.00     0.000 C 
BRANCH  15  16
ATOM     16  C   UNL     1       1.489  41.332   1.985  1.00  0.00     0.000 C 
BRANCH  16  17
ATOM     17  C   UNL     1       2.995  41.648   1.918  1.00  0.00     0.000 C 
BRANCH  17  18
ATOM     18  C   UNL     1       3.857  40.634   2.688  1.00  0.00    -0.000 C 
BRANCH  18  19
ATOM     19  C   UNL     1       5.352  40.711   2.327  1.00  0.00    -0.000 C 
BRANCH  19  20
ATOM     20  C   UNL     1       5.802  39.811   1.160  1.00  0.00    -0.000 C 
BRANCH  20  21
ATOM     21  C   UNL     1       6.543  40.581   0.055  1.00  0.00    -0.000 C 
BRANCH  21  22
ATOM     22  C   UNL     1       5.590  41.339  -0.885  1.00  0.00    -0.000 C 
BRANCH  22  23
ATOM     23  C   UNL     1       5.656  42.874  -0.729  1.00  0.00    -0.000 C 
BRANCH  23  24
ATOM     24  C   UNL     1       6.916  43.325   0.029  1.00  0.00    -0.000 C 
BRANCH  24  25
ATOM     25  C   UNL     1       6.661  44.550   0.921  1.00  0.00    -0.003 C 
ATOM     26  C   UNL     1       5.348  44.449   1.698  1.00  0.00     0.004 C 
ENDBRANCH  24  25
ENDBRANCH  23  24
ENDBRANCH  22  23
ENDBRANCH  21  22
ENDBRANCH  20  21
ENDBRANCH  19  20
ENDBRANCH  18  19
ENDBRANCH  17  18
ENDBRANCH  16  17
ENDBRANCH  15  16
ENDBRANCH   1  15
TORSDOF 22
ENDMDL
MODEL 8
REMARK VINA RESULT:    -4.901      2.864      6.330
REMARK INTER + INTRA:         -13.331
REMARK INTER:                 -10.570
REMARK INTRA:                  -2.761
REMARK UNBOUND:                -2.127
REMARK SMILES CCCCCCCCCCCCCCCCCCCCCCCC(=O)[O-]
REMARK SMILES IDX 13 1 14 2 15 3 16 4 17 5 18 6 19 7 20 8 21 9 22 10 23 11
REMARK SMILES IDX 24 12 25 13 26 14 12 15 11 16 10 17 9 18 8 19 7 20 6 21 5 22
REMARK SMILES IDX 4 23 3 24 2 25 1 26
REMARK H PARENT
REMARK Flexibility Score: inf
ROOT
ATOM      1  C   UNL     1     -12.577  37.986   9.295  1.00  0.00     0.000 C 
ENDROOT
BRANCH   1   2
ATOM      2  C   UNL     1     -11.249  37.416   9.820  1.00  0.00     0.000 C 
BRANCH   2   3
ATOM      3  C   UNL     1     -10.654  36.342   8.896  1.00  0.00     0.000 C 
BRANCH   3   4
ATOM      4  C   UNL     1     -11.742  35.719   8.008  1.00  0.00     0.000 C 
BRANCH   4   5
ATOM      5  C   UNL     1     -12.173  34.323   8.488  1.00  0.00     0.000 C 
BRANCH   5   6
ATOM      6  C   UNL     1     -11.052  33.576   9.223  1.00  0.00     0.000 C 
BRANCH   6   7
ATOM      7  C   UNL     1     -11.426  33.328  10.691  1.00  0.00     0.000 C 
BRANCH   7   8
ATOM      8  C   UNL     1     -12.635  32.391  10.852  1.00  0.00     0.000 C 
BRANCH   8   9
ATOM      9  C   UNL     1     -12.245  30.919  11.103  1.00  0.00     0.000 C 
BRANCH   9  10
ATOM     10  C   UNL     1     -10.943  30.794  11.915  1.00  0.00     0.006 C 
BRANCH  10  11
ATOM     11  C   UNL     1     -11.057  29.761  13.043  1.00  0.00     0.053 C 
BRANCH  11  12
ATOM     12  C   UNL     1      -9.797  28.966  13.199  1.00  0.00     0.041 C 
ATOM     13  O   UNL     1      -9.505  28.071  12.362  1.00  0.00    -0.550 OA
ATOM     14  O   UNL     1      -8.962  29.192  14.286  1.00  0.00    -0.550 OA
ENDBRANCH  11  12
ENDBRANCH  10  11
ENDBRANCH   9  10
ENDBRANCH   8   9
ENDBRANCH   7   8
ENDBRANCH   6   7
ENDBRANCH   5   6
ENDBRANCH   4   5
ENDBRANCH   3   4
ENDBRANCH   2   3
ENDBRANCH   1   2
BRANCH   1  15
ATOM     15  C   UNL     1     -12.406  39.349   8.602  1.00  0.00     0.000 C 
BRANCH  15  16
ATOM     16  C   UNL     1     -12.782  39.313   7.108  1.00  0.00     0.000 C 
BRANCH  16  17
ATOM     17  C   UNL     1     -11.676  39.771   6.139  1.00  0.00     0.000 C 
BRANCH  17  18
ATOM     18  C   UNL     1     -10.620  38.684   5.875  1.00  0.00    -0.000 C 
BRANCH  18  19
ATOM     19  C   UNL     1      -9.303  38.922   6.636  1.00  0.00    -0.000 C 
BRANCH  19  20
ATOM     20  C   UNL     1      -8.092  38.107   6.141  1.00  0.00    -0.000 C 
BRANCH  20  21
ATOM     21  C   UNL     1      -8.491  36.865   5.329  1.00  0.00    -0.000 C 
BRANCH  21  22
ATOM     22  C   UNL     1      -8.550  35.587   6.183  1.00  0.00    -0.000 C 
BRANCH  22  23
ATOM     23  C   UNL     1      -9.144  34.371   5.440  1.00  0.00    -0.000 C 
BRANCH  23  24
ATOM     24  C   UNL     1      -8.118  33.236   5.275  1.00  0.00    -0.000 C 
BRANCH  24  25
ATOM     25  C   UNL     1      -6.728  33.617   5.807  1.00  0.00    -0.003 C 
ATOM     26  C   UNL     1      -5.905  32.400   6.229  1.00  0.00     0.004 C 
ENDBRANCH  24  25
ENDBRANCH  23  24
ENDBRANCH  22  23
ENDBRANCH  21  22
ENDBRANCH  20  21
ENDBRANCH  19  20
ENDBRANCH  18  19
ENDBRANCH  17  18
ENDBRANCH  16  17
ENDBRANCH  15  16
ENDBRANCH   1  15
TORSDOF 22
ENDMDL
MODEL 9
REMARK VINA RESULT:    -4.844      3.046      7.156
REMARK INTER + INTRA:         -13.201
REMARK INTER:                 -10.576
REMARK INTRA:                  -2.625
REMARK UNBOUND:                -2.127
REMARK SMILES CCCCCCCCCCCCCCCCCCCCCCCC(=O)[O-]
REMARK SMILES IDX 13 1 14 2 15 3 16 4 17 5 18 6 19 7 20 8 21 9 22 10 23 11
REMARK SMILES IDX 24 12 25 13 26 14 12 15 11 16 10 17 9 18 8 19 7 20 6 21 5 22
REMARK SMILES IDX 4 23 3 24 2 25 1 26
REMARK H PARENT
REMARK Flexibility Score: inf
ROOT
ATOM      1  C   UNL     1     -10.666  36.972   9.068  1.00  0.00     0.000 C 
ENDROOT
BRANCH   1   2
ATOM      2  C   UNL     1     -10.775  35.456   9.294  1.00  0.00     0.000 C 
BRANCH   2   3
ATOM      3  C   UNL     1     -11.949  34.822   8.530  1.00  0.00     0.000 C 
BRANCH   3   4
ATOM      4  C   UNL     1     -12.888  34.075   9.489  1.00  0.00     0.000 C 
BRANCH   4   5
ATOM      5  C   UNL     1     -12.132  33.316  10.591  1.00  0.00     0.000 C 
BRANCH   5   6
ATOM      6  C   UNL     1     -11.635  31.939  10.130  1.00  0.00     0.000 C 
BRANCH   6   7
ATOM      7  C   UNL     1     -12.158  30.827  11.051  1.00  0.00     0.000 C 
BRANCH   7   8
ATOM      8  C   UNL     1     -11.604  29.438  10.688  1.00  0.00     0.000 C 
BRANCH   8   9
ATOM      9  C   UNL     1     -10.912  28.723  11.868  1.00  0.00     0.000 C 
BRANCH   9  10
ATOM     10  C   UNL     1     -10.822  29.618  13.117  1.00  0.00     0.006 C 
BRANCH  10  11
ATOM     11  C   UNL     1      -9.376  29.807  13.594  1.00  0.00     0.053 C 
BRANCH  11  12
ATOM     12  C   UNL     1      -8.995  31.254  13.654  1.00  0.00     0.041 C 
ATOM     13  O   UNL     1      -9.284  32.025  12.701  1.00  0.00    -0.550 OA
ATOM     14  O   UNL     1      -8.292  31.744  14.747  1.00  0.00    -0.550 OA
ENDBRANCH  11  12
ENDBRANCH  10  11
ENDBRANCH   9  10
ENDBRANCH   8   9
ENDBRANCH   7   8
ENDBRANCH   6   7
ENDBRANCH   5   6
ENDBRANCH   4   5
ENDBRANCH   3   4
ENDBRANCH   2   3
ENDBRANCH   1   2
BRANCH   1  15
ATOM     15  C   UNL     1     -12.021  37.691   9.188  1.00  0.00     0.000 C 
BRANCH  15  16
ATOM     16  C   UNL     1     -11.994  39.122   8.619  1.00  0.00     0.000 C 
BRANCH  16  17
ATOM     17  C   UNL     1     -12.618  39.287   7.221  1.00  0.00     0.000 C 
BRANCH  17  18
ATOM     18  C   UNL     1     -11.645  39.898   6.197  1.00  0.00    -0.000 C 
BRANCH  18  19
ATOM     19  C   UNL     1     -10.791  38.844   5.469  1.00  0.00    -0.000 C 
BRANCH  19  20
ATOM     20  C   UNL     1      -9.376  38.626   6.036  1.00  0.00    -0.000 C 
BRANCH  20  21
ATOM     21  C   UNL     1      -8.856  37.195   5.829  1.00  0.00    -0.000 C 
BRANCH  21  22
ATOM     22  C   UNL     1      -9.985  36.181   5.577  1.00  0.00    -0.000 C 
BRANCH  22  23
ATOM     23  C   UNL     1      -9.484  34.737   5.359  1.00  0.00    -0.000 C 
BRANCH  23  24
ATOM     24  C   UNL     1      -8.177  34.456   6.120  1.00  0.00    -0.000 C 
BRANCH  24  25
ATOM     25  C   UNL     1      -7.503  33.149   5.672  1.00  0.00    -0.003 C 
ATOM     26  C   UNL     1      -7.235  32.196   6.836  1.00  0.00     0.004 C 
ENDBRANCH  24  25
ENDBRANCH  23  24
ENDBRANCH  22  23
ENDBRANCH  21  22
ENDBRANCH  20  21
ENDBRANCH  19  20
ENDBRANCH  18  19
ENDBRANCH  17  18
ENDBRANCH  16  17
ENDBRANCH  15  16
ENDBRANCH   1  15
TORSDOF 22
ENDMDL
