MODEL 1
REMARK VINA RESULT:    -7.266      0.000      0.000
REMARK INTER + INTRA:          -8.796
REMARK INTER:                  -8.753
REMARK INTRA:                  -0.044
REMARK UNBOUND:                -0.044
REMARK SMILES O=c1c(O)c(-c2ccc(O)c(O)c2)oc2cc(O)cc(O)c12
REMARK SMILES IDX 5 1 3 2 2 3 1 4 22 5 20 6 19 7 17 8 16 9 15 10 14 11 6 12
REMARK SMILES IDX 7 13 8 14 9 15 13 16 11 17 10 18 12 20 4 22 21 24 18 26
REMARK H PARENT 10 19 12 21 4 23 21 25 18 27
REMARK Flexibility Score: inf
ROOT
ATOM      1  C   UNL     1     159.558 154.521 155.680  1.00  0.00     0.180 A 
ATOM      2  C   UNL     1     159.692 155.325 156.826  1.00  0.00     0.208 A 
ATOM      3  C   UNL     1     158.645 156.190 157.178  1.00  0.00     0.238 A 
ATOM      4  O   UNL     1     158.748 156.866 158.234  1.00  0.00    -0.285 OA
ATOM      5  C   UNL     1     157.482 156.253 156.372  1.00  0.00     0.111 A 
ATOM      6  C   UNL     1     156.376 157.123 156.612  1.00  0.00     0.134 A 
ATOM      7  C   UNL     1     155.224 157.007 155.824  1.00  0.00     0.093 A 
ATOM      8  C   UNL     1     155.161 156.101 154.767  1.00  0.00     0.123 A 
ATOM      9  C   UNL     1     156.260 155.287 154.486  1.00  0.00     0.094 A 
ATOM     10  C   UNL     1     157.410 155.354 155.276  1.00  0.00     0.146 A 
ATOM     11  O   UNL     1     158.429 154.556 154.982  1.00  0.00    -0.452 OA
ENDROOT
BRANCH   1  12
ATOM     12  C   UNL     1     160.629 153.603 155.231  1.00  0.00     0.025 A 
ATOM     13  C   UNL     1     160.313 152.272 154.919  1.00  0.00     0.016 A 
ATOM     14  C   UNL     1     161.305 151.394 154.474  1.00  0.00     0.051 A 
ATOM     15  C   UNL     1     162.624 151.838 154.318  1.00  0.00     0.157 A 
ATOM     16  C   UNL     1     161.951 154.051 155.054  1.00  0.00     0.062 A 
ATOM     17  C   UNL     1     162.947 153.175 154.606  1.00  0.00     0.158 A 
BRANCH  15  18
ATOM     18  O   UNL     1     163.612 150.960 153.875  1.00  0.00    -0.504 OA
ATOM     19  H   UNL     1     164.387 151.277 153.306  1.00  0.00     0.293 HD
ENDBRANCH  15  18
BRANCH  17  20
ATOM     20  O   UNL     1     164.247 153.653 154.447  1.00  0.00    -0.504 OA
ATOM     21  H   UNL     1     164.440 154.575 154.073  1.00  0.00     0.293 HD
ENDBRANCH  17  20
ENDBRANCH   1  12
BRANCH   2  22
ATOM     22  O   UNL     1     160.839 155.231 157.620  1.00  0.00    -0.502 OA
ATOM     23  H   UNL     1     161.571 155.930 157.602  1.00  0.00     0.293 HD
ENDBRANCH   2  22
BRANCH   6  24
ATOM     24  O   UNL     1     156.369 158.126 157.585  1.00  0.00    -0.507 OA
ATOM     25  H   UNL     1     156.509 157.971 158.572  1.00  0.00     0.293 HD
ENDBRANCH   6  24
BRANCH   8  26
ATOM     26  O   UNL     1     154.005 156.024 153.994  1.00  0.00    -0.508 OA
ATOM     27  H   UNL     1     153.085 156.002 154.418  1.00  0.00     0.293 HD
ENDBRANCH   8  26
TORSDOF 6
ENDMDL
MODEL 2
REMARK VINA RESULT:    -7.019      1.797      7.034
REMARK INTER + INTRA:          -8.499
REMARK INTER:                  -8.567
REMARK INTRA:                   0.069
REMARK UNBOUND:                -0.044
REMARK SMILES O=c1c(O)c(-c2ccc(O)c(O)c2)oc2cc(O)cc(O)c12
REMARK SMILES IDX 5 1 3 2 2 3 1 4 22 5 20 6 19 7 17 8 16 9 15 10 14 11 6 12
REMARK SMILES IDX 7 13 8 14 9 15 13 16 11 17 10 18 12 20 4 22 21 24 18 26
REMARK H PARENT 10 19 12 21 4 23 21 25 18 27
REMARK Flexibility Score: inf
ROOT
ATOM      1  C   UNL     1     159.448 154.632 156.030  1.00  0.00     0.180 A 
ATOM      2  C   UNL     1     159.678 153.267 155.780  1.00  0.00     0.208 A 
ATOM      3  C   UNL     1     160.943 152.862 155.329  1.00  0.00     0.238 A 
ATOM      4  O   UNL     1     161.159 151.634 155.159  1.00  0.00    -0.285 OA
ATOM      5  C   UNL     1     161.958 153.826 155.118  1.00  0.00     0.111 A 
ATOM      6  C   UNL     1     163.265 153.532 154.625  1.00  0.00     0.134 A 
ATOM      7  C   UNL     1     164.230 154.547 154.579  1.00  0.00     0.093 A 
ATOM      8  C   UNL     1     163.919 155.855 154.947  1.00  0.00     0.123 A 
ATOM      9  C   UNL     1     162.626 156.165 155.374  1.00  0.00     0.094 A 
ATOM     10  C   UNL     1     161.653 155.168 155.465  1.00  0.00     0.146 A 
ATOM     11  O   UNL     1     160.439 155.503 155.886  1.00  0.00    -0.452 OA
ENDROOT
BRANCH   1  12
ATOM     12  C   UNL     1     158.132 155.139 156.484  1.00  0.00     0.025 A 
ATOM     13  C   UNL     1     156.963 154.697 155.846  1.00  0.00     0.016 A 
ATOM     14  C   UNL     1     155.711 155.147 156.272  1.00  0.00     0.051 A 
ATOM     15  C   UNL     1     155.607 156.033 157.352  1.00  0.00     0.157 A 
ATOM     16  C   UNL     1     158.023 156.012 157.582  1.00  0.00     0.062 A 
ATOM     17  C   UNL     1     156.770 156.463 158.013  1.00  0.00     0.158 A 
BRANCH  15  18
ATOM     18  O   UNL     1     154.357 156.481 157.773  1.00  0.00    -0.504 OA
ATOM     19  H   UNL     1     153.546 156.438 157.167  1.00  0.00     0.293 HD
ENDBRANCH  15  18
BRANCH  17  20
ATOM     20  O   UNL     1     156.701 157.332 159.101  1.00  0.00    -0.504 OA
ATOM     21  H   UNL     1     157.406 157.341 159.828  1.00  0.00     0.293 HD
ENDBRANCH  17  20
ENDBRANCH   1  12
BRANCH   2  22
ATOM     22  O   UNL     1     158.668 152.330 156.016  1.00  0.00    -0.502 OA
ATOM     23  H   UNL     1     157.837 152.270 155.442  1.00  0.00     0.293 HD
ENDBRANCH   2  22
BRANCH   6  24
ATOM     24  O   UNL     1     163.655 152.279 154.146  1.00  0.00    -0.507 OA
ATOM     25  H   UNL     1     163.056 151.468 154.103  1.00  0.00     0.293 HD
ENDBRANCH   6  24
BRANCH   8  26
ATOM     26  O   UNL     1     164.899 156.842 154.874  1.00  0.00    -0.508 OA
ATOM     27  H   UNL     1     164.661 157.826 154.882  1.00  0.00     0.293 HD
ENDBRANCH   8  26
TORSDOF 6
ENDMDL
MODEL 3
REMARK VINA RESULT:    -5.894      1.588      6.801
REMARK INTER + INTRA:          -7.144
REMARK INTER:                  -7.231
REMARK INTRA:                   0.087
REMARK UNBOUND:                -0.044
REMARK SMILES O=c1c(O)c(-c2ccc(O)c(O)c2)oc2cc(O)cc(O)c12
REMARK SMILES IDX 5 1 3 2 2 3 1 4 22 5 20 6 19 7 17 8 16 9 15 10 14 11 6 12
REMARK SMILES IDX 7 13 8 14 9 15 13 16 11 17 10 18 12 20 4 22 21 24 18 26
REMARK H PARENT 10 19 12 21 4 23 21 25 18 27
REMARK Flexibility Score: inf
ROOT
ATOM      1  C   UNL     1     159.656 154.875 155.982  1.00  0.00     0.180 A 
ATOM      2  C   UNL     1     160.713 155.796 155.878  1.00  0.00     0.208 A 
ATOM      3  C   UNL     1     161.963 155.350 155.422  1.00  0.00     0.238 A 
ATOM      4  O   UNL     1     162.890 156.188 155.280  1.00  0.00    -0.285 OA
ATOM      5  C   UNL     1     162.146 153.985 155.093  1.00  0.00     0.111 A 
ATOM      6  C   UNL     1     163.381 153.414 154.660  1.00  0.00     0.134 A 
ATOM      7  C   UNL     1     163.414 152.080 154.236  1.00  0.00     0.093 A 
ATOM      8  C   UNL     1     162.274 151.278 154.290  1.00  0.00     0.123 A 
ATOM      9  C   UNL     1     161.075 151.809 154.768  1.00  0.00     0.094 A 
ATOM     10  C   UNL     1     161.002 153.147 155.164  1.00  0.00     0.146 A 
ATOM     11  O   UNL     1     159.841 153.616 155.603  1.00  0.00    -0.452 OA
ENDROOT
BRANCH   1  12
ATOM     12  C   UNL     1     158.315 155.266 156.476  1.00  0.00     0.025 A 
ATOM     13  C   UNL     1     157.171 154.724 155.873  1.00  0.00     0.016 A 
ATOM     14  C   UNL     1     155.897 155.063 156.338  1.00  0.00     0.051 A 
ATOM     15  C   UNL     1     155.750 155.936 157.422  1.00  0.00     0.157 A 
ATOM     16  C   UNL     1     158.165 156.126 157.579  1.00  0.00     0.062 A 
ATOM     17  C   UNL     1     156.891 156.467 158.049  1.00  0.00     0.158 A 
BRANCH  15  18
ATOM     18  O   UNL     1     154.478 156.274 157.883  1.00  0.00    -0.504 OA
ATOM     19  H   UNL     1     153.824 156.790 157.305  1.00  0.00     0.293 HD
ENDBRANCH  15  18
BRANCH  17  20
ATOM     20  O   UNL     1     156.779 157.327 159.140  1.00  0.00    -0.504 OA
ATOM     21  H   UNL     1     156.970 157.021 160.088  1.00  0.00     0.293 HD
ENDBRANCH  17  20
ENDBRANCH   1  12
BRANCH   2  22
ATOM     22  O   UNL     1     160.504 157.143 156.187  1.00  0.00    -0.502 OA
ATOM     23  H   UNL     1     161.117 157.878 155.857  1.00  0.00     0.293 HD
ENDBRANCH   2  22
BRANCH   6  24
ATOM     24  O   UNL     1     164.598 154.101 154.654  1.00  0.00    -0.507 OA
ATOM     25  H   UNL     1     164.692 155.104 154.606  1.00  0.00     0.293 HD
ENDBRANCH   6  24
BRANCH   8  26
ATOM     26  O   UNL     1     162.347 149.950 153.875  1.00  0.00    -0.508 OA
ATOM     27  H   UNL     1     163.200 149.561 153.492  1.00  0.00     0.293 HD
ENDBRANCH   8  26
TORSDOF 6
ENDMDL
MODEL 4
REMARK VINA RESULT:    -5.293      1.648      3.116
REMARK INTER + INTRA:          -6.419
REMARK INTER:                  -6.328
REMARK INTRA:                  -0.091
REMARK UNBOUND:                -0.044
REMARK SMILES O=c1c(O)c(-c2ccc(O)c(O)c2)oc2cc(O)cc(O)c12
REMARK SMILES IDX 5 1 3 2 2 3 1 4 22 5 20 6 19 7 17 8 16 9 15 10 14 11 6 12
REMARK SMILES IDX 7 13 8 14 9 15 13 16 11 17 10 18 12 20 4 22 21 24 18 26
REMARK H PARENT 10 19 12 21 4 23 21 25 18 27
REMARK Flexibility Score: inf
ROOT
ATOM      1  C   UNL     1     159.235 154.776 155.894  1.00  0.00     0.180 A 
ATOM      2  C   UNL     1     158.177 154.369 155.062  1.00  0.00     0.208 A 
ATOM      3  C   UNL     1     156.861 154.699 155.421  1.00  0.00     0.238 A 
ATOM      4  O   UNL     1     155.925 154.378 154.646  1.00  0.00    -0.285 OA
ATOM      5  C   UNL     1     156.617 155.417 156.617  1.00  0.00     0.111 A 
ATOM      6  C   UNL     1     155.321 155.769 157.100  1.00  0.00     0.134 A 
ATOM      7  C   UNL     1     155.204 156.594 158.226  1.00  0.00     0.093 A 
ATOM      8  C   UNL     1     156.332 157.024 158.924  1.00  0.00     0.123 A 
ATOM      9  C   UNL     1     157.602 156.635 158.496  1.00  0.00     0.094 A 
ATOM     10  C   UNL     1     157.752 155.844 157.355  1.00  0.00     0.146 A 
ATOM     11  O   UNL     1     158.978 155.505 156.974  1.00  0.00    -0.452 OA
ENDROOT
BRANCH   1  12
ATOM     12  C   UNL     1     160.647 154.445 155.594  1.00  0.00     0.025 A 
ATOM     13  C   UNL     1     161.027 153.102 155.454  1.00  0.00     0.016 A 
ATOM     14  C   UNL     1     162.350 152.769 155.150  1.00  0.00     0.051 A 
ATOM     15  C   UNL     1     163.308 153.773 154.967  1.00  0.00     0.157 A 
ATOM     16  C   UNL     1     161.607 155.453 155.389  1.00  0.00     0.062 A 
ATOM     17  C   UNL     1     162.932 155.123 155.082  1.00  0.00     0.158 A 
BRANCH  15  18
ATOM     18  O   UNL     1     164.627 153.438 154.666  1.00  0.00    -0.504 OA
ATOM     19  H   UNL     1     165.341 153.396 155.383  1.00  0.00     0.293 HD
ENDBRANCH  15  18
BRANCH  17  20
ATOM     20  O   UNL     1     163.858 156.147 154.891  1.00  0.00    -0.504 OA
ATOM     21  H   UNL     1     164.628 156.304 155.531  1.00  0.00     0.293 HD
ENDBRANCH  17  20
ENDBRANCH   1  12
BRANCH   2  22
ATOM     22  O   UNL     1     158.443 153.680 153.875  1.00  0.00    -0.502 OA
ATOM     23  H   UNL     1     159.293 153.821 153.343  1.00  0.00     0.293 HD
ENDBRANCH   2  22
BRANCH   6  24
ATOM     24  O   UNL     1     154.126 155.318 156.531  1.00  0.00    -0.507 OA
ATOM     25  H   UNL     1     153.354 154.928 157.049  1.00  0.00     0.293 HD
ENDBRANCH   6  24
BRANCH   8  26
ATOM     26  O   UNL     1     156.178 157.830 160.050  1.00  0.00    -0.508 OA
ATOM     27  H   UNL     1     156.972 158.269 160.500  1.00  0.00     0.293 HD
ENDBRANCH   8  26
TORSDOF 6
ENDMDL
MODEL 5
REMARK VINA RESULT:    -4.410      1.973      3.172
REMARK INTER + INTRA:          -5.356
REMARK INTER:                  -5.124
REMARK INTRA:                  -0.232
REMARK UNBOUND:                -0.044
REMARK SMILES O=c1c(O)c(-c2ccc(O)c(O)c2)oc2cc(O)cc(O)c12
REMARK SMILES IDX 5 1 3 2 2 3 1 4 22 5 20 6 19 7 17 8 16 9 15 10 14 11 6 12
REMARK SMILES IDX 7 13 8 14 9 15 13 16 11 17 10 18 12 20 4 22 21 24 18 26
REMARK H PARENT 10 19 12 21 4 23 21 25 18 27
REMARK Flexibility Score: inf
ROOT
ATOM      1  C   UNL     1     158.307 155.003 156.235  1.00  0.00     0.180 A 
ATOM      2  C   UNL     1     157.554 155.536 155.173  1.00  0.00     0.208 A 
ATOM      3  C   UNL     1     156.298 156.101 155.445  1.00  0.00     0.238 A 
ATOM      4  O   UNL     1     155.654 156.624 154.500  1.00  0.00    -0.285 OA
ATOM      5  C   UNL     1     155.803 156.111 156.771  1.00  0.00     0.111 A 
ATOM      6  C   UNL     1     154.526 156.621 157.155  1.00  0.00     0.134 A 
ATOM      7  C   UNL     1     154.193 156.699 158.513  1.00  0.00     0.093 A 
ATOM      8  C   UNL     1     155.062 156.227 159.496  1.00  0.00     0.123 A 
ATOM      9  C   UNL     1     156.289 155.672 159.128  1.00  0.00     0.094 A 
ATOM     10  C   UNL     1     156.664 155.613 157.784  1.00  0.00     0.146 A 
ATOM     11  O   UNL     1     157.843 155.087 157.476  1.00  0.00    -0.452 OA
ENDROOT
BRANCH   1  12
ATOM     12  C   UNL     1     159.628 154.369 156.024  1.00  0.00     0.025 A 
ATOM     13  C   UNL     1     159.743 152.972 156.091  1.00  0.00     0.016 A 
ATOM     14  C   UNL     1     160.977 152.352 155.874  1.00  0.00     0.051 A 
ATOM     15  C   UNL     1     162.110 153.118 155.572  1.00  0.00     0.157 A 
ATOM     16  C   UNL     1     160.763 155.134 155.699  1.00  0.00     0.062 A 
ATOM     17  C   UNL     1     162.000 154.516 155.480  1.00  0.00     0.158 A 
BRANCH  15  18
ATOM     18  O   UNL     1     163.339 152.497 155.358  1.00  0.00    -0.504 OA
ATOM     19  H   UNL     1     163.837 152.593 154.481  1.00  0.00     0.293 HD
ENDBRANCH  15  18
BRANCH  17  20
ATOM     20  O   UNL     1     163.105 155.306 155.166  1.00  0.00    -0.504 OA
ATOM     21  H   UNL     1     163.877 155.433 155.811  1.00  0.00     0.293 HD
ENDBRANCH  17  20
ENDBRANCH   1  12
BRANCH   2  22
ATOM     22  O   UNL     1     158.072 155.535 153.875  1.00  0.00    -0.502 OA
ATOM     23  H   UNL     1     158.341 154.683 153.398  1.00  0.00     0.293 HD
ENDBRANCH   2  22
BRANCH   6  24
ATOM     24  O   UNL     1     153.546 157.034 156.248  1.00  0.00    -0.507 OA
ATOM     25  H   UNL     1     153.488 157.958 155.846  1.00  0.00     0.293 HD
ENDBRANCH   6  24
BRANCH   8  26
ATOM     26  O   UNL     1     154.693 156.306 160.837  1.00  0.00    -0.508 OA
ATOM     27  H   UNL     1     155.166 156.928 161.481  1.00  0.00     0.293 HD
ENDBRANCH   8  26
TORSDOF 6
ENDMDL
