MODEL 1
REMARK VINA RESULT:    -4.301      0.000      0.000
REMARK INTER + INTRA:          -5.317
REMARK INTER:                  -6.061
REMARK INTRA:                   0.744
REMARK UNBOUND:                 0.744
REMARK SMILES CC1=CCCC(C)=CCC(C)(C)C=CC1
REMARK SMILES IDX 2 1 3 2 1 3 4 4 5 5 6 6 7 7 8 8 15 10 14 11 13 12 10 13
REMARK SMILES IDX 11 14 12 15 9 16
REMARK H PARENT
REMARK Flexibility Score: 60.00
ROOT
ATOM      1  C   UNL     1      20.787  13.094   2.961  1.00  0.00    -0.074 C 
ATOM      2  C   UNL     1      21.823  12.218   2.962  1.00  0.00    -0.027 C 
ATOM      3  C   UNL     1      19.457  12.590   3.468  1.00  0.00     0.039 C 
ENDROOT
BRANCH   2   4
ATOM      4  C   UNL     1      23.227  12.485   2.469  1.00  0.00     0.032 C 
BRANCH   4   5
ATOM      5  C   UNL     1      24.147  13.101   3.542  1.00  0.00     0.034 C 
BRANCH   5   6
ATOM      6  C   UNL     1      24.834  14.394   3.126  1.00  0.00    -0.077 C 
ATOM      7  C   UNL     1      26.010  14.321   2.184  1.00  0.00     0.039 C 
ATOM      8  C   UNL     1      24.434  15.615   3.544  1.00  0.00    -0.027 CG0
ATOM      9  G   UNL     1      23.286  15.872   4.494  1.00  0.00     0.000 G0
ENDBRANCH   5   6
ENDBRANCH   4   5
ENDBRANCH   2   4
BRANCH   1  10
ATOM     10  C   UNL     1      20.863  14.522   2.438  1.00  0.00     0.057 C 
BRANCH  10  11
ATOM     11  C   UNL     1      20.232  15.491   3.410  1.00  0.00    -0.026 C 
ATOM     12  C   UNL     1      20.823  16.517   4.064  1.00  0.00    -0.024 C 
BRANCH  12  13
ATOM     13  C   UNL     1      22.291  16.970   4.026  1.00  0.00    -0.014 C 
ATOM     14  C   UNL     1      22.429  18.196   4.963  1.00  0.00     0.016 C 
ATOM     15  C   UNL     1      22.655  17.444   2.602  1.00  0.00     0.016 C 
BRANCH  13  16
ATOM     16  C   UNL     1      23.293  15.875   4.510  1.00  0.00     0.038 CG0
ATOM     17  G   UNL     1      24.414  15.627   3.525  1.00  0.00     0.000 G0
ENDBRANCH  13  16
ENDBRANCH  12  13
ENDBRANCH  10  11
ENDBRANCH   1  10
TORSDOF 0
ENDMDL
MODEL 2
REMARK VINA RESULT:    -4.168     16.174     18.120
REMARK INTER + INTRA:          -5.130
REMARK INTER:                  -6.527
REMARK INTRA:                   1.397
REMARK UNBOUND:                 0.744
REMARK SMILES CC1=CCCC(C)=CCC(C)(C)C=CC1
REMARK SMILES IDX 2 1 3 2 1 3 4 4 5 5 6 6 7 7 8 8 15 10 14 11 13 12 10 13
REMARK SMILES IDX 11 14 12 15 9 16
REMARK H PARENT
REMARK Flexibility Score: 60.00
ROOT
ATOM      1  C   UNL     1      15.130  18.838  18.043  1.00  0.00    -0.074 C 
ATOM      2  C   UNL     1      15.160  18.242  16.825  1.00  0.00    -0.027 C 
ATOM      3  C   UNL     1      16.250  18.507  19.000  1.00  0.00     0.039 C 
ENDROOT
BRANCH   2   4
ATOM      4  C   UNL     1      14.134  18.392  15.724  1.00  0.00     0.032 C 
BRANCH   4   5
ATOM      5  C   UNL     1      13.744  19.857  15.444  1.00  0.00     0.034 C 
BRANCH   5   6
ATOM      6  C   UNL     1      12.280  20.069  15.088  1.00  0.00    -0.077 C 
ATOM      7  C   UNL     1      11.785  19.605  13.741  1.00  0.00     0.039 C 
ATOM      8  C   UNL     1      11.388  20.640  15.926  1.00  0.00    -0.027 CG0
ATOM      9  G   UNL     1      11.711  21.173  17.305  1.00  0.00     0.000 G0
ENDBRANCH   5   6
ENDBRANCH   4   5
ENDBRANCH   2   4
BRANCH   1  10
ATOM     10  C   UNL     1      14.025  19.769  18.522  1.00  0.00     0.057 C 
BRANCH  10  11
ATOM     11  C   UNL     1      12.875  18.989  19.114  1.00  0.00    -0.026 C 
ATOM     12  C   UNL     1      11.556  19.289  19.071  1.00  0.00    -0.024 C 
BRANCH  12  13
ATOM     13  C   UNL     1      10.862  20.505  18.437  1.00  0.00    -0.014 C 
ATOM     14  C   UNL     1      10.630  21.551  19.556  1.00  0.00     0.016 C 
ATOM     15  C   UNL     1       9.471  20.094  17.905  1.00  0.00     0.016 C 
BRANCH  13  16
ATOM     16  C   UNL     1      11.700  21.182  17.307  1.00  0.00     0.038 CG0
ATOM     17  G   UNL     1      11.386  20.634  15.933  1.00  0.00     0.000 G0
ENDBRANCH  13  16
ENDBRANCH  12  13
ENDBRANCH  10  11
ENDBRANCH   1  10
TORSDOF 0
ENDMDL
MODEL 3
REMARK VINA RESULT:    -4.154      1.372      2.434
REMARK INTER + INTRA:          -5.109
REMARK INTER:                  -6.555
REMARK INTRA:                   1.446
REMARK UNBOUND:                 0.744
REMARK SMILES CC1=CCCC(C)=CCC(C)(C)C=CC1
REMARK SMILES IDX 2 1 3 2 1 3 4 4 5 5 6 6 7 7 8 8 15 10 14 11 13 12 10 13
REMARK SMILES IDX 11 14 12 15 9 16
REMARK H PARENT
REMARK Flexibility Score: 60.00
ROOT
ATOM      1  C   UNL     1      19.492  14.799   4.408  1.00  0.00    -0.074 C 
ATOM      2  C   UNL     1      19.316  13.698   3.636  1.00  0.00    -0.027 C 
ATOM      3  C   UNL     1      18.258  15.417   5.018  1.00  0.00     0.039 C 
ENDROOT
BRANCH   2   4
ATOM      4  C   UNL     1      20.393  12.936   2.896  1.00  0.00     0.032 C 
BRANCH   4   5
ATOM      5  C   UNL     1      21.301  13.837   2.035  1.00  0.00     0.034 C 
BRANCH   5   6
ATOM      6  C   UNL     1      22.774  13.804   2.414  1.00  0.00    -0.077 C 
ATOM      7  C   UNL     1      23.393  12.485   2.808  1.00  0.00     0.039 C 
ATOM      8  C   UNL     1      23.569  14.896   2.401  1.00  0.00    -0.027 CG0
ATOM      9  G   UNL     1      23.114  16.295   2.045  1.00  0.00     0.000 G0
ENDBRANCH   5   6
ENDBRANCH   4   5
ENDBRANCH   2   4
BRANCH   1  10
ATOM     10  C   UNL     1      20.834  15.476   4.656  1.00  0.00     0.057 C 
BRANCH  10  11
ATOM     11  C   UNL     1      20.774  16.945   4.309  1.00  0.00    -0.026 C 
ATOM     12  C   UNL     1      21.726  17.699   3.713  1.00  0.00    -0.024 C 
BRANCH  12  13
ATOM     13  C   UNL     1      23.131  17.289   3.245  1.00  0.00    -0.014 C 
ATOM     14  C   UNL     1      23.837  16.589   4.432  1.00  0.00     0.016 C 
ATOM     15  C   UNL     1      23.957  18.549   2.905  1.00  0.00     0.016 C 
BRANCH  13  16
ATOM     16  C   UNL     1      23.121  16.301   2.036  1.00  0.00     0.038 CG0
ATOM     17  G   UNL     1      23.570  14.906   2.412  1.00  0.00     0.000 G0
ENDBRANCH  13  16
ENDBRANCH  12  13
ENDBRANCH  10  11
ENDBRANCH   1  10
TORSDOF 0
ENDMDL
MODEL 4
REMARK VINA RESULT:    -3.663     16.170     17.934
REMARK INTER + INTRA:          -4.417
REMARK INTER:                  -5.687
REMARK INTRA:                   1.270
REMARK UNBOUND:                 0.744
REMARK SMILES CC1=CCCC(C)=CCC(C)(C)C=CC1
REMARK SMILES IDX 2 1 3 2 1 3 4 4 5 5 6 6 7 7 8 8 15 10 14 11 13 12 10 13
REMARK SMILES IDX 11 14 12 15 9 16
REMARK H PARENT
REMARK Flexibility Score: 60.00
ROOT
ATOM      1  C   UNL     1      12.486  19.679  14.633  1.00  0.00    -0.074 C 
ATOM      2  C   UNL     1      13.566  18.859  14.653  1.00  0.00    -0.027 C 
ATOM      3  C   UNL     1      11.604  19.627  13.410  1.00  0.00     0.039 C 
ENDROOT
BRANCH   2   4
ATOM      4  C   UNL     1      14.605  18.766  15.748  1.00  0.00     0.032 C 
BRANCH   4   5
ATOM      5  C   UNL     1      14.058  18.180  17.065  1.00  0.00     0.034 C 
BRANCH   5   6
ATOM      6  C   UNL     1      14.635  18.804  18.327  1.00  0.00    -0.077 C 
ATOM      7  C   UNL     1      16.130  18.971  18.437  1.00  0.00     0.039 C 
ATOM      8  C   UNL     1      13.874  19.235  19.357  1.00  0.00    -0.027 CG0
ATOM      9  G   UNL     1      12.366  19.136  19.421  1.00  0.00     0.000 G0
ENDBRANCH   5   6
ENDBRANCH   4   5
ENDBRANCH   2   4
BRANCH   1  10
ATOM     10  C   UNL     1      12.138  20.676  15.730  1.00  0.00     0.057 C 
BRANCH  10  11
ATOM     11  C   UNL     1      10.864  20.280  16.441  1.00  0.00    -0.026 C 
ATOM     12  C   UNL     1      10.649  20.189  17.773  1.00  0.00    -0.024 C 
BRANCH  12  13
ATOM     13  C   UNL     1      11.629  20.436  18.930  1.00  0.00    -0.014 C 
ATOM     14  C   UNL     1      10.820  21.014  20.117  1.00  0.00     0.016 C 
ATOM     15  C   UNL     1      12.663  21.508  18.521  1.00  0.00     0.016 C 
BRANCH  13  16
ATOM     16  C   UNL     1      12.351  19.141  19.420  1.00  0.00     0.038 CG0
ATOM     17  G   UNL     1      13.859  19.250  19.362  1.00  0.00     0.000 G0
ENDBRANCH  13  16
ENDBRANCH  12  13
ENDBRANCH  10  11
ENDBRANCH   1  10
TORSDOF 0
ENDMDL
MODEL 5
REMARK VINA RESULT:    -3.576      1.474      3.496
REMARK INTER + INTRA:          -4.295
REMARK INTER:                  -5.400
REMARK INTRA:                   1.105
REMARK UNBOUND:                 0.744
REMARK SMILES CC1=CCCC(C)=CCC(C)(C)C=CC1
REMARK SMILES IDX 2 1 3 2 1 3 4 4 5 5 6 6 7 7 8 8 15 10 14 11 13 12 10 13
REMARK SMILES IDX 11 14 12 15 9 16
REMARK H PARENT
REMARK Flexibility Score: 60.00
ROOT
ATOM      1  C   UNL     1      24.204  13.856   2.842  1.00  0.00    -0.074 C 
ATOM      2  C   UNL     1      24.996  14.867   3.275  1.00  0.00    -0.027 C 
ATOM      3  C   UNL     1      24.709  12.448   3.046  1.00  0.00     0.039 C 
ENDROOT
BRANCH   2   4
ATOM      4  C   UNL     1      24.717  16.348   3.145  1.00  0.00     0.032 C 
BRANCH   4   5
ATOM      5  C   UNL     1      24.784  17.105   4.487  1.00  0.00     0.034 C 
BRANCH   5   6
ATOM      6  C   UNL     1      23.633  18.070   4.731  1.00  0.00    -0.077 C 
ATOM      7  C   UNL     1      23.896  19.553   4.634  1.00  0.00     0.039 C 
ATOM      8  C   UNL     1      22.376  17.668   5.016  1.00  0.00    -0.027 CG0
ATOM      9  G   UNL     1      21.938  16.228   5.163  1.00  0.00     0.000 G0
ENDBRANCH   5   6
ENDBRANCH   4   5
ENDBRANCH   2   4
BRANCH   1  10
ATOM     10  C   UNL     1      22.874  14.046   2.125  1.00  0.00     0.057 C 
BRANCH  10  11
ATOM     11  C   UNL     1      21.723  13.562   2.975  1.00  0.00    -0.026 C 
ATOM     12  C   UNL     1      20.901  14.296   3.759  1.00  0.00    -0.024 C 
BRANCH  12  13
ATOM     13  C   UNL     1      20.917  15.810   4.027  1.00  0.00    -0.014 C 
ATOM     14  C   UNL     1      19.491  16.226   4.463  1.00  0.00     0.016 C 
ATOM     15  C   UNL     1      21.231  16.568   2.718  1.00  0.00     0.016 C 
BRANCH  13  16
ATOM     16  C   UNL     1      21.912  16.232   5.154  1.00  0.00     0.038 CG0
ATOM     17  G   UNL     1      22.384  17.663   5.017  1.00  0.00     0.000 G0
ENDBRANCH  13  16
ENDBRANCH  12  13
ENDBRANCH  10  11
ENDBRANCH   1  10
TORSDOF 0
ENDMDL
MODEL 6
REMARK VINA RESULT:    -3.505      1.448      3.585
REMARK INTER + INTRA:          -4.195
REMARK INTER:                  -6.131
REMARK INTRA:                   1.936
REMARK UNBOUND:                 0.744
REMARK SMILES CC1=CCCC(C)=CCC(C)(C)C=CC1
REMARK SMILES IDX 2 1 3 2 1 3 4 4 5 5 6 6 7 7 8 8 15 10 14 11 13 12 10 13
REMARK SMILES IDX 11 14 12 15 9 16
REMARK H PARENT
REMARK Flexibility Score: 60.00
ROOT
ATOM      1  C   UNL     1      22.752  12.879   2.464  1.00  0.00    -0.074 C 
ATOM      2  C   UNL     1      21.580  12.271   2.776  1.00  0.00    -0.027 C 
ATOM      3  C   UNL     1      23.938  11.988   2.186  1.00  0.00     0.039 C 
ENDROOT
BRANCH   2   4
ATOM      4  C   UNL     1      20.277  12.953   3.127  1.00  0.00     0.032 C 
BRANCH   4   5
ATOM      5  C   UNL     1      20.254  14.453   2.767  1.00  0.00     0.034 C 
BRANCH   5   6
ATOM      6  C   UNL     1      20.044  15.387   3.950  1.00  0.00    -0.077 C 
ATOM      7  C   UNL     1      19.095  14.970   5.046  1.00  0.00     0.039 C 
ATOM      8  C   UNL     1      20.680  16.572   4.081  1.00  0.00    -0.027 CG0
ATOM      9  G   UNL     1      21.652  17.150   3.077  1.00  0.00     0.000 G0
ENDBRANCH   5   6
ENDBRANCH   4   5
ENDBRANCH   2   4
BRANCH   1  10
ATOM     10  C   UNL     1      22.959  14.387   2.427  1.00  0.00     0.057 C 
BRANCH  10  11
ATOM     11  C   UNL     1      23.723  14.861   3.642  1.00  0.00    -0.026 C 
ATOM     12  C   UNL     1      23.767  16.109   4.163  1.00  0.00    -0.024 C 
BRANCH  12  13
ATOM     13  C   UNL     1      23.082  17.390   3.662  1.00  0.00    -0.014 C 
ATOM     14  C   UNL     1      23.968  17.991   2.543  1.00  0.00     0.016 C 
ATOM     15  C   UNL     1      23.022  18.431   4.802  1.00  0.00     0.016 C 
BRANCH  13  16
ATOM     16  C   UNL     1      21.656  17.144   3.072  1.00  0.00     0.038 CG0
ATOM     17  G   UNL     1      20.688  16.582   4.090  1.00  0.00     0.000 G0
ENDBRANCH  13  16
ENDBRANCH  12  13
ENDBRANCH  10  11
ENDBRANCH   1  10
TORSDOF 0
ENDMDL
MODEL 7
REMARK VINA RESULT:    -3.355      1.544      4.248
REMARK INTER + INTRA:          -3.984
REMARK INTER:                  -5.099
REMARK INTRA:                   1.115
REMARK UNBOUND:                 0.744
REMARK SMILES CC1=CCCC(C)=CCC(C)(C)C=CC1
REMARK SMILES IDX 2 1 3 2 1 3 4 4 5 5 6 6 7 7 8 8 15 10 14 11 13 12 10 13
REMARK SMILES IDX 11 14 12 15 9 16
REMARK H PARENT
REMARK Flexibility Score: 60.00
ROOT
ATOM      1  C   UNL     1      23.185  18.943   5.316  1.00  0.00    -0.074 C 
ATOM      2  C   UNL     1      24.311  19.059   4.569  1.00  0.00    -0.027 C 
ATOM      3  C   UNL     1      22.980  19.957   6.415  1.00  0.00     0.039 C 
ENDROOT
BRANCH   2   4
ATOM      4  C   UNL     1      24.744  18.143   3.446  1.00  0.00     0.032 C 
BRANCH   4   5
ATOM      5  C   UNL     1      25.195  16.750   3.930  1.00  0.00     0.034 C 
BRANCH   5   6
ATOM      6  C   UNL     1      24.968  15.625   2.931  1.00  0.00    -0.077 C 
ATOM      7  C   UNL     1      26.019  15.363   1.881  1.00  0.00     0.039 C 
ATOM      8  C   UNL     1      23.875  14.831   2.944  1.00  0.00    -0.027 CG0
ATOM      9  G   UNL     1      22.722  14.959   3.914  1.00  0.00     0.000 G0
ENDBRANCH   5   6
ENDBRANCH   4   5
ENDBRANCH   2   4
BRANCH   1  10
ATOM     10  C   UNL     1      22.150  17.838   5.154  1.00  0.00     0.057 C 
BRANCH  10  11
ATOM     11  C   UNL     1      21.529  17.872   3.777  1.00  0.00    -0.026 C 
ATOM     12  C   UNL     1      21.188  16.825   2.992  1.00  0.00    -0.024 C 
BRANCH  12  13
ATOM     13  C   UNL     1      21.354  15.321   3.261  1.00  0.00    -0.014 C 
ATOM     14  C   UNL     1      21.282  14.588   1.899  1.00  0.00     0.016 C 
ATOM     15  C   UNL     1      20.172  14.809   4.114  1.00  0.00     0.016 C 
BRANCH  13  16
ATOM     16  C   UNL     1      22.713  14.955   3.937  1.00  0.00     0.038 CG0
ATOM     17  G   UNL     1      23.850  14.834   2.946  1.00  0.00     0.000 G0
ENDBRANCH  13  16
ENDBRANCH  12  13
ENDBRANCH  10  11
ENDBRANCH   1  10
TORSDOF 0
ENDMDL
MODEL 8
REMARK VINA RESULT:    -3.330     16.434     18.448
REMARK INTER + INTRA:          -3.948
REMARK INTER:                  -5.530
REMARK INTRA:                   1.582
REMARK UNBOUND:                 0.744
REMARK SMILES CC1=CCCC(C)=CCC(C)(C)C=CC1
REMARK SMILES IDX 2 1 3 2 1 3 4 4 5 5 6 6 7 7 8 8 15 10 14 11 13 12 10 13
REMARK SMILES IDX 11 14 12 15 9 16
REMARK H PARENT
REMARK Flexibility Score: 60.00
ROOT
ATOM      1  C   UNL     1      10.440  20.678  19.298  1.00  0.00    -0.074 C 
ATOM      2  C   UNL     1       9.670  20.359  18.228  1.00  0.00    -0.027 C 
ATOM      3  C   UNL     1       9.732  21.190  20.528  1.00  0.00     0.039 C 
ENDROOT
BRANCH   2   4
ATOM      4  C   UNL     1      10.158  19.865  16.884  1.00  0.00     0.032 C 
BRANCH   4   5
ATOM      5  C   UNL     1      11.170  20.815  16.212  1.00  0.00     0.034 C 
BRANCH   5   6
ATOM      6  C   UNL     1      12.248  20.119  15.393  1.00  0.00    -0.077 C 
ATOM      7  C   UNL     1      11.927  19.696  13.981  1.00  0.00     0.039 C 
ATOM      8  C   UNL     1      13.491  19.873  15.859  1.00  0.00    -0.027 CG0
ATOM      9  G   UNL     1      13.980  20.217  17.249  1.00  0.00     0.000 G0
ENDBRANCH   5   6
ENDBRANCH   4   5
ENDBRANCH   2   4
BRANCH   1  10
ATOM     10  C   UNL     1      11.961  20.603  19.321  1.00  0.00     0.057 C 
BRANCH  10  11
ATOM     11  C   UNL     1      12.432  19.212  19.675  1.00  0.00    -0.026 C 
ATOM     12  C   UNL     1      13.475  18.529  19.152  1.00  0.00    -0.024 C 
BRANCH  12  13
ATOM     13  C   UNL     1      14.454  18.955  18.047  1.00  0.00    -0.014 C 
ATOM     14  C   UNL     1      14.580  17.777  17.049  1.00  0.00     0.016 C 
ATOM     15  C   UNL     1      15.855  19.191  18.651  1.00  0.00     0.016 C 
BRANCH  13  16
ATOM     16  C   UNL     1      13.984  20.215  17.252  1.00  0.00     0.038 CG0
ATOM     17  G   UNL     1      13.499  19.884  15.858  1.00  0.00     0.000 G0
ENDBRANCH  13  16
ENDBRANCH  12  13
ENDBRANCH  10  11
ENDBRANCH   1  10
TORSDOF 0
ENDMDL
MODEL 9
REMARK VINA RESULT:    -3.329      1.764      4.266
REMARK INTER + INTRA:          -3.946
REMARK INTER:                  -5.017
REMARK INTRA:                   1.071
REMARK UNBOUND:                 0.744
REMARK SMILES CC1=CCCC(C)=CCC(C)(C)C=CC1
REMARK SMILES IDX 2 1 3 2 1 3 4 4 5 5 6 6 7 7 8 8 15 10 14 11 13 12 10 13
REMARK SMILES IDX 11 14 12 15 9 16
REMARK H PARENT
REMARK Flexibility Score: 60.00
ROOT
ATOM      1  C   UNL     1      20.298  17.142   4.253  1.00  0.00    -0.074 C 
ATOM      2  C   UNL     1      21.587  17.046   4.664  1.00  0.00    -0.027 C 
ATOM      3  C   UNL     1      19.616  18.476   4.431  1.00  0.00     0.039 C 
ENDROOT
BRANCH   2   4
ATOM      4  C   UNL     1      22.456  15.809   4.620  1.00  0.00     0.032 C 
BRANCH   4   5
ATOM      5  C   UNL     1      22.961  15.463   3.205  1.00  0.00     0.034 C 
BRANCH   5   6
ATOM      6  C   UNL     1      23.183  13.979   2.953  1.00  0.00    -0.077 C 
ATOM      7  C   UNL     1      24.561  13.404   3.170  1.00  0.00     0.039 C 
ATOM      8  C   UNL     1      22.202  13.138   2.560  1.00  0.00    -0.027 CG0
ATOM      9  G   UNL     1      20.771  13.543   2.285  1.00  0.00     0.000 G0
ENDBRANCH   5   6
ENDBRANCH   4   5
ENDBRANCH   2   4
BRANCH   1  10
ATOM     10  C   UNL     1      19.487  15.989   3.678  1.00  0.00     0.057 C 
BRANCH  10  11
ATOM     11  C   UNL     1      19.305  14.889   4.697  1.00  0.00    -0.026 C 
ATOM     12  C   UNL     1      19.422  13.555   4.511  1.00  0.00    -0.024 C 
BRANCH  12  13
ATOM     13  C   UNL     1      19.746  12.783   3.222  1.00  0.00    -0.014 C 
ATOM     14  C   UNL     1      18.423  12.598   2.439  1.00  0.00     0.016 C 
ATOM     15  C   UNL     1      20.266  11.372   3.575  1.00  0.00     0.016 C 
BRANCH  13  16
ATOM     16  C   UNL     1      20.760  13.522   2.293  1.00  0.00     0.038 CG0
ATOM     17  G   UNL     1      22.197  13.128   2.559  1.00  0.00     0.000 G0
ENDBRANCH  13  16
ENDBRANCH  12  13
ENDBRANCH  10  11
ENDBRANCH   1  10
TORSDOF 0
ENDMDL
