MODEL 1
REMARK VINA RESULT:    -6.902      0.000      0.000
REMARK INTER + INTRA:          -9.541
REMARK INTER:                  -8.717
REMARK INTRA:                  -0.824
REMARK UNBOUND:                -0.824
REMARK SMILES CC(C)[C@H](C)C=C[C@H](C)[C@@H]1CC[C@@H]2C3=CC=C4C[C@H](O)CC[C@]4(C)[C@H]3CC[C@@]21C
REMARK SMILES IDX 8 1 9 2 7 3 6 4 4 5 5 6 2 7 1 8 3 9 10 10 11 11 28 12 12 13
REMARK SMILES IDX 13 14 27 15 29 16 14 17 26 18 25 19 15 20 23 21 16 22 17 23
REMARK SMILES IDX 22 24 24 25 18 26 21 27 19 28 20 29
REMARK H PARENT 20 30
REMARK Flexibility Score: inf
ROOT
ATOM      1  C   UNL     1     143.733 135.711 145.932  1.00  0.00     0.012 C 
ATOM      2  C   UNL     1     143.720 136.172 144.467  1.00  0.00     0.012 C 
ENDROOT
BRANCH   1   3
ATOM      3  C   UNL     1     144.983 136.238 146.612  1.00  0.00    -0.028 C 
ATOM      4  C   UNL     1     145.536 137.424 146.294  1.00  0.00    -0.028 C 
BRANCH   4   5
ATOM      5  C   UNL     1     146.779 137.953 146.979  1.00  0.00     0.011 C 
ATOM      6  C   UNL     1     147.597 136.778 147.543  1.00  0.00     0.012 C 
BRANCH   5   7
ATOM      7  C   UNL     1     147.615 138.874 146.036  1.00  0.00    -0.011 C 
ATOM      8  C   UNL     1     147.431 138.473 144.562  1.00  0.00     0.008 C 
ATOM      9  C   UNL     1     147.240 140.356 146.204  1.00  0.00     0.008 C 
ENDBRANCH   5   7
ENDBRANCH   4   5
ENDBRANCH   1   3
BRANCH   1  10
ATOM     10  C   UNL     1     142.446 136.123 146.723  1.00  0.00     0.002 C 
ATOM     11  C   UNL     1     142.669 136.067 148.244  1.00  0.00     0.005 C 
ATOM     12  C   UNL     1     141.141 135.299 146.479  1.00  0.00    -0.023 C 
ATOM     13  C   UNL     1     141.325 135.744 148.886  1.00  0.00     0.009 C 
ATOM     14  C   UNL     1     140.315 135.618 147.745  1.00  0.00     0.021 C 
ATOM     15  C   UNL     1     141.430 133.772 146.393  1.00  0.00     0.008 C 
ATOM     16  C   UNL     1     140.376 135.795 145.223  1.00  0.00     0.012 C 
ATOM     17  C   UNL     1     139.214 134.622 148.077  1.00  0.00    -0.063 C 
ATOM     18  C   UNL     1     140.149 132.938 146.424  1.00  0.00     0.009 C 
ATOM     19  C   UNL     1     139.357 133.146 147.733  1.00  0.00     0.025 C 
ATOM     20  C   UNL     1     138.262 135.000 148.943  1.00  0.00    -0.000 C 
ATOM     21  C   UNL     1     137.968 132.392 147.751  1.00  0.00    -0.005 C 
ATOM     22  C   UNL     1     137.289 134.042 149.486  1.00  0.00    -0.000 C 
ATOM     23  C   UNL     1     137.190 132.792 149.010  1.00  0.00    -0.061 C 
ATOM     24  C   UNL     1     138.229 130.855 147.746  1.00  0.00     0.014 C 
ATOM     25  C   UNL     1     137.099 132.780 146.525  1.00  0.00     0.017 C 
ATOM     26  C   UNL     1     136.074 131.912 149.533  1.00  0.00     0.063 C 
ATOM     27  C   UNL     1     137.000 130.017 148.122  1.00  0.00     0.033 C 
ATOM     28  C   UNL     1     136.432 130.418 149.489  1.00  0.00     0.118 C 
BRANCH  28  29
ATOM     29  O   UNL     1     137.306 130.057 150.532  1.00  0.00    -0.393 OA
ATOM     30  H   UNL     1     137.179 129.092 150.727  1.00  0.00     0.210 HD
ENDBRANCH  28  29
ENDBRANCH   1  10
TORSDOF 5
ENDMDL
MODEL 2
REMARK VINA RESULT:    -6.703      6.778      8.754
REMARK INTER + INTRA:          -9.290
REMARK INTER:                  -7.835
REMARK INTRA:                  -1.455
REMARK UNBOUND:                -0.824
REMARK SMILES CC(C)[C@H](C)C=C[C@H](C)[C@@H]1CC[C@@H]2C3=CC=C4C[C@H](O)CC[C@]4(C)[C@H]3CC[C@@]21C
REMARK SMILES IDX 8 1 9 2 7 3 6 4 4 5 5 6 2 7 1 8 3 9 10 10 11 11 28 12 12 13
REMARK SMILES IDX 13 14 27 15 29 16 14 17 26 18 25 19 15 20 23 21 16 22 17 23
REMARK SMILES IDX 22 24 24 25 18 26 21 27 19 28 20 29
REMARK H PARENT 20 30
REMARK Flexibility Score: inf
ROOT
ATOM      1  C   UNL     1     138.892 143.909 140.157  1.00  0.00     0.012 C 
ATOM      2  C   UNL     1     138.218 144.937 139.236  1.00  0.00     0.012 C 
ENDROOT
BRANCH   1   3
ATOM      3  C   UNL     1     139.863 144.622 141.080  1.00  0.00    -0.028 C 
ATOM      4  C   UNL     1     141.080 144.128 141.374  1.00  0.00    -0.028 C 
BRANCH   4   5
ATOM      5  C   UNL     1     142.052 144.845 142.289  1.00  0.00     0.011 C 
ATOM      6  C   UNL     1     141.644 146.323 142.417  1.00  0.00     0.012 C 
BRANCH   5   7
ATOM      7  C   UNL     1     142.183 144.132 143.671  1.00  0.00    -0.011 C 
ATOM      8  C   UNL     1     141.288 144.801 144.729  1.00  0.00     0.008 C 
ATOM      9  C   UNL     1     141.823 142.639 143.581  1.00  0.00     0.008 C 
ENDBRANCH   5   7
ENDBRANCH   4   5
ENDBRANCH   1   3
BRANCH   1  10
ATOM     10  C   UNL     1     137.872 143.045 140.973  1.00  0.00     0.002 C 
ATOM     11  C   UNL     1     137.873 143.420 142.465  1.00  0.00     0.005 C 
ATOM     12  C   UNL     1     138.044 141.492 140.950  1.00  0.00    -0.023 C 
ATOM     13  C   UNL     1     137.496 142.166 143.246  1.00  0.00     0.009 C 
ATOM     14  C   UNL     1     137.266 141.061 142.214  1.00  0.00     0.021 C 
ATOM     15  C   UNL     1     139.539 141.074 141.067  1.00  0.00     0.008 C 
ATOM     16  C   UNL     1     137.383 140.860 139.696  1.00  0.00     0.012 C 
ATOM     17  C   UNL     1     137.626 139.692 142.769  1.00  0.00    -0.063 C 
ATOM     18  C   UNL     1     139.704 139.575 141.315  1.00  0.00     0.009 C 
ATOM     19  C   UNL     1     139.035 139.132 142.635  1.00  0.00     0.025 C 
ATOM     20  C   UNL     1     136.779 139.122 143.640  1.00  0.00    -0.000 C 
ATOM     21  C   UNL     1     139.082 137.570 142.866  1.00  0.00    -0.005 C 
ATOM     22  C   UNL     1     137.142 137.910 144.387  1.00  0.00    -0.000 C 
ATOM     23  C   UNL     1     138.255 137.216 144.108  1.00  0.00    -0.061 C 
ATOM     24  C   UNL     1     140.565 137.133 143.067  1.00  0.00     0.014 C 
ATOM     25  C   UNL     1     138.467 136.803 141.665  1.00  0.00     0.017 C 
ATOM     26  C   UNL     1     138.486 135.908 144.836  1.00  0.00     0.063 C 
ATOM     27  C   UNL     1     140.723 135.724 143.652  1.00  0.00     0.033 C 
ATOM     28  C   UNL     1     139.978 135.573 144.984  1.00  0.00     0.118 C 
BRANCH  28  29
ATOM     29  O   UNL     1     140.588 136.332 146.001  1.00  0.00    -0.393 OA
ATOM     30  H   UNL     1     141.573 136.259 145.898  1.00  0.00     0.210 HD
ENDBRANCH  28  29
ENDBRANCH   1  10
TORSDOF 5
ENDMDL
MODEL 3
REMARK VINA RESULT:    -6.608      9.985     14.058
REMARK INTER + INTRA:          -9.170
REMARK INTER:                  -8.300
REMARK INTRA:                  -0.870
REMARK UNBOUND:                -0.824
REMARK SMILES CC(C)[C@H](C)C=C[C@H](C)[C@@H]1CC[C@@H]2C3=CC=C4C[C@H](O)CC[C@]4(C)[C@H]3CC[C@@]21C
REMARK SMILES IDX 8 1 9 2 7 3 6 4 4 5 5 6 2 7 1 8 3 9 10 10 11 11 28 12 12 13
REMARK SMILES IDX 13 14 27 15 29 16 14 17 26 18 25 19 15 20 23 21 16 22 17 23
REMARK SMILES IDX 22 24 24 25 18 26 21 27 19 28 20 29
REMARK H PARENT 20 30
REMARK Flexibility Score: inf
ROOT
ATOM      1  C   UNL     1     135.190 139.203 137.554  1.00  0.00     0.012 C 
ATOM      2  C   UNL     1     135.290 137.710 137.205  1.00  0.00     0.012 C 
ENDROOT
BRANCH   1   3
ATOM      3  C   UNL     1     133.823 139.723 137.150  1.00  0.00    -0.028 C 
ATOM      4  C   UNL     1     132.699 138.996 137.297  1.00  0.00    -0.028 C 
BRANCH   4   5
ATOM      5  C   UNL     1     131.333 139.519 136.901  1.00  0.00     0.011 C 
ATOM      6  C   UNL     1     130.714 138.592 135.840  1.00  0.00     0.012 C 
BRANCH   5   7
ATOM      7  C   UNL     1     130.407 139.722 138.141  1.00  0.00    -0.011 C 
ATOM      8  C   UNL     1     130.836 140.952 138.960  1.00  0.00     0.008 C 
ATOM      9  C   UNL     1     128.932 139.880 137.733  1.00  0.00     0.008 C 
ENDBRANCH   5   7
ENDBRANCH   4   5
ENDBRANCH   1   3
BRANCH   1  10
ATOM     10  C   UNL     1     135.485 139.508 139.062  1.00  0.00     0.002 C 
ATOM     11  C   UNL     1     134.706 140.738 139.558  1.00  0.00     0.005 C 
ATOM     12  C   UNL     1     136.967 139.777 139.478  1.00  0.00    -0.023 C 
ATOM     13  C   UNL     1     135.536 141.384 140.661  1.00  0.00     0.009 C 
ATOM     14  C   UNL     1     136.795 140.529 140.817  1.00  0.00     0.021 C 
ATOM     15  C   UNL     1     137.704 140.677 138.444  1.00  0.00     0.008 C 
ATOM     16  C   UNL     1     137.743 138.456 139.724  1.00  0.00     0.012 C 
ATOM     17  C   UNL     1     137.988 141.364 141.257  1.00  0.00    -0.063 C 
ATOM     18  C   UNL     1     139.056 141.167 138.962  1.00  0.00     0.009 C 
ATOM     19  C   UNL     1     138.907 142.024 140.238  1.00  0.00     0.025 C 
ATOM     20  C   UNL     1     138.042 141.763 142.537  1.00  0.00    -0.000 C 
ATOM     21  C   UNL     1     140.291 142.450 140.870  1.00  0.00    -0.005 C 
ATOM     22  C   UNL     1     139.034 142.743 142.998  1.00  0.00    -0.000 C 
ATOM     23  C   UNL     1     140.043 143.149 142.212  1.00  0.00    -0.061 C 
ATOM     24  C   UNL     1     141.018 143.418 139.887  1.00  0.00     0.014 C 
ATOM     25  C   UNL     1     141.188 141.215 141.150  1.00  0.00     0.017 C 
ATOM     26  C   UNL     1     141.095 144.059 142.809  1.00  0.00     0.063 C 
ATOM     27  C   UNL     1     142.187 144.182 140.522  1.00  0.00     0.033 C 
ATOM     28  C   UNL     1     141.747 144.973 141.760  1.00  0.00     0.118 C 
BRANCH  28  29
ATOM     29  O   UNL     1     140.909 146.050 141.409  1.00  0.00    -0.393 OA
ATOM     30  H   UNL     1     141.023 146.768 142.084  1.00  0.00     0.210 HD
ENDBRANCH  28  29
ENDBRANCH   1  10
TORSDOF 5
ENDMDL
MODEL 4
REMARK VINA RESULT:    -6.582      6.789     10.148
REMARK INTER + INTRA:          -9.137
REMARK INTER:                  -7.668
REMARK INTRA:                  -1.468
REMARK UNBOUND:                -0.824
REMARK SMILES CC(C)[C@H](C)C=C[C@H](C)[C@@H]1CC[C@@H]2C3=CC=C4C[C@H](O)CC[C@]4(C)[C@H]3CC[C@@]21C
REMARK SMILES IDX 8 1 9 2 7 3 6 4 4 5 5 6 2 7 1 8 3 9 10 10 11 11 28 12 12 13
REMARK SMILES IDX 13 14 27 15 29 16 14 17 26 18 25 19 15 20 23 21 16 22 17 23
REMARK SMILES IDX 22 24 24 25 18 26 21 27 19 28 20 29
REMARK H PARENT 20 30
REMARK Flexibility Score: inf
ROOT
ATOM      1  C   UNL     1     142.233 141.704 139.255  1.00  0.00     0.012 C 
ATOM      2  C   UNL     1     141.749 141.614 137.800  1.00  0.00     0.012 C 
ENDROOT
BRANCH   1   3
ATOM      3  C   UNL     1     141.360 142.684 140.016  1.00  0.00    -0.028 C 
ATOM      4  C   UNL     1     141.868 143.622 140.838  1.00  0.00    -0.028 C 
BRANCH   4   5
ATOM      5  C   UNL     1     140.995 144.605 141.590  1.00  0.00     0.011 C 
ATOM      6  C   UNL     1     139.798 145.009 140.712  1.00  0.00     0.012 C 
BRANCH   5   7
ATOM      7  C   UNL     1     140.562 144.050 142.984  1.00  0.00    -0.011 C 
ATOM      8  C   UNL     1     139.194 143.351 142.903  1.00  0.00     0.008 C 
ATOM      9  C   UNL     1     141.597 143.065 143.553  1.00  0.00     0.008 C 
ENDBRANCH   5   7
ENDBRANCH   4   5
ENDBRANCH   1   3
BRANCH   1  10
ATOM     10  C   UNL     1     142.282 140.316 139.979  1.00  0.00     0.002 C 
ATOM     11  C   UNL     1     141.222 140.213 141.089  1.00  0.00     0.005 C 
ATOM     12  C   UNL     1     143.621 139.893 140.663  1.00  0.00    -0.023 C 
ATOM     13  C   UNL     1     141.772 139.271 142.153  1.00  0.00     0.009 C 
ATOM     14  C   UNL     1     143.148 138.815 141.664  1.00  0.00     0.021 C 
ATOM     15  C   UNL     1     144.283 141.081 141.421  1.00  0.00     0.008 C 
ATOM     16  C   UNL     1     144.609 139.257 139.648  1.00  0.00     0.012 C 
ATOM     17  C   UNL     1     144.092 138.538 142.824  1.00  0.00    -0.063 C 
ATOM     18  C   UNL     1     145.440 140.627 142.311  1.00  0.00     0.009 C 
ATOM     19  C   UNL     1     144.975 139.636 143.400  1.00  0.00     0.025 C 
ATOM     20  C   UNL     1     143.914 137.409 143.526  1.00  0.00    -0.000 C 
ATOM     21  C   UNL     1     146.164 139.054 144.264  1.00  0.00    -0.005 C 
ATOM     22  C   UNL     1     144.632 137.163 144.785  1.00  0.00    -0.000 C 
ATOM     23  C   UNL     1     145.625 137.963 145.198  1.00  0.00    -0.061 C 
ATOM     24  C   UNL     1     146.796 140.210 145.097  1.00  0.00     0.014 C 
ATOM     25  C   UNL     1     147.248 138.401 143.366  1.00  0.00     0.017 C 
ATOM     26  C   UNL     1     146.399 137.564 146.437  1.00  0.00     0.063 C 
ATOM     27  C   UNL     1     147.707 139.729 146.233  1.00  0.00     0.033 C 
ATOM     28  C   UNL     1     146.976 138.775 147.186  1.00  0.00     0.118 C 
BRANCH  28  29
ATOM     29  O   UNL     1     145.990 139.451 147.930  1.00  0.00    -0.393 OA
ATOM     30  H   UNL     1     146.394 140.273 148.312  1.00  0.00     0.210 HD
ENDBRANCH  28  29
ENDBRANCH   1  10
TORSDOF 5
ENDMDL
MODEL 5
REMARK VINA RESULT:    -6.535      8.701     11.742
REMARK INTER + INTRA:          -9.078
REMARK INTER:                  -7.952
REMARK INTRA:                  -1.126
REMARK UNBOUND:                -0.824
REMARK SMILES CC(C)[C@H](C)C=C[C@H](C)[C@@H]1CC[C@@H]2C3=CC=C4C[C@H](O)CC[C@]4(C)[C@H]3CC[C@@]21C
REMARK SMILES IDX 8 1 9 2 7 3 6 4 4 5 5 6 2 7 1 8 3 9 10 10 11 11 28 12 12 13
REMARK SMILES IDX 13 14 27 15 29 16 14 17 26 18 25 19 15 20 23 21 16 22 17 23
REMARK SMILES IDX 22 24 24 25 18 26 21 27 19 28 20 29
REMARK H PARENT 20 30
REMARK Flexibility Score: inf
ROOT
ATOM      1  C   UNL     1     141.449 143.444 143.609  1.00  0.00     0.012 C 
ATOM      2  C   UNL     1     141.828 144.417 144.737  1.00  0.00     0.012 C 
ENDROOT
BRANCH   1   3
ATOM      3  C   UNL     1     140.083 143.818 143.063  1.00  0.00    -0.028 C 
ATOM      4  C   UNL     1     139.109 142.911 142.864  1.00  0.00    -0.028 C 
BRANCH   4   5
ATOM      5  C   UNL     1     137.743 143.286 142.326  1.00  0.00     0.011 C 
ATOM      6  C   UNL     1     137.906 144.128 141.048  1.00  0.00     0.012 C 
BRANCH   5   7
ATOM      7  C   UNL     1     136.838 142.032 142.112  1.00  0.00    -0.011 C 
ATOM      8  C   UNL     1     136.516 141.826 140.622  1.00  0.00     0.008 C 
ATOM      9  C   UNL     1     137.491 140.755 142.666  1.00  0.00     0.008 C 
ENDBRANCH   5   7
ENDBRANCH   4   5
ENDBRANCH   1   3
BRANCH   1  10
ATOM     10  C   UNL     1     142.514 143.378 142.464  1.00  0.00     0.002 C 
ATOM     11  C   UNL     1     142.007 144.042 141.173  1.00  0.00     0.005 C 
ATOM     12  C   UNL     1     143.023 141.970 142.017  1.00  0.00    -0.023 C 
ATOM     13  C   UNL     1     142.682 143.333 140.004  1.00  0.00     0.009 C 
ATOM     14  C   UNL     1     143.590 142.261 140.610  1.00  0.00     0.021 C 
ATOM     15  C   UNL     1     141.861 140.938 141.929  1.00  0.00     0.008 C 
ATOM     16  C   UNL     1     144.162 141.452 142.936  1.00  0.00     0.012 C 
ATOM     17  C   UNL     1     143.720 141.055 139.693  1.00  0.00    -0.063 C 
ATOM     18  C   UNL     1     142.289 139.641 141.242  1.00  0.00     0.009 C 
ATOM     19  C   UNL     1     142.752 139.884 139.788  1.00  0.00     0.025 C 
ATOM     20  C   UNL     1     144.499 141.170 138.606  1.00  0.00    -0.000 C 
ATOM     21  C   UNL     1     143.315 138.585 139.085  1.00  0.00    -0.005 C 
ATOM     22  C   UNL     1     144.515 140.140 137.558  1.00  0.00    -0.000 C 
ATOM     23  C   UNL     1     143.897 138.961 137.718  1.00  0.00    -0.061 C 
ATOM     24  C   UNL     1     142.151 137.562 138.911  1.00  0.00     0.014 C 
ATOM     25  C   UNL     1     144.457 137.943 139.916  1.00  0.00     0.017 C 
ATOM     26  C   UNL     1     144.074 137.907 136.645  1.00  0.00     0.063 C 
ATOM     27  C   UNL     1     142.469 136.424 137.933  1.00  0.00     0.033 C 
ATOM     28  C   UNL     1     142.873 136.953 136.552  1.00  0.00     0.118 C 
BRANCH  28  29
ATOM     29  O   UNL     1     141.780 137.548 135.892  1.00  0.00    -0.393 OA
ATOM     30  H   UNL     1     141.719 137.162 134.980  1.00  0.00     0.210 HD
ENDBRANCH  28  29
ENDBRANCH   1  10
TORSDOF 5
ENDMDL
MODEL 6
REMARK VINA RESULT:    -6.472      2.066      4.253
REMARK INTER + INTRA:          -8.998
REMARK INTER:                  -8.219
REMARK INTRA:                  -0.779
REMARK UNBOUND:                -0.824
REMARK SMILES CC(C)[C@H](C)C=C[C@H](C)[C@@H]1CC[C@@H]2C3=CC=C4C[C@H](O)CC[C@]4(C)[C@H]3CC[C@@]21C
REMARK SMILES IDX 8 1 9 2 7 3 6 4 4 5 5 6 2 7 1 8 3 9 10 10 11 11 28 12 12 13
REMARK SMILES IDX 13 14 27 15 29 16 14 17 26 18 25 19 15 20 23 21 16 22 17 23
REMARK SMILES IDX 22 24 24 25 18 26 21 27 19 28 20 29
REMARK H PARENT 20 30
REMARK Flexibility Score: inf
ROOT
ATOM      1  C   UNL     1     145.284 138.303 145.307  1.00  0.00     0.012 C 
ATOM      2  C   UNL     1     146.606 138.208 146.084  1.00  0.00     0.012 C 
ENDROOT
BRANCH   1   3
ATOM      3  C   UNL     1     145.515 139.062 144.014  1.00  0.00    -0.028 C 
ATOM      4  C   UNL     1     146.537 138.784 143.182  1.00  0.00    -0.028 C 
BRANCH   4   5
ATOM      5  C   UNL     1     146.762 139.538 141.887  1.00  0.00     0.011 C 
ATOM      6  C   UNL     1     145.667 140.604 141.715  1.00  0.00     0.012 C 
BRANCH   5   7
ATOM      7  C   UNL     1     148.204 140.132 141.804  1.00  0.00    -0.011 C 
ATOM      8  C   UNL     1     148.211 141.468 141.042  1.00  0.00     0.008 C 
ATOM      9  C   UNL     1     148.815 140.346 143.199  1.00  0.00     0.008 C 
ENDBRANCH   5   7
ENDBRANCH   4   5
ENDBRANCH   1   3
BRANCH   1  10
ATOM     10  C   UNL     1     144.627 136.908 145.030  1.00  0.00     0.002 C 
ATOM     11  C   UNL     1     143.501 137.005 143.987  1.00  0.00     0.005 C 
ATOM     12  C   UNL     1     143.991 136.146 146.237  1.00  0.00    -0.023 C 
ATOM     13  C   UNL     1     142.493 135.907 144.306  1.00  0.00     0.009 C 
ATOM     14  C   UNL     1     143.032 135.163 145.529  1.00  0.00     0.021 C 
ATOM     15  C   UNL     1     143.193 137.103 147.169  1.00  0.00     0.008 C 
ATOM     16  C   UNL     1     145.055 135.345 147.034  1.00  0.00     0.012 C 
ATOM     17  C   UNL     1     141.906 134.612 146.391  1.00  0.00    -0.063 C 
ATOM     18  C   UNL     1     142.350 136.344 148.194  1.00  0.00     0.009 C 
ATOM     19  C   UNL     1     141.298 135.438 147.516  1.00  0.00     0.025 C 
ATOM     20  C   UNL     1     141.253 133.523 145.955  1.00  0.00    -0.000 C 
ATOM     21  C   UNL     1     140.487 134.547 148.539  1.00  0.00    -0.005 C 
ATOM     22  C   UNL     1     140.023 133.052 146.606  1.00  0.00    -0.000 C 
ATOM     23  C   UNL     1     139.594 133.571 147.765  1.00  0.00    -0.061 C 
ATOM     24  C   UNL     1     139.615 135.478 149.437  1.00  0.00     0.014 C 
ATOM     25  C   UNL     1     141.437 133.702 149.428  1.00  0.00     0.017 C 
ATOM     26  C   UNL     1     138.391 132.938 148.434  1.00  0.00     0.063 C 
ATOM     27  C   UNL     1     138.522 134.738 150.217  1.00  0.00     0.033 C 
ATOM     28  C   UNL     1     137.599 133.938 149.290  1.00  0.00     0.118 C 
BRANCH  28  29
ATOM     29  O   UNL     1     136.804 134.791 148.500  1.00  0.00    -0.393 OA
ATOM     30  H   UNL     1     136.598 135.605 149.029  1.00  0.00     0.210 HD
ENDBRANCH  28  29
ENDBRANCH   1  10
TORSDOF 5
ENDMDL
MODEL 7
REMARK VINA RESULT:    -6.428      3.323      8.323
REMARK INTER + INTRA:          -8.943
REMARK INTER:                  -8.588
REMARK INTRA:                  -0.355
REMARK UNBOUND:                -0.824
REMARK SMILES CC(C)[C@H](C)C=C[C@H](C)[C@@H]1CC[C@@H]2C3=CC=C4C[C@H](O)CC[C@]4(C)[C@H]3CC[C@@]21C
REMARK SMILES IDX 8 1 9 2 7 3 6 4 4 5 5 6 2 7 1 8 3 9 10 10 11 11 28 12 12 13
REMARK SMILES IDX 13 14 27 15 29 16 14 17 26 18 25 19 15 20 23 21 16 22 17 23
REMARK SMILES IDX 22 24 24 25 18 26 21 27 19 28 20 29
REMARK H PARENT 20 30
REMARK Flexibility Score: inf
ROOT
ATOM      1  C   UNL     1     141.095 134.605 149.601  1.00  0.00     0.012 C 
ATOM      2  C   UNL     1     140.812 135.143 151.011  1.00  0.00     0.012 C 
ENDROOT
BRANCH   1   3
ATOM      3  C   UNL     1     139.815 134.631 148.787  1.00  0.00    -0.028 C 
ATOM      4  C   UNL     1     138.647 135.078 149.287  1.00  0.00    -0.028 C 
BRANCH   4   5
ATOM      5  C   UNL     1     137.371 135.112 148.471  1.00  0.00     0.011 C 
ATOM      6  C   UNL     1     137.718 135.176 146.974  1.00  0.00     0.012 C 
BRANCH   5   7
ATOM      7  C   UNL     1     136.425 133.921 148.822  1.00  0.00    -0.011 C 
ATOM      8  C   UNL     1     136.443 132.852 147.715  1.00  0.00     0.008 C 
ATOM      9  C   UNL     1     136.805 133.264 150.160  1.00  0.00     0.008 C 
ENDBRANCH   5   7
ENDBRANCH   4   5
ENDBRANCH   1   3
BRANCH   1  10
ATOM     10  C   UNL     1     142.246 135.370 148.865  1.00  0.00     0.002 C 
ATOM     11  C   UNL     1     141.958 136.878 148.769  1.00  0.00     0.005 C 
ATOM     12  C   UNL     1     142.598 134.936 147.406  1.00  0.00    -0.023 C 
ATOM     13  C   UNL     1     142.637 137.389 147.504  1.00  0.00     0.009 C 
ATOM     14  C   UNL     1     143.330 136.185 146.864  1.00  0.00     0.021 C 
ATOM     15  C   UNL     1     141.321 134.651 146.563  1.00  0.00     0.008 C 
ATOM     16  C   UNL     1     143.564 133.722 147.385  1.00  0.00     0.012 C 
ATOM     17  C   UNL     1     143.381 136.308 145.349  1.00  0.00    -0.063 C 
ATOM     18  C   UNL     1     141.632 134.489 145.075  1.00  0.00     0.009 C 
ATOM     19  C   UNL     1     142.259 135.767 144.475  1.00  0.00     0.025 C 
ATOM     20  C   UNL     1     144.268 137.163 144.815  1.00  0.00    -0.000 C 
ATOM     21  C   UNL     1     142.703 135.596 142.968  1.00  0.00    -0.005 C 
ATOM     22  C   UNL     1     144.243 137.506 143.386  1.00  0.00    -0.000 C 
ATOM     23  C   UNL     1     143.458 136.852 142.517  1.00  0.00    -0.061 C 
ATOM     24  C   UNL     1     141.433 135.388 142.088  1.00  0.00     0.014 C 
ATOM     25  C   UNL     1     143.665 134.390 142.796  1.00  0.00     0.017 C 
ATOM     26  C   UNL     1     143.591 137.179 141.045  1.00  0.00     0.063 C 
ATOM     27  C   UNL     1     141.685 135.569 140.586  1.00  0.00     0.033 C 
ATOM     28  C   UNL     1     142.286 136.944 140.269  1.00  0.00     0.118 C 
BRANCH  28  29
ATOM     29  O   UNL     1     141.351 137.974 140.489  1.00  0.00    -0.393 OA
ATOM     30  H   UNL     1     141.037 137.916 141.429  1.00  0.00     0.210 HD
ENDBRANCH  28  29
ENDBRANCH   1  10
TORSDOF 5
ENDMDL
MODEL 8
REMARK VINA RESULT:    -6.378      3.967      8.687
REMARK INTER + INTRA:          -8.879
REMARK INTER:                  -7.775
REMARK INTRA:                  -1.104
REMARK UNBOUND:                -0.824
REMARK SMILES CC(C)[C@H](C)C=C[C@H](C)[C@@H]1CC[C@@H]2C3=CC=C4C[C@H](O)CC[C@]4(C)[C@H]3CC[C@@]21C
REMARK SMILES IDX 8 1 9 2 7 3 6 4 4 5 5 6 2 7 1 8 3 9 10 10 11 11 28 12 12 13
REMARK SMILES IDX 13 14 27 15 29 16 14 17 26 18 25 19 15 20 23 21 16 22 17 23
REMARK SMILES IDX 22 24 24 25 18 26 21 27 19 28 20 29
REMARK H PARENT 20 30
REMARK Flexibility Score: inf
ROOT
ATOM      1  C   UNL     1     142.309 133.344 146.646  1.00  0.00     0.012 C 
ATOM      2  C   UNL     1     142.768 131.887 146.817  1.00  0.00     0.012 C 
ENDROOT
BRANCH   1   3
ATOM      3  C   UNL     1     141.744 133.849 147.961  1.00  0.00    -0.028 C 
ATOM      4  C   UNL     1     140.444 134.160 148.119  1.00  0.00    -0.028 C 
BRANCH   4   5
ATOM      5  C   UNL     1     139.879 134.657 149.434  1.00  0.00     0.011 C 
ATOM      6  C   UNL     1     140.748 135.811 149.965  1.00  0.00     0.012 C 
BRANCH   5   7
ATOM      7  C   UNL     1     138.372 135.042 149.311  1.00  0.00    -0.011 C 
ATOM      8  C   UNL     1     137.919 135.052 147.840  1.00  0.00     0.008 C 
ATOM      9  C   UNL     1     137.470 134.085 150.108  1.00  0.00     0.008 C 
ENDBRANCH   5   7
ENDBRANCH   4   5
ENDBRANCH   1   3
BRANCH   1  10
ATOM     10  C   UNL     1     143.438 134.291 146.118  1.00  0.00     0.002 C 
ATOM     11  C   UNL     1     143.956 135.232 147.220  1.00  0.00     0.005 C 
ATOM     12  C   UNL     1     143.103 135.230 144.915  1.00  0.00    -0.023 C 
ATOM     13  C   UNL     1     144.427 136.511 146.538  1.00  0.00     0.009 C 
ATOM     14  C   UNL     1     144.194 136.317 145.038  1.00  0.00     0.021 C 
ATOM     15  C   UNL     1     141.689 135.865 145.054  1.00  0.00     0.008 C 
ATOM     16  C   UNL     1     143.256 134.497 143.555  1.00  0.00     0.012 C 
ATOM     17  C   UNL     1     143.887 137.635 144.344  1.00  0.00    -0.063 C 
ATOM     18  C   UNL     1     141.453 136.982 144.037  1.00  0.00     0.009 C 
ATOM     19  C   UNL     1     142.458 138.142 144.212  1.00  0.00     0.025 C 
ATOM     20  C   UNL     1     144.902 138.485 144.126  1.00  0.00    -0.000 C 
ATOM     21  C   UNL     1     142.321 139.260 143.103  1.00  0.00    -0.005 C 
ATOM     22  C   UNL     1     144.670 139.860 143.662  1.00  0.00    -0.000 C 
ATOM     23  C   UNL     1     143.459 140.275 143.263  1.00  0.00    -0.061 C 
ATOM     24  C   UNL     1     140.942 139.969 143.269  1.00  0.00     0.014 C 
ATOM     25  C   UNL     1     142.432 138.658 141.677  1.00  0.00     0.017 C 
ATOM     26  C   UNL     1     143.335 141.665 142.675  1.00  0.00     0.063 C 
ATOM     27  C   UNL     1     140.831 141.293 142.504  1.00  0.00     0.033 C 
ATOM     28  C   UNL     1     141.942 142.274 142.896  1.00  0.00     0.118 C 
BRANCH  28  29
ATOM     29  O   UNL     1     141.774 142.737 144.215  1.00  0.00    -0.393 OA
ATOM     30  H   UNL     1     142.237 143.611 144.302  1.00  0.00     0.210 HD
ENDBRANCH  28  29
ENDBRANCH   1  10
TORSDOF 5
ENDMDL
MODEL 9
REMARK VINA RESULT:    -6.330      7.153     12.015
REMARK INTER + INTRA:          -8.819
REMARK INTER:                  -7.764
REMARK INTRA:                  -1.055
REMARK UNBOUND:                -0.824
REMARK SMILES CC(C)[C@H](C)C=C[C@H](C)[C@@H]1CC[C@@H]2C3=CC=C4C[C@H](O)CC[C@]4(C)[C@H]3CC[C@@]21C
REMARK SMILES IDX 8 1 9 2 7 3 6 4 4 5 5 6 2 7 1 8 3 9 10 10 11 11 28 12 12 13
REMARK SMILES IDX 13 14 27 15 29 16 14 17 26 18 25 19 15 20 23 21 16 22 17 23
REMARK SMILES IDX 22 24 24 25 18 26 21 27 19 28 20 29
REMARK H PARENT 20 30
REMARK Flexibility Score: inf
ROOT
ATOM      1  C   UNL     1     143.699 138.410 143.590  1.00  0.00     0.012 C 
ATOM      2  C   UNL     1     142.668 137.739 144.510  1.00  0.00     0.012 C 
ENDROOT
BRANCH   1   3
ATOM      3  C   UNL     1     145.092 137.952 143.979  1.00  0.00    -0.028 C 
ATOM      4  C   UNL     1     146.089 138.814 144.256  1.00  0.00    -0.028 C 
BRANCH   4   5
ATOM      5  C   UNL     1     147.477 138.356 144.652  1.00  0.00     0.011 C 
ATOM      6  C   UNL     1     148.497 138.833 143.604  1.00  0.00     0.012 C 
BRANCH   5   7
ATOM      7  C   UNL     1     147.845 138.804 146.101  1.00  0.00    -0.011 C 
ATOM      8  C   UNL     1     147.338 140.228 146.389  1.00  0.00     0.008 C 
ATOM      9  C   UNL     1     147.274 137.844 147.159  1.00  0.00     0.008 C 
ENDBRANCH   5   7
ENDBRANCH   4   5
ENDBRANCH   1   3
BRANCH   1  10
ATOM     10  C   UNL     1     143.429 138.158 142.069  1.00  0.00     0.002 C 
ATOM     11  C   UNL     1     144.490 137.234 141.446  1.00  0.00     0.005 C 
ATOM     12  C   UNL     1     143.370 139.397 141.120  1.00  0.00    -0.023 C 
ATOM     13  C   UNL     1     144.617 137.619 139.976  1.00  0.00     0.009 C 
ATOM     14  C   UNL     1     143.627 138.759 139.736  1.00  0.00     0.021 C 
ATOM     15  C   UNL     1     144.483 140.433 141.452  1.00  0.00     0.008 C 
ATOM     16  C   UNL     1     141.967 140.062 141.129  1.00  0.00     0.012 C 
ATOM     17  C   UNL     1     144.119 139.711 138.657  1.00  0.00    -0.063 C 
ATOM     18  C   UNL     1     144.610 141.512 140.377  1.00  0.00     0.009 C 
ATOM     19  C   UNL     1     144.984 140.915 139.002  1.00  0.00     0.025 C 
ATOM     20  C   UNL     1     144.041 139.310 137.379  1.00  0.00    -0.000 C 
ATOM     21  C   UNL     1     145.007 141.986 137.841  1.00  0.00    -0.005 C 
ATOM     22  C   UNL     1     144.684 140.064 136.294  1.00  0.00    -0.000 C 
ATOM     23  C   UNL     1     145.222 141.275 136.499  1.00  0.00    -0.061 C 
ATOM     24  C   UNL     1     146.168 142.993 138.106  1.00  0.00     0.014 C 
ATOM     25  C   UNL     1     143.660 142.751 137.750  1.00  0.00     0.017 C 
ATOM     26  C   UNL     1     145.745 142.040 135.302  1.00  0.00     0.063 C 
ATOM     27  C   UNL     1     146.530 143.856 136.891  1.00  0.00     0.033 C 
ATOM     28  C   UNL     1     146.887 143.000 135.670  1.00  0.00     0.118 C 
BRANCH  28  29
ATOM     29  O   UNL     1     148.105 142.319 135.860  1.00  0.00    -0.393 OA
ATOM     30  H   UNL     1     148.242 141.703 135.095  1.00  0.00     0.210 HD
ENDBRANCH  28  29
ENDBRANCH   1  10
TORSDOF 5
ENDMDL
