MODEL 1
REMARK VINA RESULT:    -3.137      0.000      0.000
REMARK INTER + INTRA:          -4.964
REMARK INTER:                  -4.788
REMARK INTRA:                  -0.176
REMARK UNBOUND:                -0.176
REMARK SMILES CC1=CCC[C@H](C)C(=O)C[C@@H](C(C)C)C(=O)C1
REMARK SMILES IDX 8 1 9 2 6 3 7 4 5 5 4 6 3 7 2 8 1 9 10 11 11 12 15 13 16 14
REMARK SMILES IDX 17 15 12 17 13 18 14 19
REMARK H PARENT
REMARK Flexibility Score: 70.00
ROOT
ATOM      1  C   UNL     1       7.227  20.799  14.607  1.00  0.00     0.136 C 
ATOM      2  O   UNL     1       6.447  21.662  14.986  1.00  0.00    -0.299 OA
ENDROOT
BRANCH   1   3
ATOM      3  C   UNL     1       8.718  21.001  14.782  1.00  0.00     0.053 C 
ATOM      4  C   UNL     1       9.102  20.710  16.236  1.00  0.00     0.016 C 
BRANCH   3   5
ATOM      5  C   UNL     1       9.534  20.103  13.823  1.00  0.00     0.015 C 
BRANCH   5   6
ATOM      6  C   UNL     1      10.104  18.849  14.503  1.00  0.00     0.028 C 
BRANCH   6   7
ATOM      7  C   UNL     1       9.823  17.608  13.689  1.00  0.00    -0.028 C 
ATOM      8  C   UNL     1       8.895  16.667  13.978  1.00  0.00    -0.070 CG0
ATOM      9  C   UNL     1       8.763  15.493  13.041  1.00  0.00     0.039 C 
ATOM     10  G   UNL     1       7.966  16.757  15.172  1.00  0.00     0.000 G0
ENDBRANCH   6   7
ENDBRANCH   5   6
ENDBRANCH   3   5
ENDBRANCH   1   3
BRANCH   1  11
ATOM     11  C   UNL     1       6.680  19.557  13.952  1.00  0.00     0.087 C 
BRANCH  11  12
ATOM     12  C   UNL     1       6.056  18.586  14.987  1.00  0.00     0.066 C 
BRANCH  12  13
ATOM     13  C   UNL     1       6.553  17.167  14.768  1.00  0.00     0.140 C 
ATOM     14  O   UNL     1       5.803  16.326  14.290  1.00  0.00    -0.299 OA
BRANCH  13  15
ATOM     15  C   UNL     1       7.941  16.750  15.182  1.00  0.00     0.106 CG0
ATOM     16  G   UNL     1       8.860  16.663  13.979  1.00  0.00     0.000 G0
ENDBRANCH  13  15
ENDBRANCH  12  13
BRANCH  12  17
ATOM     17  C   UNL     1       4.495  18.618  15.008  1.00  0.00    -0.006 C 
ATOM     18  C   UNL     1       3.959  19.505  16.143  1.00  0.00     0.008 C 
ATOM     19  C   UNL     1       3.862  19.035  13.669  1.00  0.00     0.008 C 
ENDBRANCH  12  17
ENDBRANCH  11  12
ENDBRANCH   1  11
TORSDOF 1
ENDMDL
MODEL 2
REMARK VINA RESULT:    -3.020      5.100      7.407
REMARK INTER + INTRA:          -4.786
REMARK INTER:                  -4.511
REMARK INTRA:                  -0.275
REMARK UNBOUND:                -0.176
REMARK SMILES CC1=CCC[C@H](C)C(=O)C[C@@H](C(C)C)C(=O)C1
REMARK SMILES IDX 8 1 9 2 6 3 7 4 5 5 4 6 3 7 2 8 1 9 10 11 11 12 15 13 16 14
REMARK SMILES IDX 17 15 12 17 13 18 14 19
REMARK H PARENT
REMARK Flexibility Score: 70.00
ROOT
ATOM      1  C   UNL     1      15.218  17.680  15.917  1.00  0.00     0.136 C 
ATOM      2  O   UNL     1      16.367  17.468  16.276  1.00  0.00    -0.299 OA
ENDROOT
BRANCH   1   3
ATOM      3  C   UNL     1      14.913  18.865  15.024  1.00  0.00     0.053 C 
ATOM      4  C   UNL     1      15.458  18.594  13.618  1.00  0.00     0.016 C 
BRANCH   3   5
ATOM      5  C   UNL     1      13.397  19.162  14.962  1.00  0.00     0.015 C 
BRANCH   5   6
ATOM      6  C   UNL     1      12.726  18.630  13.686  1.00  0.00     0.028 C 
BRANCH   6   7
ATOM      7  C   UNL     1      11.317  18.160  13.962  1.00  0.00    -0.028 C 
ATOM      8  C   UNL     1      10.917  16.871  14.044  1.00  0.00    -0.070 CG0
ATOM      9  C   UNL     1       9.461  16.598  14.327  1.00  0.00     0.039 C 
ATOM     10  G   UNL     1      11.865  15.696  13.900  1.00  0.00     0.000 G0
ENDBRANCH   6   7
ENDBRANCH   5   6
ENDBRANCH   3   5
ENDBRANCH   1   3
BRANCH   1  11
ATOM     11  C   UNL     1      14.122  16.761  16.393  1.00  0.00     0.087 C 
BRANCH  11  12
ATOM     12  C   UNL     1      13.948  15.537  15.458  1.00  0.00     0.066 C 
BRANCH  12  13
ATOM     13  C   UNL     1      12.478  15.272  15.178  1.00  0.00     0.140 C 
ATOM     14  O   UNL     1      11.800  14.674  16.002  1.00  0.00    -0.299 OA
BRANCH  13  15
ATOM     15  C   UNL     1      11.842  15.682  13.874  1.00  0.00     0.106 CG0
ATOM     16  G   UNL     1      10.920  16.869  14.073  1.00  0.00     0.000 G0
ENDBRANCH  13  15
ENDBRANCH  12  13
BRANCH  12  17
ATOM     17  C   UNL     1      14.642  14.244  15.990  1.00  0.00    -0.006 C 
ATOM     18  C   UNL     1      15.939  13.938  15.224  1.00  0.00     0.008 C 
ATOM     19  C   UNL     1      14.915  14.260  17.504  1.00  0.00     0.008 C 
ENDBRANCH  12  17
ENDBRANCH  11  12
ENDBRANCH   1  11
TORSDOF 1
ENDMDL
MODEL 3
REMARK VINA RESULT:    -2.937      1.679      4.081
REMARK INTER + INTRA:          -4.658
REMARK INTER:                  -4.860
REMARK INTRA:                   0.201
REMARK UNBOUND:                -0.176
REMARK SMILES CC1=CCC[C@H](C)C(=O)C[C@@H](C(C)C)C(=O)C1
REMARK SMILES IDX 8 1 9 2 6 3 7 4 5 5 4 6 3 7 2 8 1 9 10 11 11 12 15 13 16 14
REMARK SMILES IDX 17 15 12 17 13 18 14 19
REMARK H PARENT
REMARK Flexibility Score: 70.00
ROOT
ATOM      1  C   UNL     1       4.779  19.890  15.358  1.00  0.00     0.136 C 
ATOM      2  O   UNL     1       4.664  21.102  15.244  1.00  0.00    -0.299 OA
ENDROOT
BRANCH   1   3
ATOM      3  C   UNL     1       3.547  19.008  15.320  1.00  0.00     0.053 C 
ATOM      4  C   UNL     1       2.306  19.879  15.104  1.00  0.00     0.016 C 
BRANCH   3   5
ATOM      5  C   UNL     1       3.645  17.933  14.212  1.00  0.00     0.015 C 
BRANCH   5   6
ATOM      6  C   UNL     1       4.025  16.544  14.746  1.00  0.00     0.028 C 
BRANCH   6   7
ATOM      7  C   UNL     1       4.868  15.784  13.749  1.00  0.00    -0.028 C 
ATOM      8  C   UNL     1       6.207  15.898  13.598  1.00  0.00    -0.070 CG0
ATOM      9  C   UNL     1       6.875  15.053  12.542  1.00  0.00     0.039 C 
ATOM     10  G   UNL     1       7.066  16.805  14.458  1.00  0.00     0.000 G0
ENDBRANCH   6   7
ENDBRANCH   5   6
ENDBRANCH   3   5
ENDBRANCH   1   3
BRANCH   1  11
ATOM     11  C   UNL     1       6.153  19.301  15.555  1.00  0.00     0.087 C 
BRANCH  11  12
ATOM     12  C   UNL     1       7.033  19.453  14.287  1.00  0.00     0.066 C 
BRANCH  12  13
ATOM     13  C   UNL     1       7.392  18.094  13.710  1.00  0.00     0.140 C 
ATOM     14  O   UNL     1       7.906  18.019  12.602  1.00  0.00    -0.299 OA
BRANCH  13  15
ATOM     15  C   UNL     1       7.078  16.819  14.452  1.00  0.00     0.106 CG0
ATOM     16  G   UNL     1       6.210  15.905  13.609  1.00  0.00     0.000 G0
ENDBRANCH  13  15
ENDBRANCH  12  13
BRANCH  12  17
ATOM     17  C   UNL     1       8.321  20.302  14.522  1.00  0.00    -0.006 C 
ATOM     18  C   UNL     1       8.165  21.734  13.984  1.00  0.00     0.008 C 
ATOM     19  C   UNL     1       8.786  20.338  15.988  1.00  0.00     0.008 C 
ENDBRANCH  12  17
ENDBRANCH  11  12
ENDBRANCH   1  11
TORSDOF 1
ENDMDL
MODEL 4
REMARK VINA RESULT:    -2.888      9.194     11.999
REMARK INTER + INTRA:          -4.584
REMARK INTER:                  -4.463
REMARK INTRA:                  -0.121
REMARK UNBOUND:                -0.176
REMARK SMILES CC1=CCC[C@H](C)C(=O)C[C@@H](C(C)C)C(=O)C1
REMARK SMILES IDX 8 1 9 2 6 3 7 4 5 5 4 6 3 7 2 8 1 9 10 11 11 12 15 13 16 14
REMARK SMILES IDX 17 15 12 17 13 18 14 19
REMARK H PARENT
REMARK Flexibility Score: 70.00
ROOT
ATOM      1  C   UNL     1      13.516  25.441  13.892  1.00  0.00     0.136 C 
ATOM      2  O   UNL     1      14.349  24.570  14.094  1.00  0.00    -0.299 OA
ENDROOT
BRANCH   1   3
ATOM      3  C   UNL     1      12.077  25.223  14.315  1.00  0.00     0.053 C 
ATOM      4  C   UNL     1      11.855  25.846  15.697  1.00  0.00     0.016 C 
BRANCH   3   5
ATOM      5  C   UNL     1      11.082  25.818  13.293  1.00  0.00     0.015 C 
BRANCH   5   6
ATOM      6  C   UNL     1      10.348  27.063  13.814  1.00  0.00     0.028 C 
BRANCH   6   7
ATOM      7  C   UNL     1      10.644  28.273  12.959  1.00  0.00    -0.028 C 
ATOM      8  C   UNL     1      11.541  29.242  13.248  1.00  0.00    -0.070 CG0
ATOM      9  C   UNL     1      11.696  30.378  12.268  1.00  0.00     0.039 C 
ATOM     10  G   UNL     1      12.417  29.221  14.486  1.00  0.00     0.000 G0
ENDBRANCH   6   7
ENDBRANCH   5   6
ENDBRANCH   3   5
ENDBRANCH   1   3
BRANCH   1  11
ATOM     11  C   UNL     1      13.940  26.713  13.203  1.00  0.00     0.087 C 
BRANCH  11  12
ATOM     12  C   UNL     1      14.579  27.720  14.194  1.00  0.00     0.066 C 
BRANCH  12  13
ATOM     13  C   UNL     1      13.876  29.066  14.130  1.00  0.00     0.140 C 
ATOM     14  O   UNL     1      14.507  30.069  13.823  1.00  0.00    -0.299 OA
BRANCH  13  15
ATOM     15  C   UNL     1      12.420  29.207  14.493  1.00  0.00     0.106 CG0
ATOM     16  G   UNL     1      11.553  29.230  13.249  1.00  0.00     0.000 G0
ENDBRANCH  13  15
ENDBRANCH  12  13
BRANCH  12  17
ATOM     17  C   UNL     1      16.117  27.901  13.992  1.00  0.00    -0.006 C 
ATOM     18  C   UNL     1      16.914  27.375  15.197  1.00  0.00     0.008 C 
ATOM     19  C   UNL     1      16.653  27.276  12.693  1.00  0.00     0.008 C 
ENDBRANCH  12  17
ENDBRANCH  11  12
ENDBRANCH   1  11
TORSDOF 1
ENDMDL
MODEL 5
REMARK VINA RESULT:    -2.698      9.825     11.990
REMARK INTER + INTRA:          -4.293
REMARK INTER:                  -4.094
REMARK INTRA:                  -0.200
REMARK UNBOUND:                -0.176
REMARK SMILES CC1=CCC[C@H](C)C(=O)C[C@@H](C(C)C)C(=O)C1
REMARK SMILES IDX 8 1 9 2 6 3 7 4 5 5 4 6 3 7 2 8 1 9 10 11 11 12 15 13 16 14
REMARK SMILES IDX 17 15 12 17 13 18 14 19
REMARK H PARENT
REMARK Flexibility Score: 70.00
ROOT
ATOM      1  C   UNL     1       6.994  30.862  15.087  1.00  0.00     0.136 C 
ATOM      2  O   UNL     1       8.075  31.273  14.689  1.00  0.00    -0.299 OA
ENDROOT
BRANCH   1   3
ATOM      3  C   UNL     1       5.818  31.813  15.193  1.00  0.00     0.053 C 
ATOM      4  C   UNL     1       6.127  32.886  16.241  1.00  0.00     0.016 C 
BRANCH   3   5
ATOM      5  C   UNL     1       5.490  32.471  13.833  1.00  0.00     0.015 C 
BRANCH   5   6
ATOM      6  C   UNL     1       4.662  31.569  12.905  1.00  0.00     0.028 C 
BRANCH   6   7
ATOM      7  C   UNL     1       3.427  31.050  13.603  1.00  0.00    -0.028 C 
ATOM      8  C   UNL     1       3.103  29.748  13.771  1.00  0.00    -0.070 CG0
ATOM      9  C   UNL     1       1.821  29.425  14.496  1.00  0.00     0.039 C 
ATOM     10  G   UNL     1       3.982  28.606  13.298  1.00  0.00     0.000 G0
ENDBRANCH   6   7
ENDBRANCH   5   6
ENDBRANCH   3   5
ENDBRANCH   1   3
BRANCH   1  11
ATOM     11  C   UNL     1       6.864  29.414  15.486  1.00  0.00     0.087 C 
BRANCH  11  12
ATOM     12  C   UNL     1       6.422  28.525  14.294  1.00  0.00     0.066 C 
BRANCH  12  13
ATOM     13  C   UNL     1       4.946  28.181  14.391  1.00  0.00     0.140 C 
ATOM     14  O   UNL     1       4.536  27.517  15.335  1.00  0.00    -0.299 OA
BRANCH  13  15
ATOM     15  C   UNL     1       3.973  28.591  13.316  1.00  0.00     0.106 CG0
ATOM     16  G   UNL     1       3.100  29.739  13.786  1.00  0.00     0.000 G0
ENDBRANCH  13  15
ENDBRANCH  12  13
BRANCH  12  17
ATOM     17  C   UNL     1       7.275  27.227  14.138  1.00  0.00    -0.006 C 
ATOM     18  C   UNL     1       6.804  26.377  12.947  1.00  0.00     0.008 C 
ATOM     19  C   UNL     1       8.788  27.483  14.037  1.00  0.00     0.008 C 
ENDBRANCH  12  17
ENDBRANCH  11  12
ENDBRANCH   1  11
TORSDOF 1
ENDMDL
MODEL 6
REMARK VINA RESULT:    -2.689      1.898      4.245
REMARK INTER + INTRA:          -4.280
REMARK INTER:                  -4.073
REMARK INTRA:                  -0.207
REMARK UNBOUND:                -0.176
REMARK SMILES CC1=CCC[C@H](C)C(=O)C[C@@H](C(C)C)C(=O)C1
REMARK SMILES IDX 8 1 9 2 6 3 7 4 5 5 4 6 3 7 2 8 1 9 10 11 11 12 15 13 16 14
REMARK SMILES IDX 17 15 12 17 13 18 14 19
REMARK H PARENT
REMARK Flexibility Score: 70.00
ROOT
ATOM      1  C   UNL     1       8.441  19.601  15.439  1.00  0.00     0.136 C 
ATOM      2  O   UNL     1       9.470  20.247  15.581  1.00  0.00    -0.299 OA
ENDROOT
BRANCH   1   3
ATOM      3  C   UNL     1       7.097  20.288  15.565  1.00  0.00     0.053 C 
ATOM      4  C   UNL     1       6.733  20.939  14.227  1.00  0.00     0.016 C 
BRANCH   3   5
ATOM      5  C   UNL     1       5.987  19.303  15.999  1.00  0.00     0.015 C 
BRANCH   5   6
ATOM      6  C   UNL     1       4.963  19.014  14.891  1.00  0.00     0.028 C 
BRANCH   6   7
ATOM      7  C   UNL     1       4.748  17.529  14.715  1.00  0.00    -0.028 C 
ATOM      8  C   UNL     1       5.344  16.751  13.782  1.00  0.00    -0.070 CG0
ATOM      9  C   UNL     1       5.000  15.283  13.762  1.00  0.00     0.039 C 
ATOM     10  G   UNL     1       6.359  17.278  12.787  1.00  0.00     0.000 G0
ENDBRANCH   6   7
ENDBRANCH   5   6
ENDBRANCH   3   5
ENDBRANCH   1   3
BRANCH   1  11
ATOM     11  C   UNL     1       8.538  18.123  15.163  1.00  0.00     0.087 C 
BRANCH  11  12
ATOM     12  C   UNL     1       8.789  17.832  13.660  1.00  0.00     0.066 C 
BRANCH  12  13
ATOM     13  C   UNL     1       7.766  16.847  13.120  1.00  0.00     0.140 C 
ATOM     14  O   UNL     1       8.088  15.683  12.920  1.00  0.00    -0.299 OA
BRANCH  13  15
ATOM     15  C   UNL     1       6.368  17.285  12.766  1.00  0.00     0.106 CG0
ATOM     16  G   UNL     1       5.364  16.748  13.768  1.00  0.00     0.000 G0
ENDBRANCH  13  15
ENDBRANCH  12  13
BRANCH  12  17
ATOM     17  C   UNL     1      10.237  17.334  13.356  1.00  0.00    -0.006 C 
ATOM     18  C   UNL     1      11.136  18.472  12.847  1.00  0.00     0.008 C 
ATOM     19  C   UNL     1      10.912  16.619  14.540  1.00  0.00     0.008 C 
ENDBRANCH  12  17
ENDBRANCH  11  12
ENDBRANCH   1  11
TORSDOF 1
ENDMDL
MODEL 7
REMARK VINA RESULT:    -2.689      6.414      8.263
REMARK INTER + INTRA:          -4.279
REMARK INTER:                  -4.462
REMARK INTRA:                   0.182
REMARK UNBOUND:                -0.176
REMARK SMILES CC1=CCC[C@H](C)C(=O)C[C@@H](C(C)C)C(=O)C1
REMARK SMILES IDX 8 1 9 2 6 3 7 4 5 5 4 6 3 7 2 8 1 9 10 11 11 12 15 13 16 14
REMARK SMILES IDX 17 15 12 17 13 18 14 19
REMARK H PARENT
REMARK Flexibility Score: 70.00
ROOT
ATOM      1  C   UNL     1      14.879  16.455  16.648  1.00  0.00     0.136 C 
ATOM      2  O   UNL     1      15.976  16.990  16.727  1.00  0.00    -0.299 OA
ENDROOT
BRANCH   1   3
ATOM      3  C   UNL     1      14.686  15.049  17.180  1.00  0.00     0.053 C 
ATOM      4  C   UNL     1      13.259  14.583  16.872  1.00  0.00     0.016 C 
BRANCH   3   5
ATOM      5  C   UNL     1      15.713  14.062  16.578  1.00  0.00     0.015 C 
BRANCH   5   6
ATOM      6  C   UNL     1      15.581  13.901  15.056  1.00  0.00     0.028 C 
BRANCH   6   7
ATOM      7  C   UNL     1      16.694  14.620  14.330  1.00  0.00    -0.028 C 
ATOM      8  C   UNL     1      16.534  15.502  13.317  1.00  0.00    -0.070 CG0
ATOM      9  C   UNL     1      17.771  16.119  12.714  1.00  0.00     0.039 C 
ATOM     10  G   UNL     1      15.176  15.922  12.787  1.00  0.00     0.000 G0
ENDBRANCH   6   7
ENDBRANCH   5   6
ENDBRANCH   3   5
ENDBRANCH   1   3
BRANCH   1  11
ATOM     11  C   UNL     1      13.744  17.206  16.000  1.00  0.00     0.087 C 
BRANCH  11  12
ATOM     12  C   UNL     1      13.422  16.657  14.586  1.00  0.00     0.066 C 
BRANCH  12  13
ATOM     13  C   UNL     1      14.541  16.978  13.611  1.00  0.00     0.140 C 
ATOM     14  O   UNL     1      14.905  18.137  13.462  1.00  0.00    -0.299 OA
BRANCH  13  15
ATOM     15  C   UNL     1      15.183  15.902  12.772  1.00  0.00     0.106 CG0
ATOM     16  G   UNL     1      16.534  15.511  13.337  1.00  0.00     0.000 G0
ENDBRANCH  13  15
ENDBRANCH  12  13
BRANCH  12  17
ATOM     17  C   UNL     1      12.052  17.152  14.024  1.00  0.00    -0.006 C 
ATOM     18  C   UNL     1      10.917  16.165  14.342  1.00  0.00     0.008 C 
ATOM     19  C   UNL     1      11.664  18.567  14.485  1.00  0.00     0.008 C 
ENDBRANCH  12  17
ENDBRANCH  11  12
ENDBRANCH   1  11
TORSDOF 1
ENDMDL
MODEL 8
REMARK VINA RESULT:    -2.564      2.577      4.189
REMARK INTER + INTRA:          -4.089
REMARK INTER:                  -4.134
REMARK INTRA:                   0.045
REMARK UNBOUND:                -0.176
REMARK SMILES CC1=CCC[C@H](C)C(=O)C[C@@H](C(C)C)C(=O)C1
REMARK SMILES IDX 8 1 9 2 6 3 7 4 5 5 4 6 3 7 2 8 1 9 10 11 11 12 15 13 16 14
REMARK SMILES IDX 17 15 12 17 13 18 14 19
REMARK H PARENT
REMARK Flexibility Score: 70.00
ROOT
ATOM      1  C   UNL     1       9.113  20.052  15.573  1.00  0.00     0.136 C 
ATOM      2  O   UNL     1       9.309  20.920  16.411  1.00  0.00    -0.299 OA
ENDROOT
BRANCH   1   3
ATOM      3  C   UNL     1      10.035  19.936  14.376  1.00  0.00     0.053 C 
ATOM      4  C   UNL     1      10.439  18.471  14.187  1.00  0.00     0.016 C 
BRANCH   3   5
ATOM      5  C   UNL     1       9.374  20.480  13.088  1.00  0.00     0.015 C 
BRANCH   5   6
ATOM      6  C   UNL     1       8.899  21.935  13.217  1.00  0.00     0.028 C 
BRANCH   6   7
ATOM      7  C   UNL     1       7.545  22.130  12.576  1.00  0.00    -0.028 C 
ATOM      8  C   UNL     1       6.357  22.114  13.222  1.00  0.00    -0.070 CG0
ATOM      9  C   UNL     1       5.106  22.327  12.407  1.00  0.00     0.039 C 
ATOM     10  G   UNL     1       6.229  21.928  14.721  1.00  0.00     0.000 G0
ENDBRANCH   6   7
ENDBRANCH   5   6
ENDBRANCH   3   5
ENDBRANCH   1   3
BRANCH   1  11
ATOM     11  C   UNL     1       7.935  19.126  15.742  1.00  0.00     0.087 C 
BRANCH  11  12
ATOM     12  C   UNL     1       6.852  19.366  14.659  1.00  0.00     0.066 C 
BRANCH  12  13
ATOM     13  C   UNL     1       5.914  20.489  15.069  1.00  0.00     0.140 C 
ATOM     14  O   UNL     1       4.869  20.228  15.649  1.00  0.00    -0.299 OA
BRANCH  13  15
ATOM     15  C   UNL     1       6.215  21.926  14.726  1.00  0.00     0.106 CG0
ATOM     16  G   UNL     1       6.347  22.107  13.226  1.00  0.00     0.000 G0
ENDBRANCH  13  15
ENDBRANCH  12  13
BRANCH  12  17
ATOM     17  C   UNL     1       6.038  18.084  14.298  1.00  0.00    -0.006 C 
ATOM     18  C   UNL     1       5.682  18.038  12.803  1.00  0.00     0.008 C 
ATOM     19  C   UNL     1       6.724  16.771  14.716  1.00  0.00     0.008 C 
ENDBRANCH  12  17
ENDBRANCH  11  12
ENDBRANCH   1  11
TORSDOF 1
ENDMDL
MODEL 9
REMARK VINA RESULT:    -2.488      6.393      8.657
REMARK INTER + INTRA:          -3.973
REMARK INTER:                  -4.077
REMARK INTRA:                   0.103
REMARK UNBOUND:                -0.176
REMARK SMILES CC1=CCC[C@H](C)C(=O)C[C@@H](C(C)C)C(=O)C1
REMARK SMILES IDX 8 1 9 2 6 3 7 4 5 5 4 6 3 7 2 8 1 9 10 11 11 12 15 13 16 14
REMARK SMILES IDX 17 15 12 17 13 18 14 19
REMARK H PARENT
REMARK Flexibility Score: 70.00
ROOT
ATOM      1  C   UNL     1      13.695  15.554  16.580  1.00  0.00     0.136 C 
ATOM      2  O   UNL     1      12.683  14.874  16.674  1.00  0.00    -0.299 OA
ENDROOT
BRANCH   1   3
ATOM      3  C   UNL     1      15.044  14.949  16.914  1.00  0.00     0.053 C 
ATOM      4  C   UNL     1      15.466  14.000  15.788  1.00  0.00     0.016 C 
BRANCH   3   5
ATOM      5  C   UNL     1      16.122  16.036  17.129  1.00  0.00     0.015 C 
BRANCH   5   6
ATOM      6  C   UNL     1      17.144  16.113  15.985  1.00  0.00     0.028 C 
BRANCH   6   7
ATOM      7  C   UNL     1      17.659  17.522  15.802  1.00  0.00    -0.028 C 
ATOM      8  C   UNL     1      17.250  18.395  14.854  1.00  0.00    -0.070 CG0
ATOM      9  C   UNL     1      17.885  19.762  14.830  1.00  0.00     0.039 C 
ATOM     10  G   UNL     1      16.165  18.075  13.844  1.00  0.00     0.000 G0
ENDBRANCH   6   7
ENDBRANCH   5   6
ENDBRANCH   3   5
ENDBRANCH   1   3
BRANCH   1  11
ATOM     11  C   UNL     1      13.571  16.994  16.152  1.00  0.00     0.087 C 
BRANCH  11  12
ATOM     12  C   UNL     1      13.832  17.168  14.633  1.00  0.00     0.066 C 
BRANCH  12  13
ATOM     13  C   UNL     1      14.796  18.314  14.376  1.00  0.00     0.140 C 
ATOM     14  O   UNL     1      14.439  19.467  14.576  1.00  0.00    -0.299 OA
BRANCH  13  15
ATOM     15  C   UNL     1      16.176  18.067  13.821  1.00  0.00     0.106 CG0
ATOM     16  G   UNL     1      17.239  18.398  14.851  1.00  0.00     0.000 G0
ENDBRANCH  13  15
ENDBRANCH  12  13
BRANCH  12  17
ATOM     17  C   UNL     1      12.528  17.357  13.796  1.00  0.00    -0.006 C 
ATOM     18  C   UNL     1      12.818  17.372  12.286  1.00  0.00     0.008 C 
ATOM     19  C   UNL     1      11.430  16.326  14.110  1.00  0.00     0.008 C 
ENDBRANCH  12  17
ENDBRANCH  11  12
ENDBRANCH   1  11
TORSDOF 1
ENDMDL
