MODEL 1
REMARK VINA RESULT:    -6.033      0.000      0.000
REMARK INTER + INTRA:         -10.330
REMARK INTER:                  -8.325
REMARK INTRA:                  -2.005
REMARK UNBOUND:                -2.005
REMARK SMILES CC[C@@H](CC[C@@H](C)[C@@H]1CC[C@@H]2[C@H]3CC=C4C[C@H](O)CC[C@@]4(C)[C@H]3CC[C@@]21C)C(C)C
REMARK SMILES IDX 5 1 4 2 3 3 2 4 1 5 28 6 29 7 30 8 6 9 7 10 8 11 9 12 26 13
REMARK SMILES IDX 10 14 11 15 25 16 27 17 12 18 24 19 23 20 13 21 21 22 14 23
REMARK SMILES IDX 15 24 20 25 22 26 16 27 19 28 17 29 18 30
REMARK H PARENT 18 31
REMARK Flexibility Score: inf
ROOT
ATOM      1  C   UNL     1     131.791 146.838 121.470  1.00  0.00     0.004 C 
ENDROOT
BRANCH   1   2
ATOM      2  C   UNL     1     132.508 146.723 120.102  1.00  0.00     0.004 C 
BRANCH   2   3
ATOM      3  C   UNL     1     133.721 145.753 120.119  1.00  0.00    -0.009 C 
BRANCH   3   4
ATOM      4  C   UNL     1     134.422 145.781 121.507  1.00  0.00     0.000 C 
ATOM      5  C   UNL     1     134.508 144.397 122.155  1.00  0.00     0.004 C 
ENDBRANCH   3   4
BRANCH   3   6
ATOM      6  C   UNL     1     134.712 146.023 118.939  1.00  0.00    -0.014 C 
ATOM      7  C   UNL     1     135.975 146.793 119.361  1.00  0.00     0.007 C 
ATOM      8  C   UNL     1     135.099 144.724 118.216  1.00  0.00     0.007 C 
ENDBRANCH   3   6
ENDBRANCH   2   3
ENDBRANCH   1   2
BRANCH   1   9
ATOM      9  C   UNL     1     130.726 145.729 121.696  1.00  0.00    -0.011 C 
ATOM     10  C   UNL     1     129.509 146.316 122.439  1.00  0.00     0.008 C 
BRANCH   9  11
ATOM     11  C   UNL     1     130.396 144.982 120.340  1.00  0.00    -0.002 C 
ATOM     12  C   UNL     1     129.017 145.324 119.743  1.00  0.00     0.005 C 
ATOM     13  C   UNL     1     130.557 143.405 120.209  1.00  0.00    -0.026 C 
ATOM     14  C   UNL     1     128.538 144.071 119.025  1.00  0.00     0.005 C 
ATOM     15  C   UNL     1     129.141 142.880 119.791  1.00  0.00    -0.001 C 
ATOM     16  C   UNL     1     131.187 142.642 121.429  1.00  0.00     0.007 C 
ATOM     17  C   UNL     1     131.521 143.132 119.012  1.00  0.00     0.012 C 
ATOM     18  C   UNL     1     128.235 142.465 120.989  1.00  0.00     0.000 C 
ATOM     19  C   UNL     1     130.226 142.139 122.514  1.00  0.00     0.005 C 
ATOM     20  C   UNL     1     128.924 141.506 121.977  1.00  0.00     0.003 C 
ATOM     21  C   UNL     1     126.875 141.860 120.597  1.00  0.00     0.031 C 
ATOM     22  C   UNL     1     128.990 139.969 121.533  1.00  0.00    -0.008 C 
ATOM     23  C   UNL     1     127.006 140.481 120.043  1.00  0.00    -0.027 C 
ATOM     24  C   UNL     1     127.898 139.592 120.513  1.00  0.00    -0.065 C 
ATOM     25  C   UNL     1     130.355 139.588 120.883  1.00  0.00     0.014 C 
ATOM     26  C   UNL     1     128.788 139.109 122.811  1.00  0.00     0.016 C 
ATOM     27  C   UNL     1     127.920 138.199 119.912  1.00  0.00     0.063 C 
ATOM     28  C   UNL     1     130.418 138.163 120.304  1.00  0.00     0.033 C 
ATOM     29  C   UNL     1     129.293 137.919 119.290  1.00  0.00     0.118 C 
BRANCH  29  30
ATOM     30  O   UNL     1     129.361 136.606 118.789  1.00  0.00    -0.393 OA
ATOM     31  H   UNL     1     130.129 136.153 119.230  1.00  0.00     0.210 HD
ENDBRANCH  29  30
ENDBRANCH   9  11
ENDBRANCH   1   9
TORSDOF 7
ENDMDL
MODEL 2
REMARK VINA RESULT:    -5.894      3.062      5.679
REMARK INTER + INTRA:         -10.138
REMARK INTER:                  -7.990
REMARK INTRA:                  -2.148
REMARK UNBOUND:                -2.005
REMARK SMILES CC[C@@H](CC[C@@H](C)[C@@H]1CC[C@@H]2[C@H]3CC=C4C[C@H](O)CC[C@@]4(C)[C@H]3CC[C@@]21C)C(C)C
REMARK SMILES IDX 5 1 4 2 3 3 2 4 1 5 28 6 29 7 30 8 6 9 7 10 8 11 9 12 26 13
REMARK SMILES IDX 10 14 11 15 25 16 27 17 12 18 24 19 23 20 13 21 21 22 14 23
REMARK SMILES IDX 15 24 20 25 22 26 16 27 19 28 17 29 18 30
REMARK H PARENT 18 31
REMARK Flexibility Score: inf
ROOT
ATOM      1  C   UNL     1     136.586 147.119 119.792  1.00  0.00     0.004 C 
ENDROOT
BRANCH   1   2
ATOM      2  C   UNL     1     137.042 146.951 121.263  1.00  0.00     0.004 C 
BRANCH   2   3
ATOM      3  C   UNL     1     138.516 146.483 121.403  1.00  0.00    -0.009 C 
BRANCH   3   4
ATOM      4  C   UNL     1     139.333 146.866 120.136  1.00  0.00     0.000 C 
ATOM      5  C   UNL     1     140.817 147.094 120.435  1.00  0.00     0.004 C 
ENDBRANCH   3   4
BRANCH   3   6
ATOM      6  C   UNL     1     138.625 144.962 121.751  1.00  0.00    -0.014 C 
ATOM      7  C   UNL     1     137.583 144.490 122.780  1.00  0.00     0.007 C 
ATOM      8  C   UNL     1     138.561 144.086 120.491  1.00  0.00     0.007 C 
ENDBRANCH   3   6
ENDBRANCH   2   3
ENDBRANCH   1   2
BRANCH   1   9
ATOM      9  C   UNL     1     135.179 146.519 119.517  1.00  0.00    -0.011 C 
ATOM     10  C   UNL     1     135.104 146.005 118.064  1.00  0.00     0.008 C 
BRANCH   9  11
ATOM     11  C   UNL     1     134.792 145.462 120.630  1.00  0.00    -0.002 C 
ATOM     12  C   UNL     1     134.873 143.993 120.170  1.00  0.00     0.005 C 
ATOM     13  C   UNL     1     133.437 145.595 121.454  1.00  0.00    -0.026 C 
ATOM     14  C   UNL     1     133.797 143.243 120.940  1.00  0.00     0.005 C 
ATOM     15  C   UNL     1     132.666 144.256 121.195  1.00  0.00    -0.001 C 
ATOM     16  C   UNL     1     132.574 146.885 121.218  1.00  0.00     0.007 C 
ATOM     17  C   UNL     1     133.814 145.624 122.969  1.00  0.00     0.012 C 
ATOM     18  C   UNL     1     131.679 144.310 119.991  1.00  0.00     0.000 C 
ATOM     19  C   UNL     1     131.523 146.832 120.101  1.00  0.00     0.005 C 
ATOM     20  C   UNL     1     130.720 145.514 120.036  1.00  0.00     0.003 C 
ATOM     21  C   UNL     1     130.843 143.035 119.776  1.00  0.00     0.031 C 
ATOM     22  C   UNL     1     129.465 145.376 121.021  1.00  0.00    -0.008 C 
ATOM     23  C   UNL     1     129.783 142.871 120.813  1.00  0.00    -0.027 C 
ATOM     24  C   UNL     1     129.097 143.910 121.319  1.00  0.00    -0.065 C 
ATOM     25  C   UNL     1     129.703 146.064 122.400  1.00  0.00     0.014 C 
ATOM     26  C   UNL     1     128.255 146.055 120.325  1.00  0.00     0.016 C 
ATOM     27  C   UNL     1     128.005 143.632 122.336  1.00  0.00     0.063 C 
ATOM     28  C   UNL     1     128.588 145.834 123.436  1.00  0.00     0.033 C 
ATOM     29  C   UNL     1     128.329 144.338 123.658  1.00  0.00     0.118 C 
BRANCH  29  30
ATOM     30  O   UNL     1     127.296 144.153 124.595  1.00  0.00    -0.393 OA
ATOM     31  H   UNL     1     127.034 145.049 124.938  1.00  0.00     0.210 HD
ENDBRANCH  29  30
ENDBRANCH   9  11
ENDBRANCH   1   9
TORSDOF 7
ENDMDL
MODEL 3
REMARK VINA RESULT:    -5.837      3.844      7.878
REMARK INTER + INTRA:         -10.060
REMARK INTER:                  -7.999
REMARK INTRA:                  -2.061
REMARK UNBOUND:                -2.005
REMARK SMILES CC[C@@H](CC[C@@H](C)[C@@H]1CC[C@@H]2[C@H]3CC=C4C[C@H](O)CC[C@@]4(C)[C@H]3CC[C@@]21C)C(C)C
REMARK SMILES IDX 5 1 4 2 3 3 2 4 1 5 28 6 29 7 30 8 6 9 7 10 8 11 9 12 26 13
REMARK SMILES IDX 10 14 11 15 25 16 27 17 12 18 24 19 23 20 13 21 21 22 14 23
REMARK SMILES IDX 15 24 20 25 22 26 16 27 19 28 17 29 18 30
REMARK H PARENT 18 31
REMARK Flexibility Score: inf
ROOT
ATOM      1  C   UNL     1     129.384 143.346 121.920  1.00  0.00     0.004 C 
ENDROOT
BRANCH   1   2
ATOM      2  C   UNL     1     127.932 143.878 121.999  1.00  0.00     0.004 C 
BRANCH   2   3
ATOM      3  C   UNL     1     127.744 145.007 123.049  1.00  0.00    -0.009 C 
BRANCH   3   4
ATOM      4  C   UNL     1     127.889 146.403 122.382  1.00  0.00     0.000 C 
ATOM      5  C   UNL     1     127.188 146.486 121.023  1.00  0.00     0.004 C 
ENDBRANCH   3   4
BRANCH   3   6
ATOM      6  C   UNL     1     128.688 144.830 124.285  1.00  0.00    -0.014 C 
ATOM      7  C   UNL     1     129.016 146.152 125.002  1.00  0.00     0.007 C 
ATOM      8  C   UNL     1     128.128 143.808 125.284  1.00  0.00     0.007 C 
ENDBRANCH   3   6
ENDBRANCH   2   3
ENDBRANCH   1   2
BRANCH   1   9
ATOM      9  C   UNL     1     130.152 143.851 120.666  1.00  0.00    -0.011 C 
ATOM     10  C   UNL     1     129.228 143.802 119.432  1.00  0.00     0.008 C 
BRANCH   9  11
ATOM     11  C   UNL     1     130.831 145.252 120.949  1.00  0.00    -0.002 C 
ATOM     12  C   UNL     1     130.847 146.208 119.741  1.00  0.00     0.005 C 
ATOM     13  C   UNL     1     132.276 145.347 121.609  1.00  0.00    -0.026 C 
ATOM     14  C   UNL     1     132.111 147.044 119.872  1.00  0.00     0.005 C 
ATOM     15  C   UNL     1     133.144 146.151 120.583  1.00  0.00    -0.001 C 
ATOM     16  C   UNL     1     132.935 144.007 122.094  1.00  0.00     0.007 C 
ATOM     17  C   UNL     1     132.145 146.229 122.892  1.00  0.00     0.012 C 
ATOM     18  C   UNL     1     133.913 145.260 119.562  1.00  0.00     0.000 C 
ATOM     19  C   UNL     1     133.794 143.240 121.079  1.00  0.00     0.005 C 
ATOM     20  C   UNL     1     134.722 144.128 120.222  1.00  0.00     0.003 C 
ATOM     21  C   UNL     1     134.845 146.024 118.604  1.00  0.00     0.031 C 
ATOM     22  C   UNL     1     136.126 144.550 120.865  1.00  0.00    -0.008 C 
ATOM     23  C   UNL     1     136.069 146.533 119.288  1.00  0.00    -0.027 C 
ATOM     24  C   UNL     1     136.704 145.839 120.250  1.00  0.00    -0.065 C 
ATOM     25  C   UNL     1     136.034 144.795 122.403  1.00  0.00     0.014 C 
ATOM     26  C   UNL     1     137.123 143.390 120.602  1.00  0.00     0.016 C 
ATOM     27  C   UNL     1     137.968 146.424 120.851  1.00  0.00     0.063 C 
ATOM     28  C   UNL     1     137.319 145.346 123.046  1.00  0.00     0.033 C 
ATOM     29  C   UNL     1     137.781 146.638 122.358  1.00  0.00     0.118 C 
BRANCH  29  30
ATOM     30  O   UNL     1     138.965 147.113 122.951  1.00  0.00    -0.393 OA
ATOM     31  H   UNL     1     138.774 148.013 123.329  1.00  0.00     0.210 HD
ENDBRANCH  29  30
ENDBRANCH   9  11
ENDBRANCH   1   9
TORSDOF 7
ENDMDL
MODEL 4
REMARK VINA RESULT:    -5.745      0.590      1.497
REMARK INTER + INTRA:          -9.932
REMARK INTER:                  -8.064
REMARK INTRA:                  -1.868
REMARK UNBOUND:                -2.005
REMARK SMILES CC[C@@H](CC[C@@H](C)[C@@H]1CC[C@@H]2[C@H]3CC=C4C[C@H](O)CC[C@@]4(C)[C@H]3CC[C@@]21C)C(C)C
REMARK SMILES IDX 5 1 4 2 3 3 2 4 1 5 28 6 29 7 30 8 6 9 7 10 8 11 9 12 26 13
REMARK SMILES IDX 10 14 11 15 25 16 27 17 12 18 24 19 23 20 13 21 21 22 14 23
REMARK SMILES IDX 15 24 20 25 22 26 16 27 19 28 17 29 18 30
REMARK H PARENT 18 31
REMARK Flexibility Score: inf
ROOT
ATOM      1  C   UNL     1     132.192 146.728 121.323  1.00  0.00     0.004 C 
ENDROOT
BRANCH   1   2
ATOM      2  C   UNL     1     133.139 146.324 120.166  1.00  0.00     0.004 C 
BRANCH   2   3
ATOM      3  C   UNL     1     134.643 146.384 120.549  1.00  0.00    -0.009 C 
BRANCH   3   4
ATOM      4  C   UNL     1     135.534 146.076 119.313  1.00  0.00     0.000 C 
ATOM      5  C   UNL     1     134.819 145.214 118.268  1.00  0.00     0.004 C 
ENDBRANCH   3   4
BRANCH   3   6
ATOM      6  C   UNL     1     134.980 145.472 121.775  1.00  0.00    -0.014 C 
ATOM      7  C   UNL     1     134.635 143.990 121.551  1.00  0.00     0.007 C 
ATOM      8  C   UNL     1     136.448 145.617 122.202  1.00  0.00     0.007 C 
ENDBRANCH   3   6
ENDBRANCH   2   3
ENDBRANCH   1   2
BRANCH   1   9
ATOM      9  C   UNL     1     131.079 145.677 121.597  1.00  0.00    -0.011 C 
ATOM     10  C   UNL     1     129.930 146.328 122.393  1.00  0.00     0.008 C 
BRANCH   9  11
ATOM     11  C   UNL     1     130.650 144.952 120.257  1.00  0.00    -0.002 C 
ATOM     12  C   UNL     1     129.290 145.406 119.694  1.00  0.00     0.005 C 
ATOM     13  C   UNL     1     130.673 143.366 120.137  1.00  0.00    -0.026 C 
ATOM     14  C   UNL     1     128.686 144.194 119.000  1.00  0.00     0.005 C 
ATOM     15  C   UNL     1     129.206 142.962 119.762  1.00  0.00    -0.001 C 
ATOM     16  C   UNL     1     131.268 142.560 121.347  1.00  0.00     0.007 C 
ATOM     17  C   UNL     1     131.577 143.003 118.917  1.00  0.00     0.012 C 
ATOM     18  C   UNL     1     128.301 142.634 120.987  1.00  0.00     0.000 C 
ATOM     19  C   UNL     1     130.297 142.149 122.462  1.00  0.00     0.005 C 
ATOM     20  C   UNL     1     128.932 141.626 121.965  1.00  0.00     0.003 C 
ATOM     21  C   UNL     1     126.884 142.145 120.637  1.00  0.00     0.031 C 
ATOM     22  C   UNL     1     128.854 140.086 121.534  1.00  0.00    -0.008 C 
ATOM     23  C   UNL     1     126.881 140.756 120.092  1.00  0.00    -0.027 C 
ATOM     24  C   UNL     1     127.707 139.797 120.547  1.00  0.00    -0.065 C 
ATOM     25  C   UNL     1     130.164 139.585 120.851  1.00  0.00     0.014 C 
ATOM     26  C   UNL     1     128.614 139.257 122.825  1.00  0.00     0.016 C 
ATOM     27  C   UNL     1     127.593 138.404 119.959  1.00  0.00     0.063 C 
ATOM     28  C   UNL     1     130.089 138.156 120.285  1.00  0.00     0.033 C 
ATOM     29  C   UNL     1     128.920 138.002 119.304  1.00  0.00     0.118 C 
BRANCH  29  30
ATOM     30  O   UNL     1     128.862 136.685 118.813  1.00  0.00    -0.393 OA
ATOM     31  H   UNL     1     128.765 136.075 119.593  1.00  0.00     0.210 HD
ENDBRANCH  29  30
ENDBRANCH   9  11
ENDBRANCH   1   9
TORSDOF 7
ENDMDL
MODEL 5
REMARK VINA RESULT:    -5.717      2.924      6.478
REMARK INTER + INTRA:          -9.894
REMARK INTER:                  -8.043
REMARK INTRA:                  -1.850
REMARK UNBOUND:                -2.005
REMARK SMILES CC[C@@H](CC[C@@H](C)[C@@H]1CC[C@@H]2[C@H]3CC=C4C[C@H](O)CC[C@@]4(C)[C@H]3CC[C@@]21C)C(C)C
REMARK SMILES IDX 5 1 4 2 3 3 2 4 1 5 28 6 29 7 30 8 6 9 7 10 8 11 9 12 26 13
REMARK SMILES IDX 10 14 11 15 25 16 27 17 12 18 24 19 23 20 13 21 21 22 14 23
REMARK SMILES IDX 15 24 20 25 22 26 16 27 19 28 17 29 18 30
REMARK H PARENT 18 31
REMARK Flexibility Score: inf
ROOT
ATOM      1  C   UNL     1     127.986 146.278 122.480  1.00  0.00     0.004 C 
ENDROOT
BRANCH   1   2
ATOM      2  C   UNL     1     127.253 146.221 123.844  1.00  0.00     0.004 C 
BRANCH   2   3
ATOM      3  C   UNL     1     128.208 146.002 125.049  1.00  0.00    -0.009 C 
BRANCH   3   4
ATOM      4  C   UNL     1     129.691 146.138 124.602  1.00  0.00     0.000 C 
ATOM      5  C   UNL     1     130.482 147.123 125.468  1.00  0.00     0.004 C 
ENDBRANCH   3   4
BRANCH   3   6
ATOM      6  C   UNL     1     127.925 144.655 125.792  1.00  0.00    -0.014 C 
ATOM      7  C   UNL     1     129.054 143.621 125.641  1.00  0.00     0.007 C 
ATOM      8  C   UNL     1     127.609 144.883 127.278  1.00  0.00     0.007 C 
ENDBRANCH   3   6
ENDBRANCH   2   3
ENDBRANCH   1   2
BRANCH   1   9
ATOM      9  C   UNL     1     127.242 145.507 121.355  1.00  0.00    -0.011 C 
ATOM     10  C   UNL     1     126.952 146.455 120.173  1.00  0.00     0.008 C 
BRANCH   9  11
ATOM     11  C   UNL     1     128.013 144.175 120.982  1.00  0.00    -0.002 C 
ATOM     12  C   UNL     1     128.118 143.156 122.133  1.00  0.00     0.005 C 
ATOM     13  C   UNL     1     129.449 144.221 120.298  1.00  0.00    -0.026 C 
ATOM     14  C   UNL     1     129.436 142.422 121.937  1.00  0.00     0.005 C 
ATOM     15  C   UNL     1     130.390 143.425 121.264  1.00  0.00    -0.001 C 
ATOM     16  C   UNL     1     130.003 145.630 119.881  1.00  0.00     0.007 C 
ATOM     17  C   UNL     1     129.358 143.406 118.969  1.00  0.00     0.012 C 
ATOM     18  C   UNL     1     131.112 144.310 122.323  1.00  0.00     0.000 C 
ATOM     19  C   UNL     1     130.824 146.398 120.926  1.00  0.00     0.005 C 
ATOM     20  C   UNL     1     131.827 145.533 121.719  1.00  0.00     0.003 C 
ATOM     21  C   UNL     1     132.113 143.562 123.223  1.00  0.00     0.031 C 
ATOM     22  C   UNL     1     133.246 145.249 121.033  1.00  0.00    -0.008 C 
ATOM     23  C   UNL     1     133.358 143.182 122.494  1.00  0.00    -0.027 C 
ATOM     24  C   UNL     1     133.924 143.972 121.565  1.00  0.00    -0.065 C 
ATOM     25  C   UNL     1     133.144 145.085 119.485  1.00  0.00     0.014 C 
ATOM     26  C   UNL     1     134.163 146.461 121.348  1.00  0.00     0.016 C 
ATOM     27  C   UNL     1     135.216 143.514 120.914  1.00  0.00     0.063 C 
ATOM     28  C   UNL     1     134.453 144.664 118.794  1.00  0.00     0.033 C 
ATOM     29  C   UNL     1     135.017 143.372 119.400  1.00  0.00     0.118 C 
BRANCH  29  30
ATOM     30  O   UNL     1     136.221 143.017 118.765  1.00  0.00    -0.393 OA
ATOM     31  H   UNL     1     136.968 143.425 119.281  1.00  0.00     0.210 HD
ENDBRANCH  29  30
ENDBRANCH   9  11
ENDBRANCH   1   9
TORSDOF 7
ENDMDL
MODEL 6
REMARK VINA RESULT:    -5.701      2.493      7.353
REMARK INTER + INTRA:          -9.873
REMARK INTER:                  -7.872
REMARK INTRA:                  -2.001
REMARK UNBOUND:                -2.005
REMARK SMILES CC[C@@H](CC[C@@H](C)[C@@H]1CC[C@@H]2[C@H]3CC=C4C[C@H](O)CC[C@@]4(C)[C@H]3CC[C@@]21C)C(C)C
REMARK SMILES IDX 5 1 4 2 3 3 2 4 1 5 28 6 29 7 30 8 6 9 7 10 8 11 9 12 26 13
REMARK SMILES IDX 10 14 11 15 25 16 27 17 12 18 24 19 23 20 13 21 21 22 14 23
REMARK SMILES IDX 15 24 20 25 22 26 16 27 19 28 17 29 18 30
REMARK H PARENT 18 31
REMARK Flexibility Score: inf
ROOT
ATOM      1  C   UNL     1     126.875 141.772 120.576  1.00  0.00     0.004 C 
ENDROOT
BRANCH   1   2
ATOM      2  C   UNL     1     127.289 140.410 121.186  1.00  0.00     0.004 C 
BRANCH   2   3
ATOM      3  C   UNL     1     128.157 139.545 120.232  1.00  0.00    -0.009 C 
BRANCH   3   4
ATOM      4  C   UNL     1     127.256 138.635 119.350  1.00  0.00     0.000 C 
ATOM      5  C   UNL     1     128.061 137.767 118.379  1.00  0.00     0.004 C 
ENDBRANCH   3   4
BRANCH   3   6
ATOM      6  C   UNL     1     129.257 138.739 120.999  1.00  0.00    -0.014 C 
ATOM      7  C   UNL     1     130.692 139.137 120.613  1.00  0.00     0.007 C 
ATOM      8  C   UNL     1     129.071 138.832 122.520  1.00  0.00     0.007 C 
ENDBRANCH   3   6
ENDBRANCH   2   3
ENDBRANCH   1   2
BRANCH   1   9
ATOM      9  C   UNL     1     128.088 142.679 120.226  1.00  0.00    -0.011 C 
ATOM     10  C   UNL     1     127.657 143.764 119.218  1.00  0.00     0.008 C 
BRANCH   9  11
ATOM     11  C   UNL     1     128.786 143.215 121.542  1.00  0.00    -0.002 C 
ATOM     12  C   UNL     1     128.317 144.614 121.987  1.00  0.00     0.005 C 
ATOM     13  C   UNL     1     130.370 143.209 121.693  1.00  0.00    -0.026 C 
ATOM     14  C   UNL     1     129.514 145.275 122.654  1.00  0.00     0.005 C 
ATOM     15  C   UNL     1     130.763 144.702 121.959  1.00  0.00    -0.001 C 
ATOM     16  C   UNL     1     131.200 142.524 120.549  1.00  0.00     0.007 C 
ATOM     17  C   UNL     1     130.711 142.404 122.987  1.00  0.00     0.012 C 
ATOM     18  C   UNL     1     131.112 145.509 120.673  1.00  0.00     0.000 C 
ATOM     19  C   UNL     1     131.630 143.405 119.369  1.00  0.00     0.005 C 
ATOM     20  C   UNL     1     132.140 144.808 119.767  1.00  0.00     0.003 C 
ATOM     21  C   UNL     1     131.590 146.951 120.920  1.00  0.00     0.031 C 
ATOM     22  C   UNL     1     133.671 144.925 120.220  1.00  0.00    -0.008 C 
ATOM     23  C   UNL     1     132.968 147.003 121.489  1.00  0.00    -0.027 C 
ATOM     24  C   UNL     1     133.938 146.148 121.118  1.00  0.00    -0.065 C 
ATOM     25  C   UNL     1     134.163 143.676 121.013  1.00  0.00     0.014 C 
ATOM     26  C   UNL     1     134.525 145.067 118.930  1.00  0.00     0.016 C 
ATOM     27  C   UNL     1     135.320 146.314 121.722  1.00  0.00     0.063 C 
ATOM     28  C   UNL     1     135.580 143.801 121.599  1.00  0.00     0.033 C 
ATOM     29  C   UNL     1     135.712 145.044 122.488  1.00  0.00     0.118 C 
BRANCH  29  30
ATOM     30  O   UNL     1     137.019 145.146 122.998  1.00  0.00    -0.393 OA
ATOM     31  H   UNL     1     137.267 144.259 123.375  1.00  0.00     0.210 HD
ENDBRANCH  29  30
ENDBRANCH   9  11
ENDBRANCH   1   9
TORSDOF 7
ENDMDL
MODEL 7
REMARK VINA RESULT:    -5.656      8.613     13.118
REMARK INTER + INTRA:          -9.810
REMARK INTER:                  -8.420
REMARK INTRA:                  -1.390
REMARK UNBOUND:                -2.005
REMARK SMILES CC[C@@H](CC[C@@H](C)[C@@H]1CC[C@@H]2[C@H]3CC=C4C[C@H](O)CC[C@@]4(C)[C@H]3CC[C@@]21C)C(C)C
REMARK SMILES IDX 5 1 4 2 3 3 2 4 1 5 28 6 29 7 30 8 6 9 7 10 8 11 9 12 26 13
REMARK SMILES IDX 10 14 11 15 25 16 27 17 12 18 24 19 23 20 13 21 21 22 14 23
REMARK SMILES IDX 15 24 20 25 22 26 16 27 19 28 17 29 18 30
REMARK H PARENT 18 31
REMARK Flexibility Score: inf
ROOT
ATOM      1  C   UNL     1     140.254 146.338 121.201  1.00  0.00     0.004 C 
ENDROOT
BRANCH   1   2
ATOM      2  C   UNL     1     138.980 147.056 120.693  1.00  0.00     0.004 C 
BRANCH   2   3
ATOM      3  C   UNL     1     137.806 146.087 120.383  1.00  0.00    -0.009 C 
BRANCH   3   4
ATOM      4  C   UNL     1     136.443 146.823 120.508  1.00  0.00     0.000 C 
ATOM      5  C   UNL     1     135.542 146.613 119.287  1.00  0.00     0.004 C 
ENDBRANCH   3   4
BRANCH   3   6
ATOM      6  C   UNL     1     137.868 144.785 121.249  1.00  0.00    -0.014 C 
ATOM      7  C   UNL     1     136.725 144.674 122.273  1.00  0.00     0.007 C 
ATOM      8  C   UNL     1     137.922 143.524 120.375  1.00  0.00     0.007 C 
ENDBRANCH   3   6
ENDBRANCH   2   3
ENDBRANCH   1   2
BRANCH   1   9
ATOM      9  C   UNL     1     141.220 145.924 120.055  1.00  0.00    -0.011 C 
ATOM     10  C   UNL     1     141.071 146.897 118.868  1.00  0.00     0.008 C 
BRANCH   9  11
ATOM     11  C   UNL     1     142.694 145.743 120.602  1.00  0.00    -0.002 C 
ATOM     12  C   UNL     1     143.798 146.103 119.589  1.00  0.00     0.005 C 
ATOM     13  C   UNL     1     143.153 144.387 121.296  1.00  0.00    -0.026 C 
ATOM     14  C   UNL     1     144.975 145.188 119.894  1.00  0.00     0.005 C 
ATOM     15  C   UNL     1     144.372 143.885 120.450  1.00  0.00    -0.001 C 
ATOM     16  C   UNL     1     142.052 143.295 121.541  1.00  0.00     0.007 C 
ATOM     17  C   UNL     1     143.695 144.749 122.715  1.00  0.00     0.012 C 
ATOM     18  C   UNL     1     143.990 142.907 119.299  1.00  0.00     0.000 C 
ATOM     19  C   UNL     1     141.813 142.274 120.420  1.00  0.00     0.005 C 
ATOM     20  C   UNL     1     143.100 141.737 119.756  1.00  0.00     0.003 C 
ATOM     21  C   UNL     1     145.181 142.328 118.514  1.00  0.00     0.031 C 
ATOM     22  C   UNL     1     143.850 140.529 120.493  1.00  0.00    -0.008 C 
ATOM     23  C   UNL     1     145.944 141.317 119.302  1.00  0.00    -0.027 C 
ATOM     24  C   UNL     1     145.346 140.445 120.133  1.00  0.00    -0.065 C 
ATOM     25  C   UNL     1     143.772 140.630 122.047  1.00  0.00     0.014 C 
ATOM     26  C   UNL     1     143.161 139.213 120.041  1.00  0.00     0.016 C 
ATOM     27  C   UNL     1     146.207 139.425 120.855  1.00  0.00     0.063 C 
ATOM     28  C   UNL     1     144.602 139.577 122.804  1.00  0.00     0.033 C 
ATOM     29  C   UNL     1     146.074 139.607 122.371  1.00  0.00     0.118 C 
BRANCH  29  30
ATOM     30  O   UNL     1     146.807 138.626 123.063  1.00  0.00    -0.393 OA
ATOM     31  H   UNL     1     147.263 139.072 123.827  1.00  0.00     0.210 HD
ENDBRANCH  29  30
ENDBRANCH   9  11
ENDBRANCH   1   9
TORSDOF 7
ENDMDL
MODEL 8
REMARK VINA RESULT:    -5.572      1.533      4.040
REMARK INTER + INTRA:          -9.694
REMARK INTER:                  -7.809
REMARK INTRA:                  -1.885
REMARK UNBOUND:                -2.005
REMARK SMILES CC[C@@H](CC[C@@H](C)[C@@H]1CC[C@@H]2[C@H]3CC=C4C[C@H](O)CC[C@@]4(C)[C@H]3CC[C@@]21C)C(C)C
REMARK SMILES IDX 5 1 4 2 3 3 2 4 1 5 28 6 29 7 30 8 6 9 7 10 8 11 9 12 26 13
REMARK SMILES IDX 10 14 11 15 25 16 27 17 12 18 24 19 23 20 13 21 21 22 14 23
REMARK SMILES IDX 15 24 20 25 22 26 16 27 19 28 17 29 18 30
REMARK H PARENT 18 31
REMARK Flexibility Score: inf
ROOT
ATOM      1  C   UNL     1     131.131 145.214 123.072  1.00  0.00     0.004 C 
ENDROOT
BRANCH   1   2
ATOM      2  C   UNL     1     130.144 146.268 123.632  1.00  0.00     0.004 C 
BRANCH   2   3
ATOM      3  C   UNL     1     128.667 145.787 123.642  1.00  0.00    -0.009 C 
BRANCH   3   4
ATOM      4  C   UNL     1     127.723 146.914 123.138  1.00  0.00     0.000 C 
ATOM      5  C   UNL     1     126.902 146.497 121.915  1.00  0.00     0.004 C 
ENDBRANCH   3   4
BRANCH   3   6
ATOM      6  C   UNL     1     128.238 145.221 125.036  1.00  0.00    -0.014 C 
ATOM      7  C   UNL     1     128.013 143.698 125.039  1.00  0.00     0.007 C 
ATOM      8  C   UNL     1     129.232 145.613 126.138  1.00  0.00     0.007 C 
ENDBRANCH   3   6
ENDBRANCH   2   3
ENDBRANCH   1   2
BRANCH   1   9
ATOM      9  C   UNL     1     131.933 145.722 121.841  1.00  0.00    -0.011 C 
ATOM     10  C   UNL     1     133.434 145.431 122.037  1.00  0.00     0.008 C 
BRANCH   9  11
ATOM     11  C   UNL     1     131.305 145.171 120.496  1.00  0.00    -0.002 C 
ATOM     12  C   UNL     1     129.996 145.864 120.073  1.00  0.00     0.005 C 
ATOM     13  C   UNL     1     131.075 143.613 120.274  1.00  0.00    -0.026 C 
ATOM     14  C   UNL     1     129.166 144.811 119.354  1.00  0.00     0.005 C 
ATOM     15  C   UNL     1     129.541 143.461 119.992  1.00  0.00    -0.001 C 
ATOM     16  C   UNL     1     131.621 142.640 121.379  1.00  0.00     0.007 C 
ATOM     17  C   UNL     1     131.826 143.212 118.965  1.00  0.00     0.012 C 
ATOM     18  C   UNL     1     128.683 143.181 121.262  1.00  0.00     0.000 C 
ATOM     19  C   UNL     1     130.677 142.296 122.540  1.00  0.00     0.005 C 
ATOM     20  C   UNL     1     129.217 142.020 122.121  1.00  0.00     0.003 C 
ATOM     21  C   UNL     1     127.187 142.937 120.995  1.00  0.00     0.031 C 
ATOM     22  C   UNL     1     128.873 140.546 121.601  1.00  0.00    -0.008 C 
ATOM     23  C   UNL     1     126.932 141.608 120.365  1.00  0.00    -0.027 C 
ATOM     24  C   UNL     1     127.630 140.506 120.692  1.00  0.00    -0.065 C 
ATOM     25  C   UNL     1     130.040 139.907 120.785  1.00  0.00     0.014 C 
ATOM     26  C   UNL     1     128.597 139.667 122.851  1.00  0.00     0.016 C 
ATOM     27  C   UNL     1     127.262 139.192 120.027  1.00  0.00     0.063 C 
ATOM     28  C   UNL     1     129.707 138.552 120.137  1.00  0.00     0.033 C 
ATOM     29  C   UNL     1     128.463 138.648 119.244  1.00  0.00     0.118 C 
BRANCH  29  30
ATOM     30  O   UNL     1     128.169 137.395 118.677  1.00  0.00    -0.393 OA
ATOM     31  H   UNL     1     128.516 136.695 119.292  1.00  0.00     0.210 HD
ENDBRANCH  29  30
ENDBRANCH   9  11
ENDBRANCH   1   9
TORSDOF 7
ENDMDL
MODEL 9
REMARK VINA RESULT:    -5.496      4.511      8.413
REMARK INTER + INTRA:          -9.589
REMARK INTER:                  -7.597
REMARK INTRA:                  -1.991
REMARK UNBOUND:                -2.005
REMARK SMILES CC[C@@H](CC[C@@H](C)[C@@H]1CC[C@@H]2[C@H]3CC=C4C[C@H](O)CC[C@@]4(C)[C@H]3CC[C@@]21C)C(C)C
REMARK SMILES IDX 5 1 4 2 3 3 2 4 1 5 28 6 29 7 30 8 6 9 7 10 8 11 9 12 26 13
REMARK SMILES IDX 10 14 11 15 25 16 27 17 12 18 24 19 23 20 13 21 21 22 14 23
REMARK SMILES IDX 15 24 20 25 22 26 16 27 19 28 17 29 18 30
REMARK H PARENT 18 31
REMARK Flexibility Score: inf
ROOT
ATOM      1  C   UNL     1     127.254 139.479 119.857  1.00  0.00     0.004 C 
ENDROOT
BRANCH   1   2
ATOM      2  C   UNL     1     127.225 139.930 121.338  1.00  0.00     0.004 C 
BRANCH   2   3
ATOM      3  C   UNL     1     127.853 141.332 121.570  1.00  0.00    -0.009 C 
BRANCH   3   4
ATOM      4  C   UNL     1     128.308 141.955 120.220  1.00  0.00     0.000 C 
ATOM      5  C   UNL     1     127.746 143.363 119.999  1.00  0.00     0.004 C 
ENDBRANCH   3   4
BRANCH   3   6
ATOM      6  C   UNL     1     129.000 141.299 122.633  1.00  0.00    -0.014 C 
ATOM      7  C   UNL     1     128.773 140.267 123.751  1.00  0.00     0.007 C 
ATOM      8  C   UNL     1     130.372 141.080 121.980  1.00  0.00     0.007 C 
ENDBRANCH   3   6
ENDBRANCH   2   3
ENDBRANCH   1   2
BRANCH   1   9
ATOM      9  C   UNL     1     127.595 137.972 119.685  1.00  0.00    -0.011 C 
ATOM     10  C   UNL     1     128.260 137.739 118.313  1.00  0.00     0.008 C 
BRANCH   9  11
ATOM     11  C   UNL     1     128.409 137.434 120.932  1.00  0.00    -0.002 C 
ATOM     12  C   UNL     1     129.939 137.518 120.778  1.00  0.00     0.005 C 
ATOM     13  C   UNL     1     128.103 136.004 121.558  1.00  0.00    -0.026 C 
ATOM     14  C   UNL     1     130.513 136.342 121.555  1.00  0.00     0.005 C 
ATOM     15  C   UNL     1     129.458 135.223 121.480  1.00  0.00    -0.001 C 
ATOM     16  C   UNL     1     126.875 135.213 120.981  1.00  0.00     0.007 C 
ATOM     17  C   UNL     1     127.780 136.217 123.071  1.00  0.00     0.012 C 
ATOM     18  C   UNL     1     129.632 134.373 120.186  1.00  0.00     0.000 C 
ATOM     19  C   UNL     1     127.136 134.286 119.786  1.00  0.00     0.005 C 
ATOM     20  C   UNL     1     128.433 133.454 119.889  1.00  0.00     0.003 C 
ATOM     21  C   UNL     1     130.916 133.525 120.131  1.00  0.00     0.031 C 
ATOM     22  C   UNL     1     128.362 132.096 120.735  1.00  0.00    -0.008 C 
ATOM     23  C   UNL     1     130.863 132.355 121.055  1.00  0.00    -0.027 C 
ATOM     24  C   UNL     1     129.737 131.651 121.270  1.00  0.00    -0.065 C 
ATOM     25  C   UNL     1     127.419 132.206 121.972  1.00  0.00     0.014 C 
ATOM     26  C   UNL     1     127.821 130.990 119.790  1.00  0.00     0.016 C 
ATOM     27  C   UNL     1     129.799 130.449 122.193  1.00  0.00     0.063 C 
ATOM     28  C   UNL     1     127.429 130.980 122.902  1.00  0.00     0.033 C 
ATOM     29  C   UNL     1     128.850 130.651 123.380  1.00  0.00     0.118 C 
BRANCH  29  30
ATOM     30  O   UNL     1     128.836 129.518 124.214  1.00  0.00    -0.393 OA
ATOM     31  H   UNL     1     129.771 129.345 124.506  1.00  0.00     0.210 HD
ENDBRANCH  29  30
ENDBRANCH   9  11
ENDBRANCH   1   9
TORSDOF 7
ENDMDL
