MODEL 1
REMARK VINA RESULT:    -4.928      0.000      0.000
REMARK INTER + INTRA:         -10.050
REMARK INTER:                  -8.384
REMARK INTRA:                  -1.666
REMARK UNBOUND:                -1.666
REMARK SMILES CCCCCCCCCCCCCC(=O)[O-]
REMARK SMILES IDX 8 1 9 2 10 3 11 4 12 5 13 6 14 7 15 8 16 9 7 10 6 11 5 12
REMARK SMILES IDX 4 13 3 14 2 15 1 16
REMARK H PARENT
REMARK Flexibility Score: inf
ROOT
ATOM      1  C   UNL     1       1.490 -28.809   4.851  1.00  0.00     0.000 C 
ENDROOT
BRANCH   1   2
ATOM      2  C   UNL     1       0.139 -29.419   5.254  1.00  0.00     0.000 C 
BRANCH   2   3
ATOM      3  C   UNL     1      -0.497 -28.630   6.407  1.00  0.00     0.000 C 
BRANCH   3   4
ATOM      4  C   UNL     1       0.146 -27.248   6.604  1.00  0.00     0.000 C 
BRANCH   4   5
ATOM      5  C   UNL     1       0.140 -26.797   8.075  1.00  0.00     0.006 C 
BRANCH   5   6
ATOM      6  C   UNL     1      -1.146 -27.208   8.803  1.00  0.00     0.053 C 
BRANCH   6   7
ATOM      7  C   UNL     1      -1.264 -26.543  10.141  1.00  0.00     0.041 C 
ATOM      8  O   UNL     1      -2.331 -25.958  10.465  1.00  0.00    -0.550 OA
ATOM      9  O   UNL     1      -0.184 -26.541  11.014  1.00  0.00    -0.550 OA
ENDBRANCH   6   7
ENDBRANCH   5   6
ENDBRANCH   4   5
ENDBRANCH   3   4
ENDBRANCH   2   3
ENDBRANCH   1   2
BRANCH   1  10
ATOM     10  C   UNL     1       1.709 -28.794   3.328  1.00  0.00     0.000 C 
BRANCH  10  11
ATOM     11  C   UNL     1       0.916 -29.857   2.541  1.00  0.00    -0.000 C 
BRANCH  11  12
ATOM     12  C   UNL     1      -0.169 -29.301   1.602  1.00  0.00    -0.000 C 
BRANCH  12  13
ATOM     13  C   UNL     1      -0.296 -27.772   1.675  1.00  0.00    -0.000 C 
BRANCH  13  14
ATOM     14  C   UNL     1      -1.624 -27.363   2.327  1.00  0.00    -0.000 C 
BRANCH  14  15
ATOM     15  C   UNL     1      -1.452 -26.242   3.364  1.00  0.00    -0.003 C 
ATOM     16  C   UNL     1      -0.093 -25.549   3.268  1.00  0.00     0.004 C 
ENDBRANCH  14  15
ENDBRANCH  13  14
ENDBRANCH  12  13
ENDBRANCH  11  12
ENDBRANCH  10  11
ENDBRANCH   1  10
TORSDOF 12
ENDMDL
MODEL 2
REMARK VINA RESULT:    -4.879      3.974      7.291
REMARK INTER + INTRA:          -9.967
REMARK INTER:                  -9.444
REMARK INTRA:                  -0.524
REMARK UNBOUND:                -1.666
REMARK SMILES CCCCCCCCCCCCCC(=O)[O-]
REMARK SMILES IDX 8 1 9 2 10 3 11 4 12 5 13 6 14 7 15 8 16 9 7 10 6 11 5 12
REMARK SMILES IDX 4 13 3 14 2 15 1 16
REMARK H PARENT
REMARK Flexibility Score: inf
ROOT
ATOM      1  C   UNL     1      -0.384 -27.265   6.882  1.00  0.00     0.000 C 
ENDROOT
BRANCH   1   2
ATOM      2  C   UNL     1       0.209 -26.983   5.494  1.00  0.00     0.000 C 
BRANCH   2   3
ATOM      3  C   UNL     1      -0.466 -27.852   4.423  1.00  0.00     0.000 C 
BRANCH   3   4
ATOM      4  C   UNL     1      -1.204 -27.018   3.364  1.00  0.00     0.000 C 
BRANCH   4   5
ATOM      5  C   UNL     1      -1.111 -25.505   3.630  1.00  0.00     0.006 C 
BRANCH   5   6
ATOM      6  C   UNL     1      -0.327 -24.771   2.535  1.00  0.00     0.053 C 
BRANCH   6   7
ATOM      7  C   UNL     1      -1.076 -24.748   1.237  1.00  0.00     0.041 C 
ATOM      8  O   UNL     1      -1.894 -23.822   0.995  1.00  0.00    -0.550 OA
ATOM      9  O   UNL     1      -0.895 -25.767   0.310  1.00  0.00    -0.550 OA
ENDBRANCH   6   7
ENDBRANCH   5   6
ENDBRANCH   4   5
ENDBRANCH   3   4
ENDBRANCH   2   3
ENDBRANCH   1   2
BRANCH   1  10
ATOM     10  C   UNL     1       0.582 -26.912   8.028  1.00  0.00     0.000 C 
BRANCH  10  11
ATOM     11  C   UNL     1      -0.092 -26.557   9.369  1.00  0.00    -0.000 C 
BRANCH  11  12
ATOM     12  C   UNL     1      -1.565 -26.988   9.494  1.00  0.00    -0.000 C 
BRANCH  12  13
ATOM     13  C   UNL     1      -2.350 -26.143  10.508  1.00  0.00    -0.000 C 
BRANCH  13  14
ATOM     14  C   UNL     1      -3.850 -26.149  10.182  1.00  0.00    -0.000 C 
BRANCH  14  15
ATOM     15  C   UNL     1      -4.537 -24.821  10.538  1.00  0.00    -0.003 C 
ATOM     16  C   UNL     1      -3.764 -24.016  11.583  1.00  0.00     0.004 C 
ENDBRANCH  14  15
ENDBRANCH  13  14
ENDBRANCH  12  13
ENDBRANCH  11  12
ENDBRANCH  10  11
ENDBRANCH   1  10
TORSDOF 12
ENDMDL
MODEL 3
REMARK VINA RESULT:    -4.876      3.651      7.091
REMARK INTER + INTRA:          -9.962
REMARK INTER:                  -9.288
REMARK INTRA:                  -0.674
REMARK UNBOUND:                -1.666
REMARK SMILES CCCCCCCCCCCCCC(=O)[O-]
REMARK SMILES IDX 8 1 9 2 10 3 11 4 12 5 13 6 14 7 15 8 16 9 7 10 6 11 5 12
REMARK SMILES IDX 4 13 3 14 2 15 1 16
REMARK H PARENT
REMARK Flexibility Score: inf
ROOT
ATOM      1  C   UNL     1      -0.799 -28.179   7.751  1.00  0.00     0.000 C 
ENDROOT
BRANCH   1   2
ATOM      2  C   UNL     1       0.023 -28.923   6.688  1.00  0.00     0.000 C 
BRANCH   2   3
ATOM      3  C   UNL     1      -0.472 -28.582   5.274  1.00  0.00     0.000 C 
BRANCH   3   4
ATOM      4  C   UNL     1       0.121 -27.269   4.741  1.00  0.00     0.000 C 
BRANCH   4   5
ATOM      5  C   UNL     1      -0.958 -26.289   4.248  1.00  0.00     0.006 C 
BRANCH   5   6
ATOM      6  C   UNL     1      -0.784 -25.932   2.767  1.00  0.00     0.053 C 
BRANCH   6   7
ATOM      7  C   UNL     1      -1.849 -26.555   1.916  1.00  0.00     0.041 C 
ATOM      8  O   UNL     1      -1.987 -27.806   1.890  1.00  0.00    -0.550 OA
ATOM      9  O   UNL     1      -2.664 -25.755   1.125  1.00  0.00    -0.550 OA
ENDBRANCH   6   7
ENDBRANCH   5   6
ENDBRANCH   4   5
ENDBRANCH   3   4
ENDBRANCH   2   3
ENDBRANCH   1   2
BRANCH   1  10
ATOM     10  C   UNL     1      -0.187 -26.820   8.136  1.00  0.00     0.000 C 
BRANCH  10  11
ATOM     11  C   UNL     1      -0.071 -26.559   9.651  1.00  0.00    -0.000 C 
BRANCH  11  12
ATOM     12  C   UNL     1      -1.254 -27.069  10.495  1.00  0.00    -0.000 C 
BRANCH  12  13
ATOM     13  C   UNL     1      -2.246 -25.957  10.867  1.00  0.00    -0.000 C 
BRANCH  13  14
ATOM     14  C   UNL     1      -3.625 -26.225  10.249  1.00  0.00    -0.000 C 
BRANCH  14  15
ATOM     15  C   UNL     1      -4.524 -24.978  10.250  1.00  0.00    -0.003 C 
ATOM     16  C   UNL     1      -4.104 -23.945  11.295  1.00  0.00     0.004 C 
ENDBRANCH  14  15
ENDBRANCH  13  14
ENDBRANCH  12  13
ENDBRANCH  11  12
ENDBRANCH  10  11
ENDBRANCH   1  10
TORSDOF 12
ENDMDL
MODEL 4
REMARK VINA RESULT:    -4.856      4.444      6.540
REMARK INTER + INTRA:          -9.929
REMARK INTER:                  -8.417
REMARK INTRA:                  -1.512
REMARK UNBOUND:                -1.666
REMARK SMILES CCCCCCCCCCCCCC(=O)[O-]
REMARK SMILES IDX 8 1 9 2 10 3 11 4 12 5 13 6 14 7 15 8 16 9 7 10 6 11 5 12
REMARK SMILES IDX 4 13 3 14 2 15 1 16
REMARK H PARENT
REMARK Flexibility Score: inf
ROOT
ATOM      1  C   UNL     1      -0.220 -27.991   1.714  1.00  0.00     0.000 C 
ENDROOT
BRANCH   1   2
ATOM      2  C   UNL     1      -1.584 -27.558   2.272  1.00  0.00     0.000 C 
BRANCH   2   3
ATOM      3  C   UNL     1      -1.541 -26.100   2.754  1.00  0.00     0.000 C 
BRANCH   3   4
ATOM      4  C   UNL     1      -0.242 -25.383   2.355  1.00  0.00     0.000 C 
BRANCH   4   5
ATOM      5  C   UNL     1      -0.467 -24.300   1.286  1.00  0.00     0.006 C 
BRANCH   5   6
ATOM      6  C   UNL     1      -1.945 -24.166   0.900  1.00  0.00     0.053 C 
BRANCH   6   7
ATOM      7  C   UNL     1      -2.167 -24.445  -0.556  1.00  0.00     0.041 C 
ATOM      8  O   UNL     1      -2.799 -25.473  -0.914  1.00  0.00    -0.550 OA
ATOM      9  O   UNL     1      -1.645 -23.588  -1.516  1.00  0.00    -0.550 OA
ENDBRANCH   6   7
ENDBRANCH   5   6
ENDBRANCH   4   5
ENDBRANCH   3   4
ENDBRANCH   2   3
ENDBRANCH   1   2
BRANCH   1  10
ATOM     10  C   UNL     1      -0.101 -29.516   1.546  1.00  0.00     0.000 C 
BRANCH  10  11
ATOM     11  C   UNL     1       0.753 -30.230   2.614  1.00  0.00    -0.000 C 
BRANCH  11  12
ATOM     12  C   UNL     1       1.640 -29.305   3.466  1.00  0.00    -0.000 C 
BRANCH  12  13
ATOM     13  C   UNL     1       1.412 -29.482   4.975  1.00  0.00    -0.000 C 
BRANCH  13  14
ATOM     14  C   UNL     1      -0.083 -29.411   5.314  1.00  0.00    -0.000 C 
BRANCH  14  15
ATOM     15  C   UNL     1      -0.389 -28.389   6.421  1.00  0.00    -0.003 C 
ATOM     16  C   UNL     1      -0.130 -26.947   5.984  1.00  0.00     0.004 C 
ENDBRANCH  14  15
ENDBRANCH  13  14
ENDBRANCH  12  13
ENDBRANCH  11  12
ENDBRANCH  10  11
ENDBRANCH   1  10
TORSDOF 12
ENDMDL
MODEL 5
REMARK VINA RESULT:    -4.817      0.691      1.684
REMARK INTER + INTRA:          -9.863
REMARK INTER:                  -8.659
REMARK INTRA:                  -1.204
REMARK UNBOUND:                -1.666
REMARK SMILES CCCCCCCCCCCCCC(=O)[O-]
REMARK SMILES IDX 8 1 9 2 10 3 11 4 12 5 13 6 14 7 15 8 16 9 7 10 6 11 5 12
REMARK SMILES IDX 4 13 3 14 2 15 1 16
REMARK H PARENT
REMARK Flexibility Score: inf
ROOT
ATOM      1  C   UNL     1       0.107 -29.340   5.317  1.00  0.00     0.000 C 
ENDROOT
BRANCH   1   2
ATOM      2  C   UNL     1      -0.252 -28.852   6.728  1.00  0.00     0.000 C 
BRANCH   2   3
ATOM      3  C   UNL     1      -0.330 -27.319   6.775  1.00  0.00     0.000 C 
BRANCH   3   4
ATOM      4  C   UNL     1       0.248 -26.737   8.074  1.00  0.00     0.000 C 
BRANCH   4   5
ATOM      5  C   UNL     1      -0.406 -27.334   9.333  1.00  0.00     0.006 C 
BRANCH   5   6
ATOM      6  C   UNL     1      -1.823 -26.795   9.561  1.00  0.00     0.053 C 
BRANCH   6   7
ATOM      7  C   UNL     1      -1.930 -26.039  10.851  1.00  0.00     0.041 C 
ATOM      8  O   UNL     1      -1.106 -26.252  11.779  1.00  0.00    -0.550 OA
ATOM      9  O   UNL     1      -2.960 -25.127  11.040  1.00  0.00    -0.550 OA
ENDBRANCH   6   7
ENDBRANCH   5   6
ENDBRANCH   4   5
ENDBRANCH   3   4
ENDBRANCH   2   3
ENDBRANCH   1   2
BRANCH   1  10
ATOM     10  C   UNL     1       1.474 -28.822   4.836  1.00  0.00     0.000 C 
BRANCH  10  11
ATOM     11  C   UNL     1       1.775 -29.053   3.341  1.00  0.00    -0.000 C 
BRANCH  11  12
ATOM     12  C   UNL     1       0.918 -30.137   2.662  1.00  0.00    -0.000 C 
BRANCH  12  13
ATOM     13  C   UNL     1      -0.090 -29.560   1.657  1.00  0.00    -0.000 C 
BRANCH  13  14
ATOM     14  C   UNL     1      -0.165 -28.031   1.774  1.00  0.00    -0.000 C 
BRANCH  14  15
ATOM     15  C   UNL     1      -1.502 -27.548   2.360  1.00  0.00    -0.003 C 
ATOM     16  C   UNL     1      -1.337 -26.374   3.324  1.00  0.00     0.004 C 
ENDBRANCH  14  15
ENDBRANCH  13  14
ENDBRANCH  12  13
ENDBRANCH  11  12
ENDBRANCH  10  11
ENDBRANCH   1  10
TORSDOF 12
ENDMDL
MODEL 6
REMARK VINA RESULT:    -4.782      4.810      6.990
REMARK INTER + INTRA:          -9.802
REMARK INTER:                  -8.388
REMARK INTRA:                  -1.415
REMARK UNBOUND:                -1.666
REMARK SMILES CCCCCCCCCCCCCC(=O)[O-]
REMARK SMILES IDX 8 1 9 2 10 3 11 4 12 5 13 6 14 7 15 8 16 9 7 10 6 11 5 12
REMARK SMILES IDX 4 13 3 14 2 15 1 16
REMARK H PARENT
REMARK Flexibility Score: inf
ROOT
ATOM      1  C   UNL     1      -0.424 -26.503   4.564  1.00  0.00     0.000 C 
ENDROOT
BRANCH   1   2
ATOM      2  C   UNL     1       0.748 -25.818   3.845  1.00  0.00     0.000 C 
BRANCH   2   3
ATOM      3  C   UNL     1       0.254 -25.017   2.631  1.00  0.00     0.000 C 
BRANCH   3   4
ATOM      4  C   UNL     1      -1.258 -25.166   2.399  1.00  0.00     0.000 C 
BRANCH   4   5
ATOM      5  C   UNL     1      -1.717 -24.555   1.064  1.00  0.00     0.006 C 
BRANCH   5   6
ATOM      6  C   UNL     1      -2.098 -25.627   0.036  1.00  0.00     0.053 C 
BRANCH   6   7
ATOM      7  C   UNL     1      -2.598 -25.021  -1.240  1.00  0.00     0.041 C 
ATOM      8  O   UNL     1      -1.882 -24.204  -1.876  1.00  0.00    -0.550 OA
ATOM      9  O   UNL     1      -3.869 -25.332  -1.707  1.00  0.00    -0.550 OA
ENDBRANCH   6   7
ENDBRANCH   5   6
ENDBRANCH   4   5
ENDBRANCH   3   4
ENDBRANCH   2   3
ENDBRANCH   1   2
BRANCH   1  10
ATOM     10  C   UNL     1      -0.023 -27.099   5.925  1.00  0.00     0.000 C 
BRANCH  10  11
ATOM     11  C   UNL     1      -0.364 -28.591   6.115  1.00  0.00    -0.000 C 
BRANCH  11  12
ATOM     12  C   UNL     1       0.066 -29.512   4.959  1.00  0.00    -0.000 C 
BRANCH  12  13
ATOM     13  C   UNL     1       1.566 -29.413   4.643  1.00  0.00    -0.000 C 
BRANCH  13  14
ATOM     14  C   UNL     1       1.804 -29.348   3.128  1.00  0.00    -0.000 C 
BRANCH  14  15
ATOM     15  C   UNL     1       0.569 -29.774   2.318  1.00  0.00    -0.003 C 
ATOM     16  C   UNL     1      -0.023 -28.630   1.494  1.00  0.00     0.004 C 
ENDBRANCH  14  15
ENDBRANCH  13  14
ENDBRANCH  12  13
ENDBRANCH  11  12
ENDBRANCH  10  11
ENDBRANCH   1  10
TORSDOF 12
ENDMDL
MODEL 7
REMARK VINA RESULT:    -4.753      3.992      6.408
REMARK INTER + INTRA:          -9.753
REMARK INTER:                  -8.546
REMARK INTRA:                  -1.207
REMARK UNBOUND:                -1.666
REMARK SMILES CCCCCCCCCCCCCC(=O)[O-]
REMARK SMILES IDX 8 1 9 2 10 3 11 4 12 5 13 6 14 7 15 8 16 9 7 10 6 11 5 12
REMARK SMILES IDX 4 13 3 14 2 15 1 16
REMARK H PARENT
REMARK Flexibility Score: inf
ROOT
ATOM      1  C   UNL     1       0.277 -30.167   2.725  1.00  0.00     0.000 C 
ENDROOT
BRANCH   1   2
ATOM      2  C   UNL     1       0.239 -29.365   1.416  1.00  0.00     0.000 C 
BRANCH   2   3
ATOM      3  C   UNL     1      -0.170 -27.907   1.677  1.00  0.00     0.000 C 
BRANCH   3   4
ATOM      4  C   UNL     1      -1.624 -27.777   2.155  1.00  0.00     0.000 C 
BRANCH   4   5
ATOM      5  C   UNL     1      -2.238 -26.408   1.819  1.00  0.00     0.006 C 
BRANCH   5   6
ATOM      6  C   UNL     1      -2.059 -26.039   0.340  1.00  0.00     0.053 C 
BRANCH   6   7
ATOM      7  C   UNL     1      -1.803 -24.574   0.160  1.00  0.00     0.041 C 
ATOM      8  O   UNL     1      -1.748 -23.812   1.161  1.00  0.00    -0.550 OA
ATOM      9  O   UNL     1      -1.660 -24.044  -1.116  1.00  0.00    -0.550 OA
ENDBRANCH   6   7
ENDBRANCH   5   6
ENDBRANCH   4   5
ENDBRANCH   3   4
ENDBRANCH   2   3
ENDBRANCH   1   2
BRANCH   1  10
ATOM     10  C   UNL     1       1.578 -29.952   3.519  1.00  0.00     0.000 C 
BRANCH  10  11
ATOM     11  C   UNL     1       1.389 -29.431   4.958  1.00  0.00    -0.000 C 
BRANCH  11  12
ATOM     12  C   UNL     1      -0.064 -29.113   5.353  1.00  0.00    -0.000 C 
BRANCH  12  13
ATOM     13  C   UNL     1      -0.263 -27.650   5.775  1.00  0.00    -0.000 C 
BRANCH  13  14
ATOM     14  C   UNL     1       0.978 -27.117   6.505  1.00  0.00    -0.000 C 
BRANCH  14  15
ATOM     15  C   UNL     1       0.710 -26.828   7.991  1.00  0.00    -0.003 C 
ATOM     16  C   UNL     1      -0.735 -27.116   8.399  1.00  0.00     0.004 C 
ENDBRANCH  14  15
ENDBRANCH  13  14
ENDBRANCH  12  13
ENDBRANCH  11  12
ENDBRANCH  10  11
ENDBRANCH   1  10
TORSDOF 12
ENDMDL
MODEL 8
REMARK VINA RESULT:    -4.751      3.552      6.477
REMARK INTER + INTRA:          -9.751
REMARK INTER:                  -8.726
REMARK INTRA:                  -1.025
REMARK UNBOUND:                -1.666
REMARK SMILES CCCCCCCCCCCCCC(=O)[O-]
REMARK SMILES IDX 8 1 9 2 10 3 11 4 12 5 13 6 14 7 15 8 16 9 7 10 6 11 5 12
REMARK SMILES IDX 4 13 3 14 2 15 1 16
REMARK H PARENT
REMARK Flexibility Score: inf
ROOT
ATOM      1  C   UNL     1       1.281 -29.454   5.365  1.00  0.00     0.000 C 
ENDROOT
BRANCH   1   2
ATOM      2  C   UNL     1       1.502 -29.090   3.889  1.00  0.00     0.000 C 
BRANCH   2   3
ATOM      3  C   UNL     1       0.936 -30.179   2.966  1.00  0.00     0.000 C 
BRANCH   3   4
ATOM      4  C   UNL     1       0.098 -29.602   1.814  1.00  0.00     0.000 C 
BRANCH   4   5
ATOM      5  C   UNL     1      -0.008 -28.068   1.870  1.00  0.00     0.006 C 
BRANCH   5   6
ATOM      6  C   UNL     1      -1.450 -27.595   2.089  1.00  0.00     0.053 C 
BRANCH   6   7
ATOM      7  C   UNL     1      -1.814 -26.473   1.164  1.00  0.00     0.041 C 
ATOM      8  O   UNL     1      -2.907 -25.865   1.306  1.00  0.00    -0.550 OA
ATOM      9  O   UNL     1      -0.962 -26.125   0.124  1.00  0.00    -0.550 OA
ENDBRANCH   6   7
ENDBRANCH   5   6
ENDBRANCH   4   5
ENDBRANCH   3   4
ENDBRANCH   2   3
ENDBRANCH   1   2
BRANCH   1  10
ATOM     10  C   UNL     1      -0.150 -29.157   5.846  1.00  0.00     0.000 C 
BRANCH  10  11
ATOM     11  C   UNL     1      -0.459 -27.669   6.108  1.00  0.00    -0.000 C 
BRANCH  11  12
ATOM     12  C   UNL     1       0.658 -26.885   6.820  1.00  0.00    -0.000 C 
BRANCH  12  13
ATOM     13  C   UNL     1       0.446 -26.791   8.338  1.00  0.00    -0.000 C 
BRANCH  13  14
ATOM     14  C   UNL     1      -1.019 -27.066   8.706  1.00  0.00    -0.000 C 
BRANCH  14  15
ATOM     15  C   UNL     1      -1.375 -26.575  10.117  1.00  0.00    -0.003 C 
ATOM     16  C   UNL     1      -2.813 -26.067  10.223  1.00  0.00     0.004 C 
ENDBRANCH  14  15
ENDBRANCH  13  14
ENDBRANCH  12  13
ENDBRANCH  11  12
ENDBRANCH  10  11
ENDBRANCH   1  10
TORSDOF 12
ENDMDL
MODEL 9
REMARK VINA RESULT:    -4.687      1.822      3.315
REMARK INTER + INTRA:          -9.641
REMARK INTER:                  -8.663
REMARK INTRA:                  -0.978
REMARK UNBOUND:                -1.666
REMARK SMILES CCCCCCCCCCCCCC(=O)[O-]
REMARK SMILES IDX 8 1 9 2 10 3 11 4 12 5 13 6 14 7 15 8 16 9 7 10 6 11 5 12
REMARK SMILES IDX 4 13 3 14 2 15 1 16
REMARK H PARENT
REMARK Flexibility Score: inf
ROOT
ATOM      1  C   UNL     1      -0.471 -28.483   6.440  1.00  0.00     0.000 C 
ENDROOT
BRANCH   1   2
ATOM      2  C   UNL     1      -0.777 -28.272   7.930  1.00  0.00     0.000 C 
BRANCH   2   3
ATOM      3  C   UNL     1       0.124 -27.180   8.526  1.00  0.00     0.000 C 
BRANCH   3   4
ATOM      4  C   UNL     1      -0.531 -26.455   9.712  1.00  0.00     0.000 C 
BRANCH   4   5
ATOM      5  C   UNL     1      -2.068 -26.463   9.637  1.00  0.00     0.006 C 
BRANCH   5   6
ATOM      6  C   UNL     1      -2.710 -25.746  10.831  1.00  0.00     0.053 C 
BRANCH   6   7
ATOM      7  C   UNL     1      -4.112 -25.310  10.529  1.00  0.00     0.041 C 
ATOM      8  O   UNL     1      -4.464 -24.120  10.740  1.00  0.00    -0.550 OA
ATOM      9  O   UNL     1      -5.038 -26.228  10.050  1.00  0.00    -0.550 OA
ENDBRANCH   6   7
ENDBRANCH   5   6
ENDBRANCH   4   5
ENDBRANCH   3   4
ENDBRANCH   2   3
ENDBRANCH   1   2
BRANCH   1  10
ATOM     10  C   UNL     1       0.241 -27.278   5.800  1.00  0.00     0.000 C 
BRANCH  10  11
ATOM     11  C   UNL     1      -0.397 -26.755   4.497  1.00  0.00    -0.000 C 
BRANCH  11  12
ATOM     12  C   UNL     1      -0.929 -27.844   3.547  1.00  0.00    -0.000 C 
BRANCH  12  13
ATOM     13  C   UNL     1      -0.303 -27.772   2.146  1.00  0.00    -0.000 C 
BRANCH  13  14
ATOM     14  C   UNL     1       0.190 -29.154   1.695  1.00  0.00    -0.000 C 
BRANCH  14  15
ATOM     15  C   UNL     1       0.419 -30.113   2.874  1.00  0.00    -0.003 C 
ATOM     16  C   UNL     1       1.891 -30.222   3.271  1.00  0.00     0.004 C 
ENDBRANCH  14  15
ENDBRANCH  13  14
ENDBRANCH  12  13
ENDBRANCH  11  12
ENDBRANCH  10  11
ENDBRANCH   1  10
TORSDOF 12
ENDMDL
