MODEL 1
REMARK VINA RESULT:    -3.655      0.000      0.000
REMARK INTER + INTRA:          -5.590
REMARK INTER:                  -5.257
REMARK INTRA:                  -0.333
REMARK UNBOUND:                -0.333
REMARK SMILES CCCCCCCCCO
REMARK SMILES IDX 6 1 5 2 4 3 3 4 2 5 1 6 7 7 8 8 9 9 10 10
REMARK H PARENT 10 11
REMARK Flexibility Score: inf
ROOT
ATOM      1  C   UNL     1      30.742  25.772  23.238  1.00  0.00     0.000 C 
ENDROOT
BRANCH   1   2
ATOM      2  C   UNL     1      32.084  26.442  22.898  1.00  0.00     0.000 C 
BRANCH   2   3
ATOM      3  C   UNL     1      32.026  27.975  23.019  1.00  0.00    -0.000 C 
BRANCH   3   4
ATOM      4  C   UNL     1      32.091  28.678  21.654  1.00  0.00    -0.000 C 
BRANCH   4   5
ATOM      5  C   UNL     1      32.124  30.208  21.775  1.00  0.00    -0.003 C 
ATOM      6  C   UNL     1      31.075  30.703  22.766  1.00  0.00     0.004 C 
ENDBRANCH   4   5
ENDBRANCH   3   4
ENDBRANCH   2   3
ENDBRANCH   1   2
BRANCH   1   7
ATOM      7  C   UNL     1      30.191  24.929  22.074  1.00  0.00     0.002 C 
BRANCH   7   8
ATOM      8  C   UNL     1      29.278  25.738  21.141  1.00  0.00     0.028 C 
BRANCH   8   9
ATOM      9  C   UNL     1      28.068  26.337  21.863  1.00  0.00     0.156 C 
BRANCH   9  10
ATOM     10  O   UNL     1      27.180  26.869  20.919  1.00  0.00    -0.396 OA
ATOM     11  H   UNL     1      27.677  27.586  20.446  1.00  0.00     0.210 HD
ENDBRANCH   9  10
ENDBRANCH   8   9
ENDBRANCH   7   8
ENDBRANCH   1   7
TORSDOF 8
ENDMDL
MODEL 2
REMARK VINA RESULT:    -3.594      2.204      3.886
REMARK INTER + INTRA:          -5.503
REMARK INTER:                  -5.082
REMARK INTRA:                  -0.422
REMARK UNBOUND:                -0.333
REMARK SMILES CCCCCCCCCO
REMARK SMILES IDX 6 1 5 2 4 3 3 4 2 5 1 6 7 7 8 8 9 9 10 10
REMARK H PARENT 10 11
REMARK Flexibility Score: inf
ROOT
ATOM      1  C   UNL     1      28.002  26.483  22.843  1.00  0.00     0.000 C 
ENDROOT
BRANCH   1   2
ATOM      2  C   UNL     1      28.516  25.677  21.638  1.00  0.00     0.000 C 
BRANCH   2   3
ATOM      3  C   UNL     1      29.862  24.985  21.921  1.00  0.00    -0.000 C 
BRANCH   3   4
ATOM      4  C   UNL     1      30.542  25.516  23.193  1.00  0.00    -0.000 C 
BRANCH   4   5
ATOM      5  C   UNL     1      31.909  26.158  22.911  1.00  0.00    -0.003 C 
ATOM      6  C   UNL     1      31.763  27.647  22.608  1.00  0.00     0.004 C 
ENDBRANCH   4   5
ENDBRANCH   3   4
ENDBRANCH   2   3
ENDBRANCH   1   2
BRANCH   1   7
ATOM      7  C   UNL     1      26.470  26.623  22.848  1.00  0.00     0.002 C 
BRANCH   7   8
ATOM      8  C   UNL     1      25.840  26.171  24.175  1.00  0.00     0.028 C 
BRANCH   8   9
ATOM      9  C   UNL     1      24.890  24.982  24.009  1.00  0.00     0.156 C 
BRANCH   9  10
ATOM     10  O   UNL     1      25.453  24.058  23.121  1.00  0.00    -0.396 OA
ATOM     11  H   UNL     1      25.092  24.282  22.223  1.00  0.00     0.210 HD
ENDBRANCH   9  10
ENDBRANCH   8   9
ENDBRANCH   7   8
ENDBRANCH   1   7
TORSDOF 8
ENDMDL
MODEL 3
REMARK VINA RESULT:    -3.562      3.448      5.092
REMARK INTER + INTRA:          -5.457
REMARK INTER:                  -4.994
REMARK INTRA:                  -0.463
REMARK UNBOUND:                -0.333
REMARK SMILES CCCCCCCCCO
REMARK SMILES IDX 6 1 5 2 4 3 3 4 2 5 1 6 7 7 8 8 9 9 10 10
REMARK H PARENT 10 11
REMARK Flexibility Score: inf
ROOT
ATOM      1  C   UNL     1      27.931  27.990  23.843  1.00  0.00     0.000 C 
ENDROOT
BRANCH   1   2
ATOM      2  C   UNL     1      26.703  27.224  24.364  1.00  0.00     0.000 C 
BRANCH   2   3
ATOM      3  C   UNL     1      25.403  27.634  23.648  1.00  0.00    -0.000 C 
BRANCH   3   4
ATOM      4  C   UNL     1      24.577  28.644  24.460  1.00  0.00    -0.000 C 
BRANCH   4   5
ATOM      5  C   UNL     1      24.433  29.999  23.752  1.00  0.00    -0.003 C 
ATOM      6  C   UNL     1      25.601  30.922  24.087  1.00  0.00     0.004 C 
ENDBRANCH   4   5
ENDBRANCH   3   4
ENDBRANCH   2   3
ENDBRANCH   1   2
BRANCH   1   7
ATOM      7  C   UNL     1      29.027  27.052  23.307  1.00  0.00     0.002 C 
BRANCH   7   8
ATOM      8  C   UNL     1      28.458  25.903  22.461  1.00  0.00     0.028 C 
BRANCH   8   9
ATOM      9  C   UNL     1      28.385  26.239  20.969  1.00  0.00     0.156 C 
BRANCH   9  10
ATOM     10  O   UNL     1      27.146  26.829  20.687  1.00  0.00    -0.396 OA
ATOM     11  H   UNL     1      27.347  27.692  20.239  1.00  0.00     0.210 HD
ENDBRANCH   9  10
ENDBRANCH   8   9
ENDBRANCH   7   8
ENDBRANCH   1   7
TORSDOF 8
ENDMDL
MODEL 4
REMARK VINA RESULT:    -3.558      3.033      4.745
REMARK INTER + INTRA:          -5.452
REMARK INTER:                  -5.195
REMARK INTRA:                  -0.257
REMARK UNBOUND:                -0.333
REMARK SMILES CCCCCCCCCO
REMARK SMILES IDX 6 1 5 2 4 3 3 4 2 5 1 6 7 7 8 8 9 9 10 10
REMARK H PARENT 10 11
REMARK Flexibility Score: inf
ROOT
ATOM      1  C   UNL     1      27.661  27.018  23.230  1.00  0.00     0.000 C 
ENDROOT
BRANCH   1   2
ATOM      2  C   UNL     1      27.625  25.963  22.112  1.00  0.00     0.000 C 
BRANCH   2   3
ATOM      3  C   UNL     1      28.964  25.854  21.359  1.00  0.00    -0.000 C 
BRANCH   3   4
ATOM      4  C   UNL     1      29.954  24.904  22.051  1.00  0.00    -0.000 C 
BRANCH   4   5
ATOM      5  C   UNL     1      31.116  25.646  22.726  1.00  0.00    -0.003 C 
ATOM      6  C   UNL     1      31.391  25.086  24.119  1.00  0.00     0.004 C 
ENDBRANCH   4   5
ENDBRANCH   3   4
ENDBRANCH   2   3
ENDBRANCH   1   2
BRANCH   1   7
ATOM      7  C   UNL     1      26.256  27.381  23.743  1.00  0.00     0.002 C 
BRANCH   7   8
ATOM      8  C   UNL     1      26.063  28.897  23.911  1.00  0.00     0.028 C 
BRANCH   8   9
ATOM      9  C   UNL     1      24.594  29.296  24.073  1.00  0.00     0.156 C 
BRANCH   9  10
ATOM     10  O   UNL     1      24.209  30.098  22.991  1.00  0.00    -0.396 OA
ATOM     11  H   UNL     1      24.971  30.087  22.355  1.00  0.00     0.210 HD
ENDBRANCH   9  10
ENDBRANCH   8   9
ENDBRANCH   7   8
ENDBRANCH   1   7
TORSDOF 8
ENDMDL
MODEL 5
REMARK VINA RESULT:    -3.496      2.015      3.476
REMARK INTER + INTRA:          -5.363
REMARK INTER:                  -4.643
REMARK INTRA:                  -0.719
REMARK UNBOUND:                -0.333
REMARK SMILES CCCCCCCCCO
REMARK SMILES IDX 6 1 5 2 4 3 3 4 2 5 1 6 7 7 8 8 9 9 10 10
REMARK H PARENT 10 11
REMARK Flexibility Score: inf
ROOT
ATOM      1  C   UNL     1      30.221  26.097  23.713  1.00  0.00     0.000 C 
ENDROOT
BRANCH   1   2
ATOM      2  C   UNL     1      30.528  27.599  23.589  1.00  0.00     0.000 C 
BRANCH   2   3
ATOM      3  C   UNL     1      29.258  28.468  23.634  1.00  0.00    -0.000 C 
BRANCH   3   4
ATOM      4  C   UNL     1      28.113  27.798  24.410  1.00  0.00    -0.000 C 
BRANCH   4   5
ATOM      5  C   UNL     1      26.728  28.157  23.851  1.00  0.00    -0.003 C 
ATOM      6  C   UNL     1      25.822  26.930  23.799  1.00  0.00     0.004 C 
ENDBRANCH   4   5
ENDBRANCH   3   4
ENDBRANCH   2   3
ENDBRANCH   1   2
BRANCH   1   7
ATOM      7  C   UNL     1      30.224  25.380  22.352  1.00  0.00     0.002 C 
BRANCH   7   8
ATOM      8  C   UNL     1      28.823  25.293  21.727  1.00  0.00     0.028 C 
BRANCH   8   9
ATOM      9  C   UNL     1      28.607  26.308  20.602  1.00  0.00     0.156 C 
BRANCH   9  10
ATOM     10  O   UNL     1      27.312  26.832  20.692  1.00  0.00    -0.396 OA
ATOM     11  H   UNL     1      26.843  26.554  19.862  1.00  0.00     0.210 HD
ENDBRANCH   9  10
ENDBRANCH   8   9
ENDBRANCH   7   8
ENDBRANCH   1   7
TORSDOF 8
ENDMDL
MODEL 6
REMARK VINA RESULT:    -3.473      1.682      2.961
REMARK INTER + INTRA:          -5.329
REMARK INTER:                  -4.812
REMARK INTRA:                  -0.517
REMARK UNBOUND:                -0.333
REMARK SMILES CCCCCCCCCO
REMARK SMILES IDX 6 1 5 2 4 3 3 4 2 5 1 6 7 7 8 8 9 9 10 10
REMARK H PARENT 10 11
REMARK Flexibility Score: inf
ROOT
ATOM      1  C   UNL     1      28.559  25.627  21.645  1.00  0.00     0.000 C 
ENDROOT
BRANCH   1   2
ATOM      2  C   UNL     1      29.907  24.912  21.830  1.00  0.00     0.000 C 
BRANCH   2   3
ATOM      3  C   UNL     1      30.646  25.364  23.103  1.00  0.00    -0.000 C 
BRANCH   3   4
ATOM      4  C   UNL     1      31.986  26.050  22.796  1.00  0.00    -0.000 C 
BRANCH   4   5
ATOM      5  C   UNL     1      31.990  27.540  23.170  1.00  0.00    -0.003 C 
ATOM      6  C   UNL     1      31.459  28.395  22.023  1.00  0.00     0.004 C 
ENDBRANCH   4   5
ENDBRANCH   3   4
ENDBRANCH   2   3
ENDBRANCH   1   2
BRANCH   1   7
ATOM      7  C   UNL     1      28.242  26.597  22.797  1.00  0.00     0.002 C 
BRANCH   7   8
ATOM      8  C   UNL     1      26.746  26.935  22.889  1.00  0.00     0.028 C 
BRANCH   8   9
ATOM      9  C   UNL     1      26.476  28.250  23.625  1.00  0.00     0.156 C 
BRANCH   9  10
ATOM     10  O   UNL     1      25.224  28.748  23.242  1.00  0.00    -0.396 OA
ATOM     11  H   UNL     1      24.637  28.663  24.038  1.00  0.00     0.210 HD
ENDBRANCH   9  10
ENDBRANCH   8   9
ENDBRANCH   7   8
ENDBRANCH   1   7
TORSDOF 8
ENDMDL
MODEL 7
REMARK VINA RESULT:    -3.437      1.914      4.590
REMARK INTER + INTRA:          -5.277
REMARK INTER:                  -4.901
REMARK INTRA:                  -0.376
REMARK UNBOUND:                -0.333
REMARK SMILES CCCCCCCCCO
REMARK SMILES IDX 6 1 5 2 4 3 3 4 2 5 1 6 7 7 8 8 9 9 10 10
REMARK H PARENT 10 11
REMARK Flexibility Score: inf
ROOT
ATOM      1  C   UNL     1      31.178  28.286  22.449  1.00  0.00     0.000 C 
ENDROOT
BRANCH   1   2
ATOM      2  C   UNL     1      31.739  26.929  22.906  1.00  0.00     0.000 C 
BRANCH   2   3
ATOM      3  C   UNL     1      30.631  25.927  23.277  1.00  0.00    -0.000 C 
BRANCH   3   4
ATOM      4  C   UNL     1      30.235  25.023  22.099  1.00  0.00    -0.000 C 
BRANCH   4   5
ATOM      5  C   UNL     1      28.976  25.514  21.371  1.00  0.00    -0.003 C 
ATOM      6  C   UNL     1      27.948  26.060  22.358  1.00  0.00     0.004 C 
ENDBRANCH   4   5
ENDBRANCH   3   4
ENDBRANCH   2   3
ENDBRANCH   1   2
BRANCH   1   7
ATOM      7  C   UNL     1      32.125  29.021  21.484  1.00  0.00     0.002 C 
BRANCH   7   8
ATOM      8  C   UNL     1      32.101  30.545  21.681  1.00  0.00     0.028 C 
BRANCH   8   9
ATOM      9  C   UNL     1      30.857  31.030  22.430  1.00  0.00     0.156 C 
BRANCH   9  10
ATOM     10  O   UNL     1      30.108  31.867  21.594  1.00  0.00    -0.396 OA
ATOM     11  H   UNL     1      29.349  31.319  21.263  1.00  0.00     0.210 HD
ENDBRANCH   9  10
ENDBRANCH   8   9
ENDBRANCH   7   8
ENDBRANCH   1   7
TORSDOF 8
ENDMDL
MODEL 8
REMARK VINA RESULT:    -3.360      3.236      4.998
REMARK INTER + INTRA:          -5.167
REMARK INTER:                  -4.876
REMARK INTRA:                  -0.291
REMARK UNBOUND:                -0.333
REMARK SMILES CCCCCCCCCO
REMARK SMILES IDX 6 1 5 2 4 3 3 4 2 5 1 6 7 7 8 8 9 9 10 10
REMARK H PARENT 10 11
REMARK Flexibility Score: inf
ROOT
ATOM      1  C   UNL     1      26.581  27.105  23.106  1.00  0.00     0.000 C 
ENDROOT
BRANCH   1   2
ATOM      2  C   UNL     1      27.860  27.219  23.952  1.00  0.00     0.000 C 
BRANCH   2   3
ATOM      3  C   UNL     1      29.137  27.245  23.093  1.00  0.00    -0.000 C 
BRANCH   3   4
ATOM      4  C   UNL     1      30.261  26.376  23.679  1.00  0.00    -0.000 C 
BRANCH   4   5
ATOM      5  C   UNL     1      30.690  25.244  22.735  1.00  0.00    -0.003 C 
ATOM      6  C   UNL     1      29.644  25.008  21.649  1.00  0.00     0.004 C 
ENDBRANCH   4   5
ENDBRANCH   3   4
ENDBRANCH   2   3
ENDBRANCH   1   2
BRANCH   1   7
ATOM      7  C   UNL     1      25.312  27.454  23.904  1.00  0.00     0.002 C 
BRANCH   7   8
ATOM      8  C   UNL     1      25.385  28.848  24.546  1.00  0.00     0.028 C 
BRANCH   8   9
ATOM      9  C   UNL     1      24.152  29.706  24.253  1.00  0.00     0.156 C 
BRANCH   9  10
ATOM     10  O   UNL     1      24.215  30.175  22.935  1.00  0.00    -0.396 OA
ATOM     11  H   UNL     1      24.109  31.160  22.987  1.00  0.00     0.210 HD
ENDBRANCH   9  10
ENDBRANCH   8   9
ENDBRANCH   7   8
ENDBRANCH   1   7
TORSDOF 8
ENDMDL
MODEL 9
REMARK VINA RESULT:    -3.354      2.732      4.427
REMARK INTER + INTRA:          -5.158
REMARK INTER:                  -4.793
REMARK INTRA:                  -0.365
REMARK UNBOUND:                -0.333
REMARK SMILES CCCCCCCCCO
REMARK SMILES IDX 6 1 5 2 4 3 3 4 2 5 1 6 7 7 8 8 9 9 10 10
REMARK H PARENT 10 11
REMARK Flexibility Score: inf
ROOT
ATOM      1  C   UNL     1      27.120  27.610  23.275  1.00  0.00     0.000 C 
ENDROOT
BRANCH   1   2
ATOM      2  C   UNL     1      28.468  28.133  23.798  1.00  0.00     0.000 C 
BRANCH   2   3
ATOM      3  C   UNL     1      29.670  27.462  23.108  1.00  0.00    -0.000 C 
BRANCH   3   4
ATOM      4  C   UNL     1      29.247  26.533  21.959  1.00  0.00    -0.000 C 
BRANCH   4   5
ATOM      5  C   UNL     1      29.894  25.143  22.052  1.00  0.00    -0.003 C 
ATOM      6  C   UNL     1      31.083  25.153  23.008  1.00  0.00     0.004 C 
ENDBRANCH   4   5
ENDBRANCH   3   4
ENDBRANCH   2   3
ENDBRANCH   1   2
BRANCH   1   7
ATOM      7  C   UNL     1      26.437  26.648  24.263  1.00  0.00     0.002 C 
BRANCH   7   8
ATOM      8  C   UNL     1      25.045  26.204  23.787  1.00  0.00     0.028 C 
BRANCH   8   9
ATOM      9  C   UNL     1      24.745  24.737  24.104  1.00  0.00     0.156 C 
BRANCH   9  10
ATOM     10  O   UNL     1      25.331  23.921  23.128  1.00  0.00    -0.396 OA
ATOM     11  H   UNL     1      25.573  23.074  23.585  1.00  0.00     0.210 HD
ENDBRANCH   9  10
ENDBRANCH   8   9
ENDBRANCH   7   8
ENDBRANCH   1   7
TORSDOF 8
ENDMDL
