MODEL 1
REMARK VINA RESULT:    -3.316      0.000      0.000
REMARK INTER + INTRA:          -4.705
REMARK INTER:                  -4.285
REMARK INTRA:                  -0.420
REMARK UNBOUND:                -0.420
REMARK SMILES CCO[C@H]1O[C@H](CO)[C@@H](O)[C@@H](O)[C@@H]1O
REMARK SMILES IDX 4 1 13 2 11 3 9 4 6 5 5 6 3 7 2 8 1 9 14 10 12 12 7 14 8 15
REMARK SMILES IDX 10 17
REMARK H PARENT 14 11 12 13 8 16 10 18
REMARK Flexibility Score: inf
ROOT
ATOM      1  C   UNL     1       6.543  -5.012  -1.509  1.00  0.00     0.281 C 
ATOM      2  C   UNL     1       7.225  -3.806  -0.822  1.00  0.00     0.202 C 
ATOM      3  C   UNL     1       8.711  -3.695  -1.214  1.00  0.00     0.179 C 
ATOM      4  C   UNL     1       9.412  -5.065  -1.102  1.00  0.00     0.177 C 
ATOM      5  C   UNL     1       8.580  -6.148  -1.823  1.00  0.00     0.178 C 
ATOM      6  O   UNL     1       7.269  -6.212  -1.279  1.00  0.00    -0.341 OA
ENDROOT
BRANCH   1   7
ATOM      7  O   UNL     1       6.389  -4.757  -2.898  1.00  0.00    -0.350 OA
BRANCH   7   8
ATOM      8  C   UNL     1       5.463  -3.711  -3.124  1.00  0.00     0.160 C 
ATOM      9  C   UNL     1       4.040  -4.260  -3.125  1.00  0.00     0.035 C 
ENDBRANCH   7   8
ENDBRANCH   1   7
BRANCH   2  10
ATOM     10  O   UNL     1       7.078  -3.870   0.577  1.00  0.00    -0.385 OA
ATOM     11  H   UNL     1       6.759  -4.779   0.813  1.00  0.00     0.211 HD
ENDBRANCH   2  10
BRANCH   3  12
ATOM     12  O   UNL     1       8.804  -3.207  -2.530  1.00  0.00    -0.387 OA
ATOM     13  H   UNL     1       7.879  -3.006  -2.833  1.00  0.00     0.211 HD
ENDBRANCH   3  12
BRANCH   5  14
ATOM     14  C   UNL     1       9.234  -7.529  -1.669  1.00  0.00     0.191 C 
BRANCH  14  15
ATOM     15  O   UNL     1      10.015  -7.573  -0.505  1.00  0.00    -0.394 OA
ATOM     16  H   UNL     1       9.951  -8.498  -0.150  1.00  0.00     0.210 HD
ENDBRANCH  14  15
ENDBRANCH   5  14
BRANCH   4  17
ATOM     17  O   UNL     1      10.698  -4.996  -1.663  1.00  0.00    -0.387 OA
ATOM     18  H   UNL     1      10.775  -4.104  -2.092  1.00  0.00     0.211 HD
ENDBRANCH   4  17
TORSDOF 7
ENDMDL
MODEL 2
REMARK VINA RESULT:    -3.294      2.254      3.982
REMARK INTER + INTRA:          -4.676
REMARK INTER:                  -4.310
REMARK INTRA:                  -0.367
REMARK UNBOUND:                -0.420
REMARK SMILES CCO[C@H]1O[C@H](CO)[C@@H](O)[C@@H](O)[C@@H]1O
REMARK SMILES IDX 4 1 13 2 11 3 9 4 6 5 5 6 3 7 2 8 1 9 14 10 12 12 7 14 8 15
REMARK SMILES IDX 10 17
REMARK H PARENT 14 11 12 13 8 16 10 18
REMARK Flexibility Score: inf
ROOT
ATOM      1  C   UNL     1       9.290  -5.072  -2.235  1.00  0.00     0.281 C 
ATOM      2  C   UNL     1       9.494  -6.529  -1.756  1.00  0.00     0.202 C 
ATOM      3  C   UNL     1      10.846  -6.707  -1.040  1.00  0.00     0.179 C 
ATOM      4  C   UNL     1      11.988  -6.060  -1.852  1.00  0.00     0.177 C 
ATOM      5  C   UNL     1      11.599  -4.622  -2.262  1.00  0.00     0.178 C 
ATOM      6  O   UNL     1      10.393  -4.628  -3.012  1.00  0.00    -0.341 OA
ENDROOT
BRANCH   1   7
ATOM      7  O   UNL     1       9.065  -4.222  -1.119  1.00  0.00    -0.350 OA
BRANCH   7   8
ATOM      8  C   UNL     1       7.947  -3.381  -1.336  1.00  0.00     0.160 C 
ATOM      9  C   UNL     1       6.756  -3.870  -0.520  1.00  0.00     0.035 C 
ENDBRANCH   7   8
ENDBRANCH   1   7
BRANCH   2  10
ATOM     10  O   UNL     1       9.369  -7.435  -2.827  1.00  0.00    -0.385 OA
ATOM     11  H   UNL     1       8.578  -8.008  -2.657  1.00  0.00     0.211 HD
ENDBRANCH   2  10
BRANCH   3  12
ATOM     12  O   UNL     1      10.768  -6.125   0.239  1.00  0.00    -0.387 OA
ATOM     13  H   UNL     1      10.759  -5.139   0.111  1.00  0.00     0.211 HD
ENDBRANCH   3  12
BRANCH   5  14
ATOM     14  C   UNL     1      12.701  -3.986  -3.123  1.00  0.00     0.191 C 
BRANCH  14  15
ATOM     15  O   UNL     1      13.755  -3.537  -2.314  1.00  0.00    -0.394 OA
ATOM     16  H   UNL     1      14.547  -4.091  -2.540  1.00  0.00     0.210 HD
ENDBRANCH  14  15
ENDBRANCH   5  14
BRANCH   4  17
ATOM     17  O   UNL     1      13.169  -6.040  -1.092  1.00  0.00    -0.387 OA
ATOM     18  H   UNL     1      13.514  -5.110  -1.124  1.00  0.00     0.211 HD
ENDBRANCH   4  17
TORSDOF 7
ENDMDL
MODEL 3
REMARK VINA RESULT:    -3.238      1.371      4.415
REMARK INTER + INTRA:          -4.605
REMARK INTER:                  -4.264
REMARK INTRA:                  -0.341
REMARK UNBOUND:                -0.420
REMARK SMILES CCO[C@H]1O[C@H](CO)[C@@H](O)[C@@H](O)[C@@H]1O
REMARK SMILES IDX 4 1 13 2 11 3 9 4 6 5 5 6 3 7 2 8 1 9 14 10 12 12 7 14 8 15
REMARK SMILES IDX 10 17
REMARK H PARENT 14 11 12 13 8 16 10 18
REMARK Flexibility Score: inf
ROOT
ATOM      1  C   UNL     1       8.671  -5.065  -2.512  1.00  0.00     0.281 C 
ATOM      2  C   UNL     1       9.076  -3.698  -1.911  1.00  0.00     0.202 C 
ATOM      3  C   UNL     1       7.996  -3.155  -0.956  1.00  0.00     0.179 C 
ATOM      4  C   UNL     1       6.594  -3.262  -1.594  1.00  0.00     0.177 C 
ATOM      5  C   UNL     1       6.376  -4.683  -2.159  1.00  0.00     0.178 C 
ATOM      6  O   UNL     1       7.383  -5.001  -3.109  1.00  0.00    -0.341 OA
ENDROOT
BRANCH   1   7
ATOM      7  O   UNL     1       8.730  -6.072  -1.512  1.00  0.00    -0.350 OA
BRANCH   7   8
ATOM      8  C   UNL     1       9.833  -6.934  -1.722  1.00  0.00     0.160 C 
ATOM      9  C   UNL     1      11.003  -6.514  -0.838  1.00  0.00     0.035 C 
ENDBRANCH   7   8
ENDBRANCH   1   7
BRANCH   2  10
ATOM     10  O   UNL     1       9.365  -2.765  -2.925  1.00  0.00    -0.385 OA
ATOM     11  H   UNL     1       8.754  -1.992  -2.817  1.00  0.00     0.211 HD
ENDBRANCH   2  10
BRANCH   3  12
ATOM     12  O   UNL     1       8.039  -3.883   0.248  1.00  0.00    -0.387 OA
ATOM     13  H   UNL     1       7.509  -3.373   0.916  1.00  0.00     0.211 HD
ENDBRANCH   3  12
BRANCH   5  14
ATOM     14  C   UNL     1       5.008  -4.788  -2.851  1.00  0.00     0.191 C 
BRANCH  14  15
ATOM     15  O   UNL     1       4.499  -3.510  -3.123  1.00  0.00    -0.394 OA
ATOM     16  H   UNL     1       5.130  -2.858  -2.721  1.00  0.00     0.210 HD
ENDBRANCH  14  15
ENDBRANCH   5  14
BRANCH   4  17
ATOM     17  O   UNL     1       5.607  -2.969  -0.639  1.00  0.00    -0.387 OA
ATOM     18  H   UNL     1       5.909  -2.156  -0.156  1.00  0.00     0.211 HD
ENDBRANCH   4  17
TORSDOF 7
ENDMDL
MODEL 4
REMARK VINA RESULT:    -3.138      1.845      3.058
REMARK INTER + INTRA:          -4.476
REMARK INTER:                  -4.284
REMARK INTRA:                  -0.192
REMARK UNBOUND:                -0.420
REMARK SMILES CCO[C@H]1O[C@H](CO)[C@@H](O)[C@@H](O)[C@@H]1O
REMARK SMILES IDX 4 1 13 2 11 3 9 4 6 5 5 6 3 7 2 8 1 9 14 10 12 12 7 14 8 15
REMARK SMILES IDX 10 17
REMARK H PARENT 14 11 12 13 8 16 10 18
REMARK Flexibility Score: inf
ROOT
ATOM      1  C   UNL     1       7.402  -5.344  -1.304  1.00  0.00     0.281 C 
ATOM      2  C   UNL     1       6.589  -4.179  -0.692  1.00  0.00     0.202 C 
ATOM      3  C   UNL     1       6.594  -2.941  -1.608  1.00  0.00     0.179 C 
ATOM      4  C   UNL     1       8.023  -2.628  -2.101  1.00  0.00     0.177 C 
ATOM      5  C   UNL     1       8.685  -3.909  -2.655  1.00  0.00     0.178 C 
ATOM      6  O   UNL     1       8.711  -4.925  -1.663  1.00  0.00    -0.341 OA
ENDROOT
BRANCH   1   7
ATOM      7  O   UNL     1       6.707  -5.888  -2.417  1.00  0.00    -0.350 OA
BRANCH   7   8
ATOM      8  C   UNL     1       7.072  -7.237  -2.637  1.00  0.00     0.160 C 
ATOM      9  C   UNL     1       7.061  -8.006  -1.321  1.00  0.00     0.035 C 
ENDBRANCH   7   8
ENDBRANCH   1   7
BRANCH   2  10
ATOM     10  O   UNL     1       7.061  -3.854   0.594  1.00  0.00    -0.385 OA
ATOM     11  H   UNL     1       7.669  -3.075   0.514  1.00  0.00     0.211 HD
ENDBRANCH   2  10
BRANCH   3  12
ATOM     12  O   UNL     1       5.742  -3.176  -2.702  1.00  0.00    -0.387 OA
ATOM     13  H   UNL     1       4.825  -3.291  -2.339  1.00  0.00     0.211 HD
ENDBRANCH   3  12
BRANCH   5  14
ATOM     14  C   UNL     1      10.130  -3.626  -3.095  1.00  0.00     0.191 C 
BRANCH  14  15
ATOM     15  O   UNL     1      11.022  -4.463  -2.408  1.00  0.00    -0.394 OA
ATOM     16  H   UNL     1      11.923  -4.055  -2.494  1.00  0.00     0.210 HD
ENDBRANCH  14  15
ENDBRANCH   5  14
BRANCH   4  17
ATOM     17  O   UNL     1       7.983  -1.639  -3.097  1.00  0.00    -0.387 OA
ATOM     18  H   UNL     1       8.753  -1.035  -2.932  1.00  0.00     0.211 HD
ENDBRANCH   4  17
TORSDOF 7
ENDMDL
MODEL 5
REMARK VINA RESULT:    -3.061      1.796      3.644
REMARK INTER + INTRA:          -4.376
REMARK INTER:                  -4.261
REMARK INTRA:                  -0.116
REMARK UNBOUND:                -0.420
REMARK SMILES CCO[C@H]1O[C@H](CO)[C@@H](O)[C@@H](O)[C@@H]1O
REMARK SMILES IDX 4 1 13 2 11 3 9 4 6 5 5 6 3 7 2 8 1 9 14 10 12 12 7 14 8 15
REMARK SMILES IDX 10 17
REMARK H PARENT 14 11 12 13 8 16 10 18
REMARK Flexibility Score: inf
ROOT
ATOM      1  C   UNL     1       8.082  -4.966  -3.052  1.00  0.00     0.281 C 
ATOM      2  C   UNL     1       9.489  -4.640  -2.500  1.00  0.00     0.202 C 
ATOM      3  C   UNL     1       9.473  -4.472  -0.969  1.00  0.00     0.179 C 
ATOM      4  C   UNL     1       8.308  -3.558  -0.529  1.00  0.00     0.177 C 
ATOM      5  C   UNL     1       6.993  -4.019  -1.194  1.00  0.00     0.178 C 
ATOM      6  O   UNL     1       7.123  -4.015  -2.609  1.00  0.00    -0.341 OA
ENDROOT
BRANCH   1   7
ATOM      7  O   UNL     1       7.711  -6.287  -2.687  1.00  0.00    -0.350 OA
BRANCH   7   8
ATOM      8  C   UNL     1       6.395  -6.585  -3.115  1.00  0.00     0.160 C 
ATOM      9  C   UNL     1       6.173  -8.093  -3.122  1.00  0.00     0.035 C 
ENDBRANCH   7   8
ENDBRANCH   1   7
BRANCH   2  10
ATOM     10  O   UNL     1      10.026  -3.499  -3.125  1.00  0.00    -0.385 OA
ATOM     11  H   UNL     1       9.321  -2.803  -3.158  1.00  0.00     0.211 HD
ENDBRANCH   2  10
BRANCH   3  12
ATOM     12  O   UNL     1       9.351  -5.738  -0.368  1.00  0.00    -0.387 OA
ATOM     13  H   UNL     1      10.178  -5.891   0.161  1.00  0.00     0.211 HD
ENDBRANCH   3  12
BRANCH   5  14
ATOM     14  C   UNL     1       5.835  -3.083  -0.814  1.00  0.00     0.191 C 
BRANCH  14  15
ATOM     15  O   UNL     1       5.300  -3.448   0.430  1.00  0.00    -0.394 OA
ATOM     16  H   UNL     1       6.050  -3.433   1.081  1.00  0.00     0.210 HD
ENDBRANCH  14  15
ENDBRANCH   5  14
BRANCH   4  17
ATOM     17  O   UNL     1       8.174  -3.587   0.869  1.00  0.00    -0.387 OA
ATOM     18  H   UNL     1       7.481  -4.267   1.076  1.00  0.00     0.211 HD
ENDBRANCH   4  17
TORSDOF 7
ENDMDL
MODEL 6
REMARK VINA RESULT:    -2.721      1.980      3.968
REMARK INTER + INTRA:          -3.937
REMARK INTER:                  -3.662
REMARK INTRA:                  -0.275
REMARK UNBOUND:                -0.420
REMARK SMILES CCO[C@H]1O[C@H](CO)[C@@H](O)[C@@H](O)[C@@H]1O
REMARK SMILES IDX 4 1 13 2 11 3 9 4 6 5 5 6 3 7 2 8 1 9 14 10 12 12 7 14 8 15
REMARK SMILES IDX 10 17
REMARK H PARENT 14 11 12 13 8 16 10 18
REMARK Flexibility Score: inf
ROOT
ATOM      1  C   UNL     1       9.185  -3.800  -2.981  1.00  0.00     0.281 C 
ATOM      2  C   UNL     1       8.648  -2.532  -2.277  1.00  0.00     0.202 C 
ATOM      3  C   UNL     1       7.950  -2.874  -0.946  1.00  0.00     0.179 C 
ATOM      4  C   UNL     1       6.971  -4.054  -1.127  1.00  0.00     0.177 C 
ATOM      5  C   UNL     1       7.672  -5.216  -1.866  1.00  0.00     0.178 C 
ATOM      6  O   UNL     1       8.164  -4.779  -3.125  1.00  0.00    -0.341 OA
ENDROOT
BRANCH   1   7
ATOM      7  O   UNL     1      10.301  -4.315  -2.269  1.00  0.00    -0.350 OA
BRANCH   7   8
ATOM      8  C   UNL     1      11.154  -5.054  -3.124  1.00  0.00     0.160 C 
ATOM      9  C   UNL     1      12.565  -5.098  -2.548  1.00  0.00     0.035 C 
ENDBRANCH   7   8
ENDBRANCH   1   7
BRANCH   2  10
ATOM     10  O   UNL     1       7.787  -1.809  -3.124  1.00  0.00    -0.385 OA
ATOM     11  H   UNL     1       8.049  -0.854  -3.089  1.00  0.00     0.211 HD
ENDBRANCH   2  10
BRANCH   3  12
ATOM     12  O   UNL     1       8.926  -3.194   0.015  1.00  0.00    -0.387 OA
ATOM     13  H   UNL     1       9.466  -2.374   0.167  1.00  0.00     0.211 HD
ENDBRANCH   3  12
BRANCH   5  14
ATOM     14  C   UNL     1       6.693  -6.375  -2.106  1.00  0.00     0.191 C 
BRANCH  14  15
ATOM     15  O   UNL     1       6.910  -7.400  -1.174  1.00  0.00    -0.394 OA
ATOM     16  H   UNL     1       7.881  -7.400  -0.968  1.00  0.00     0.210 HD
ENDBRANCH  14  15
ENDBRANCH   5  14
BRANCH   4  17
ATOM     17  O   UNL     1       6.509  -4.492   0.125  1.00  0.00    -0.387 OA
ATOM     18  H   UNL     1       6.727  -3.776   0.777  1.00  0.00     0.211 HD
ENDBRANCH   4  17
TORSDOF 7
ENDMDL
MODEL 7
REMARK VINA RESULT:    -2.659      2.210      4.892
REMARK INTER + INTRA:          -3.856
REMARK INTER:                  -3.409
REMARK INTRA:                  -0.447
REMARK UNBOUND:                -0.420
REMARK SMILES CCO[C@H]1O[C@H](CO)[C@@H](O)[C@@H](O)[C@@H]1O
REMARK SMILES IDX 4 1 13 2 11 3 9 4 6 5 5 6 3 7 2 8 1 9 14 10 12 12 7 14 8 15
REMARK SMILES IDX 10 17
REMARK H PARENT 14 11 12 13 8 16 10 18
REMARK Flexibility Score: inf
ROOT
ATOM      1  C   UNL     1      11.010  -5.138  -1.911  1.00  0.00     0.281 C 
ATOM      2  C   UNL     1      11.076  -6.250  -0.838  1.00  0.00     0.202 C 
ATOM      3  C   UNL     1      10.096  -7.397  -1.148  1.00  0.00     0.179 C 
ATOM      4  C   UNL     1       8.701  -6.845  -1.514  1.00  0.00     0.177 C 
ATOM      5  C   UNL     1       8.834  -5.733  -2.578  1.00  0.00     0.178 C 
ATOM      6  O   UNL     1       9.676  -4.691  -2.106  1.00  0.00    -0.341 OA
ENDROOT
BRANCH   1   7
ATOM      7  O   UNL     1      11.585  -5.600  -3.124  1.00  0.00    -0.350 OA
BRANCH   7   8
ATOM      8  C   UNL     1      12.989  -5.419  -3.125  1.00  0.00     0.160 C 
ATOM      9  C   UNL     1      13.327  -3.936  -3.023  1.00  0.00     0.035 C 
ENDBRANCH   7   8
ENDBRANCH   1   7
BRANCH   2  10
ATOM     10  O   UNL     1      10.844  -5.727   0.449  1.00  0.00    -0.385 OA
ATOM     11  H   UNL     1      10.265  -4.927   0.358  1.00  0.00     0.211 HD
ENDBRANCH   2  10
BRANCH   3  12
ATOM     12  O   UNL     1      10.608  -8.165  -2.210  1.00  0.00    -0.387 OA
ATOM     13  H   UNL     1      11.597  -8.063  -2.193  1.00  0.00     0.211 HD
ENDBRANCH   3  12
BRANCH   5  14
ATOM     14  C   UNL     1       7.459  -5.131  -2.908  1.00  0.00     0.191 C 
BRANCH  14  15
ATOM     15  O   UNL     1       6.634  -5.146  -1.775  1.00  0.00    -0.394 OA
ATOM     16  H   UNL     1       6.736  -4.263  -1.333  1.00  0.00     0.210 HD
ENDBRANCH  14  15
ENDBRANCH   5  14
BRANCH   4  17
ATOM     17  O   UNL     1       7.885  -7.879  -2.001  1.00  0.00    -0.387 OA
ATOM     18  H   UNL     1       8.443  -8.413  -2.625  1.00  0.00     0.211 HD
ENDBRANCH   4  17
TORSDOF 7
ENDMDL
MODEL 8
REMARK VINA RESULT:    -2.616      2.050      4.673
REMARK INTER + INTRA:          -3.801
REMARK INTER:                  -3.625
REMARK INTRA:                  -0.176
REMARK UNBOUND:                -0.420
REMARK SMILES CCO[C@H]1O[C@H](CO)[C@@H](O)[C@@H](O)[C@@H]1O
REMARK SMILES IDX 4 1 13 2 11 3 9 4 6 5 5 6 3 7 2 8 1 9 14 10 12 12 7 14 8 15
REMARK SMILES IDX 10 17
REMARK H PARENT 14 11 12 13 8 16 10 18
REMARK Flexibility Score: inf
ROOT
ATOM      1  C   UNL     1      10.384  -6.632  -1.266  1.00  0.00     0.281 C 
ATOM      2  C   UNL     1       9.314  -7.746  -1.196  1.00  0.00     0.202 C 
ATOM      3  C   UNL     1       7.951  -7.258  -1.722  1.00  0.00     0.179 C 
ATOM      4  C   UNL     1       7.588  -5.885  -1.117  1.00  0.00     0.177 C 
ATOM      5  C   UNL     1       8.779  -4.912  -1.257  1.00  0.00     0.178 C 
ATOM      6  O   UNL     1       9.934  -5.446  -0.626  1.00  0.00    -0.341 OA
ENDROOT
BRANCH   1   7
ATOM      7  O   UNL     1      10.742  -6.387  -2.619  1.00  0.00    -0.350 OA
BRANCH   7   8
ATOM      8  C   UNL     1      12.144  -6.251  -2.759  1.00  0.00     0.160 C 
ATOM      9  C   UNL     1      12.532  -4.777  -2.750  1.00  0.00     0.035 C 
ENDBRANCH   7   8
ENDBRANCH   1   7
BRANCH   2  10
ATOM     10  O   UNL     1       9.196  -8.251   0.113  1.00  0.00    -0.385 OA
ATOM     11  H   UNL     1       8.420  -8.868   0.138  1.00  0.00     0.211 HD
ENDBRANCH   2  10
BRANCH   3  12
ATOM     12  O   UNL     1       8.005  -7.172  -3.125  1.00  0.00    -0.387 OA
ATOM     13  H   UNL     1       7.292  -7.766  -3.482  1.00  0.00     0.211 HD
ENDBRANCH   3  12
BRANCH   5  14
ATOM     14  C   UNL     1       8.454  -3.559  -0.605  1.00  0.00     0.191 C 
BRANCH  14  15
ATOM     15  O   UNL     1       8.884  -3.544   0.730  1.00  0.00    -0.394 OA
ATOM     16  H   UNL     1       8.518  -2.717   1.140  1.00  0.00     0.210 HD
ENDBRANCH  14  15
ENDBRANCH   5  14
BRANCH   4  17
ATOM     17  O   UNL     1       6.458  -5.357  -1.763  1.00  0.00    -0.387 OA
ATOM     18  H   UNL     1       6.751  -5.082  -2.671  1.00  0.00     0.211 HD
ENDBRANCH   4  17
TORSDOF 7
ENDMDL
MODEL 9
REMARK VINA RESULT:    -2.423      2.516      4.999
REMARK INTER + INTRA:          -3.552
REMARK INTER:                  -3.399
REMARK INTRA:                  -0.153
REMARK UNBOUND:                -0.420
REMARK SMILES CCO[C@H]1O[C@H](CO)[C@@H](O)[C@@H](O)[C@@H]1O
REMARK SMILES IDX 4 1 13 2 11 3 9 4 6 5 5 6 3 7 2 8 1 9 14 10 12 12 7 14 8 15
REMARK SMILES IDX 10 17
REMARK H PARENT 14 11 12 13 8 16 10 18
REMARK Flexibility Score: inf
ROOT
ATOM      1  C   UNL     1      10.591  -6.432  -1.156  1.00  0.00     0.281 C 
ATOM      2  C   UNL     1      10.386  -6.321  -2.685  1.00  0.00     0.202 C 
ATOM      3  C   UNL     1      10.160  -4.862  -3.123  1.00  0.00     0.179 C 
ATOM      4  C   UNL     1       9.119  -4.171  -2.216  1.00  0.00     0.177 C 
ATOM      5  C   UNL     1       9.471  -4.407  -0.730  1.00  0.00     0.178 C 
ATOM      6  O   UNL     1       9.533  -5.798  -0.449  1.00  0.00    -0.341 OA
ENDROOT
BRANCH   1   7
ATOM      7  O   UNL     1      11.854  -5.893  -0.795  1.00  0.00    -0.350 OA
BRANCH   7   8
ATOM      8  C   UNL     1      12.910  -6.637  -1.372  1.00  0.00     0.160 C 
ATOM      9  C   UNL     1      14.053  -5.708  -1.766  1.00  0.00     0.035 C 
ENDBRANCH   7   8
ENDBRANCH   1   7
BRANCH   2  10
ATOM     10  O   UNL     1       9.328  -7.145  -3.115  1.00  0.00    -0.385 OA
ATOM     11  H   UNL     1       8.605  -6.563  -3.464  1.00  0.00     0.211 HD
ENDBRANCH   2  10
BRANCH   3  12
ATOM     12  O   UNL     1      11.384  -4.171  -3.071  1.00  0.00    -0.387 OA
ATOM     13  H   UNL     1      12.016  -4.652  -3.670  1.00  0.00     0.211 HD
ENDBRANCH   3  12
BRANCH   5  14
ATOM     14  C   UNL     1       8.411  -3.777   0.186  1.00  0.00     0.191 C 
BRANCH  14  15
ATOM     15  O   UNL     1       8.917  -3.623   1.485  1.00  0.00    -0.394 OA
ATOM     16  H   UNL     1       9.904  -3.553   1.402  1.00  0.00     0.210 HD
ENDBRANCH  14  15
ENDBRANCH   5  14
BRANCH   4  17
ATOM     17  O   UNL     1       9.083  -2.793  -2.486  1.00  0.00    -0.387 OA
ATOM     18  H   UNL     1       9.032  -2.697  -3.473  1.00  0.00     0.211 HD
ENDBRANCH   4  17
TORSDOF 7
ENDMDL
