MODEL 1
REMARK VINA RESULT:    -3.223      0.000      0.000
REMARK INTER + INTRA:          -3.505
REMARK INTER:                  -3.505
REMARK INTRA:                   0.000
REMARK UNBOUND:                 0.000
REMARK SMILES [NH3+]CC(=O)[O-]
REMARK SMILES IDX 2 1 1 2 3 6 4 7 5 8
REMARK H PARENT 1 3 1 4 1 5
REMARK Flexibility Score: inf
ROOT
ATOM      1  C   UNL     1     -23.966   4.098 -15.760  1.00  0.00     0.312 C 
ENDROOT
BRANCH   1   2
ATOM      2  N   UNL     1     -23.722   2.819 -15.095  1.00  0.00    -0.353 N 
ATOM      3  H   UNL     1     -23.765   2.940 -14.057  1.00  0.00     0.344 HD
ATOM      4  H   UNL     1     -24.457   2.135 -15.387  1.00  0.00     0.344 HD
ATOM      5  H   UNL     1     -22.784   2.445 -15.369  1.00  0.00     0.344 HD
ENDBRANCH   1   2
BRANCH   1   6
ATOM      6  C   UNL     1     -24.928   4.929 -14.969  1.00  0.00     0.096 C 
ATOM      7  O   UNL     1     -26.119   5.060 -15.357  1.00  0.00    -0.544 OA
ATOM      8  O   UNL     1     -24.497   5.598 -13.830  1.00  0.00    -0.544 OA
ENDBRANCH   1   6
TORSDOF 2
ENDMDL
MODEL 2
REMARK VINA RESULT:    -3.210      0.092      1.449
REMARK INTER + INTRA:          -3.492
REMARK INTER:                  -3.492
REMARK INTRA:                   0.000
REMARK UNBOUND:                 0.000
REMARK SMILES [NH3+]CC(=O)[O-]
REMARK SMILES IDX 2 1 1 2 3 6 4 7 5 8
REMARK H PARENT 1 3 1 4 1 5
REMARK Flexibility Score: inf
ROOT
ATOM      1  C   UNL     1     -23.991   4.091 -15.760  1.00  0.00     0.312 C 
ENDROOT
BRANCH   1   2
ATOM      2  N   UNL     1     -23.697   2.838 -15.068  1.00  0.00    -0.353 N 
ATOM      3  H   UNL     1     -23.093   2.230 -15.669  1.00  0.00     0.344 HD
ATOM      4  H   UNL     1     -23.188   3.049 -14.179  1.00  0.00     0.344 HD
ATOM      5  H   UNL     1     -24.586   2.337 -14.839  1.00  0.00     0.344 HD
ENDBRANCH   1   2
BRANCH   1   6
ATOM      6  C   UNL     1     -24.921   4.938 -14.947  1.00  0.00     0.096 C 
ATOM      7  O   UNL     1     -24.526   5.455 -13.869  1.00  0.00    -0.544 OA
ATOM      8  O   UNL     1     -26.237   5.114 -15.355  1.00  0.00    -0.544 OA
ENDBRANCH   1   6
TORSDOF 2
ENDMDL
MODEL 3
REMARK VINA RESULT:    -3.142      1.181      1.555
REMARK INTER + INTRA:          -3.418
REMARK INTER:                  -3.418
REMARK INTRA:                   0.000
REMARK UNBOUND:                 0.000
REMARK SMILES [NH3+]CC(=O)[O-]
REMARK SMILES IDX 2 1 1 2 3 6 4 7 5 8
REMARK H PARENT 1 3 1 4 1 5
REMARK Flexibility Score: inf
ROOT
ATOM      1  C   UNL     1     -24.116   4.194 -15.726  1.00  0.00     0.312 C 
ENDROOT
BRANCH   1   2
ATOM      2  N   UNL     1     -23.699   2.921 -15.141  1.00  0.00    -0.353 N 
ATOM      3  H   UNL     1     -22.654   2.870 -15.101  1.00  0.00     0.344 HD
ATOM      4  H   UNL     1     -24.079   2.850 -14.169  1.00  0.00     0.344 HD
ATOM      5  H   UNL     1     -24.070   2.125 -15.709  1.00  0.00     0.344 HD
ENDBRANCH   1   2
BRANCH   1   6
ATOM      6  C   UNL     1     -23.752   5.334 -14.827  1.00  0.00     0.096 C 
ATOM      7  O   UNL     1     -24.515   5.663 -13.880  1.00  0.00    -0.544 OA
ATOM      8  O   UNL     1     -22.595   6.065 -15.065  1.00  0.00    -0.544 OA
ENDBRANCH   1   6
TORSDOF 2
ENDMDL
MODEL 4
REMARK VINA RESULT:    -3.121      2.661      3.208
REMARK INTER + INTRA:          -3.395
REMARK INTER:                  -3.395
REMARK INTRA:                   0.000
REMARK UNBOUND:                 0.000
REMARK SMILES [NH3+]CC(=O)[O-]
REMARK SMILES IDX 2 1 1 2 3 6 4 7 5 8
REMARK H PARENT 1 3 1 4 1 5
REMARK Flexibility Score: inf
ROOT
ATOM      1  C   UNL     1     -25.324   6.583 -13.561  1.00  0.00     0.312 C 
ENDROOT
BRANCH   1   2
ATOM      2  N   UNL     1     -25.141   6.444 -12.118  1.00  0.00    -0.353 N 
ATOM      3  H   UNL     1     -25.325   5.456 -11.826  1.00  0.00     0.344 HD
ATOM      4  H   UNL     1     -24.155   6.692 -11.872  1.00  0.00     0.344 HD
ATOM      5  H   UNL     1     -25.790   7.089 -11.609  1.00  0.00     0.344 HD
ENDBRANCH   1   2
BRANCH   1   6
ATOM      6  C   UNL     1     -24.312   5.766 -14.303  1.00  0.00     0.096 C 
ATOM      7  O   UNL     1     -23.151   6.215 -14.491  1.00  0.00    -0.544 OA
ATOM      8  O   UNL     1     -24.667   4.530 -14.829  1.00  0.00    -0.544 OA
ENDBRANCH   1   6
TORSDOF 2
ENDMDL
MODEL 5
REMARK VINA RESULT:    -3.104      2.628      2.941
REMARK INTER + INTRA:          -3.376
REMARK INTER:                  -3.376
REMARK INTRA:                   0.000
REMARK UNBOUND:                 0.000
REMARK SMILES [NH3+]CC(=O)[O-]
REMARK SMILES IDX 2 1 1 2 3 6 4 7 5 8
REMARK H PARENT 1 3 1 4 1 5
REMARK Flexibility Score: inf
ROOT
ATOM      1  C   UNL     1     -25.323   6.559 -13.598  1.00  0.00     0.312 C 
ENDROOT
BRANCH   1   2
ATOM      2  N   UNL     1     -25.113   6.425 -12.158  1.00  0.00    -0.353 N 
ATOM      3  H   UNL     1     -24.091   6.338 -11.951  1.00  0.00     0.344 HD
ATOM      4  H   UNL     1     -25.485   7.276 -11.677  1.00  0.00     0.344 HD
ATOM      5  H   UNL     1     -25.620   5.583 -11.798  1.00  0.00     0.344 HD
ENDBRANCH   1   2
BRANCH   1   6
ATOM      6  C   UNL     1     -24.343   5.716 -14.355  1.00  0.00     0.096 C 
ATOM      7  O   UNL     1     -24.663   4.559 -14.733  1.00  0.00    -0.544 OA
ATOM      8  O   UNL     1     -23.060   6.191 -14.598  1.00  0.00    -0.544 OA
ENDBRANCH   1   6
TORSDOF 2
ENDMDL
MODEL 6
REMARK VINA RESULT:    -2.996      2.568      2.744
REMARK INTER + INTRA:          -3.259
REMARK INTER:                  -3.259
REMARK INTRA:                   0.000
REMARK UNBOUND:                 0.000
REMARK SMILES [NH3+]CC(=O)[O-]
REMARK SMILES IDX 2 1 1 2 3 6 4 7 5 8
REMARK H PARENT 1 3 1 4 1 5
REMARK Flexibility Score: inf
ROOT
ATOM      1  C   UNL     1     -24.750   6.300 -13.726  1.00  0.00     0.312 C 
ENDROOT
BRANCH   1   2
ATOM      2  N   UNL     1     -25.547   6.457 -12.511  1.00  0.00    -0.353 N 
ATOM      3  H   UNL     1     -26.534   6.161 -12.689  1.00  0.00     0.344 HD
ATOM      4  H   UNL     1     -25.143   5.855 -11.756  1.00  0.00     0.344 HD
ATOM      5  H   UNL     1     -25.528   7.454 -12.195  1.00  0.00     0.344 HD
ENDBRANCH   1   2
BRANCH   1   6
ATOM      6  C   UNL     1     -25.431   5.377 -14.689  1.00  0.00     0.096 C 
ATOM      7  O   UNL     1     -26.611   5.608 -15.060  1.00  0.00    -0.544 OA
ATOM      8  O   UNL     1     -24.778   4.235 -15.136  1.00  0.00    -0.544 OA
ENDBRANCH   1   6
TORSDOF 2
ENDMDL
MODEL 7
REMARK VINA RESULT:    -2.953      2.050      2.121
REMARK INTER + INTRA:          -3.212
REMARK INTER:                  -3.212
REMARK INTRA:                   0.000
REMARK UNBOUND:                 0.000
REMARK SMILES [NH3+]CC(=O)[O-]
REMARK SMILES IDX 2 1 1 2 3 6 4 7 5 8
REMARK H PARENT 1 3 1 4 1 5
REMARK Flexibility Score: inf
ROOT
ATOM      1  C   UNL     1     -23.268   6.579 -14.515  1.00  0.00     0.312 C 
ENDROOT
BRANCH   1   2
ATOM      2  N   UNL     1     -22.436   5.522 -15.088  1.00  0.00    -0.353 N 
ATOM      3  H   UNL     1     -21.435   5.824 -15.108  1.00  0.00     0.344 HD
ATOM      4  H   UNL     1     -22.520   4.662 -14.498  1.00  0.00     0.344 HD
ATOM      5  H   UNL     1     -22.757   5.299 -16.059  1.00  0.00     0.344 HD
ENDBRANCH   1   2
BRANCH   1   6
ATOM      6  C   UNL     1     -24.558   6.017 -14.003  1.00  0.00     0.096 C 
ATOM      7  O   UNL     1     -25.294   5.331 -14.760  1.00  0.00    -0.544 OA
ATOM      8  O   UNL     1     -24.971   6.294 -12.706  1.00  0.00    -0.544 OA
ENDBRANCH   1   6
TORSDOF 2
ENDMDL
MODEL 8
REMARK VINA RESULT:    -2.949      1.968      2.361
REMARK INTER + INTRA:          -3.207
REMARK INTER:                  -3.207
REMARK INTRA:                   0.000
REMARK UNBOUND:                 0.000
REMARK SMILES [NH3+]CC(=O)[O-]
REMARK SMILES IDX 2 1 1 2 3 6 4 7 5 8
REMARK H PARENT 1 3 1 4 1 5
REMARK Flexibility Score: inf
ROOT
ATOM      1  C   UNL     1     -23.840   5.739 -14.584  1.00  0.00     0.312 C 
ENDROOT
BRANCH   1   2
ATOM      2  N   UNL     1     -22.465   5.759 -15.079  1.00  0.00    -0.353 N 
ATOM      3  H   UNL     1     -22.105   4.782 -15.178  1.00  0.00     0.344 HD
ATOM      4  H   UNL     1     -22.445   6.224 -16.016  1.00  0.00     0.344 HD
ATOM      5  H   UNL     1     -21.854   6.297 -14.421  1.00  0.00     0.344 HD
ENDBRANCH   1   2
BRANCH   1   6
ATOM      6  C   UNL     1     -24.569   4.537 -15.098  1.00  0.00     0.096 C 
ATOM      7  O   UNL     1     -24.033   3.399 -15.042  1.00  0.00    -0.544 OA
ATOM      8  O   UNL     1     -25.821   4.680 -15.684  1.00  0.00    -0.544 OA
ENDBRANCH   1   6
TORSDOF 2
ENDMDL
MODEL 9
REMARK VINA RESULT:    -2.855      2.745      2.787
REMARK INTER + INTRA:          -3.106
REMARK INTER:                  -3.106
REMARK INTRA:                   0.000
REMARK UNBOUND:                 0.000
REMARK SMILES [NH3+]CC(=O)[O-]
REMARK SMILES IDX 2 1 1 2 3 6 4 7 5 8
REMARK H PARENT 1 3 1 4 1 5
REMARK Flexibility Score: inf
ROOT
ATOM      1  C   UNL     1     -25.842   5.285 -14.984  1.00  0.00     0.312 C 
ENDROOT
BRANCH   1   2
ATOM      2  N   UNL     1     -27.167   5.897 -15.065  1.00  0.00    -0.353 N 
ATOM      3  H   UNL     1     -27.148   6.709 -15.725  1.00  0.00     0.344 HD
ATOM      4  H   UNL     1     -27.851   5.189 -15.418  1.00  0.00     0.344 HD
ATOM      5  H   UNL     1     -27.472   6.220 -14.117  1.00  0.00     0.344 HD
ENDBRANCH   1   2
BRANCH   1   6
ATOM      6  C   UNL     1     -24.960   6.058 -14.053  1.00  0.00     0.096 C 
ATOM      7  O   UNL     1     -25.424   6.520 -12.978  1.00  0.00    -0.544 OA
ATOM      8  O   UNL     1     -23.637   6.309 -14.397  1.00  0.00    -0.544 OA
ENDBRANCH   1   6
TORSDOF 2
ENDMDL
