MODEL 1
REMARK VINA RESULT:    36.441      0.000      0.000
REMARK INTER + INTRA:          45.422
REMARK INTER:                  44.963
REMARK INTRA:                   0.459
REMARK UNBOUND:                 0.459
REMARK SMILES COc1cc(-c2oc3cc(O)cc(O)c3c(=O)c2O)ccc1O
REMARK SMILES IDX 6 1 18 2 16 3 17 4 15 5 13 6 12 7 10 8 9 9 8 10 7 11 5 12
REMARK SMILES IDX 3 13 22 14 4 15 21 16 20 17 2 18 1 19 23 20 19 22 14 24
REMARK SMILES IDX 11 26
REMARK H PARENT 23 21 19 23 14 25 11 27
REMARK Flexibility Score: inf
ROOT
ATOM      1  C   UNL     1       8.345   3.851  18.105  1.00  0.00     0.180 A 
ATOM      2  C   UNL     1       9.274   2.798  18.002  1.00  0.00     0.208 A 
ATOM      3  C   UNL     1       8.804   1.476  18.000  1.00  0.00     0.238 A 
ATOM      4  O   UNL     1       9.628   0.526  17.920  1.00  0.00    -0.285 OA
ATOM      5  C   UNL     1       7.418   1.229  18.078  1.00  0.00     0.111 A 
ATOM      6  C   UNL     1       6.863  -0.074  18.077  1.00  0.00     0.134 A 
ATOM      7  C   UNL     1       5.471  -0.236  18.149  1.00  0.00     0.093 A 
ATOM      8  C   UNL     1       4.627   0.874  18.220  1.00  0.00     0.123 A 
ATOM      9  C   UNL     1       5.170   2.163  18.222  1.00  0.00     0.094 A 
ATOM     10  C   UNL     1       6.553   2.346  18.153  1.00  0.00     0.146 A 
ATOM     11  O   UNL     1       7.044   3.581  18.161  1.00  0.00    -0.452 OA
ENDROOT
BRANCH   1  12
ATOM     12  C   UNL     1       8.764   5.272  18.133  1.00  0.00     0.025 A 
ATOM     13  C   UNL     1       8.249   7.651  18.360  1.00  0.00     0.161 A 
ATOM     14  C   UNL     1       9.596   7.958  18.124  1.00  0.00     0.157 A 
ATOM     15  C   UNL     1       7.836   6.304  18.357  1.00  0.00     0.062 A 
ATOM     16  C   UNL     1      10.518   6.933  17.880  1.00  0.00     0.051 A 
ATOM     17  C   UNL     1      10.103   5.599  17.877  1.00  0.00     0.016 A 
BRANCH  13  18
ATOM     18  O   UNL     1       7.353   8.708  18.590  1.00  0.00    -0.493 OA
ATOM     19  C   UNL     1       6.124   8.889  17.894  1.00  0.00     0.278 C 
ENDBRANCH  13  18
BRANCH  14  20
ATOM     20  O   UNL     1      10.011   9.289  18.129  1.00  0.00    -0.504 OA
ATOM     21  H   UNL     1       9.361  10.047  18.298  1.00  0.00     0.293 HD
ENDBRANCH  14  20
ENDBRANCH   1  12
BRANCH   2  22
ATOM     22  O   UNL     1      10.639   3.072  17.876  1.00  0.00    -0.502 OA
ATOM     23  H   UNL     1      11.193   2.723  17.104  1.00  0.00     0.293 HD
ENDBRANCH   2  22
BRANCH   6  24
ATOM     24  O   UNL     1       7.679  -1.203  18.006  1.00  0.00    -0.507 OA
ATOM     25  H   UNL     1       7.506  -1.945  17.338  1.00  0.00     0.293 HD
ENDBRANCH   6  24
BRANCH   8  26
ATOM     26  O   UNL     1       3.248   0.685  18.290  1.00  0.00    -0.508 OA
ATOM     27  H   UNL     1       2.717   0.366  17.488  1.00  0.00     0.293 HD
ENDBRANCH   8  26
TORSDOF 6
ENDMDL
MODEL 2
REMARK VINA RESULT:    36.786      1.584      6.853
REMARK INTER + INTRA:          45.848
REMARK INTER:                  44.903
REMARK INTRA:                   0.945
REMARK UNBOUND:                 0.459
REMARK SMILES COc1cc(-c2oc3cc(O)cc(O)c3c(=O)c2O)ccc1O
REMARK SMILES IDX 6 1 18 2 16 3 17 4 15 5 13 6 12 7 10 8 9 9 8 10 7 11 5 12
REMARK SMILES IDX 3 13 22 14 4 15 21 16 20 17 2 18 1 19 23 20 19 22 14 24
REMARK SMILES IDX 11 26
REMARK H PARENT 23 21 19 23 14 25 11 27
REMARK Flexibility Score: inf
ROOT
ATOM      1  C   UNL     1       7.347   3.429  18.970  1.00  0.00     0.180 A 
ATOM      2  C   UNL     1       8.743   3.273  18.863  1.00  0.00     0.208 A 
ATOM      3  C   UNL     1       9.529   4.392  18.545  1.00  0.00     0.238 A 
ATOM      4  O   UNL     1      10.777   4.261  18.436  1.00  0.00    -0.285 OA
ATOM      5  C   UNL     1       8.912   5.647  18.361  1.00  0.00     0.111 A 
ATOM      6  C   UNL     1       9.633   6.823  18.043  1.00  0.00     0.134 A 
ATOM      7  C   UNL     1       8.947   8.037  17.883  1.00  0.00     0.093 A 
ATOM      8  C   UNL     1       7.560   8.097  18.038  1.00  0.00     0.123 A 
ATOM      9  C   UNL     1       6.843   6.938  18.351  1.00  0.00     0.094 A 
ATOM     10  C   UNL     1       7.507   5.719  18.512  1.00  0.00     0.146 A 
ATOM     11  O   UNL     1       6.802   4.631  18.805  1.00  0.00    -0.452 OA
ENDROOT
BRANCH   1  12
ATOM     12  C   UNL     1       6.450   2.294  19.283  1.00  0.00     0.025 A 
ATOM     13  C   UNL     1       4.518   0.886  18.765  1.00  0.00     0.161 A 
ATOM     14  C   UNL     1       4.738   0.163  19.946  1.00  0.00     0.157 A 
ATOM     15  C   UNL     1       5.375   1.957  18.441  1.00  0.00     0.062 A 
ATOM     16  C   UNL     1       5.794   0.510  20.796  1.00  0.00     0.051 A 
ATOM     17  C   UNL     1       6.640   1.573  20.471  1.00  0.00     0.016 A 
BRANCH  13  18
ATOM     18  O   UNL     1       3.442   0.514  17.944  1.00  0.00    -0.493 OA
ATOM     19  C   UNL     1       2.630  -0.637  18.151  1.00  0.00     0.278 C 
ENDBRANCH  13  18
BRANCH  14  20
ATOM     20  O   UNL     1       3.896  -0.900  20.270  1.00  0.00    -0.504 OA
ATOM     21  H   UNL     1       2.900  -0.767  20.400  1.00  0.00     0.293 HD
ENDBRANCH  14  20
ENDBRANCH   1  12
BRANCH   2  22
ATOM     22  O   UNL     1       9.333   2.029  19.099  1.00  0.00    -0.502 OA
ATOM     23  H   UNL     1      10.338   1.898  19.107  1.00  0.00     0.293 HD
ENDBRANCH   2  22
BRANCH   6  24
ATOM     24  O   UNL     1      11.018   6.797  17.884  1.00  0.00    -0.507 OA
ATOM     25  H   UNL     1      11.477   6.088  17.323  1.00  0.00     0.293 HD
ENDBRANCH   6  24
BRANCH   8  26
ATOM     26  O   UNL     1       6.903   9.315  17.875  1.00  0.00    -0.508 OA
ATOM     27  H   UNL     1       6.848   9.770  16.971  1.00  0.00     0.293 HD
ENDBRANCH   8  26
TORSDOF 6
ENDMDL
MODEL 3
REMARK VINA RESULT:    37.124      1.039      2.101
REMARK INTER + INTRA:          46.264
REMARK INTER:                  45.858
REMARK INTRA:                   0.406
REMARK UNBOUND:                 0.459
REMARK SMILES COc1cc(-c2oc3cc(O)cc(O)c3c(=O)c2O)ccc1O
REMARK SMILES IDX 6 1 18 2 16 3 17 4 15 5 13 6 12 7 10 8 9 9 8 10 7 11 5 12
REMARK SMILES IDX 3 13 22 14 4 15 21 16 20 17 2 18 1 19 23 20 19 22 14 24
REMARK SMILES IDX 11 26
REMARK H PARENT 23 21 19 23 14 25 11 27
REMARK Flexibility Score: inf
ROOT
ATOM      1  C   UNL     1       7.760   4.556  18.057  1.00  0.00     0.180 A 
ATOM      2  C   UNL     1       9.016   3.921  18.005  1.00  0.00     0.208 A 
ATOM      3  C   UNL     1       9.071   2.519  18.056  1.00  0.00     0.238 A 
ATOM      4  O   UNL     1      10.190   1.941  18.022  1.00  0.00    -0.285 OA
ATOM      5  C   UNL     1       7.874   1.778  18.137  1.00  0.00     0.111 A 
ATOM      6  C   UNL     1       7.841   0.363  18.188  1.00  0.00     0.134 A 
ATOM      7  C   UNL     1       6.608  -0.302  18.258  1.00  0.00     0.093 A 
ATOM      8  C   UNL     1       5.411   0.417  18.276  1.00  0.00     0.123 A 
ATOM      9  C   UNL     1       5.437   1.815  18.226  1.00  0.00     0.094 A 
ATOM     10  C   UNL     1       6.655   2.496  18.158  1.00  0.00     0.146 A 
ATOM     11  O   UNL     1       6.651   3.824  18.117  1.00  0.00    -0.452 OA
ENDROOT
BRANCH   1  12
ATOM     12  C   UNL     1       7.622   6.030  18.027  1.00  0.00     0.025 A 
ATOM     13  C   UNL     1       8.600   8.270  17.953  1.00  0.00     0.161 A 
ATOM     14  C   UNL     1       7.315   8.826  18.028  1.00  0.00     0.157 A 
ATOM     15  C   UNL     1       8.749   6.870  17.960  1.00  0.00     0.062 A 
ATOM     16  C   UNL     1       6.194   7.992  18.117  1.00  0.00     0.051 A 
ATOM     17  C   UNL     1       6.347   6.604  18.123  1.00  0.00     0.016 A 
BRANCH  13  18
ATOM     18  O   UNL     1       9.700   9.139  17.877  1.00  0.00    -0.493 OA
ATOM     19  C   UNL     1      11.062   8.720  17.888  1.00  0.00     0.278 C 
ENDBRANCH  13  18
BRANCH  14  20
ATOM     20  O   UNL     1       7.161  10.211  18.019  1.00  0.00    -0.504 OA
ATOM     21  H   UNL     1       6.309  10.648  17.687  1.00  0.00     0.293 HD
ENDBRANCH  14  20
ENDBRANCH   1  12
BRANCH   2  22
ATOM     22  O   UNL     1      10.184   4.677  17.876  1.00  0.00    -0.502 OA
ATOM     23  H   UNL     1      10.193   5.684  17.986  1.00  0.00     0.293 HD
ENDBRANCH   2  22
BRANCH   6  24
ATOM     24  O   UNL     1       9.020  -0.383  18.170  1.00  0.00    -0.507 OA
ATOM     25  H   UNL     1       9.268  -1.006  18.930  1.00  0.00     0.293 HD
ENDBRANCH   6  24
BRANCH   8  26
ATOM     26  O   UNL     1       4.200  -0.268  18.346  1.00  0.00    -0.508 OA
ATOM     27  H   UNL     1       4.071  -1.162  17.885  1.00  0.00     0.293 HD
ENDBRANCH   8  26
TORSDOF 6
ENDMDL
MODEL 4
REMARK VINA RESULT:    38.643      1.783      6.950
REMARK INTER + INTRA:          48.138
REMARK INTER:                  48.376
REMARK INTRA:                  -0.238
REMARK UNBOUND:                 0.459
REMARK SMILES COc1cc(-c2oc3cc(O)cc(O)c3c(=O)c2O)ccc1O
REMARK SMILES IDX 6 1 18 2 16 3 17 4 15 5 13 6 12 7 10 8 9 9 8 10 7 11 5 12
REMARK SMILES IDX 3 13 22 14 4 15 21 16 20 17 2 18 1 19 23 20 19 22 14 24
REMARK SMILES IDX 11 26
REMARK H PARENT 23 21 19 23 14 25 11 27
REMARK Flexibility Score: inf
ROOT
ATOM      1  C   UNL     1       7.262   3.618  18.749  1.00  0.00     0.180 A 
ATOM      2  C   UNL     1       8.655   3.429  18.667  1.00  0.00     0.208 A 
ATOM      3  C   UNL     1       9.476   4.538  18.410  1.00  0.00     0.238 A 
ATOM      4  O   UNL     1      10.723   4.379  18.323  1.00  0.00    -0.285 OA
ATOM      5  C   UNL     1       8.896   5.815  18.261  1.00  0.00     0.111 A 
ATOM      6  C   UNL     1       9.653   6.984  18.005  1.00  0.00     0.134 A 
ATOM      7  C   UNL     1       9.002   8.220  17.878  1.00  0.00     0.093 A 
ATOM      8  C   UNL     1       7.613   8.310  18.004  1.00  0.00     0.123 A 
ATOM      9  C   UNL     1       6.861   7.159  18.257  1.00  0.00     0.094 A 
ATOM     10  C   UNL     1       7.490   5.918  18.384  1.00  0.00     0.146 A 
ATOM     11  O   UNL     1       6.751   4.839  18.619  1.00  0.00    -0.452 OA
ENDROOT
BRANCH   1  12
ATOM     12  C   UNL     1       6.329   2.494  18.998  1.00  0.00     0.025 A 
ATOM     13  C   UNL     1       5.473   0.699  20.420  1.00  0.00     0.161 A 
ATOM     14  C   UNL     1       4.576   0.333  19.406  1.00  0.00     0.157 A 
ATOM     15  C   UNL     1       6.353   1.778  20.208  1.00  0.00     0.062 A 
ATOM     16  C   UNL     1       4.565   1.032  18.193  1.00  0.00     0.051 A 
ATOM     17  C   UNL     1       5.440   2.101  17.988  1.00  0.00     0.016 A 
BRANCH  13  18
ATOM     18  O   UNL     1       5.461  -0.033  21.618  1.00  0.00    -0.493 OA
ATOM     19  C   UNL     1       6.484  -0.939  22.019  1.00  0.00     0.278 C 
ENDBRANCH  13  18
BRANCH  14  20
ATOM     20  O   UNL     1       3.700  -0.731  19.611  1.00  0.00    -0.504 OA
ATOM     21  H   UNL     1       3.603  -1.172  20.519  1.00  0.00     0.293 HD
ENDBRANCH  14  20
ENDBRANCH   1  12
BRANCH   2  22
ATOM     22  O   UNL     1       9.208   2.161  18.866  1.00  0.00    -0.502 OA
ATOM     23  H   UNL     1       8.910   1.551  19.618  1.00  0.00     0.293 HD
ENDBRANCH   2  22
BRANCH   6  24
ATOM     24  O   UNL     1      11.041   6.927  17.875  1.00  0.00    -0.507 OA
ATOM     25  H   UNL     1      11.658   7.380  18.539  1.00  0.00     0.293 HD
ENDBRANCH   6  24
BRANCH   8  26
ATOM     26  O   UNL     1       6.992   9.550  17.875  1.00  0.00    -0.508 OA
ATOM     27  H   UNL     1       6.826  10.146  18.678  1.00  0.00     0.293 HD
ENDBRANCH   8  26
TORSDOF 6
ENDMDL
MODEL 5
REMARK VINA RESULT:    39.408      2.170      4.040
REMARK INTER + INTRA:          49.082
REMARK INTER:                  49.475
REMARK INTRA:                  -0.393
REMARK UNBOUND:                 0.459
REMARK SMILES COc1cc(-c2oc3cc(O)cc(O)c3c(=O)c2O)ccc1O
REMARK SMILES IDX 6 1 18 2 16 3 17 4 15 5 13 6 12 7 10 8 9 9 8 10 7 11 5 12
REMARK SMILES IDX 3 13 22 14 4 15 21 16 20 17 2 18 1 19 23 20 19 22 14 24
REMARK SMILES IDX 11 26
REMARK H PARENT 23 21 19 23 14 25 11 27
REMARK Flexibility Score: inf
ROOT
ATOM      1  C   UNL     1       7.485   5.560  18.973  1.00  0.00     0.180 A 
ATOM      2  C   UNL     1       6.363   4.712  19.046  1.00  0.00     0.208 A 
ATOM      3  C   UNL     1       6.538   3.335  18.840  1.00  0.00     0.238 A 
ATOM      4  O   UNL     1       5.539   2.569  18.891  1.00  0.00    -0.285 OA
ATOM      5  C   UNL     1       7.829   2.827  18.587  1.00  0.00     0.111 A 
ATOM      6  C   UNL     1       8.092   1.452  18.374  1.00  0.00     0.134 A 
ATOM      7  C   UNL     1       9.407   1.023  18.138  1.00  0.00     0.093 A 
ATOM      8  C   UNL     1      10.461   1.940  18.113  1.00  0.00     0.123 A 
ATOM      9  C   UNL     1      10.207   3.299  18.322  1.00  0.00     0.094 A 
ATOM     10  C   UNL     1       8.904   3.746  18.557  1.00  0.00     0.146 A 
ATOM     11  O   UNL     1       8.690   5.044  18.748  1.00  0.00    -0.452 OA
ENDROOT
BRANCH   1  12
ATOM     12  C   UNL     1       7.378   7.025  19.159  1.00  0.00     0.025 A 
ATOM     13  C   UNL     1       7.291   8.999  20.601  1.00  0.00     0.161 A 
ATOM     14  C   UNL     1       7.116   9.808  19.469  1.00  0.00     0.157 A 
ATOM     15  C   UNL     1       7.415   7.605  20.440  1.00  0.00     0.062 A 
ATOM     16  C   UNL     1       7.058   9.231  18.195  1.00  0.00     0.051 A 
ATOM     17  C   UNL     1       7.181   7.848  18.041  1.00  0.00     0.016 A 
BRANCH  13  18
ATOM     18  O   UNL     1       7.333   9.613  21.862  1.00  0.00    -0.493 OA
ATOM     19  C   UNL     1       6.298   9.528  22.836  1.00  0.00     0.278 C 
ENDBRANCH  13  18
BRANCH  14  20
ATOM     20  O   UNL     1       6.996  11.189  19.621  1.00  0.00    -0.504 OA
ATOM     21  H   UNL     1       6.200  11.695  19.253  1.00  0.00     0.293 HD
ENDBRANCH  14  20
ENDBRANCH   1  12
BRANCH   2  22
ATOM     22  O   UNL     1       5.102   5.235  19.345  1.00  0.00    -0.502 OA
ATOM     23  H   UNL     1       4.273   4.988  18.817  1.00  0.00     0.293 HD
ENDBRANCH   2  22
BRANCH   6  24
ATOM     24  O   UNL     1       7.061   0.512  18.394  1.00  0.00    -0.507 OA
ATOM     25  H   UNL     1       7.246  -0.481  18.473  1.00  0.00     0.293 HD
ENDBRANCH   6  24
BRANCH   8  26
ATOM     26  O   UNL     1      11.757   1.487  17.877  1.00  0.00    -0.508 OA
ATOM     27  H   UNL     1      12.546   2.124  17.864  1.00  0.00     0.293 HD
ENDBRANCH   8  26
TORSDOF 6
ENDMDL
