MODEL 1
REMARK VINA RESULT:    -5.746      0.000      0.000
REMARK INTER + INTRA:         -11.858
REMARK INTER:                 -10.784
REMARK INTRA:                  -1.074
REMARK UNBOUND:                -1.074
REMARK SMILES O=C([O-])CCCCCCCCCCCCCCC(=O)[O-]
REMARK SMILES IDX 10 1 9 2 8 3 7 4 6 5 5 6 4 7 2 8 1 9 3 10 11 11 12 12 13 13
REMARK SMILES IDX 14 14 15 15 16 16 17 17 18 18 19 19 20 20
REMARK H PARENT
REMARK Flexibility Score: inf
ROOT
ATOM      1  C   UNL     1      14.811   6.691 -20.872  1.00  0.00     0.000 C 
ENDROOT
BRANCH   1   2
ATOM      2  C   UNL     1      13.414   7.154 -20.426  1.00  0.00     0.000 C 
BRANCH   2   3
ATOM      3  C   UNL     1      13.339   7.435 -18.917  1.00  0.00     0.000 C 
BRANCH   3   4
ATOM      4  C   UNL     1      12.100   8.255 -18.527  1.00  0.00     0.000 C 
BRANCH   4   5
ATOM      5  C   UNL     1      11.685   9.196 -19.664  1.00  0.00     0.000 C 
BRANCH   5   6
ATOM      6  C   UNL     1      10.693  10.258 -19.167  1.00  0.00     0.006 C 
BRANCH   6   7
ATOM      7  C   UNL     1      10.806  11.571 -19.951  1.00  0.00     0.053 C 
BRANCH   7   8
ATOM      8  C   UNL     1       9.475  12.237 -20.116  1.00  0.00     0.041 C 
ATOM      9  O   UNL     1       8.582  11.702 -20.826  1.00  0.00    -0.550 OA
ATOM     10  O   UNL     1       9.230  13.464 -19.513  1.00  0.00    -0.550 OA
ENDBRANCH   7   8
ENDBRANCH   6   7
ENDBRANCH   5   6
ENDBRANCH   4   5
ENDBRANCH   3   4
ENDBRANCH   2   3
ENDBRANCH   1   2
BRANCH   1  11
ATOM     11  C   UNL     1      15.409   7.590 -21.966  1.00  0.00     0.000 C 
BRANCH  11  12
ATOM     12  C   UNL     1      16.292   8.714 -21.395  1.00  0.00     0.000 C 
BRANCH  12  13
ATOM     13  C   UNL     1      16.800   8.401 -19.979  1.00  0.00     0.000 C 
BRANCH  13  14
ATOM     14  C   UNL     1      17.768   9.475 -19.450  1.00  0.00     0.000 C 
BRANCH  14  15
ATOM     15  C   UNL     1      18.963   9.705 -20.387  1.00  0.00     0.000 C 
BRANCH  15  16
ATOM     16  C   UNL     1      19.052  11.158 -20.886  1.00  0.00     0.006 C 
BRANCH  16  17
ATOM     17  C   UNL     1      17.749  11.933 -20.647  1.00  0.00     0.053 C 
BRANCH  17  18
ATOM     18  C   UNL     1      17.983  13.183 -19.855  1.00  0.00     0.041 C 
ATOM     19  O   UNL     1      19.157  13.571 -19.616  1.00  0.00    -0.550 OA
ATOM     20  O   UNL     1      16.906  13.900 -19.351  1.00  0.00    -0.550 OA
ENDBRANCH  17  18
ENDBRANCH  16  17
ENDBRANCH  15  16
ENDBRANCH  14  15
ENDBRANCH  13  14
ENDBRANCH  12  13
ENDBRANCH  11  12
ENDBRANCH   1  11
TORSDOF 15
ENDMDL
MODEL 2
REMARK VINA RESULT:    -5.641      0.790      1.742
REMARK INTER + INTRA:         -11.661
REMARK INTER:                 -10.629
REMARK INTRA:                  -1.033
REMARK UNBOUND:                -1.074
REMARK SMILES O=C([O-])CCCCCCCCCCCCCCC(=O)[O-]
REMARK SMILES IDX 10 1 9 2 8 3 7 4 6 5 5 6 4 7 2 8 1 9 3 10 11 11 12 12 13 13
REMARK SMILES IDX 14 14 15 15 16 16 17 17 18 18 19 19 20 20
REMARK H PARENT
REMARK Flexibility Score: inf
ROOT
ATOM      1  C   UNL     1      13.394   7.306 -20.374  1.00  0.00     0.000 C 
ENDROOT
BRANCH   1   2
ATOM      2  C   UNL     1      13.328   7.347 -18.838  1.00  0.00     0.000 C 
BRANCH   2   3
ATOM      3  C   UNL     1      12.345   8.408 -18.318  1.00  0.00     0.000 C 
BRANCH   3   4
ATOM      4  C   UNL     1      11.639   9.168 -19.451  1.00  0.00     0.000 C 
BRANCH   4   5
ATOM      5  C   UNL     1      10.784  10.313 -18.893  1.00  0.00     0.000 C 
BRANCH   5   6
ATOM      6  C   UNL     1      10.349  11.271 -20.012  1.00  0.00     0.006 C 
BRANCH   6   7
ATOM      7  C   UNL     1       9.706  12.551 -19.463  1.00  0.00     0.053 C 
BRANCH   7   8
ATOM      8  C   UNL     1       8.781  13.180 -20.458  1.00  0.00     0.041 C 
ATOM      9  O   UNL     1       8.770  14.431 -20.612  1.00  0.00    -0.550 OA
ATOM     10  O   UNL     1       7.906  12.390 -21.193  1.00  0.00    -0.550 OA
ENDBRANCH   7   8
ENDBRANCH   6   7
ENDBRANCH   5   6
ENDBRANCH   4   5
ENDBRANCH   3   4
ENDBRANCH   2   3
ENDBRANCH   1   2
BRANCH   1  11
ATOM     11  C   UNL     1      14.477   6.345 -20.892  1.00  0.00     0.000 C 
BRANCH  11  12
ATOM     12  C   UNL     1      15.565   7.063 -21.711  1.00  0.00     0.000 C 
BRANCH  12  13
ATOM     13  C   UNL     1      15.213   8.531 -21.999  1.00  0.00     0.000 C 
BRANCH  13  14
ATOM     14  C   UNL     1      16.382   9.487 -21.699  1.00  0.00     0.000 C 
BRANCH  14  15
ATOM     15  C   UNL     1      17.307   8.957 -20.593  1.00  0.00     0.000 C 
BRANCH  15  16
ATOM     16  C   UNL     1      18.410   9.962 -20.215  1.00  0.00     0.006 C 
BRANCH  16  17
ATOM     17  C   UNL     1      18.368  11.225 -21.087  1.00  0.00     0.053 C 
BRANCH  17  18
ATOM     18  C   UNL     1      18.224  12.466 -20.260  1.00  0.00     0.041 C 
ATOM     19  O   UNL     1      19.230  13.180 -20.010  1.00  0.00    -0.550 OA
ATOM     20  O   UNL     1      16.986  12.815 -19.737  1.00  0.00    -0.550 OA
ENDBRANCH  17  18
ENDBRANCH  16  17
ENDBRANCH  15  16
ENDBRANCH  14  15
ENDBRANCH  13  14
ENDBRANCH  12  13
ENDBRANCH  11  12
ENDBRANCH   1  11
TORSDOF 15
ENDMDL
MODEL 3
REMARK VINA RESULT:    -5.544      0.824      7.248
REMARK INTER + INTRA:         -11.480
REMARK INTER:                 -10.711
REMARK INTRA:                  -0.769
REMARK UNBOUND:                -1.074
REMARK SMILES O=C([O-])CCCCCCCCCCCCCCC(=O)[O-]
REMARK SMILES IDX 10 1 9 2 8 3 7 4 6 5 5 6 4 7 2 8 1 9 3 10 11 11 12 12 13 13
REMARK SMILES IDX 14 14 15 15 16 16 17 17 18 18 19 19 20 20
REMARK H PARENT
REMARK Flexibility Score: inf
ROOT
ATOM      1  C   UNL     1      15.005   7.071 -20.404  1.00  0.00     0.000 C 
ENDROOT
BRANCH   1   2
ATOM      2  C   UNL     1      15.632   7.493 -21.743  1.00  0.00     0.000 C 
BRANCH   2   3
ATOM      3  C   UNL     1      16.406   8.817 -21.642  1.00  0.00     0.000 C 
BRANCH   3   4
ATOM      4  C   UNL     1      17.160   8.963 -20.312  1.00  0.00     0.000 C 
BRANCH   4   5
ATOM      5  C   UNL     1      17.974  10.262 -20.282  1.00  0.00     0.000 C 
BRANCH   5   6
ATOM      6  C   UNL     1      17.801  11.051 -21.588  1.00  0.00     0.006 C 
BRANCH   6   7
ATOM      7  C   UNL     1      18.385  12.466 -21.494  1.00  0.00     0.053 C 
BRANCH   7   8
ATOM      8  C   UNL     1      18.038  13.126 -20.196  1.00  0.00     0.041 C 
ATOM      9  O   UNL     1      18.946  13.434 -19.378  1.00  0.00    -0.550 OA
ATOM     10  O   UNL     1      16.709  13.371 -19.872  1.00  0.00    -0.550 OA
ENDBRANCH   7   8
ENDBRANCH   6   7
ENDBRANCH   5   6
ENDBRANCH   4   5
ENDBRANCH   3   4
ENDBRANCH   2   3
ENDBRANCH   1   2
BRANCH   1  11
ATOM     11  C   UNL     1      13.481   7.268 -20.378  1.00  0.00     0.000 C 
BRANCH  11  12
ATOM     12  C   UNL     1      12.893   7.168 -18.959  1.00  0.00     0.000 C 
BRANCH  12  13
ATOM     13  C   UNL     1      12.399   8.523 -18.429  1.00  0.00     0.000 C 
BRANCH  13  14
ATOM     14  C   UNL     1      11.434   9.221 -19.405  1.00  0.00     0.000 C 
BRANCH  14  15
ATOM     15  C   UNL     1      10.828  10.505 -18.818  1.00  0.00     0.000 C 
BRANCH  15  16
ATOM     16  C   UNL     1      10.632  11.604 -19.877  1.00  0.00     0.006 C 
BRANCH  16  17
ATOM     17  C   UNL     1       9.554  12.617 -19.468  1.00  0.00     0.053 C 
BRANCH  17  18
ATOM     18  C   UNL     1       8.575  12.864 -20.575  1.00  0.00     0.041 C 
ATOM     19  O   UNL     1       7.969  11.899 -21.112  1.00  0.00    -0.550 OA
ATOM     20  O   UNL     1       8.358  14.155 -21.037  1.00  0.00    -0.550 OA
ENDBRANCH  17  18
ENDBRANCH  16  17
ENDBRANCH  15  16
ENDBRANCH  14  15
ENDBRANCH  13  14
ENDBRANCH  12  13
ENDBRANCH  11  12
ENDBRANCH   1  11
TORSDOF 15
ENDMDL
MODEL 4
REMARK VINA RESULT:    -5.493      1.168      6.773
REMARK INTER + INTRA:         -11.384
REMARK INTER:                 -10.127
REMARK INTRA:                  -1.257
REMARK UNBOUND:                -1.074
REMARK SMILES O=C([O-])CCCCCCCCCCCCCCC(=O)[O-]
REMARK SMILES IDX 10 1 9 2 8 3 7 4 6 5 5 6 4 7 2 8 1 9 3 10 11 11 12 12 13 13
REMARK SMILES IDX 14 14 15 15 16 16 17 17 18 18 19 19 20 20
REMARK H PARENT
REMARK Flexibility Score: inf
ROOT
ATOM      1  C   UNL     1      16.647   8.583 -19.712  1.00  0.00     0.000 C 
ENDROOT
BRANCH   1   2
ATOM      2  C   UNL     1      17.921   9.254 -19.171  1.00  0.00     0.000 C 
BRANCH   2   3
ATOM      3  C   UNL     1      19.135   9.045 -20.091  1.00  0.00     0.000 C 
BRANCH   3   4
ATOM      4  C   UNL     1      19.795  10.367 -20.511  1.00  0.00     0.000 C 
BRANCH   4   5
ATOM      5  C   UNL     1      19.068  10.986 -21.711  1.00  0.00     0.000 C 
BRANCH   5   6
ATOM      6  C   UNL     1      18.678  12.444 -21.428  1.00  0.00     0.006 C 
BRANCH   6   7
ATOM      7  C   UNL     1      17.476  12.551 -20.482  1.00  0.00     0.053 C 
BRANCH   7   8
ATOM      8  C   UNL     1      17.215  13.967 -20.072  1.00  0.00     0.041 C 
ATOM      9  O   UNL     1      17.061  14.258 -18.856  1.00  0.00    -0.550 OA
ATOM     10  O   UNL     1      17.107  14.962 -21.036  1.00  0.00    -0.550 OA
ENDBRANCH   7   8
ENDBRANCH   6   7
ENDBRANCH   5   6
ENDBRANCH   4   5
ENDBRANCH   3   4
ENDBRANCH   2   3
ENDBRANCH   1   2
BRANCH   1  11
ATOM     11  C   UNL     1      16.601   8.558 -21.248  1.00  0.00     0.000 C 
BRANCH  11  12
ATOM     12  C   UNL     1      15.555   7.571 -21.795  1.00  0.00     0.000 C 
BRANCH  12  13
ATOM     13  C   UNL     1      14.882   6.750 -20.684  1.00  0.00     0.000 C 
BRANCH  13  14
ATOM     14  C   UNL     1      13.437   7.204 -20.407  1.00  0.00     0.000 C 
BRANCH  14  15
ATOM     15  C   UNL     1      13.120   7.279 -18.906  1.00  0.00     0.000 C 
BRANCH  15  16
ATOM     16  C   UNL     1      11.942   8.219 -18.597  1.00  0.00     0.006 C 
BRANCH  16  17
ATOM     17  C   UNL     1      11.726   9.259 -19.705  1.00  0.00     0.053 C 
BRANCH  17  18
ATOM     18  C   UNL     1      10.825  10.369 -19.257  1.00  0.00     0.041 C 
ATOM     19  O   UNL     1      10.802  10.717 -18.047  1.00  0.00    -0.550 OA
ATOM     20  O   UNL     1       9.985  10.996 -20.168  1.00  0.00    -0.550 OA
ENDBRANCH  17  18
ENDBRANCH  16  17
ENDBRANCH  15  16
ENDBRANCH  14  15
ENDBRANCH  13  14
ENDBRANCH  12  13
ENDBRANCH  11  12
ENDBRANCH   1  11
TORSDOF 15
ENDMDL
MODEL 5
REMARK VINA RESULT:    -5.441      1.501      7.034
REMARK INTER + INTRA:         -11.286
REMARK INTER:                 -10.276
REMARK INTRA:                  -1.010
REMARK UNBOUND:                -1.074
REMARK SMILES O=C([O-])CCCCCCCCCCCCCCC(=O)[O-]
REMARK SMILES IDX 10 1 9 2 8 3 7 4 6 5 5 6 4 7 2 8 1 9 3 10 11 11 12 12 13 13
REMARK SMILES IDX 14 14 15 15 16 16 17 17 18 18 19 19 20 20
REMARK H PARENT
REMARK Flexibility Score: inf
ROOT
ATOM      1  C   UNL     1      13.490   7.313 -20.433  1.00  0.00     0.000 C 
ENDROOT
BRANCH   1   2
ATOM      2  C   UNL     1      14.826   6.638 -20.789  1.00  0.00     0.000 C 
BRANCH   2   3
ATOM      3  C   UNL     1      15.655   7.461 -21.788  1.00  0.00     0.000 C 
BRANCH   3   4
ATOM      4  C   UNL     1      16.103   8.814 -21.214  1.00  0.00     0.000 C 
BRANCH   4   5
ATOM      5  C   UNL     1      17.124   8.621 -20.087  1.00  0.00     0.000 C 
BRANCH   5   6
ATOM      6  C   UNL     1      17.886   9.924 -19.804  1.00  0.00     0.006 C 
BRANCH   6   7
ATOM      7  C   UNL     1      17.563  11.020 -20.826  1.00  0.00     0.053 C 
BRANCH   7   8
ATOM      8  C   UNL     1      17.666  12.388 -20.226  1.00  0.00     0.041 C 
ATOM      9  O   UNL     1      18.775  12.816 -19.808  1.00  0.00    -0.550 OA
ATOM     10  O   UNL     1      16.531  13.179 -20.095  1.00  0.00    -0.550 OA
ENDBRANCH   7   8
ENDBRANCH   6   7
ENDBRANCH   5   6
ENDBRANCH   4   5
ENDBRANCH   3   4
ENDBRANCH   2   3
ENDBRANCH   1   2
BRANCH   1  11
ATOM     11  C   UNL     1      13.153   7.201 -18.938  1.00  0.00     0.000 C 
BRANCH  11  12
ATOM     12  C   UNL     1      12.431   8.448 -18.396  1.00  0.00     0.000 C 
BRANCH  12  13
ATOM     13  C   UNL     1      11.603   9.164 -19.475  1.00  0.00     0.000 C 
BRANCH  13  14
ATOM     14  C   UNL     1      10.796  10.347 -18.910  1.00  0.00     0.000 C 
BRANCH  14  15
ATOM     15  C   UNL     1      11.025  10.551 -17.405  1.00  0.00     0.000 C 
BRANCH  15  16
ATOM     16  C   UNL     1      10.604  11.952 -16.928  1.00  0.00     0.006 C 
BRANCH  16  17
ATOM     17  C   UNL     1      10.011  12.797 -18.065  1.00  0.00     0.053 C 
BRANCH  17  18
ATOM     18  C   UNL     1       9.508  14.119 -17.570  1.00  0.00     0.041 C 
ATOM     19  O   UNL     1       9.038  14.223 -16.406  1.00  0.00    -0.550 OA
ATOM     20  O   UNL     1       9.525  15.227 -18.406  1.00  0.00    -0.550 OA
ENDBRANCH  17  18
ENDBRANCH  16  17
ENDBRANCH  15  16
ENDBRANCH  14  15
ENDBRANCH  13  14
ENDBRANCH  12  13
ENDBRANCH  11  12
ENDBRANCH   1  11
TORSDOF 15
ENDMDL
MODEL 6
REMARK VINA RESULT:    -5.406      0.720      6.802
REMARK INTER + INTRA:         -11.220
REMARK INTER:                 -10.297
REMARK INTRA:                  -0.922
REMARK UNBOUND:                -1.074
REMARK SMILES O=C([O-])CCCCCCCCCCCCCCC(=O)[O-]
REMARK SMILES IDX 10 1 9 2 8 3 7 4 6 5 5 6 4 7 2 8 1 9 3 10 11 11 12 12 13 13
REMARK SMILES IDX 14 14 15 15 16 16 17 17 18 18 19 19 20 20
REMARK H PARENT
REMARK Flexibility Score: inf
ROOT
ATOM      1  C   UNL     1      15.368   7.675 -21.656  1.00  0.00     0.000 C 
ENDROOT
BRANCH   1   2
ATOM      2  C   UNL     1      16.721   8.261 -21.219  1.00  0.00     0.000 C 
BRANCH   2   3
ATOM      3  C   UNL     1      16.744   8.646 -19.731  1.00  0.00     0.000 C 
BRANCH   3   4
ATOM      4  C   UNL     1      17.757   9.759 -19.422  1.00  0.00     0.000 C 
BRANCH   4   5
ATOM      5  C   UNL     1      18.374  10.313 -20.711  1.00  0.00     0.000 C 
BRANCH   5   6
ATOM      6  C   UNL     1      17.680  11.614 -21.140  1.00  0.00     0.006 C 
BRANCH   6   7
ATOM      7  C   UNL     1      18.420  12.860 -20.637  1.00  0.00     0.053 C 
BRANCH   7   8
ATOM      8  C   UNL     1      17.471  13.927 -20.187  1.00  0.00     0.041 C 
ATOM      9  O   UNL     1      16.976  13.888 -19.029  1.00  0.00    -0.550 OA
ATOM     10  O   UNL     1      17.105  14.946 -21.057  1.00  0.00    -0.550 OA
ENDBRANCH   7   8
ENDBRANCH   6   7
ENDBRANCH   5   6
ENDBRANCH   4   5
ENDBRANCH   3   4
ENDBRANCH   2   3
ENDBRANCH   1   2
BRANCH   1  11
ATOM     11  C   UNL     1      14.766   6.732 -20.603  1.00  0.00     0.000 C 
BRANCH  11  12
ATOM     12  C   UNL     1      13.367   7.175 -20.139  1.00  0.00     0.000 C 
BRANCH  12  13
ATOM     13  C   UNL     1      13.294   7.402 -18.621  1.00  0.00     0.000 C 
BRANCH  13  14
ATOM     14  C   UNL     1      12.175   8.383 -18.224  1.00  0.00     0.000 C 
BRANCH  14  15
ATOM     15  C   UNL     1      11.611   9.152 -19.428  1.00  0.00     0.000 C 
BRANCH  15  16
ATOM     16  C   UNL     1      10.748  10.354 -19.009  1.00  0.00     0.006 C 
BRANCH  16  17
ATOM     17  C   UNL     1      10.731  11.456 -20.079  1.00  0.00     0.053 C 
BRANCH  17  18
ATOM     18  C   UNL     1       9.497  12.300 -19.987  1.00  0.00     0.041 C 
ATOM     19  O   UNL     1       8.564  12.150 -20.819  1.00  0.00    -0.550 OA
ATOM     20  O   UNL     1       9.392  13.277 -19.005  1.00  0.00    -0.550 OA
ENDBRANCH  17  18
ENDBRANCH  16  17
ENDBRANCH  15  16
ENDBRANCH  14  15
ENDBRANCH  13  14
ENDBRANCH  12  13
ENDBRANCH  11  12
ENDBRANCH   1  11
TORSDOF 15
ENDMDL
MODEL 7
REMARK VINA RESULT:    -5.376      2.644      4.208
REMARK INTER + INTRA:         -11.164
REMARK INTER:                 -10.274
REMARK INTRA:                  -0.890
REMARK UNBOUND:                -1.074
REMARK SMILES O=C([O-])CCCCCCCCCCCCCCC(=O)[O-]
REMARK SMILES IDX 10 1 9 2 8 3 7 4 6 5 5 6 4 7 2 8 1 9 3 10 11 11 12 12 13 13
REMARK SMILES IDX 14 14 15 15 16 16 17 17 18 18 19 19 20 20
REMARK H PARENT
REMARK Flexibility Score: inf
ROOT
ATOM      1  C   UNL     1      12.131   8.925 -19.795  1.00  0.00     0.000 C 
ENDROOT
BRANCH   1   2
ATOM      2  C   UNL     1      11.065   9.679 -18.982  1.00  0.00     0.000 C 
BRANCH   2   3
ATOM      3  C   UNL     1      10.710  11.043 -19.596  1.00  0.00     0.000 C 
BRANCH   3   4
ATOM      4  C   UNL     1      10.379  12.103 -18.534  1.00  0.00     0.000 C 
BRANCH   4   5
ATOM      5  C   UNL     1       9.589  13.265 -19.147  1.00  0.00     0.000 C 
BRANCH   5   6
ATOM      6  C   UNL     1       9.362  14.382 -18.118  1.00  0.00     0.006 C 
BRANCH   6   7
ATOM      7  C   UNL     1       9.859  13.993 -16.720  1.00  0.00     0.053 C 
BRANCH   7   8
ATOM      8  C   UNL     1       9.731  15.127 -15.750  1.00  0.00     0.041 C 
ATOM      9  O   UNL     1       8.691  15.838 -15.738  1.00  0.00    -0.550 OA
ATOM     10  O   UNL     1      10.774  15.420 -14.880  1.00  0.00    -0.550 OA
ENDBRANCH   7   8
ENDBRANCH   6   7
ENDBRANCH   5   6
ENDBRANCH   4   5
ENDBRANCH   3   4
ENDBRANCH   2   3
ENDBRANCH   1   2
BRANCH   1  11
ATOM     11  C   UNL     1      12.560   7.608 -19.127  1.00  0.00     0.000 C 
BRANCH  11  12
ATOM     12  C   UNL     1      14.049   7.287 -19.350  1.00  0.00     0.000 C 
BRANCH  12  13
ATOM     13  C   UNL     1      14.303   6.568 -20.684  1.00  0.00     0.000 C 
BRANCH  13  14
ATOM     14  C   UNL     1      15.532   7.123 -21.428  1.00  0.00     0.000 C 
BRANCH  14  15
ATOM     15  C   UNL     1      15.287   8.524 -22.007  1.00  0.00     0.000 C 
BRANCH  15  16
ATOM     16  C   UNL     1      16.416   9.511 -21.662  1.00  0.00     0.006 C 
BRANCH  16  17
ATOM     17  C   UNL     1      17.423   8.915 -20.668  1.00  0.00     0.053 C 
BRANCH  17  18
ATOM     18  C   UNL     1      17.593   9.785 -19.460  1.00  0.00     0.041 C 
ATOM     19  O   UNL     1      17.493   9.292 -18.306  1.00  0.00    -0.550 OA
ATOM     20  O   UNL     1      17.825  11.145 -19.608  1.00  0.00    -0.550 OA
ENDBRANCH  17  18
ENDBRANCH  16  17
ENDBRANCH  15  16
ENDBRANCH  14  15
ENDBRANCH  13  14
ENDBRANCH  12  13
ENDBRANCH  11  12
ENDBRANCH   1  11
TORSDOF 15
ENDMDL
MODEL 8
REMARK VINA RESULT:    -5.207      1.022      1.619
REMARK INTER + INTRA:         -10.848
REMARK INTER:                  -9.718
REMARK INTRA:                  -1.130
REMARK UNBOUND:                -1.074
REMARK SMILES O=C([O-])CCCCCCCCCCCCCCC(=O)[O-]
REMARK SMILES IDX 10 1 9 2 8 3 7 4 6 5 5 6 4 7 2 8 1 9 3 10 11 11 12 12 13 13
REMARK SMILES IDX 14 14 15 15 16 16 17 17 18 18 19 19 20 20
REMARK H PARENT
REMARK Flexibility Score: inf
ROOT
ATOM      1  C   UNL     1      15.589   7.122 -21.961  1.00  0.00     0.000 C 
ENDROOT
BRANCH   1   2
ATOM      2  C   UNL     1      14.883   6.390 -20.807  1.00  0.00     0.000 C 
BRANCH   2   3
ATOM      3  C   UNL     1      13.488   6.963 -20.510  1.00  0.00     0.000 C 
BRANCH   3   4
ATOM      4  C   UNL     1      13.367   7.517 -19.082  1.00  0.00     0.000 C 
BRANCH   4   5
ATOM      5  C   UNL     1      11.941   8.008 -18.804  1.00  0.00     0.000 C 
BRANCH   5   6
ATOM      6  C   UNL     1      11.690   9.374 -19.459  1.00  0.00     0.006 C 
BRANCH   6   7
ATOM      7  C   UNL     1      10.739  10.249 -18.634  1.00  0.00     0.053 C 
BRANCH   7   8
ATOM      8  C   UNL     1      10.448  11.551 -19.315  1.00  0.00     0.041 C 
ATOM      9  O   UNL     1      10.760  12.639 -18.762  1.00  0.00    -0.550 OA
ATOM     10  O   UNL     1       9.803  11.565 -20.545  1.00  0.00    -0.550 OA
ENDBRANCH   7   8
ENDBRANCH   6   7
ENDBRANCH   5   6
ENDBRANCH   4   5
ENDBRANCH   3   4
ENDBRANCH   2   3
ENDBRANCH   1   2
BRANCH   1  11
ATOM     11  C   UNL     1      15.267   8.625 -21.989  1.00  0.00     0.000 C 
BRANCH  11  12
ATOM     12  C   UNL     1      16.490   9.500 -21.660  1.00  0.00     0.000 C 
BRANCH  12  13
ATOM     13  C   UNL     1      17.306   8.951 -20.479  1.00  0.00     0.000 C 
BRANCH  13  14
ATOM     14  C   UNL     1      18.473   9.877 -20.088  1.00  0.00     0.000 C 
BRANCH  14  15
ATOM     15  C   UNL     1      18.980  10.717 -21.269  1.00  0.00     0.000 C 
BRANCH  15  16
ATOM     16  C   UNL     1      19.319  12.162 -20.864  1.00  0.00     0.006 C 
BRANCH  16  17
ATOM     17  C   UNL     1      18.347  13.179 -21.480  1.00  0.00     0.053 C 
BRANCH  17  18
ATOM     18  C   UNL     1      17.460  13.798 -20.443  1.00  0.00     0.041 C 
ATOM     19  O   UNL     1      17.053  13.114 -19.468  1.00  0.00    -0.550 OA
ATOM     20  O   UNL     1      17.055  15.120 -20.573  1.00  0.00    -0.550 OA
ENDBRANCH  17  18
ENDBRANCH  16  17
ENDBRANCH  15  16
ENDBRANCH  14  15
ENDBRANCH  13  14
ENDBRANCH  12  13
ENDBRANCH  11  12
ENDBRANCH   1  11
TORSDOF 15
ENDMDL
MODEL 9
REMARK VINA RESULT:    -5.152      2.805      7.831
REMARK INTER + INTRA:         -10.744
REMARK INTER:                 -10.021
REMARK INTRA:                  -0.723
REMARK UNBOUND:                -1.074
REMARK SMILES O=C([O-])CCCCCCCCCCCCCCC(=O)[O-]
REMARK SMILES IDX 10 1 9 2 8 3 7 4 6 5 5 6 4 7 2 8 1 9 3 10 11 11 12 12 13 13
REMARK SMILES IDX 14 14 15 15 16 16 17 17 18 18 19 19 20 20
REMARK H PARENT
REMARK Flexibility Score: inf
ROOT
ATOM      1  C   UNL     1      12.151   8.524 -19.699  1.00  0.00     0.000 C 
ENDROOT
BRANCH   1   2
ATOM      2  C   UNL     1      12.833   7.477 -18.801  1.00  0.00     0.000 C 
BRANCH   2   3
ATOM      3  C   UNL     1      14.152   6.959 -19.397  1.00  0.00     0.000 C 
BRANCH   3   4
ATOM      4  C   UNL     1      14.130   6.908 -20.932  1.00  0.00     0.000 C 
BRANCH   4   5
ATOM      5  C   UNL     1      15.446   7.435 -21.517  1.00  0.00     0.000 C 
BRANCH   5   6
ATOM      6  C   UNL     1      16.361   7.982 -20.411  1.00  0.00     0.006 C 
BRANCH   6   7
ATOM      7  C   UNL     1      17.028   9.304 -20.810  1.00  0.00     0.053 C 
BRANCH   7   8
ATOM      8  C   UNL     1      17.820   9.890 -19.682  1.00  0.00     0.041 C 
ATOM      9  O   UNL     1      17.733  11.118 -19.416  1.00  0.00    -0.550 OA
ATOM     10  O   UNL     1      18.682   9.087 -18.946  1.00  0.00    -0.550 OA
ENDBRANCH   7   8
ENDBRANCH   6   7
ENDBRANCH   5   6
ENDBRANCH   4   5
ENDBRANCH   3   4
ENDBRANCH   2   3
ENDBRANCH   1   2
BRANCH   1  11
ATOM     11  C   UNL     1      11.320   9.537 -18.896  1.00  0.00     0.000 C 
BRANCH  11  12
ATOM     12  C   UNL     1      10.649  10.596 -19.789  1.00  0.00     0.000 C 
BRANCH  12  13
ATOM     13  C   UNL     1      10.410  11.923 -19.051  1.00  0.00     0.000 C 
BRANCH  13  14
ATOM     14  C   UNL     1       9.439  12.850 -19.806  1.00  0.00     0.000 C 
BRANCH  14  15
ATOM     15  C   UNL     1       9.232  14.194 -19.091  1.00  0.00     0.000 C 
BRANCH  15  16
ATOM     16  C   UNL     1       9.758  14.181 -17.645  1.00  0.00     0.006 C 
BRANCH  16  17
ATOM     17  C   UNL     1       9.162  15.317 -16.802  1.00  0.00     0.053 C 
BRANCH  17  18
ATOM     18  C   UNL     1       9.426  15.121 -15.340  1.00  0.00     0.041 C 
ATOM     19  O   UNL     1       8.516  15.339 -14.497  1.00  0.00    -0.550 OA
ATOM     20  O   UNL     1      10.686  14.732 -14.906  1.00  0.00    -0.550 OA
ENDBRANCH  17  18
ENDBRANCH  16  17
ENDBRANCH  15  16
ENDBRANCH  14  15
ENDBRANCH  13  14
ENDBRANCH  12  13
ENDBRANCH  11  12
ENDBRANCH   1  11
TORSDOF 15
ENDMDL
