MODEL 1
REMARK VINA RESULT:    -4.248      0.000      0.000
REMARK INTER + INTRA:          -5.607
REMARK INTER:                  -5.490
REMARK INTRA:                  -0.117
REMARK UNBOUND:                -0.117
REMARK SMILES C=CC(=O)CCCCC
REMARK SMILES IDX 6 1 7 2 8 3 9 4 5 5 3 6 4 7 2 8 1 9
REMARK H PARENT
REMARK Flexibility Score: inf
ROOT
ATOM      1  C   UNL     1      20.432 -24.628  12.875  1.00  0.00     0.008 C 
ENDROOT
BRANCH   1   2
ATOM      2  C   UNL     1      20.188 -26.141  12.972  1.00  0.00     0.000 C 
BRANCH   2   3
ATOM      3  C   UNL     1      21.411 -26.904  13.504  1.00  0.00    -0.003 C 
ATOM      4  C   UNL     1      21.250 -28.420  13.406  1.00  0.00     0.004 C 
ENDBRANCH   2   3
ENDBRANCH   1   2
BRANCH   1   5
ATOM      5  C   UNL     1      20.571 -24.004  14.267  1.00  0.00     0.080 C 
BRANCH   5   6
ATOM      6  C   UNL     1      19.932 -22.648  14.304  1.00  0.00     0.155 C 
ATOM      7  O   UNL     1      18.902 -22.430  13.608  1.00  0.00    -0.295 OA
BRANCH   6   8
ATOM      8  C   UNL     1      20.481 -21.596  15.182  1.00  0.00     0.039 C 
ATOM      9  C   UNL     1      20.087 -20.325  15.108  1.00  0.00     0.012 C 
ENDBRANCH   6   8
ENDBRANCH   5   6
ENDBRANCH   1   5
TORSDOF 5
ENDMDL
MODEL 2
REMARK VINA RESULT:    -4.162      1.813      6.006
REMARK INTER + INTRA:          -5.495
REMARK INTER:                  -5.335
REMARK INTRA:                  -0.160
REMARK UNBOUND:                -0.117
REMARK SMILES C=CC(=O)CCCCC
REMARK SMILES IDX 6 1 7 2 8 3 9 4 5 5 3 6 4 7 2 8 1 9
REMARK H PARENT
REMARK Flexibility Score: inf
ROOT
ATOM      1  C   UNL     1      20.160 -20.422  15.087  1.00  0.00     0.008 C 
ENDROOT
BRANCH   1   2
ATOM      2  C   UNL     1      20.112 -19.227  14.125  1.00  0.00     0.000 C 
BRANCH   2   3
ATOM      3  C   UNL     1      20.113 -17.877  14.859  1.00  0.00    -0.003 C 
ATOM      4  C   UNL     1      20.090 -18.031  16.379  1.00  0.00     0.004 C 
ENDBRANCH   2   3
ENDBRANCH   1   2
BRANCH   1   5
ATOM      5  C   UNL     1      19.388 -21.617  14.519  1.00  0.00     0.080 C 
BRANCH   5   6
ATOM      6  C   UNL     1      20.316 -22.762  14.243  1.00  0.00     0.155 C 
ATOM      7  O   UNL     1      21.411 -22.835  14.867  1.00  0.00    -0.295 OA
BRANCH   6   8
ATOM      8  C   UNL     1      19.926 -23.816  13.286  1.00  0.00     0.039 C 
ATOM      9  C   UNL     1      20.531 -25.002  13.243  1.00  0.00     0.012 C 
ENDBRANCH   6   8
ENDBRANCH   5   6
ENDBRANCH   1   5
TORSDOF 5
ENDMDL
MODEL 3
REMARK VINA RESULT:    -3.673      2.525      3.842
REMARK INTER + INTRA:          -4.864
REMARK INTER:                  -4.681
REMARK INTRA:                  -0.183
REMARK UNBOUND:                -0.117
REMARK SMILES C=CC(=O)CCCCC
REMARK SMILES IDX 6 1 7 2 8 3 9 4 5 5 3 6 4 7 2 8 1 9
REMARK H PARENT
REMARK Flexibility Score: inf
ROOT
ATOM      1  C   UNL     1      20.497 -21.426  14.467  1.00  0.00     0.008 C 
ENDROOT
BRANCH   1   2
ATOM      2  C   UNL     1      20.637 -22.698  15.314  1.00  0.00     0.000 C 
BRANCH   2   3
ATOM      3  C   UNL     1      20.437 -23.981  14.492  1.00  0.00    -0.003 C 
ATOM      4  C   UNL     1      19.717 -23.728  13.168  1.00  0.00     0.004 C 
ENDBRANCH   2   3
ENDBRANCH   1   2
BRANCH   1   5
ATOM      5  C   UNL     1      19.713 -20.347  15.220  1.00  0.00     0.080 C 
BRANCH   5   6
ATOM      6  C   UNL     1      20.141 -18.979  14.780  1.00  0.00     0.155 C 
ATOM      7  O   UNL     1      20.400 -18.775  13.562  1.00  0.00    -0.295 OA
BRANCH   6   8
ATOM      8  C   UNL     1      20.210 -17.875  15.758  1.00  0.00     0.039 C 
ATOM      9  C   UNL     1      19.841 -18.023  17.029  1.00  0.00     0.012 C 
ENDBRANCH   6   8
ENDBRANCH   5   6
ENDBRANCH   1   5
TORSDOF 5
ENDMDL
MODEL 4
REMARK VINA RESULT:    -3.076     15.154     16.521
REMARK INTER + INTRA:          -4.092
REMARK INTER:                  -3.552
REMARK INTRA:                  -0.540
REMARK UNBOUND:                -0.117
REMARK SMILES C=CC(=O)CCCCC
REMARK SMILES IDX 6 1 7 2 8 3 9 4 5 5 3 6 4 7 2 8 1 9
REMARK H PARENT
REMARK Flexibility Score: inf
ROOT
ATOM      1  C   UNL     1       8.744 -32.600  15.803  1.00  0.00     0.008 C 
ENDROOT
BRANCH   1   2
ATOM      2  C   UNL     1       8.734 -32.857  14.289  1.00  0.00     0.000 C 
BRANCH   2   3
ATOM      3  C   UNL     1       7.342 -33.238  13.763  1.00  0.00    -0.003 C 
ATOM      4  C   UNL     1       7.319 -34.609  13.088  1.00  0.00     0.004 C 
ENDBRANCH   2   3
ENDBRANCH   1   2
BRANCH   1   5
ATOM      5  C   UNL     1       7.342 -32.766  16.397  1.00  0.00     0.080 C 
BRANCH   5   6
ATOM      6  C   UNL     1       7.384 -33.643  17.612  1.00  0.00     0.155 C 
ATOM      7  O   UNL     1       7.355 -33.115  18.758  1.00  0.00    -0.295 OA
BRANCH   6   8
ATOM      8  C   UNL     1       7.413 -35.112  17.462  1.00  0.00     0.039 C 
ATOM      9  C   UNL     1       6.647 -35.756  16.583  1.00  0.00     0.012 C 
ENDBRANCH   6   8
ENDBRANCH   5   6
ENDBRANCH   1   5
TORSDOF 5
ENDMDL
MODEL 5
REMARK VINA RESULT:    -3.011     14.453     15.480
REMARK INTER + INTRA:          -4.008
REMARK INTER:                  -3.675
REMARK INTRA:                  -0.332
REMARK UNBOUND:                -0.117
REMARK SMILES C=CC(=O)CCCCC
REMARK SMILES IDX 6 1 7 2 8 3 9 4 5 5 3 6 4 7 2 8 1 9
REMARK H PARENT
REMARK Flexibility Score: inf
ROOT
ATOM      1  C   UNL     1       7.192 -33.825  15.554  1.00  0.00     0.008 C 
ENDROOT
BRANCH   1   2
ATOM      2  C   UNL     1       7.447 -33.158  14.195  1.00  0.00     0.000 C 
BRANCH   2   3
ATOM      3  C   UNL     1       8.807 -33.544  13.593  1.00  0.00    -0.003 C 
ATOM      4  C   UNL     1       9.962 -32.729  14.172  1.00  0.00     0.004 C 
ENDBRANCH   2   3
ENDBRANCH   1   2
BRANCH   1   5
ATOM      5  C   UNL     1       6.731 -32.798  16.593  1.00  0.00     0.080 C 
BRANCH   5   6
ATOM      6  C   UNL     1       7.634 -32.817  17.790  1.00  0.00     0.155 C 
ATOM      7  O   UNL     1       7.281 -33.453  18.821  1.00  0.00    -0.295 OA
BRANCH   6   8
ATOM      8  C   UNL     1       8.942 -32.134  17.740  1.00  0.00     0.039 C 
ATOM      9  C   UNL     1       9.464 -31.511  18.795  1.00  0.00     0.012 C 
ENDBRANCH   6   8
ENDBRANCH   5   6
ENDBRANCH   1   5
TORSDOF 5
ENDMDL
MODEL 6
REMARK VINA RESULT:    -3.002     15.301     16.592
REMARK INTER + INTRA:          -3.997
REMARK INTER:                  -3.454
REMARK INTRA:                  -0.542
REMARK UNBOUND:                -0.117
REMARK SMILES C=CC(=O)CCCCC
REMARK SMILES IDX 6 1 7 2 8 3 9 4 5 5 3 6 4 7 2 8 1 9
REMARK H PARENT
REMARK Flexibility Score: inf
ROOT
ATOM      1  C   UNL     1       7.769 -35.353  17.391  1.00  0.00     0.008 C 
ENDROOT
BRANCH   1   2
ATOM      2  C   UNL     1       6.625 -36.041  16.632  1.00  0.00     0.000 C 
BRANCH   2   3
ATOM      3  C   UNL     1       6.945 -36.248  15.143  1.00  0.00    -0.003 C 
ATOM      4  C   UNL     1       6.025 -35.446  14.224  1.00  0.00     0.004 C 
ENDBRANCH   2   3
ENDBRANCH   1   2
BRANCH   1   5
ATOM      5  C   UNL     1       7.348 -33.962  17.876  1.00  0.00     0.080 C 
BRANCH   5   6
ATOM      6  C   UNL     1       8.175 -32.900  17.216  1.00  0.00     0.155 C 
ATOM      7  O   UNL     1       8.979 -32.220  17.911  1.00  0.00    -0.295 OA
BRANCH   6   8
ATOM      8  C   UNL     1       8.079 -32.688  15.758  1.00  0.00     0.039 C 
ATOM      9  C   UNL     1       9.124 -32.829  14.945  1.00  0.00     0.012 C 
ENDBRANCH   6   8
ENDBRANCH   5   6
ENDBRANCH   1   5
TORSDOF 5
ENDMDL
MODEL 7
REMARK VINA RESULT:    -2.968     15.379     16.350
REMARK INTER + INTRA:          -3.953
REMARK INTER:                  -3.590
REMARK INTRA:                  -0.362
REMARK UNBOUND:                -0.117
REMARK SMILES C=CC(=O)CCCCC
REMARK SMILES IDX 6 1 7 2 8 3 9 4 5 5 3 6 4 7 2 8 1 9
REMARK H PARENT
REMARK Flexibility Score: inf
ROOT
ATOM      1  C   UNL     1       7.364 -32.917  15.559  1.00  0.00     0.008 C 
ENDROOT
BRANCH   1   2
ATOM      2  C   UNL     1       7.535 -34.435  15.405  1.00  0.00     0.000 C 
BRANCH   2   3
ATOM      3  C   UNL     1       6.253 -35.211  15.746  1.00  0.00    -0.003 C 
ATOM      4  C   UNL     1       6.522 -36.447  16.605  1.00  0.00     0.004 C 
ENDBRANCH   2   3
ENDBRANCH   1   2
BRANCH   1   5
ATOM      5  C   UNL     1       6.689 -32.572  16.891  1.00  0.00     0.080 C 
BRANCH   5   6
ATOM      6  C   UNL     1       7.639 -32.774  18.032  1.00  0.00     0.155 C 
ATOM      7  O   UNL     1       7.293 -33.501  19.004  1.00  0.00    -0.295 OA
BRANCH   6   8
ATOM      8  C   UNL     1       8.983 -32.164  17.992  1.00  0.00     0.039 C 
ATOM      9  C   UNL     1       9.434 -31.365  18.958  1.00  0.00     0.012 C 
ENDBRANCH   6   8
ENDBRANCH   5   6
ENDBRANCH   1   5
TORSDOF 5
ENDMDL
MODEL 8
REMARK VINA RESULT:    -2.859     14.227     15.668
REMARK INTER + INTRA:          -3.812
REMARK INTER:                  -3.358
REMARK INTRA:                  -0.454
REMARK UNBOUND:                -0.117
REMARK SMILES C=CC(=O)CCCCC
REMARK SMILES IDX 6 1 7 2 8 3 9 4 5 5 3 6 4 7 2 8 1 9
REMARK H PARENT
REMARK Flexibility Score: inf
ROOT
ATOM      1  C   UNL     1       8.811 -32.552  15.613  1.00  0.00     0.008 C 
ENDROOT
BRANCH   1   2
ATOM      2  C   UNL     1       7.447 -32.870  16.242  1.00  0.00     0.000 C 
BRANCH   2   3
ATOM      3  C   UNL     1       7.572 -33.660  17.554  1.00  0.00    -0.003 C 
ATOM      4  C   UNL     1       7.392 -35.165  17.358  1.00  0.00     0.004 C 
ENDBRANCH   2   3
ENDBRANCH   1   2
BRANCH   1   5
ATOM      5  C   UNL     1       8.807 -32.855  14.111  1.00  0.00     0.080 C 
BRANCH   5   6
ATOM      6  C   UNL     1       9.994 -33.692  13.738  1.00  0.00     0.155 C 
ATOM      7  O   UNL     1      11.019 -33.133  13.259  1.00  0.00    -0.295 OA
BRANCH   6   8
ATOM      8  C   UNL     1       9.974 -35.149  13.975  1.00  0.00     0.039 C 
ATOM      9  C   UNL     1       8.847 -35.860  13.962  1.00  0.00     0.012 C 
ENDBRANCH   6   8
ENDBRANCH   5   6
ENDBRANCH   1   5
TORSDOF 5
ENDMDL
MODEL 9
REMARK VINA RESULT:    -2.834     14.886     16.362
REMARK INTER + INTRA:          -3.780
REMARK INTER:                  -3.171
REMARK INTRA:                  -0.609
REMARK UNBOUND:                -0.117
REMARK SMILES C=CC(=O)CCCCC
REMARK SMILES IDX 6 1 7 2 8 3 9 4 5 5 3 6 4 7 2 8 1 9
REMARK H PARENT
REMARK Flexibility Score: inf
ROOT
ATOM      1  C   UNL     1       7.124 -33.148  16.550  1.00  0.00     0.008 C 
ENDROOT
BRANCH   1   2
ATOM      2  C   UNL     1       7.607 -34.348  17.376  1.00  0.00     0.000 C 
BRANCH   2   3
ATOM      3  C   UNL     1       7.000 -35.677  16.898  1.00  0.00    -0.003 C 
ATOM      4  C   UNL     1       5.875 -35.481  15.883  1.00  0.00     0.004 C 
ENDBRANCH   2   3
ENDBRANCH   1   2
BRANCH   1   5
ATOM      5  C   UNL     1       8.286 -32.499  15.791  1.00  0.00     0.080 C 
BRANCH   5   6
ATOM      6  C   UNL     1       8.451 -33.127  14.440  1.00  0.00     0.155 C 
ATOM      7  O   UNL     1       7.594 -32.897  13.543  1.00  0.00    -0.295 OA
BRANCH   6   8
ATOM      8  C   UNL     1       9.631 -33.967  14.154  1.00  0.00     0.039 C 
ATOM      9  C   UNL     1       9.544 -35.284  13.976  1.00  0.00     0.012 C 
ENDBRANCH   6   8
ENDBRANCH   5   6
ENDBRANCH   1   5
TORSDOF 5
ENDMDL
