MODEL 1
REMARK VINA RESULT:    -3.570      0.000      0.000
REMARK INTER + INTRA:          -5.174
REMARK INTER:                  -4.822
REMARK INTRA:                  -0.352
REMARK UNBOUND:                -0.352
REMARK SMILES CCCCCCC=CC(=O)[O-]
REMARK SMILES IDX 5 1 6 2 7 3 8 4 9 5 10 6 11 7 4 8 3 9 2 10 1 11
REMARK H PARENT
REMARK Flexibility Score: inf
ROOT
ATOM      1  C   UNL     1      58.012  29.251  49.888  1.00  0.00     0.004 C 
ENDROOT
BRANCH   1   2
ATOM      2  C   UNL     1      59.160  28.606  49.096  1.00  0.00     0.027 C 
BRANCH   2   3
ATOM      3  C   UNL     1      59.296  27.148  49.429  1.00  0.00    -0.025 C 
ATOM      4  C   UNL     1      60.479  26.611  49.751  1.00  0.00     0.020 C 
BRANCH   4   5
ATOM      5  C   UNL     1      60.637  25.183  50.065  1.00  0.00     0.064 C 
ATOM      6  O   UNL     1      61.778  24.652  50.123  1.00  0.00    -0.545 OA
ATOM      7  O   UNL     1      59.511  24.407  50.302  1.00  0.00    -0.545 OA
ENDBRANCH   4   5
ENDBRANCH   2   3
ENDBRANCH   1   2
BRANCH   1   8
ATOM      8  C   UNL     1      56.944  28.231  50.315  1.00  0.00     0.000 C 
BRANCH   8   9
ATOM      9  C   UNL     1      55.537  28.849  50.404  1.00  0.00    -0.000 C 
BRANCH   9  10
ATOM     10  C   UNL     1      54.433  27.852  50.019  1.00  0.00    -0.003 C 
ATOM     11  C   UNL     1      54.979  26.463  49.690  1.00  0.00     0.004 C 
ENDBRANCH   9  10
ENDBRANCH   8   9
ENDBRANCH   1   8
TORSDOF 6
ENDMDL
MODEL 2
REMARK VINA RESULT:    -3.534     12.753     13.610
REMARK INTER + INTRA:          -5.125
REMARK INTER:                  -4.864
REMARK INTRA:                  -0.262
REMARK UNBOUND:                -0.352
REMARK SMILES CCCCCCC=CC(=O)[O-]
REMARK SMILES IDX 5 1 6 2 7 3 8 4 9 5 10 6 11 7 4 8 3 9 2 10 1 11
REMARK H PARENT
REMARK Flexibility Score: inf
ROOT
ATOM      1  C   UNL     1      61.926  33.129  60.588  1.00  0.00     0.004 C 
ENDROOT
BRANCH   1   2
ATOM      2  C   UNL     1      60.840  32.214  61.174  1.00  0.00     0.027 C 
BRANCH   2   3
ATOM      3  C   UNL     1      61.209  30.767  61.017  1.00  0.00    -0.025 C 
ATOM      4  C   UNL     1      62.175  30.207  61.756  1.00  0.00     0.020 C 
BRANCH   4   5
ATOM      5  C   UNL     1      62.564  28.796  61.608  1.00  0.00     0.064 C 
ATOM      6  O   UNL     1      61.783  27.867  61.943  1.00  0.00    -0.545 OA
ATOM      7  O   UNL     1      63.814  28.483  61.092  1.00  0.00    -0.545 OA
ENDBRANCH   4   5
ENDBRANCH   2   3
ENDBRANCH   1   2
BRANCH   1   8
ATOM      8  C   UNL     1      61.427  34.566  60.360  1.00  0.00     0.000 C 
BRANCH   8   9
ATOM      9  C   UNL     1      62.373  35.623  60.958  1.00  0.00    -0.000 C 
BRANCH   9  10
ATOM     10  C   UNL     1      63.764  35.053  61.277  1.00  0.00    -0.003 C 
ATOM     11  C   UNL     1      64.652  36.048  62.024  1.00  0.00     0.004 C 
ENDBRANCH   9  10
ENDBRANCH   8   9
ENDBRANCH   1   8
TORSDOF 6
ENDMDL
MODEL 3
REMARK VINA RESULT:    -3.506     12.582     13.282
REMARK INTER + INTRA:          -5.087
REMARK INTER:                  -4.631
REMARK INTRA:                  -0.456
REMARK UNBOUND:                -0.352
REMARK SMILES CCCCCCC=CC(=O)[O-]
REMARK SMILES IDX 5 1 6 2 7 3 8 4 9 5 10 6 11 7 4 8 3 9 2 10 1 11
REMARK H PARENT
REMARK Flexibility Score: inf
ROOT
ATOM      1  C   UNL     1      60.827  32.101  61.188  1.00  0.00     0.004 C 
ENDROOT
BRANCH   1   2
ATOM      2  C   UNL     1      61.456  30.874  61.867  1.00  0.00     0.027 C 
BRANCH   2   3
ATOM      3  C   UNL     1      62.893  30.710  61.465  1.00  0.00    -0.025 C 
ATOM      4  C   UNL     1      63.457  29.501  61.362  1.00  0.00     0.020 C 
BRANCH   4   5
ATOM      5  C   UNL     1      64.867  29.318  60.985  1.00  0.00     0.064 C 
ATOM      6  O   UNL     1      65.590  30.301  60.671  1.00  0.00    -0.545 OA
ATOM      7  O   UNL     1      65.411  28.041  60.975  1.00  0.00    -0.545 OA
ENDBRANCH   4   5
ENDBRANCH   2   3
ENDBRANCH   1   2
BRANCH   1   8
ATOM      8  C   UNL     1      61.840  32.891  60.342  1.00  0.00     0.000 C 
BRANCH   8   9
ATOM      9  C   UNL     1      61.531  34.398  60.303  1.00  0.00    -0.000 C 
BRANCH   9  10
ATOM     10  C   UNL     1      62.660  35.245  60.911  1.00  0.00    -0.003 C 
ATOM     11  C   UNL     1      63.942  34.444  61.136  1.00  0.00     0.004 C 
ENDBRANCH   9  10
ENDBRANCH   8   9
ENDBRANCH   1   8
TORSDOF 6
ENDMDL
MODEL 4
REMARK VINA RESULT:    -3.503     13.135     14.027
REMARK INTER + INTRA:          -5.084
REMARK INTER:                  -4.760
REMARK INTRA:                  -0.324
REMARK UNBOUND:                -0.352
REMARK SMILES CCCCCCC=CC(=O)[O-]
REMARK SMILES IDX 5 1 6 2 7 3 8 4 9 5 10 6 11 7 4 8 3 9 2 10 1 11
REMARK H PARENT
REMARK Flexibility Score: inf
ROOT
ATOM      1  C   UNL     1      62.386  33.957  60.643  1.00  0.00     0.004 C 
ENDROOT
BRANCH   1   2
ATOM      2  C   UNL     1      61.124  33.080  60.692  1.00  0.00     0.027 C 
BRANCH   2   3
ATOM      3  C   UNL     1      61.463  31.664  61.060  1.00  0.00    -0.025 C 
ATOM      4  C   UNL     1      62.730  31.235  61.099  1.00  0.00     0.020 C 
BRANCH   4   5
ATOM      5  C   UNL     1      63.084  29.849  61.441  1.00  0.00     0.064 C 
ATOM      6  O   UNL     1      64.275  29.444  61.368  1.00  0.00    -0.545 OA
ATOM      7  O   UNL     1      62.089  28.972  61.851  1.00  0.00    -0.545 OA
ENDBRANCH   4   5
ENDBRANCH   2   3
ENDBRANCH   1   2
BRANCH   1   8
ATOM      8  C   UNL     1      62.059  35.452  60.504  1.00  0.00     0.000 C 
BRANCH   8   9
ATOM      9  C   UNL     1      62.886  36.331  61.460  1.00  0.00    -0.000 C 
BRANCH   9  10
ATOM     10  C   UNL     1      64.227  35.684  61.839  1.00  0.00    -0.003 C 
ATOM     11  C   UNL     1      65.429  36.534  61.427  1.00  0.00     0.004 C 
ENDBRANCH   9  10
ENDBRANCH   8   9
ENDBRANCH   1   8
TORSDOF 6
ENDMDL
MODEL 5
REMARK VINA RESULT:    -3.470      0.989      1.604
REMARK INTER + INTRA:          -5.039
REMARK INTER:                  -4.650
REMARK INTRA:                  -0.389
REMARK UNBOUND:                -0.352
REMARK SMILES CCCCCCC=CC(=O)[O-]
REMARK SMILES IDX 5 1 6 2 7 3 8 4 9 5 10 6 11 7 4 8 3 9 2 10 1 11
REMARK H PARENT
REMARK Flexibility Score: inf
ROOT
ATOM      1  C   UNL     1      57.639  29.119  50.685  1.00  0.00     0.004 C 
ENDROOT
BRANCH   1   2
ATOM      2  C   UNL     1      58.376  29.288  49.347  1.00  0.00     0.027 C 
BRANCH   2   3
ATOM      3  C   UNL     1      59.456  28.257  49.190  1.00  0.00    -0.025 C 
ATOM      4  C   UNL     1      59.499  27.165  49.962  1.00  0.00     0.020 C 
BRANCH   4   5
ATOM      5  C   UNL     1      60.557  26.151  49.837  1.00  0.00     0.064 C 
ATOM      6  O   UNL     1      60.282  24.921  49.822  1.00  0.00    -0.545 OA
ATOM      7  O   UNL     1      61.881  26.554  49.734  1.00  0.00    -0.545 OA
ENDBRANCH   4   5
ENDBRANCH   2   3
ENDBRANCH   1   2
BRANCH   1   8
ATOM      8  C   UNL     1      56.139  28.833  50.500  1.00  0.00     0.000 C 
BRANCH   8   9
ATOM      9  C   UNL     1      55.852  27.354  50.187  1.00  0.00    -0.000 C 
BRANCH   9  10
ATOM     10  C   UNL     1      54.393  27.115  49.770  1.00  0.00    -0.003 C 
ATOM     11  C   UNL     1      53.549  28.388  49.818  1.00  0.00     0.004 C 
ENDBRANCH   9  10
ENDBRANCH   8   9
ENDBRANCH   1   8
TORSDOF 6
ENDMDL
MODEL 6
REMARK VINA RESULT:    -3.431      3.039      5.344
REMARK INTER + INTRA:          -4.987
REMARK INTER:                  -4.571
REMARK INTRA:                  -0.416
REMARK UNBOUND:                -0.352
REMARK SMILES CCCCCCC=CC(=O)[O-]
REMARK SMILES IDX 5 1 6 2 7 3 8 4 9 5 10 6 11 7 4 8 3 9 2 10 1 11
REMARK H PARENT
REMARK Flexibility Score: inf
ROOT
ATOM      1  C   UNL     1      58.500  29.265  49.420  1.00  0.00     0.004 C 
ENDROOT
BRANCH   1   2
ATOM      2  C   UNL     1      57.647  28.811  50.615  1.00  0.00     0.027 C 
BRANCH   2   3
ATOM      3  C   UNL     1      56.223  28.574  50.204  1.00  0.00    -0.025 C 
ATOM      4  C   UNL     1      55.715  27.339  50.120  1.00  0.00     0.020 C 
BRANCH   4   5
ATOM      5  C   UNL     1      54.327  27.083  49.705  1.00  0.00     0.064 C 
ATOM      6  O   UNL     1      53.451  27.986  49.767  1.00  0.00    -0.545 OA
ATOM      7  O   UNL     1      53.976  25.824  49.237  1.00  0.00    -0.545 OA
ENDBRANCH   4   5
ENDBRANCH   2   3
ENDBRANCH   1   2
BRANCH   1   8
ATOM      8  C   UNL     1      59.690  28.329  49.154  1.00  0.00     0.000 C 
BRANCH   8   9
ATOM      9  C   UNL     1      59.335  26.846  49.365  1.00  0.00    -0.000 C 
BRANCH   9  10
ATOM     10  C   UNL     1      60.500  26.043  49.962  1.00  0.00    -0.003 C 
ATOM     11  C   UNL     1      61.841  26.765  49.837  1.00  0.00     0.004 C 
ENDBRANCH   9  10
ENDBRANCH   8   9
ENDBRANCH   1   8
TORSDOF 6
ENDMDL
MODEL 7
REMARK VINA RESULT:    -3.382     13.138     14.054
REMARK INTER + INTRA:          -4.920
REMARK INTER:                  -4.228
REMARK INTRA:                  -0.692
REMARK UNBOUND:                -0.352
REMARK SMILES CCCCCCC=CC(=O)[O-]
REMARK SMILES IDX 5 1 6 2 7 3 8 4 9 5 10 6 11 7 4 8 3 9 2 10 1 11
REMARK H PARENT
REMARK Flexibility Score: inf
ROOT
ATOM      1  C   UNL     1      60.617  32.032  59.838  1.00  0.00     0.004 C 
ENDROOT
BRANCH   1   2
ATOM      2  C   UNL     1      60.834  33.476  59.359  1.00  0.00     0.027 C 
BRANCH   2   3
ATOM      3  C   UNL     1      61.430  34.323  60.446  1.00  0.00    -0.025 C 
ATOM      4  C   UNL     1      62.603  34.947  60.284  1.00  0.00     0.020 C 
BRANCH   4   5
ATOM      5  C   UNL     1      63.214  35.768  61.341  1.00  0.00     0.064 C 
ATOM      6  O   UNL     1      62.686  36.850  61.712  1.00  0.00    -0.545 OA
ATOM      7  O   UNL     1      64.392  35.344  61.939  1.00  0.00    -0.545 OA
ENDBRANCH   4   5
ENDBRANCH   2   3
ENDBRANCH   1   2
BRANCH   1   8
ATOM      8  C   UNL     1      60.813  31.878  61.355  1.00  0.00     0.000 C 
BRANCH   8   9
ATOM      9  C   UNL     1      61.739  30.703  61.716  1.00  0.00    -0.000 C 
BRANCH   9  10
ATOM     10  C   UNL     1      62.964  30.616  60.793  1.00  0.00    -0.003 C 
ATOM     11  C   UNL     1      64.031  31.659  61.127  1.00  0.00     0.004 C 
ENDBRANCH   9  10
ENDBRANCH   8   9
ENDBRANCH   1   8
TORSDOF 6
ENDMDL
MODEL 8
REMARK VINA RESULT:    -3.347      3.022      3.997
REMARK INTER + INTRA:          -4.873
REMARK INTER:                  -4.199
REMARK INTRA:                  -0.674
REMARK UNBOUND:                -0.352
REMARK SMILES CCCCCCC=CC(=O)[O-]
REMARK SMILES IDX 5 1 6 2 7 3 8 4 9 5 10 6 11 7 4 8 3 9 2 10 1 11
REMARK H PARENT
REMARK Flexibility Score: inf
ROOT
ATOM      1  C   UNL     1      54.924  26.470  49.620  1.00  0.00     0.004 C 
ENDROOT
BRANCH   1   2
ATOM      2  C   UNL     1      56.100  26.329  50.599  1.00  0.00     0.027 C 
BRANCH   2   3
ATOM      3  C   UNL     1      57.274  27.153  50.156  1.00  0.00    -0.025 C 
ATOM      4  C   UNL     1      57.330  28.471  50.381  1.00  0.00     0.020 C 
BRANCH   4   5
ATOM      5  C   UNL     1      58.463  29.300  49.942  1.00  0.00     0.064 C 
ATOM      6  O   UNL     1      58.682  29.509  48.719  1.00  0.00    -0.545 OA
ATOM      7  O   UNL     1      59.306  29.862  50.891  1.00  0.00    -0.545 OA
ENDBRANCH   4   5
ENDBRANCH   2   3
ENDBRANCH   1   2
BRANCH   1   8
ATOM      8  C   UNL     1      53.656  27.017  50.297  1.00  0.00     0.000 C 
BRANCH   8   9
ATOM      9  C   UNL     1      53.179  28.342  49.677  1.00  0.00    -0.000 C 
BRANCH   9  10
ATOM     10  C   UNL     1      53.800  29.569  50.363  1.00  0.00    -0.003 C 
ATOM     11  C   UNL     1      53.995  29.369  51.866  1.00  0.00     0.004 C 
ENDBRANCH   9  10
ENDBRANCH   8   9
ENDBRANCH   1   8
TORSDOF 6
ENDMDL
MODEL 9
REMARK VINA RESULT:    -3.286      1.731      2.890
REMARK INTER + INTRA:          -4.790
REMARK INTER:                  -4.314
REMARK INTRA:                  -0.476
REMARK UNBOUND:                -0.352
REMARK SMILES CCCCCCC=CC(=O)[O-]
REMARK SMILES IDX 5 1 6 2 7 3 8 4 9 5 10 6 11 7 4 8 3 9 2 10 1 11
REMARK H PARENT
REMARK Flexibility Score: inf
ROOT
ATOM      1  C   UNL     1      55.338  28.605  51.522  1.00  0.00     0.004 C 
ENDROOT
BRANCH   1   2
ATOM      2  C   UNL     1      56.596  29.473  51.679  1.00  0.00     0.027 C 
BRANCH   2   3
ATOM      3  C   UNL     1      57.817  28.750  51.189  1.00  0.00    -0.025 C 
ATOM      4  C   UNL     1      57.830  28.117  50.010  1.00  0.00     0.020 C 
BRANCH   4   5
ATOM      5  C   UNL     1      59.010  27.389  49.518  1.00  0.00     0.064 C 
ATOM      6  O   UNL     1      59.057  26.130  49.545  1.00  0.00    -0.545 OA
ATOM      7  O   UNL     1      60.091  28.101  49.016  1.00  0.00    -0.545 OA
ENDBRANCH   4   5
ENDBRANCH   2   3
ENDBRANCH   1   2
BRANCH   1   8
ATOM      8  C   UNL     1      54.316  29.218  50.551  1.00  0.00     0.000 C 
BRANCH   8   9
ATOM      9  C   UNL     1      53.586  28.155  49.711  1.00  0.00    -0.000 C 
BRANCH   9  10
ATOM     10  C   UNL     1      54.327  26.809  49.696  1.00  0.00    -0.003 C 
ATOM     11  C   UNL     1      53.530  25.704  49.002  1.00  0.00     0.004 C 
ENDBRANCH   9  10
ENDBRANCH   8   9
ENDBRANCH   1   8
TORSDOF 6
ENDMDL
