MODEL 1
REMARK VINA RESULT:    -6.416      0.000      0.000
REMARK INTER + INTRA:         -10.180
REMARK INTER:                  -8.478
REMARK INTRA:                  -1.701
REMARK UNBOUND:                -1.701
REMARK SMILES C=C(CC[C@@H](C)[C@@H]1CC[C@@]2(C)[C@@H]3CC[C@@H]4C(C)(C)[C@@H](O)CC[C@]45C[C@]35CC[C@@]12C)C(C)C
REMARK SMILES IDX 4 1 3 2 2 3 1 4 30 5 31 6 32 7 5 8 6 9 7 10 8 11 28 12 9 13
REMARK SMILES IDX 10 14 27 15 29 16 11 17 12 18 26 19 25 20 13 21 23 22 24 23
REMARK SMILES IDX 14 24 15 25 22 26 16 27 21 28 19 29 17 30 18 31 20 32
REMARK H PARENT 20 33
REMARK Flexibility Score: inf
ROOT
ATOM      1  C   UNL     1     130.373 128.132 136.815  1.00  0.00     0.008 C 
ENDROOT
BRANCH   1   2
ATOM      2  C   UNL     1     131.336 127.339 135.910  1.00  0.00     0.031 C 
BRANCH   2   3
ATOM      3  C   UNL     1     132.751 127.375 136.458  1.00  0.00    -0.075 C 
ATOM      4  C   UNL     1     133.536 126.296 136.276  1.00  0.00     0.008 C 
BRANCH   3   5
ATOM      5  C   UNL     1     133.311 128.580 137.205  1.00  0.00     0.008 C 
ATOM      6  C   UNL     1     134.469 129.285 136.476  1.00  0.00     0.012 C 
ATOM      7  C   UNL     1     133.736 128.174 138.623  1.00  0.00     0.012 C 
ENDBRANCH   3   5
ENDBRANCH   2   3
ENDBRANCH   1   2
BRANCH   1   8
ATOM      8  C   UNL     1     129.658 127.224 137.862  1.00  0.00    -0.010 C 
ATOM      9  C   UNL     1     128.906 126.065 137.175  1.00  0.00     0.008 C 
BRANCH   8  10
ATOM     10  C   UNL     1     130.472 126.762 139.133  1.00  0.00    -0.002 C 
ATOM     11  C   UNL     1     130.975 125.306 139.026  1.00  0.00     0.005 C 
ATOM     12  C   UNL     1     129.950 126.956 140.623  1.00  0.00    -0.024 C 
ATOM     13  C   UNL     1     130.964 124.734 140.433  1.00  0.00     0.008 C 
ATOM     14  C   UNL     1     129.880 125.500 141.237  1.00  0.00    -0.024 C 
ATOM     15  C   UNL     1     131.029 127.771 141.396  1.00  0.00     0.008 C 
ATOM     16  C   UNL     1     128.601 127.727 140.741  1.00  0.00     0.012 C 
ATOM     17  C   UNL     1     128.505 124.840 140.891  1.00  0.00     0.012 C 
ATOM     18  C   UNL     1     130.228 125.402 142.805  1.00  0.00     0.002 C 
ATOM     19  C   UNL     1     130.656 128.049 142.847  1.00  0.00     0.008 C 
ATOM     20  C   UNL     1     130.232 126.751 143.598  1.00  0.00    -0.020 C 
ATOM     21  C   UNL     1     129.487 124.247 143.522  1.00  0.00     0.005 C 
ATOM     22  C   UNL     1     130.668 126.540 145.082  1.00  0.00    -0.020 C 
ATOM     23  C   UNL     1     129.262 127.050 144.755  1.00  0.00     0.015 C 
ATOM     24  C   UNL     1     129.734 124.091 145.033  1.00  0.00     0.005 C 
ATOM     25  C   UNL     1     130.731 125.099 145.667  1.00  0.00     0.004 C 
ATOM     26  C   UNL     1     131.725 127.532 145.637  1.00  0.00     0.010 C 
ATOM     27  C   UNL     1     130.700 125.113 147.262  1.00  0.00    -0.006 C 
ATOM     28  C   UNL     1     132.465 126.973 146.854  1.00  0.00     0.033 C 
ATOM     29  C   UNL     1     131.475 126.362 147.852  1.00  0.00     0.120 C 
ATOM     30  C   UNL     1     129.255 125.186 147.827  1.00  0.00     0.014 C 
ATOM     31  C   UNL     1     131.331 123.786 147.774  1.00  0.00     0.014 C 
BRANCH  29  32
ATOM     32  O   UNL     1     132.144 126.020 149.043  1.00  0.00    -0.393 OA
ATOM     33  H   UNL     1     131.554 126.278 149.803  1.00  0.00     0.210 HD
ENDBRANCH  29  32
ENDBRANCH   8  10
ENDBRANCH   1   8
TORSDOF 6
ENDMDL
MODEL 2
REMARK VINA RESULT:    -6.175      2.355      3.524
REMARK INTER + INTRA:          -9.862
REMARK INTER:                  -8.037
REMARK INTRA:                  -1.825
REMARK UNBOUND:                -1.701
REMARK SMILES C=C(CC[C@@H](C)[C@@H]1CC[C@@]2(C)[C@@H]3CC[C@@H]4C(C)(C)[C@@H](O)CC[C@]45C[C@]35CC[C@@]12C)C(C)C
REMARK SMILES IDX 4 1 3 2 2 3 1 4 30 5 31 6 32 7 5 8 6 9 7 10 8 11 28 12 9 13
REMARK SMILES IDX 10 14 27 15 29 16 11 17 12 18 26 19 25 20 13 21 23 22 24 23
REMARK SMILES IDX 14 24 15 25 22 26 16 27 21 28 19 29 17 30 18 31 20 32
REMARK H PARENT 20 33
REMARK Flexibility Score: inf
ROOT
ATOM      1  C   UNL     1     131.731 125.362 135.751  1.00  0.00     0.008 C 
ENDROOT
BRANCH   1   2
ATOM      2  C   UNL     1     132.885 125.905 136.617  1.00  0.00     0.031 C 
BRANCH   2   3
ATOM      3  C   UNL     1     132.454 127.140 137.386  1.00  0.00    -0.075 C 
ATOM      4  C   UNL     1     131.198 127.596 137.213  1.00  0.00     0.008 C 
BRANCH   3   5
ATOM      5  C   UNL     1     133.385 127.881 138.339  1.00  0.00     0.008 C 
ATOM      6  C   UNL     1     132.844 128.002 139.774  1.00  0.00     0.012 C 
ATOM      7  C   UNL     1     133.728 129.266 137.774  1.00  0.00     0.012 C 
ENDBRANCH   3   5
ENDBRANCH   2   3
ENDBRANCH   1   2
BRANCH   1   8
ATOM      8  C   UNL     1     131.243 123.959 136.223  1.00  0.00    -0.010 C 
ATOM      9  C   UNL     1     131.695 122.852 135.248  1.00  0.00     0.008 C 
BRANCH   8  10
ATOM     10  C   UNL     1     131.447 123.565 137.739  1.00  0.00    -0.002 C 
ATOM     11  C   UNL     1     131.846 122.085 137.924  1.00  0.00     0.005 C 
ATOM     12  C   UNL     1     130.389 123.898 138.879  1.00  0.00    -0.024 C 
ATOM     13  C   UNL     1     131.234 121.628 139.237  1.00  0.00     0.008 C 
ATOM     14  C   UNL     1     129.978 122.501 139.492  1.00  0.00    -0.024 C 
ATOM     15  C   UNL     1     131.126 124.726 139.974  1.00  0.00     0.008 C 
ATOM     16  C   UNL     1     129.164 124.733 138.400  1.00  0.00     0.012 C 
ATOM     17  C   UNL     1     128.811 121.874 138.660  1.00  0.00     0.012 C 
ATOM     18  C   UNL     1     129.663 122.513 141.071  1.00  0.00     0.002 C 
ATOM     19  C   UNL     1     130.225 125.134 141.133  1.00  0.00     0.008 C 
ATOM     20  C   UNL     1     129.447 123.919 141.721  1.00  0.00    -0.020 C 
ATOM     21  C   UNL     1     128.618 121.452 141.492  1.00  0.00     0.005 C 
ATOM     22  C   UNL     1     129.238 123.809 143.265  1.00  0.00    -0.020 C 
ATOM     23  C   UNL     1     128.119 124.350 142.371  1.00  0.00     0.015 C 
ATOM     24  C   UNL     1     128.229 121.406 142.980  1.00  0.00     0.005 C 
ATOM     25  C   UNL     1     128.960 122.418 143.905  1.00  0.00     0.004 C 
ATOM     26  C   UNL     1     130.053 124.796 144.142  1.00  0.00     0.010 C 
ATOM     27  C   UNL     1     128.297 122.560 145.348  1.00  0.00    -0.006 C 
ATOM     28  C   UNL     1     130.204 124.304 145.584  1.00  0.00     0.033 C 
ATOM     29  C   UNL     1     128.858 123.818 146.130  1.00  0.00     0.120 C 
ATOM     30  C   UNL     1     126.755 122.739 145.279  1.00  0.00     0.014 C 
ATOM     31  C   UNL     1     128.575 121.251 146.144  1.00  0.00     0.014 C 
BRANCH  29  32
ATOM     32  O   UNL     1     128.971 123.543 147.507  1.00  0.00    -0.393 OA
ATOM     33  H   UNL     1     128.078 123.237 147.825  1.00  0.00     0.210 HD
ENDBRANCH  29  32
ENDBRANCH   8  10
ENDBRANCH   1   8
TORSDOF 6
ENDMDL
MODEL 3
REMARK VINA RESULT:    -6.169      7.354     11.373
REMARK INTER + INTRA:          -9.854
REMARK INTER:                  -8.303
REMARK INTRA:                  -1.551
REMARK UNBOUND:                -1.701
REMARK SMILES C=C(CC[C@@H](C)[C@@H]1CC[C@@]2(C)[C@@H]3CC[C@@H]4C(C)(C)[C@@H](O)CC[C@]45C[C@]35CC[C@@]12C)C(C)C
REMARK SMILES IDX 4 1 3 2 2 3 1 4 30 5 31 6 32 7 5 8 6 9 7 10 8 11 28 12 9 13
REMARK SMILES IDX 10 14 27 15 29 16 11 17 12 18 26 19 25 20 13 21 23 22 24 23
REMARK SMILES IDX 14 24 15 25 22 26 16 27 21 28 19 29 17 30 18 31 20 32
REMARK H PARENT 20 33
REMARK Flexibility Score: inf
ROOT
ATOM      1  C   UNL     1     136.435 129.744 135.231  1.00  0.00     0.008 C 
ENDROOT
BRANCH   1   2
ATOM      2  C   UNL     1     135.247 130.292 136.046  1.00  0.00     0.031 C 
BRANCH   2   3
ATOM      3  C   UNL     1     134.452 129.163 136.674  1.00  0.00    -0.075 C 
ATOM      4  C   UNL     1     134.223 128.055 135.942  1.00  0.00     0.008 C 
BRANCH   3   5
ATOM      5  C   UNL     1     133.903 129.237 138.095  1.00  0.00     0.008 C 
ATOM      6  C   UNL     1     134.942 129.666 139.145  1.00  0.00     0.012 C 
ATOM      7  C   UNL     1     133.264 127.897 138.487  1.00  0.00     0.012 C 
ENDBRANCH   3   5
ENDBRANCH   2   3
ENDBRANCH   1   2
BRANCH   1   8
ATOM      8  C   UNL     1     137.779 130.449 135.591  1.00  0.00    -0.010 C 
ATOM      9  C   UNL     1     138.774 130.390 134.414  1.00  0.00     0.008 C 
BRANCH   8  10
ATOM     10  C   UNL     1     137.718 131.871 136.275  1.00  0.00    -0.002 C 
ATOM     11  C   UNL     1     138.496 132.948 135.487  1.00  0.00     0.005 C 
ATOM     12  C   UNL     1     138.036 132.114 137.815  1.00  0.00    -0.024 C 
ATOM     13  C   UNL     1     139.061 133.917 136.511  1.00  0.00     0.008 C 
ATOM     14  C   UNL     1     139.242 133.135 137.839  1.00  0.00    -0.024 C 
ATOM     15  C   UNL     1     136.789 132.801 138.447  1.00  0.00     0.008 C 
ATOM     16  C   UNL     1     138.325 130.817 138.629  1.00  0.00     0.012 C 
ATOM     17  C   UNL     1     140.598 132.363 137.730  1.00  0.00     0.012 C 
ATOM     18  C   UNL     1     139.230 134.179 139.064  1.00  0.00     0.002 C 
ATOM     19  C   UNL     1     136.943 133.085 139.936  1.00  0.00     0.008 C 
ATOM     20  C   UNL     1     138.269 133.841 140.251  1.00  0.00    -0.020 C 
ATOM     21  C   UNL     1     140.648 134.620 139.502  1.00  0.00     0.005 C 
ATOM     22  C   UNL     1     138.279 134.966 141.333  1.00  0.00    -0.020 C 
ATOM     23  C   UNL     1     138.765 133.556 141.680  1.00  0.00     0.015 C 
ATOM     24  C   UNL     1     140.740 135.597 140.687  1.00  0.00     0.005 C 
ATOM     25  C   UNL     1     139.388 136.057 141.296  1.00  0.00     0.004 C 
ATOM     26  C   UNL     1     136.893 135.438 141.847  1.00  0.00     0.010 C 
ATOM     27  C   UNL     1     139.535 136.790 142.705  1.00  0.00    -0.006 C 
ATOM     28  C   UNL     1     136.951 136.835 142.472  1.00  0.00     0.033 C 
ATOM     29  C   UNL     1     138.138 136.946 143.434  1.00  0.00     0.120 C 
ATOM     30  C   UNL     1     140.457 136.012 143.685  1.00  0.00     0.014 C 
ATOM     31  C   UNL     1     140.186 138.183 142.465  1.00  0.00     0.014 C 
BRANCH  29  32
ATOM     32  O   UNL     1     138.072 138.164 144.138  1.00  0.00    -0.393 OA
ATOM     33  H   UNL     1     138.180 138.899 143.474  1.00  0.00     0.210 HD
ENDBRANCH  29  32
ENDBRANCH   8  10
ENDBRANCH   1   8
TORSDOF 6
ENDMDL
MODEL 4
REMARK VINA RESULT:    -5.989      9.180     11.233
REMARK INTER + INTRA:          -9.616
REMARK INTER:                  -8.095
REMARK INTRA:                  -1.521
REMARK UNBOUND:                -1.701
REMARK SMILES C=C(CC[C@@H](C)[C@@H]1CC[C@@]2(C)[C@@H]3CC[C@@H]4C(C)(C)[C@@H](O)CC[C@]45C[C@]35CC[C@@]12C)C(C)C
REMARK SMILES IDX 4 1 3 2 2 3 1 4 30 5 31 6 32 7 5 8 6 9 7 10 8 11 28 12 9 13
REMARK SMILES IDX 10 14 27 15 29 16 11 17 12 18 26 19 25 20 13 21 23 22 24 23
REMARK SMILES IDX 14 24 15 25 22 26 16 27 21 28 19 29 17 30 18 31 20 32
REMARK H PARENT 20 33
REMARK Flexibility Score: inf
ROOT
ATOM      1  C   UNL     1     135.849 129.735 135.251  1.00  0.00     0.008 C 
ENDROOT
BRANCH   1   2
ATOM      2  C   UNL     1     135.284 130.824 134.319  1.00  0.00     0.031 C 
BRANCH   2   3
ATOM      3  C   UNL     1     135.239 130.340 132.881  1.00  0.00    -0.075 C 
ATOM      4  C   UNL     1     134.155 129.653 132.470  1.00  0.00     0.008 C 
BRANCH   3   5
ATOM      5  C   UNL     1     136.370 130.598 131.892  1.00  0.00     0.008 C 
ATOM      6  C   UNL     1     137.308 129.396 131.687  1.00  0.00     0.012 C 
ATOM      7  C   UNL     1     137.170 131.839 132.314  1.00  0.00     0.012 C 
ENDBRANCH   3   5
ENDBRANCH   2   3
ENDBRANCH   1   2
BRANCH   1   8
ATOM      8  C   UNL     1     137.148 130.194 135.982  1.00  0.00    -0.010 C 
ATOM      9  C   UNL     1     138.405 129.844 135.160  1.00  0.00     0.008 C 
BRANCH   8  10
ATOM     10  C   UNL     1     137.192 131.653 136.584  1.00  0.00    -0.002 C 
ATOM     11  C   UNL     1     138.111 132.603 135.785  1.00  0.00     0.005 C 
ATOM     12  C   UNL     1     137.454 131.955 138.124  1.00  0.00    -0.024 C 
ATOM     13  C   UNL     1     138.715 133.572 136.785  1.00  0.00     0.008 C 
ATOM     14  C   UNL     1     138.752 132.857 138.161  1.00  0.00    -0.024 C 
ATOM     15  C   UNL     1     136.250 132.794 138.648  1.00  0.00     0.008 C 
ATOM     16  C   UNL     1     137.573 130.687 139.022  1.00  0.00     0.012 C 
ATOM     17  C   UNL     1     140.029 131.954 138.171  1.00  0.00     0.012 C 
ATOM     18  C   UNL     1     138.780 133.968 139.326  1.00  0.00     0.002 C 
ATOM     19  C   UNL     1     136.356 133.149 140.126  1.00  0.00     0.008 C 
ATOM     20  C   UNL     1     137.732 133.792 140.473  1.00  0.00    -0.020 C 
ATOM     21  C   UNL     1     140.210 134.297 139.818  1.00  0.00     0.005 C 
ATOM     22  C   UNL     1     137.797 134.973 141.492  1.00  0.00    -0.020 C 
ATOM     23  C   UNL     1     138.124 133.546 141.941  1.00  0.00     0.015 C 
ATOM     24  C   UNL     1     140.338 135.329 140.953  1.00  0.00     0.005 C 
ATOM     25  C   UNL     1     139.007 135.951 141.459  1.00  0.00     0.004 C 
ATOM     26  C   UNL     1     136.440 135.605 141.902  1.00  0.00     0.010 C 
ATOM     27  C   UNL     1     139.154 136.748 142.832  1.00  0.00    -0.006 C 
ATOM     28  C   UNL     1     136.602 137.024 142.453  1.00  0.00     0.033 C 
ATOM     29  C   UNL     1     137.744 137.079 143.473  1.00  0.00     0.120 C 
ATOM     30  C   UNL     1     139.945 135.945 143.902  1.00  0.00     0.014 C 
ATOM     31  C   UNL     1     139.950 138.056 142.555  1.00  0.00     0.014 C 
BRANCH  29  32
ATOM     32  O   UNL     1     137.763 138.337 144.105  1.00  0.00    -0.393 OA
ATOM     33  H   UNL     1     137.700 139.030 143.392  1.00  0.00     0.210 HD
ENDBRANCH  29  32
ENDBRANCH   8  10
ENDBRANCH   1   8
TORSDOF 6
ENDMDL
MODEL 5
REMARK VINA RESULT:    -5.967      9.022     13.132
REMARK INTER + INTRA:          -9.586
REMARK INTER:                  -7.623
REMARK INTRA:                  -1.963
REMARK UNBOUND:                -1.701
REMARK SMILES C=C(CC[C@@H](C)[C@@H]1CC[C@@]2(C)[C@@H]3CC[C@@H]4C(C)(C)[C@@H](O)CC[C@]45C[C@]35CC[C@@]12C)C(C)C
REMARK SMILES IDX 4 1 3 2 2 3 1 4 30 5 31 6 32 7 5 8 6 9 7 10 8 11 28 12 9 13
REMARK SMILES IDX 10 14 27 15 29 16 11 17 12 18 26 19 25 20 13 21 23 22 24 23
REMARK SMILES IDX 14 24 15 25 22 26 16 27 21 28 19 29 17 30 18 31 20 32
REMARK H PARENT 20 33
REMARK Flexibility Score: inf
ROOT
ATOM      1  C   UNL     1     138.162 137.404 144.017  1.00  0.00     0.008 C 
ENDROOT
BRANCH   1   2
ATOM      2  C   UNL     1     139.587 136.863 144.246  1.00  0.00     0.031 C 
BRANCH   2   3
ATOM      3  C   UNL     1     140.485 137.181 143.065  1.00  0.00    -0.075 C 
ATOM      4  C   UNL     1     140.073 138.107 142.177  1.00  0.00     0.008 C 
BRANCH   3   5
ATOM      5  C   UNL     1     141.827 136.492 142.845  1.00  0.00     0.008 C 
ATOM      6  C   UNL     1     141.976 135.841 141.459  1.00  0.00     0.012 C 
ATOM      7  C   UNL     1     142.081 135.461 143.953  1.00  0.00     0.012 C 
ENDBRANCH   3   5
ENDBRANCH   2   3
ENDBRANCH   1   2
BRANCH   1   8
ATOM      8  C   UNL     1     137.153 136.277 143.638  1.00  0.00    -0.010 C 
ATOM      9  C   UNL     1     135.876 136.357 144.500  1.00  0.00     0.008 C 
BRANCH   8  10
ATOM     10  C   UNL     1     136.848 136.028 142.108  1.00  0.00    -0.002 C 
ATOM     11  C   UNL     1     135.338 135.909 141.810  1.00  0.00     0.005 C 
ATOM     12  C   UNL     1     137.573 134.906 141.244  1.00  0.00    -0.024 C 
ATOM     13  C   UNL     1     135.194 134.925 140.663  1.00  0.00     0.008 C 
ATOM     14  C   UNL     1     136.415 133.970 140.715  1.00  0.00    -0.024 C 
ATOM     15  C   UNL     1     138.239 135.612 140.026  1.00  0.00     0.008 C 
ATOM     16  C   UNL     1     138.686 134.123 142.004  1.00  0.00     0.012 C 
ATOM     17  C   UNL     1     136.088 132.871 141.779  1.00  0.00     0.012 C 
ATOM     18  C   UNL     1     136.655 133.349 139.249  1.00  0.00     0.002 C 
ATOM     19  C   UNL     1     138.992 134.655 139.109  1.00  0.00     0.008 C 
ATOM     20  C   UNL     1     138.112 133.438 138.691  1.00  0.00    -0.020 C 
ATOM     21  C   UNL     1     135.986 131.966 139.058  1.00  0.00     0.005 C 
ATOM     22  C   UNL     1     138.201 132.886 137.233  1.00  0.00    -0.020 C 
ATOM     23  C   UNL     1     138.968 132.200 138.367  1.00  0.00     0.015 C 
ATOM     24  C   UNL     1     136.183 131.277 137.696  1.00  0.00     0.005 C 
ATOM     25  C   UNL     1     137.013 132.069 136.648  1.00  0.00     0.004 C 
ATOM     26  C   UNL     1     138.978 133.759 136.212  1.00  0.00     0.010 C 
ATOM     27  C   UNL     1     137.466 131.192 135.395  1.00  0.00    -0.006 C 
ATOM     28  C   UNL     1     138.589 133.446 134.765  1.00  0.00     0.033 C 
ATOM     29  C   UNL     1     138.567 131.932 134.529  1.00  0.00     0.120 C 
ATOM     30  C   UNL     1     138.082 129.829 135.816  1.00  0.00     0.014 C 
ATOM     31  C   UNL     1     136.207 130.885 134.533  1.00  0.00     0.014 C 
BRANCH  29  32
ATOM     32  O   UNL     1     138.391 131.663 133.158  1.00  0.00    -0.393 OA
ATOM     33  H   UNL     1     139.281 131.416 132.785  1.00  0.00     0.210 HD
ENDBRANCH  29  32
ENDBRANCH   8  10
ENDBRANCH   1   8
TORSDOF 6
ENDMDL
MODEL 6
REMARK VINA RESULT:    -5.877      1.698      2.458
REMARK INTER + INTRA:          -9.468
REMARK INTER:                  -8.193
REMARK INTRA:                  -1.275
REMARK UNBOUND:                -1.701
REMARK SMILES C=C(CC[C@@H](C)[C@@H]1CC[C@@]2(C)[C@@H]3CC[C@@H]4C(C)(C)[C@@H](O)CC[C@]45C[C@]35CC[C@@]12C)C(C)C
REMARK SMILES IDX 4 1 3 2 2 3 1 4 30 5 31 6 32 7 5 8 6 9 7 10 8 11 28 12 9 13
REMARK SMILES IDX 10 14 27 15 29 16 11 17 12 18 26 19 25 20 13 21 23 22 24 23
REMARK SMILES IDX 14 24 15 25 22 26 16 27 21 28 19 29 17 30 18 31 20 32
REMARK H PARENT 20 33
REMARK Flexibility Score: inf
ROOT
ATOM      1  C   UNL     1     131.625 128.140 136.625  1.00  0.00     0.008 C 
ENDROOT
BRANCH   1   2
ATOM      2  C   UNL     1     133.050 127.663 136.969  1.00  0.00     0.031 C 
BRANCH   2   3
ATOM      3  C   UNL     1     133.969 128.842 137.231  1.00  0.00    -0.075 C 
ATOM      4  C   UNL     1     134.665 129.355 136.198  1.00  0.00     0.008 C 
BRANCH   3   5
ATOM      5  C   UNL     1     134.135 129.462 138.615  1.00  0.00     0.008 C 
ATOM      6  C   UNL     1     135.457 130.227 138.802  1.00  0.00     0.012 C 
ATOM      7  C   UNL     1     133.977 128.387 139.699  1.00  0.00     0.012 C 
ENDBRANCH   3   5
ENDBRANCH   2   3
ENDBRANCH   1   2
BRANCH   1   8
ATOM      8  C   UNL     1     130.532 127.135 137.101  1.00  0.00    -0.010 C 
ATOM      9  C   UNL     1     129.949 126.341 135.914  1.00  0.00     0.008 C 
BRANCH   8  10
ATOM     10  C   UNL     1     130.843 126.228 138.355  1.00  0.00    -0.002 C 
ATOM     11  C   UNL     1     131.066 124.746 137.982  1.00  0.00     0.005 C 
ATOM     12  C   UNL     1     129.962 126.236 139.680  1.00  0.00    -0.024 C 
ATOM     13  C   UNL     1     130.542 123.918 139.143  1.00  0.00     0.008 C 
ATOM     14  C   UNL     1     129.442 124.753 139.849  1.00  0.00    -0.024 C 
ATOM     15  C   UNL     1     130.910 126.570 140.870  1.00  0.00     0.008 C 
ATOM     16  C   UNL     1     128.810 127.285 139.684  1.00  0.00     0.012 C 
ATOM     17  C   UNL     1     128.124 124.553 139.031  1.00  0.00     0.012 C 
ATOM     18  C   UNL     1     129.300 124.248 141.370  1.00  0.00     0.002 C 
ATOM     19  C   UNL     1     130.197 126.629 142.215  1.00  0.00     0.008 C 
ATOM     20  C   UNL     1     129.335 125.356 142.473  1.00  0.00    -0.020 C 
ATOM     21  C   UNL     1     128.177 123.199 141.561  1.00  0.00     0.005 C 
ATOM     22  C   UNL     1     129.278 124.739 143.906  1.00  0.00    -0.020 C 
ATOM     23  C   UNL     1     128.150 125.648 143.411  1.00  0.00     0.015 C 
ATOM     24  C   UNL     1     127.945 122.676 142.989  1.00  0.00     0.005 C 
ATOM     25  C   UNL     1     128.892 123.242 144.083  1.00  0.00     0.004 C 
ATOM     26  C   UNL     1     130.301 125.291 144.934  1.00  0.00     0.010 C 
ATOM     27  C   UNL     1     128.409 122.934 145.571  1.00  0.00    -0.006 C 
ATOM     28  C   UNL     1     130.539 124.322 146.095  1.00  0.00     0.033 C 
ATOM     29  C   UNL     1     129.207 123.793 146.637  1.00  0.00     0.120 C 
ATOM     30  C   UNL     1     126.905 123.256 145.785  1.00  0.00     0.014 C 
ATOM     31  C   UNL     1     128.600 121.412 145.841  1.00  0.00     0.014 C 
BRANCH  29  32
ATOM     32  O   UNL     1     129.428 123.052 147.814  1.00  0.00    -0.393 OA
ATOM     33  H   UNL     1     130.344 123.272 148.138  1.00  0.00     0.210 HD
ENDBRANCH  29  32
ENDBRANCH   8  10
ENDBRANCH   1   8
TORSDOF 6
ENDMDL
MODEL 7
REMARK VINA RESULT:    -5.877      1.683      2.560
REMARK INTER + INTRA:          -9.467
REMARK INTER:                  -7.648
REMARK INTRA:                  -1.819
REMARK UNBOUND:                -1.701
REMARK SMILES C=C(CC[C@@H](C)[C@@H]1CC[C@@]2(C)[C@@H]3CC[C@@H]4C(C)(C)[C@@H](O)CC[C@]45C[C@]35CC[C@@]12C)C(C)C
REMARK SMILES IDX 4 1 3 2 2 3 1 4 30 5 31 6 32 7 5 8 6 9 7 10 8 11 28 12 9 13
REMARK SMILES IDX 10 14 27 15 29 16 11 17 12 18 26 19 25 20 13 21 23 22 24 23
REMARK SMILES IDX 14 24 15 25 22 26 16 27 21 28 19 29 17 30 18 31 20 32
REMARK H PARENT 20 33
REMARK Flexibility Score: inf
ROOT
ATOM      1  C   UNL     1     131.461 125.376 135.450  1.00  0.00     0.008 C 
ENDROOT
BRANCH   1   2
ATOM      2  C   UNL     1     132.807 125.977 135.900  1.00  0.00     0.031 C 
BRANCH   2   3
ATOM      3  C   UNL     1     132.796 127.489 135.776  1.00  0.00    -0.075 C 
ATOM      4  C   UNL     1     131.691 128.084 135.286  1.00  0.00     0.008 C 
BRANCH   3   5
ATOM      5  C   UNL     1     133.984 128.355 136.182  1.00  0.00     0.008 C 
ATOM      6  C   UNL     1     133.726 129.227 137.423  1.00  0.00     0.012 C 
ATOM      7  C   UNL     1     134.436 129.222 134.999  1.00  0.00     0.012 C 
ENDBRANCH   3   5
ENDBRANCH   2   3
ENDBRANCH   1   2
BRANCH   1   8
ATOM      8  C   UNL     1     130.571 124.943 136.656  1.00  0.00    -0.010 C 
ATOM      9  C   UNL     1     129.863 123.602 136.375  1.00  0.00     0.008 C 
BRANCH   8  10
ATOM     10  C   UNL     1     131.188 125.021 138.108  1.00  0.00    -0.002 C 
ATOM     11  C   UNL     1     131.106 123.679 138.866  1.00  0.00     0.005 C 
ATOM     12  C   UNL     1     130.815 126.159 139.155  1.00  0.00    -0.024 C 
ATOM     13  C   UNL     1     130.919 124.016 140.335  1.00  0.00     0.008 C 
ATOM     14  C   UNL     1     130.223 125.400 140.409  1.00  0.00    -0.024 C 
ATOM     15  C   UNL     1     132.141 126.859 139.577  1.00  0.00     0.008 C 
ATOM     16  C   UNL     1     129.856 127.257 138.604  1.00  0.00     0.012 C 
ATOM     17  C   UNL     1     128.692 125.151 140.208  1.00  0.00     0.012 C 
ATOM     18  C   UNL     1     130.551 126.073 141.834  1.00  0.00     0.002 C 
ATOM     19  C   UNL     1     131.938 127.992 140.575  1.00  0.00     0.008 C 
ATOM     20  C   UNL     1     131.081 127.544 141.797  1.00  0.00    -0.020 C 
ATOM     21  C   UNL     1     129.452 125.821 142.893  1.00  0.00     0.005 C 
ATOM     22  C   UNL     1     131.446 128.056 143.226  1.00  0.00    -0.020 C 
ATOM     23  C   UNL     1     130.324 128.727 142.429  1.00  0.00     0.015 C 
ATOM     24  C   UNL     1     129.662 126.451 144.281  1.00  0.00     0.005 C 
ATOM     25  C   UNL     1     130.980 127.249 144.473  1.00  0.00     0.004 C 
ATOM     26  C   UNL     1     132.811 128.780 143.370  1.00  0.00     0.010 C 
ATOM     27  C   UNL     1     131.000 128.147 145.792  1.00  0.00    -0.006 C 
ATOM     28  C   UNL     1     133.320 128.777 144.814  1.00  0.00     0.033 C 
ATOM     29  C   UNL     1     132.202 129.179 145.781  1.00  0.00     0.120 C 
ATOM     30  C   UNL     1     129.703 128.985 145.959  1.00  0.00     0.014 C 
ATOM     31  C   UNL     1     131.102 127.201 147.024  1.00  0.00     0.014 C 
BRANCH  29  32
ATOM     32  O   UNL     1     132.726 129.352 147.076  1.00  0.00    -0.393 OA
ATOM     33  H   UNL     1     132.332 130.188 147.449  1.00  0.00     0.210 HD
ENDBRANCH  29  32
ENDBRANCH   8  10
ENDBRANCH   1   8
TORSDOF 6
ENDMDL
MODEL 8
REMARK VINA RESULT:    -5.829     10.240     12.239
REMARK INTER + INTRA:          -9.404
REMARK INTER:                  -7.363
REMARK INTRA:                  -2.041
REMARK UNBOUND:                -1.701
REMARK SMILES C=C(CC[C@@H](C)[C@@H]1CC[C@@]2(C)[C@@H]3CC[C@@H]4C(C)(C)[C@@H](O)CC[C@]45C[C@]35CC[C@@]12C)C(C)C
REMARK SMILES IDX 4 1 3 2 2 3 1 4 30 5 31 6 32 7 5 8 6 9 7 10 8 11 28 12 9 13
REMARK SMILES IDX 10 14 27 15 29 16 11 17 12 18 26 19 25 20 13 21 23 22 24 23
REMARK SMILES IDX 14 24 15 25 22 26 16 27 21 28 19 29 17 30 18 31 20 32
REMARK H PARENT 20 33
REMARK Flexibility Score: inf
ROOT
ATOM      1  C   UNL     1     139.029 134.439 145.216  1.00  0.00     0.008 C 
ENDROOT
BRANCH   1   2
ATOM      2  C   UNL     1     138.856 135.815 144.543  1.00  0.00     0.031 C 
BRANCH   2   3
ATOM      3  C   UNL     1     137.886 135.732 143.379  1.00  0.00    -0.075 C 
ATOM      4  C   UNL     1     137.557 134.515 142.905  1.00  0.00     0.008 C 
BRANCH   3   5
ATOM      5  C   UNL     1     137.277 136.969 142.728  1.00  0.00     0.008 C 
ATOM      6  C   UNL     1     137.116 138.164 143.684  1.00  0.00     0.012 C 
ATOM      7  C   UNL     1     135.932 136.617 142.076  1.00  0.00     0.012 C 
ENDBRANCH   3   5
ENDBRANCH   2   3
ENDBRANCH   1   2
BRANCH   1   8
ATOM      8  C   UNL     1     138.290 134.351 146.587  1.00  0.00    -0.010 C 
ATOM      9  C   UNL     1     139.290 134.225 147.754  1.00  0.00     0.008 C 
BRANCH   8  10
ATOM     10  C   UNL     1     137.128 135.380 146.879  1.00  0.00    -0.002 C 
ATOM     11  C   UNL     1     137.228 136.012 148.285  1.00  0.00     0.005 C 
ATOM     12  C   UNL     1     135.590 135.055 146.634  1.00  0.00    -0.024 C 
ATOM     13  C   UNL     1     135.806 136.259 148.756  1.00  0.00     0.008 C 
ATOM     14  C   UNL     1     134.895 135.226 148.043  1.00  0.00    -0.024 C 
ATOM     15  C   UNL     1     135.031 136.141 145.668  1.00  0.00     0.008 C 
ATOM     16  C   UNL     1     135.318 133.663 145.989  1.00  0.00     0.012 C 
ATOM     17  C   UNL     1     134.997 133.892 148.854  1.00  0.00     0.012 C 
ATOM     18  C   UNL     1     133.391 135.799 147.998  1.00  0.00     0.002 C 
ATOM     19  C   UNL     1     133.558 135.949 145.326  1.00  0.00     0.008 C 
ATOM     20  C   UNL     1     132.683 135.774 146.604  1.00  0.00    -0.020 C 
ATOM     21  C   UNL     1     132.511 135.292 149.166  1.00  0.00     0.005 C 
ATOM     22  C   UNL     1     131.270 136.434 146.668  1.00  0.00    -0.020 C 
ATOM     23  C   UNL     1     131.414 134.950 146.319  1.00  0.00     0.015 C 
ATOM     24  C   UNL     1     131.047 135.763 149.193  1.00  0.00     0.005 C 
ATOM     25  C   UNL     1     130.622 136.728 148.052  1.00  0.00     0.004 C 
ATOM     26  C   UNL     1     130.932 137.448 145.543  1.00  0.00     0.010 C 
ATOM     27  C   UNL     1     129.044 136.922 147.931  1.00  0.00    -0.006 C 
ATOM     28  C   UNL     1     129.807 138.407 145.944  1.00  0.00     0.033 C 
ATOM     29  C   UNL     1     128.643 137.637 146.575  1.00  0.00     0.120 C 
ATOM     30  C   UNL     1     128.277 135.571 147.958  1.00  0.00     0.014 C 
ATOM     31  C   UNL     1     128.558 137.754 149.153  1.00  0.00     0.014 C 
BRANCH  29  32
ATOM     32  O   UNL     1     127.546 138.499 146.768  1.00  0.00    -0.393 OA
ATOM     33  H   UNL     1     127.387 138.978 145.909  1.00  0.00     0.210 HD
ENDBRANCH  29  32
ENDBRANCH   8  10
ENDBRANCH   1   8
TORSDOF 6
ENDMDL
MODEL 9
REMARK VINA RESULT:    -5.823      8.374     10.927
REMARK INTER + INTRA:          -9.396
REMARK INTER:                  -7.894
REMARK INTRA:                  -1.502
REMARK UNBOUND:                -1.701
REMARK SMILES C=C(CC[C@@H](C)[C@@H]1CC[C@@]2(C)[C@@H]3CC[C@@H]4C(C)(C)[C@@H](O)CC[C@]45C[C@]35CC[C@@]12C)C(C)C
REMARK SMILES IDX 4 1 3 2 2 3 1 4 30 5 31 6 32 7 5 8 6 9 7 10 8 11 28 12 9 13
REMARK SMILES IDX 10 14 27 15 29 16 11 17 12 18 26 19 25 20 13 21 23 22 24 23
REMARK SMILES IDX 14 24 15 25 22 26 16 27 21 28 19 29 17 30 18 31 20 32
REMARK H PARENT 20 33
REMARK Flexibility Score: inf
ROOT
ATOM      1  C   UNL     1     139.695 137.881 142.200  1.00  0.00     0.008 C 
ENDROOT
BRANCH   1   2
ATOM      2  C   UNL     1     141.143 138.123 142.668  1.00  0.00     0.031 C 
BRANCH   2   3
ATOM      3  C   UNL     1     142.119 137.266 141.883  1.00  0.00    -0.075 C 
ATOM      4  C   UNL     1     142.738 137.812 140.818  1.00  0.00     0.008 C 
BRANCH   3   5
ATOM      5  C   UNL     1     142.420 135.817 142.251  1.00  0.00     0.008 C 
ATOM      6  C   UNL     1     141.529 134.791 141.530  1.00  0.00     0.012 C 
ATOM      7  C   UNL     1     142.335 135.628 143.772  1.00  0.00     0.012 C 
ENDBRANCH   3   5
ENDBRANCH   2   3
ENDBRANCH   1   2
BRANCH   1   8
ATOM      8  C   UNL     1     138.931 136.880 143.120  1.00  0.00    -0.010 C 
ATOM      9  C   UNL     1     138.615 137.511 144.491  1.00  0.00     0.008 C 
BRANCH   8  10
ATOM     10  C   UNL     1     137.710 136.085 142.511  1.00  0.00    -0.002 C 
ATOM     11  C   UNL     1     136.379 136.862 142.616  1.00  0.00     0.005 C 
ATOM     12  C   UNL     1     137.383 134.571 142.875  1.00  0.00    -0.024 C 
ATOM     13  C   UNL     1     135.283 135.828 142.807  1.00  0.00     0.008 C 
ATOM     14  C   UNL     1     135.925 134.590 143.485  1.00  0.00    -0.024 C 
ATOM     15  C   UNL     1     137.355 133.766 141.542  1.00  0.00     0.008 C 
ATOM     16  C   UNL     1     138.424 133.893 143.815  1.00  0.00     0.012 C 
ATOM     17  C   UNL     1     135.991 134.893 145.018  1.00  0.00     0.012 C 
ATOM     18  C   UNL     1     135.030 133.293 143.157  1.00  0.00     0.002 C 
ATOM     19  C   UNL     1     137.067 132.282 141.736  1.00  0.00     0.008 C 
ATOM     20  C   UNL     1     135.797 132.045 142.608  1.00  0.00    -0.020 C 
ATOM     21  C   UNL     1     134.001 132.967 144.266  1.00  0.00     0.005 C 
ATOM     22  C   UNL     1     134.816 130.886 142.244  1.00  0.00    -0.020 C 
ATOM     23  C   UNL     1     135.857 130.699 143.352  1.00  0.00     0.015 C 
ATOM     24  C   UNL     1     133.117 131.725 144.056  1.00  0.00     0.005 C 
ATOM     25  C   UNL     1     133.339 130.950 142.729  1.00  0.00     0.004 C 
ATOM     26  C   UNL     1     135.040 130.200 140.871  1.00  0.00     0.010 C 
ATOM     27  C   UNL     1     132.652 129.511 142.705  1.00  0.00    -0.006 C 
ATOM     28  C   UNL     1     133.786 129.479 140.370  1.00  0.00     0.033 C 
ATOM     29  C   UNL     1     133.167 128.635 141.490  1.00  0.00     0.120 C 
ATOM     30  C   UNL     1     132.946 128.692 143.992  1.00  0.00     0.014 C 
ATOM     31  C   UNL     1     131.110 129.707 142.624  1.00  0.00     0.014 C 
BRANCH  29  32
ATOM     32  O   UNL     1     132.130 127.837 140.971  1.00  0.00    -0.393 OA
ATOM     33  H   UNL     1     132.064 127.024 141.543  1.00  0.00     0.210 HD
ENDBRANCH  29  32
ENDBRANCH   8  10
ENDBRANCH   1   8
TORSDOF 6
ENDMDL
