MODEL 1
REMARK VINA RESULT:    -5.495      0.000      0.000
REMARK INTER + INTRA:          -7.419
REMARK INTER:                  -6.940
REMARK INTRA:                  -0.479
REMARK UNBOUND:                -0.479
REMARK SMILES Oc1ccc(CCc2cc(O)cc(O)c2)cc1
REMARK SMILES IDX 6 1 5 2 4 3 3 4 2 5 16 6 17 7 1 8 7 10 8 11 15 12 9 13 13 14
REMARK SMILES IDX 10 15 12 16 14 17 11 19
REMARK H PARENT 1 9 14 18 11 20
REMARK Flexibility Score: inf
ROOT
ATOM      1  C   UNL     1     172.496 177.328 182.699  1.00  0.00     0.040 C 
ENDROOT
BRANCH   1   2
ATOM      2  C   UNL     1     171.175 177.303 181.979  1.00  0.00    -0.047 A 
ATOM      3  C   UNL     1     169.988 177.039 182.684  1.00  0.00     0.007 A 
ATOM      4  C   UNL     1     168.765 176.983 182.009  1.00  0.00     0.046 A 
ATOM      5  C   UNL     1     168.716 177.182 180.623  1.00  0.00     0.115 A 
ATOM      6  C   UNL     1     171.122 177.488 180.588  1.00  0.00     0.007 A 
ATOM      7  C   UNL     1     169.897 177.432 179.915  1.00  0.00     0.046 A 
BRANCH   5   8
ATOM      8  O   UNL     1     167.503 177.129 179.939  1.00  0.00    -0.508 OA
ATOM      9  H   UNL     1     166.734 176.559 180.271  1.00  0.00     0.293 HD
ENDBRANCH   5   8
ENDBRANCH   1   2
BRANCH   1  10
ATOM     10  C   UNL     1     173.350 176.122 182.297  1.00  0.00     0.040 C 
BRANCH  10  11
ATOM     11  C   UNL     1     174.764 176.549 182.005  1.00  0.00    -0.040 A 
ATOM     12  C   UNL     1     175.231 176.589 180.681  1.00  0.00     0.050 A 
ATOM     13  C   UNL     1     175.608 176.963 183.048  1.00  0.00     0.050 A 
ATOM     14  C   UNL     1     176.537 177.018 180.406  1.00  0.00     0.119 A 
ATOM     15  C   UNL     1     176.911 177.391 182.775  1.00  0.00     0.119 A 
ATOM     16  C   UNL     1     177.375 177.416 181.452  1.00  0.00     0.092 A 
BRANCH  14  17
ATOM     17  O   UNL     1     177.010 177.055 179.096  1.00  0.00    -0.508 OA
ATOM     18  H   UNL     1     176.378 177.044 178.304  1.00  0.00     0.293 HD
ENDBRANCH  14  17
BRANCH  15  19
ATOM     19  O   UNL     1     177.736 177.792 183.824  1.00  0.00    -0.508 OA
ATOM     20  H   UNL     1     177.362 178.255 184.644  1.00  0.00     0.293 HD
ENDBRANCH  15  19
ENDBRANCH  10  11
ENDBRANCH   1  10
TORSDOF 6
ENDMDL
MODEL 2
REMARK VINA RESULT:    -5.486      0.079      2.036
REMARK INTER + INTRA:          -7.408
REMARK INTER:                  -6.933
REMARK INTRA:                  -0.475
REMARK UNBOUND:                -0.479
REMARK SMILES Oc1ccc(CCc2cc(O)cc(O)c2)cc1
REMARK SMILES IDX 6 1 5 2 4 3 3 4 2 5 16 6 17 7 1 8 7 10 8 11 15 12 9 13 13 14
REMARK SMILES IDX 10 15 12 16 14 17 11 19
REMARK H PARENT 1 9 14 18 11 20
REMARK Flexibility Score: inf
ROOT
ATOM      1  C   UNL     1     172.502 177.265 182.788  1.00  0.00     0.040 C 
ENDROOT
BRANCH   1   2
ATOM      2  C   UNL     1     171.181 177.273 182.069  1.00  0.00    -0.047 A 
ATOM      3  C   UNL     1     169.988 177.043 182.774  1.00  0.00     0.007 A 
ATOM      4  C   UNL     1     168.764 177.019 182.100  1.00  0.00     0.046 A 
ATOM      5  C   UNL     1     168.720 177.215 180.713  1.00  0.00     0.115 A 
ATOM      6  C   UNL     1     171.133 177.456 180.677  1.00  0.00     0.007 A 
ATOM      7  C   UNL     1     169.907 177.431 180.005  1.00  0.00     0.046 A 
BRANCH   5   8
ATOM      8  O   UNL     1     167.506 177.193 180.029  1.00  0.00    -0.508 OA
ATOM      9  H   UNL     1     167.001 178.046 179.821  1.00  0.00     0.293 HD
ENDBRANCH   5   8
ENDBRANCH   1   2
BRANCH   1  10
ATOM     10  C   UNL     1     173.374 176.105 182.297  1.00  0.00     0.040 C 
BRANCH  10  11
ATOM     11  C   UNL     1     174.775 176.580 182.014  1.00  0.00    -0.040 A 
ATOM     12  C   UNL     1     175.610 176.988 183.066  1.00  0.00     0.050 A 
ATOM     13  C   UNL     1     175.275 176.565 180.701  1.00  0.00     0.050 A 
ATOM     14  C   UNL     1     176.924 177.399 182.807  1.00  0.00     0.119 A 
ATOM     15  C   UNL     1     176.586 176.976 180.441  1.00  0.00     0.119 A 
ATOM     16  C   UNL     1     177.409 177.394 181.495  1.00  0.00     0.092 A 
BRANCH  14  17
ATOM     17  O   UNL     1     177.757 177.811 183.845  1.00  0.00    -0.508 OA
ATOM     18  H   UNL     1     178.644 177.354 184.025  1.00  0.00     0.293 HD
ENDBRANCH  14  17
BRANCH  15  19
ATOM     19  O   UNL     1     177.063 176.960 179.131  1.00  0.00    -0.508 OA
ATOM     20  H   UNL     1     176.589 176.441 178.401  1.00  0.00     0.293 HD
ENDBRANCH  15  19
ENDBRANCH  10  11
ENDBRANCH   1  10
TORSDOF 6
ENDMDL
MODEL 3
REMARK VINA RESULT:    -5.448      3.307      4.325
REMARK INTER + INTRA:          -7.360
REMARK INTER:                  -6.683
REMARK INTRA:                  -0.677
REMARK UNBOUND:                -0.479
REMARK SMILES Oc1ccc(CCc2cc(O)cc(O)c2)cc1
REMARK SMILES IDX 6 1 5 2 4 3 3 4 2 5 16 6 17 7 1 8 7 10 8 11 15 12 9 13 13 14
REMARK SMILES IDX 10 15 12 16 14 17 11 19
REMARK H PARENT 1 9 14 18 11 20
REMARK Flexibility Score: inf
ROOT
ATOM      1  C   UNL     1     175.691 176.755 182.129  1.00  0.00     0.040 C 
ENDROOT
BRANCH   1   2
ATOM      2  C   UNL     1     174.244 176.994 181.792  1.00  0.00    -0.047 A 
ATOM      3  C   UNL     1     173.790 176.846 180.470  1.00  0.00     0.007 A 
ATOM      4  C   UNL     1     172.453 177.100 180.152  1.00  0.00     0.046 A 
ATOM      5  C   UNL     1     171.558 177.514 181.148  1.00  0.00     0.115 A 
ATOM      6  C   UNL     1     173.347 177.423 182.784  1.00  0.00     0.007 A 
ATOM      7  C   UNL     1     172.010 177.677 182.462  1.00  0.00     0.046 A 
BRANCH   5   8
ATOM      8  O   UNL     1     170.223 177.771 180.843  1.00  0.00    -0.508 OA
ATOM      9  H   UNL     1     169.568 178.077 181.552  1.00  0.00     0.293 HD
ENDBRANCH   5   8
ENDBRANCH   1   2
BRANCH   1  10
ATOM     10  C   UNL     1     175.823 175.632 183.163  1.00  0.00     0.040 C 
BRANCH  10  11
ATOM     11  C   UNL     1     175.618 174.289 182.514  1.00  0.00    -0.040 A 
ATOM     12  C   UNL     1     176.685 173.646 181.866  1.00  0.00     0.050 A 
ATOM     13  C   UNL     1     174.373 173.645 182.599  1.00  0.00     0.050 A 
ATOM     14  C   UNL     1     176.503 172.381 181.290  1.00  0.00     0.119 A 
ATOM     15  C   UNL     1     174.190 172.383 182.025  1.00  0.00     0.119 A 
ATOM     16  C   UNL     1     175.256 171.753 181.369  1.00  0.00     0.092 A 
BRANCH  14  17
ATOM     17  O   UNL     1     177.555 171.739 180.641  1.00  0.00    -0.508 OA
ATOM     18  H   UNL     1     177.469 171.415 179.685  1.00  0.00     0.293 HD
ENDBRANCH  14  17
BRANCH  15  19
ATOM     19  O   UNL     1     172.945 171.762 182.115  1.00  0.00    -0.508 OA
ATOM     20  H   UNL     1     172.094 172.242 181.849  1.00  0.00     0.293 HD
ENDBRANCH  15  19
ENDBRANCH  10  11
ENDBRANCH   1  10
TORSDOF 6
ENDMDL
MODEL 4
REMARK VINA RESULT:    -5.441      3.291      4.207
REMARK INTER + INTRA:          -7.351
REMARK INTER:                  -6.634
REMARK INTRA:                  -0.717
REMARK UNBOUND:                -0.479
REMARK SMILES Oc1ccc(CCc2cc(O)cc(O)c2)cc1
REMARK SMILES IDX 6 1 5 2 4 3 3 4 2 5 16 6 17 7 1 8 7 10 8 11 15 12 9 13 13 14
REMARK SMILES IDX 10 15 12 16 14 17 11 19
REMARK H PARENT 1 9 14 18 11 20
REMARK Flexibility Score: inf
ROOT
ATOM      1  C   UNL     1     175.561 176.729 182.100  1.00  0.00     0.040 C 
ENDROOT
BRANCH   1   2
ATOM      2  C   UNL     1     174.121 177.012 181.768  1.00  0.00    -0.047 A 
ATOM      3  C   UNL     1     173.245 177.489 182.758  1.00  0.00     0.007 A 
ATOM      4  C   UNL     1     171.900 177.720 182.457  1.00  0.00     0.046 A 
ATOM      5  C   UNL     1     171.414 177.469 181.167  1.00  0.00     0.115 A 
ATOM      6  C   UNL     1     173.626 176.748 180.480  1.00  0.00     0.007 A 
ATOM      7  C   UNL     1     172.279 176.981 180.182  1.00  0.00     0.046 A 
BRANCH   5   8
ATOM      8  O   UNL     1     170.075 177.696 180.854  1.00  0.00    -0.508 OA
ATOM      9  H   UNL     1     169.705 178.634 180.768  1.00  0.00     0.293 HD
ENDBRANCH   5   8
ENDBRANCH   1   2
BRANCH   1  10
ATOM     10  C   UNL     1     175.662 175.650 183.183  1.00  0.00     0.040 C 
BRANCH  10  11
ATOM     11  C   UNL     1     175.527 174.279 182.577  1.00  0.00    -0.040 A 
ATOM     12  C   UNL     1     174.297 173.602 182.624  1.00  0.00     0.050 A 
ATOM     13  C   UNL     1     176.615 173.689 181.913  1.00  0.00     0.050 A 
ATOM     14  C   UNL     1     174.163 172.339 182.032  1.00  0.00     0.119 A 
ATOM     15  C   UNL     1     176.482 172.428 181.321  1.00  0.00     0.119 A 
ATOM     16  C   UNL     1     175.255 171.754 181.384  1.00  0.00     0.092 A 
BRANCH  14  17
ATOM     17  O   UNL     1     172.948 171.659 182.079  1.00  0.00    -0.508 OA
ATOM     18  H   UNL     1     172.226 171.910 182.744  1.00  0.00     0.293 HD
ENDBRANCH  14  17
BRANCH  15  19
ATOM     19  O   UNL     1     177.575 171.856 180.672  1.00  0.00    -0.508 OA
ATOM     20  H   UNL     1     178.315 172.426 180.279  1.00  0.00     0.293 HD
ENDBRANCH  15  19
ENDBRANCH  10  11
ENDBRANCH   1  10
TORSDOF 6
ENDMDL
MODEL 5
REMARK VINA RESULT:    -5.377      1.562      6.945
REMARK INTER + INTRA:          -7.270
REMARK INTER:                  -6.814
REMARK INTRA:                  -0.456
REMARK UNBOUND:                -0.479
REMARK SMILES Oc1ccc(CCc2cc(O)cc(O)c2)cc1
REMARK SMILES IDX 6 1 5 2 4 3 3 4 2 5 16 6 17 7 1 8 7 10 8 11 15 12 9 13 13 14
REMARK SMILES IDX 10 15 12 16 14 17 11 19
REMARK H PARENT 1 9 14 18 11 20
REMARK Flexibility Score: inf
ROOT
ATOM      1  C   UNL     1     173.628 176.214 182.492  1.00  0.00     0.040 C 
ENDROOT
BRANCH   1   2
ATOM      2  C   UNL     1     174.815 176.690 181.699  1.00  0.00    -0.047 A 
ATOM      3  C   UNL     1     176.042 176.936 182.337  1.00  0.00     0.007 A 
ATOM      4  C   UNL     1     177.135 177.410 181.605  1.00  0.00     0.046 A 
ATOM      5  C   UNL     1     177.010 177.652 180.231  1.00  0.00     0.115 A 
ATOM      6  C   UNL     1     174.691 176.948 180.323  1.00  0.00     0.007 A 
ATOM      7  C   UNL     1     175.786 177.422 179.594  1.00  0.00     0.046 A 
BRANCH   5   8
ATOM      8  O   UNL     1     178.092 178.125 179.490  1.00  0.00    -0.508 OA
ATOM      9  H   UNL     1     179.023 178.169 179.886  1.00  0.00     0.293 HD
ENDBRANCH   5   8
ENDBRANCH   1   2
BRANCH   1  10
ATOM     10  C   UNL     1     172.562 177.310 182.576  1.00  0.00     0.040 C 
BRANCH  10  11
ATOM     11  C   UNL     1     171.201 176.749 182.263  1.00  0.00    -0.040 A 
ATOM     12  C   UNL     1     170.791 175.530 182.829  1.00  0.00     0.050 A 
ATOM     13  C   UNL     1     170.309 177.466 181.449  1.00  0.00     0.050 A 
ATOM     14  C   UNL     1     169.511 175.024 182.564  1.00  0.00     0.119 A 
ATOM     15  C   UNL     1     169.032 176.962 181.184  1.00  0.00     0.119 A 
ATOM     16  C   UNL     1     168.635 175.738 181.741  1.00  0.00     0.092 A 
BRANCH  14  17
ATOM     17  O   UNL     1     169.100 173.813 183.117  1.00  0.00    -0.508 OA
ATOM     18  H   UNL     1     169.592 173.392 183.897  1.00  0.00     0.293 HD
ENDBRANCH  14  17
BRANCH  15  19
ATOM     19  O   UNL     1     168.164 177.685 180.368  1.00  0.00    -0.508 OA
ATOM     20  H   UNL     1     168.501 178.417 179.754  1.00  0.00     0.293 HD
ENDBRANCH  15  19
ENDBRANCH  10  11
ENDBRANCH   1  10
TORSDOF 6
ENDMDL
MODEL 6
REMARK VINA RESULT:    -5.355      7.413     10.365
REMARK INTER + INTRA:          -7.243
REMARK INTER:                  -6.518
REMARK INTRA:                  -0.725
REMARK UNBOUND:                -0.479
REMARK SMILES Oc1ccc(CCc2cc(O)cc(O)c2)cc1
REMARK SMILES IDX 6 1 5 2 4 3 3 4 2 5 16 6 17 7 1 8 7 10 8 11 15 12 9 13 13 14
REMARK SMILES IDX 10 15 12 16 14 17 11 19
REMARK H PARENT 1 9 14 18 11 20
REMARK Flexibility Score: inf
ROOT
ATOM      1  C   UNL     1     161.971 177.459 181.733  1.00  0.00     0.040 C 
ENDROOT
BRANCH   1   2
ATOM      2  C   UNL     1     161.200 176.233 181.328  1.00  0.00    -0.047 A 
ATOM      3  C   UNL     1     160.488 175.493 182.287  1.00  0.00     0.007 A 
ATOM      4  C   UNL     1     159.798 174.336 181.915  1.00  0.00     0.046 A 
ATOM      5  C   UNL     1     159.819 173.901 180.583  1.00  0.00     0.115 A 
ATOM      6  C   UNL     1     161.229 175.785 179.997  1.00  0.00     0.007 A 
ATOM      7  C   UNL     1     160.538 174.627 179.627  1.00  0.00     0.046 A 
BRANCH   5   8
ATOM      8  O   UNL     1     159.135 172.749 180.200  1.00  0.00    -0.508 OA
ATOM      9  H   UNL     1     158.961 172.537 179.225  1.00  0.00     0.293 HD
ENDBRANCH   5   8
ENDBRANCH   1   2
BRANCH   1  10
ATOM     10  C   UNL     1     162.920 177.139 182.892  1.00  0.00     0.040 C 
BRANCH  10  11
ATOM     11  C   UNL     1     164.259 176.689 182.370  1.00  0.00    -0.040 A 
ATOM     12  C   UNL     1     164.621 175.333 182.425  1.00  0.00     0.050 A 
ATOM     13  C   UNL     1     165.133 177.613 181.774  1.00  0.00     0.050 A 
ATOM     14  C   UNL     1     165.853 174.910 181.910  1.00  0.00     0.119 A 
ATOM     15  C   UNL     1     166.363 177.192 181.259  1.00  0.00     0.119 A 
ATOM     16  C   UNL     1     166.723 175.839 181.330  1.00  0.00     0.092 A 
BRANCH  14  17
ATOM     17  O   UNL     1     166.222 173.567 181.966  1.00  0.00    -0.508 OA
ATOM     18  H   UNL     1     167.188 173.279 181.869  1.00  0.00     0.293 HD
ENDBRANCH  14  17
BRANCH  15  19
ATOM     19  O   UNL     1     167.220 178.124 180.677  1.00  0.00    -0.508 OA
ATOM     20  H   UNL     1     167.916 178.617 181.224  1.00  0.00     0.293 HD
ENDBRANCH  15  19
ENDBRANCH  10  11
ENDBRANCH   1  10
TORSDOF 6
ENDMDL
MODEL 7
REMARK VINA RESULT:    -5.334      1.557      6.827
REMARK INTER + INTRA:          -7.216
REMARK INTER:                  -6.751
REMARK INTRA:                  -0.465
REMARK UNBOUND:                -0.479
REMARK SMILES Oc1ccc(CCc2cc(O)cc(O)c2)cc1
REMARK SMILES IDX 6 1 5 2 4 3 3 4 2 5 16 6 17 7 1 8 7 10 8 11 15 12 9 13 13 14
REMARK SMILES IDX 10 15 12 16 14 17 11 19
REMARK H PARENT 1 9 14 18 11 20
REMARK Flexibility Score: inf
ROOT
ATOM      1  C   UNL     1     173.600 176.199 182.501  1.00  0.00     0.040 C 
ENDROOT
BRANCH   1   2
ATOM      2  C   UNL     1     174.758 176.733 181.702  1.00  0.00    -0.047 A 
ATOM      3  C   UNL     1     174.633 176.929 180.316  1.00  0.00     0.007 A 
ATOM      4  C   UNL     1     175.719 177.395 179.570  1.00  0.00     0.046 A 
ATOM      5  C   UNL     1     176.943 177.661 180.198  1.00  0.00     0.115 A 
ATOM      6  C   UNL     1     175.991 176.988 182.325  1.00  0.00     0.007 A 
ATOM      7  C   UNL     1     177.076 177.454 181.575  1.00  0.00     0.046 A 
BRANCH   5   8
ATOM      8  O   UNL     1     178.033 178.125 179.465  1.00  0.00    -0.508 OA
ATOM      9  H   UNL     1     177.994 179.001 178.958  1.00  0.00     0.293 HD
ENDBRANCH   5   8
ENDBRANCH   1   2
BRANCH   1  10
ATOM     10  C   UNL     1     172.537 177.284 182.700  1.00  0.00     0.040 C 
BRANCH  10  11
ATOM     11  C   UNL     1     171.171 176.756 182.353  1.00  0.00    -0.040 A 
ATOM     12  C   UNL     1     170.325 177.485 181.502  1.00  0.00     0.050 A 
ATOM     13  C   UNL     1     170.754 175.503 182.833  1.00  0.00     0.050 A 
ATOM     14  C   UNL     1     169.066 176.978 181.153  1.00  0.00     0.119 A 
ATOM     15  C   UNL     1     169.497 174.996 182.486  1.00  0.00     0.119 A 
ATOM     16  C   UNL     1     168.653 175.737 181.646  1.00  0.00     0.092 A 
BRANCH  14  17
ATOM     17  O   UNL     1     168.219 177.699 180.314  1.00  0.00    -0.508 OA
ATOM     18  H   UNL     1     168.193 178.711 180.330  1.00  0.00     0.293 HD
ENDBRANCH  14  17
BRANCH  15  19
ATOM     19  O   UNL     1     169.098 173.754 182.977  1.00  0.00    -0.508 OA
ATOM     20  H   UNL     1     169.750 173.138 183.449  1.00  0.00     0.293 HD
ENDBRANCH  15  19
ENDBRANCH  10  11
ENDBRANCH   1  10
TORSDOF 6
ENDMDL
MODEL 8
REMARK VINA RESULT:    -5.320      1.927      2.288
REMARK INTER + INTRA:          -7.198
REMARK INTER:                  -6.477
REMARK INTRA:                  -0.721
REMARK UNBOUND:                -0.479
REMARK SMILES Oc1ccc(CCc2cc(O)cc(O)c2)cc1
REMARK SMILES IDX 6 1 5 2 4 3 3 4 2 5 16 6 17 7 1 8 7 10 8 11 15 12 9 13 13 14
REMARK SMILES IDX 10 15 12 16 14 17 11 19
REMARK H PARENT 1 9 14 18 11 20
REMARK Flexibility Score: inf
ROOT
ATOM      1  C   UNL     1     172.603 174.374 183.241  1.00  0.00     0.040 C 
ENDROOT
BRANCH   1   2
ATOM      2  C   UNL     1     171.913 175.353 182.331  1.00  0.00    -0.047 A 
ATOM      3  C   UNL     1     171.160 174.896 181.236  1.00  0.00     0.007 A 
ATOM      4  C   UNL     1     170.546 175.807 180.373  1.00  0.00     0.046 A 
ATOM      5  C   UNL     1     170.685 177.185 180.589  1.00  0.00     0.115 A 
ATOM      6  C   UNL     1     172.060 176.735 182.535  1.00  0.00     0.007 A 
ATOM      7  C   UNL     1     171.444 177.645 181.669  1.00  0.00     0.046 A 
BRANCH   5   8
ATOM      8  O   UNL     1     170.077 178.103 179.734  1.00  0.00    -0.508 OA
ATOM      9  H   UNL     1     169.824 179.032 180.051  1.00  0.00     0.293 HD
ENDBRANCH   5   8
ENDBRANCH   1   2
BRANCH   1  10
ATOM     10  C   UNL     1     173.580 173.500 182.448  1.00  0.00     0.040 C 
BRANCH  10  11
ATOM     11  C   UNL     1     174.823 174.277 182.102  1.00  0.00    -0.040 A 
ATOM     12  C   UNL     1     175.419 174.131 180.839  1.00  0.00     0.050 A 
ATOM     13  C   UNL     1     175.362 175.194 183.018  1.00  0.00     0.050 A 
ATOM     14  C   UNL     1     176.557 174.878 180.504  1.00  0.00     0.119 A 
ATOM     15  C   UNL     1     176.498 175.940 182.686  1.00  0.00     0.119 A 
ATOM     16  C   UNL     1     177.095 175.779 181.428  1.00  0.00     0.092 A 
BRANCH  14  17
ATOM     17  O   UNL     1     177.157 174.734 179.255  1.00  0.00    -0.508 OA
ATOM     18  H   UNL     1     177.373 173.821 178.873  1.00  0.00     0.293 HD
ENDBRANCH  14  17
BRANCH  15  19
ATOM     19  O   UNL     1     177.023 176.841 183.610  1.00  0.00    -0.508 OA
ATOM     20  H   UNL     1     176.460 177.590 183.998  1.00  0.00     0.293 HD
ENDBRANCH  15  19
ENDBRANCH  10  11
ENDBRANCH   1  10
TORSDOF 6
ENDMDL
MODEL 9
REMARK VINA RESULT:    -5.308      3.691      6.179
REMARK INTER + INTRA:          -7.184
REMARK INTER:                  -6.568
REMARK INTRA:                  -0.615
REMARK UNBOUND:                -0.479
REMARK SMILES Oc1ccc(CCc2cc(O)cc(O)c2)cc1
REMARK SMILES IDX 6 1 5 2 4 3 3 4 2 5 16 6 17 7 1 8 7 10 8 11 15 12 9 13 13 14
REMARK SMILES IDX 10 15 12 16 14 17 11 19
REMARK H PARENT 1 9 14 18 11 20
REMARK Flexibility Score: inf
ROOT
ATOM      1  C   UNL     1     175.422 175.831 182.902  1.00  0.00     0.040 C 
ENDROOT
BRANCH   1   2
ATOM      2  C   UNL     1     175.940 174.530 182.350  1.00  0.00    -0.047 A 
ATOM      3  C   UNL     1     177.321 174.280 182.300  1.00  0.00     0.007 A 
ATOM      4  C   UNL     1     177.803 173.085 181.758  1.00  0.00     0.046 A 
ATOM      5  C   UNL     1     176.909 172.132 181.252  1.00  0.00     0.115 A 
ATOM      6  C   UNL     1     175.049 173.577 181.829  1.00  0.00     0.007 A 
ATOM      7  C   UNL     1     175.533 172.382 181.287  1.00  0.00     0.046 A 
BRANCH   5   8
ATOM      8  O   UNL     1     177.377 170.937 180.708  1.00  0.00    -0.508 OA
ATOM      9  H   UNL     1     176.741 170.233 180.354  1.00  0.00     0.293 HD
ENDBRANCH   5   8
ENDBRANCH   1   2
BRANCH   1  10
ATOM     10  C   UNL     1     176.005 177.014 182.124  1.00  0.00     0.040 C 
BRANCH  10  11
ATOM     11  C   UNL     1     175.672 176.902 180.661  1.00  0.00    -0.040 A 
ATOM     12  C   UNL     1     176.676 176.596 179.728  1.00  0.00     0.050 A 
ATOM     13  C   UNL     1     174.344 177.046 180.224  1.00  0.00     0.050 A 
ATOM     14  C   UNL     1     176.360 176.459 178.369  1.00  0.00     0.119 A 
ATOM     15  C   UNL     1     174.028 176.910 178.869  1.00  0.00     0.119 A 
ATOM     16  C   UNL     1     175.038 176.618 177.942  1.00  0.00     0.092 A 
BRANCH  14  17
ATOM     17  O   UNL     1     177.351 176.162 177.437  1.00  0.00    -0.508 OA
ATOM     18  H   UNL     1     177.123 175.921 176.479  1.00  0.00     0.293 HD
ENDBRANCH  14  17
BRANCH  15  19
ATOM     19  O   UNL     1     172.706 177.063 178.454  1.00  0.00    -0.508 OA
ATOM     20  H   UNL     1     172.392 177.905 177.986  1.00  0.00     0.293 HD
ENDBRANCH  15  19
ENDBRANCH  10  11
ENDBRANCH   1  10
TORSDOF 6
ENDMDL
