MODEL 1
REMARK VINA RESULT:    -3.017      0.000      0.000
REMARK INTER + INTRA:          -3.552
REMARK INTER:                  -3.546
REMARK INTRA:                  -0.007
REMARK UNBOUND:                -0.007
REMARK SMILES [NH3+][C@@H](CO)C(=O)[O-]
REMARK SMILES IDX 3 1 2 2 1 3 5 7 6 8 7 9 4 10
REMARK H PARENT 1 4 1 5 1 6 4 11
REMARK Flexibility Score: inf
ROOT
ATOM      1  C   UNL     1     125.969 123.372 129.656  1.00  0.00     0.227 C 
ENDROOT
BRANCH   1   2
ATOM      2  C   UNL     1     126.249 123.777 131.112  1.00  0.00     0.253 C 
BRANCH   2   3
ATOM      3  N   UNL     1     127.383 123.024 131.661  1.00  0.00    -0.348 N 
ATOM      4  H   UNL     1     128.283 123.466 131.362  1.00  0.00     0.345 HD
ATOM      5  H   UNL     1     127.364 122.031 131.331  1.00  0.00     0.345 HD
ATOM      6  H   UNL     1     127.345 123.039 132.706  1.00  0.00     0.345 HD
ENDBRANCH   2   3
BRANCH   2   7
ATOM      7  C   UNL     1     125.020 123.555 131.952  1.00  0.00     0.102 C 
ATOM      8  O   UNL     1     125.120 123.031 133.094  1.00  0.00    -0.544 OA
ATOM      9  O   UNL     1     123.769 123.935 131.480  1.00  0.00    -0.544 OA
ENDBRANCH   2   7
ENDBRANCH   1   2
BRANCH   1  10
ATOM     10  O   UNL     1     127.060 123.711 128.846  1.00  0.00    -0.390 OA
ATOM     11  H   UNL     1     126.842 123.380 127.937  1.00  0.00     0.210 HD
ENDBRANCH   1  10
TORSDOF 4
ENDMDL
MODEL 2
REMARK VINA RESULT:    -2.762     21.232     22.428
REMARK INTER + INTRA:          -3.253
REMARK INTER:                  -2.840
REMARK INTRA:                  -0.413
REMARK UNBOUND:                -0.007
REMARK SMILES [NH3+][C@@H](CO)C(=O)[O-]
REMARK SMILES IDX 3 1 2 2 1 3 5 7 6 8 7 9 4 10
REMARK H PARENT 1 4 1 5 1 6 4 11
REMARK Flexibility Score: inf
ROOT
ATOM      1  C   UNL     1     139.731 134.058 119.883  1.00  0.00     0.227 C 
ENDROOT
BRANCH   1   2
ATOM      2  C   UNL     1     140.120 135.545 119.892  1.00  0.00     0.253 C 
BRANCH   2   3
ATOM      3  N   UNL     1     138.999 136.383 120.334  1.00  0.00    -0.348 N 
ATOM      4  H   UNL     1     138.111 135.830 120.316  1.00  0.00     0.345 HD
ATOM      5  H   UNL     1     138.894 137.220 119.715  1.00  0.00     0.345 HD
ATOM      6  H   UNL     1     139.162 136.702 121.317  1.00  0.00     0.345 HD
ENDBRANCH   2   3
BRANCH   2   7
ATOM      7  C   UNL     1     140.575 135.964 118.519  1.00  0.00     0.102 C 
ATOM      8  O   UNL     1     139.746 136.428 117.693  1.00  0.00    -0.544 OA
ATOM      9  O   UNL     1     141.913 135.854 118.159  1.00  0.00    -0.544 OA
ENDBRANCH   2   7
ENDBRANCH   1   2
BRANCH   1  10
ATOM     10  O   UNL     1     140.020 133.494 118.634  1.00  0.00    -0.390 OA
ATOM     11  H   UNL     1     140.622 134.136 118.176  1.00  0.00     0.210 HD
ENDBRANCH   1  10
TORSDOF 4
ENDMDL
MODEL 3
REMARK VINA RESULT:    -2.735     18.157     19.111
REMARK INTER + INTRA:          -3.222
REMARK INTER:                  -2.807
REMARK INTRA:                  -0.414
REMARK UNBOUND:                -0.007
REMARK SMILES [NH3+][C@@H](CO)C(=O)[O-]
REMARK SMILES IDX 3 1 2 2 1 3 5 7 6 8 7 9 4 10
REMARK H PARENT 1 4 1 5 1 6 4 11
REMARK Flexibility Score: inf
ROOT
ATOM      1  C   UNL     1     128.610 137.390 120.179  1.00  0.00     0.227 C 
ENDROOT
BRANCH   1   2
ATOM      2  C   UNL     1     128.480 137.652 118.670  1.00  0.00     0.253 C 
BRANCH   2   3
ATOM      3  N   UNL     1     129.276 138.817 118.266  1.00  0.00    -0.348 N 
ATOM      4  H   UNL     1     129.884 139.127 119.058  1.00  0.00     0.345 HD
ATOM      5  H   UNL     1     128.656 139.609 117.980  1.00  0.00     0.345 HD
ATOM      6  H   UNL     1     129.896 138.560 117.463  1.00  0.00     0.345 HD
ENDBRANCH   2   3
BRANCH   2   7
ATOM      7  C   UNL     1     127.034 137.857 118.307  1.00  0.00     0.102 C 
ATOM      8  O   UNL     1     126.560 139.022 118.227  1.00  0.00    -0.544 OA
ATOM      9  O   UNL     1     126.214 136.765 118.046  1.00  0.00    -0.544 OA
ENDBRANCH   2   7
ENDBRANCH   1   2
BRANCH   1  10
ATOM     10  O   UNL     1     127.350 137.459 120.787  1.00  0.00    -0.390 OA
ATOM     11  H   UNL     1     127.431 136.968 121.646  1.00  0.00     0.210 HD
ENDBRANCH   1  10
TORSDOF 4
ENDMDL
MODEL 4
REMARK VINA RESULT:    -2.732     13.508     13.950
REMARK INTER + INTRA:          -3.217
REMARK INTER:                  -2.807
REMARK INTRA:                  -0.410
REMARK UNBOUND:                -0.007
REMARK SMILES [NH3+][C@@H](CO)C(=O)[O-]
REMARK SMILES IDX 3 1 2 2 1 3 5 7 6 8 7 9 4 10
REMARK H PARENT 1 4 1 5 1 6 4 11
REMARK Flexibility Score: inf
ROOT
ATOM      1  C   UNL     1     130.736 127.028 119.642  1.00  0.00     0.227 C 
ENDROOT
BRANCH   1   2
ATOM      2  C   UNL     1     131.721 125.867 119.854  1.00  0.00     0.253 C 
BRANCH   2   3
ATOM      3  N   UNL     1     132.978 126.341 120.445  1.00  0.00    -0.348 N 
ATOM      4  H   UNL     1     132.824 126.610 121.444  1.00  0.00     0.345 HD
ATOM      5  H   UNL     1     133.346 127.168 119.920  1.00  0.00     0.345 HD
ATOM      6  H   UNL     1     133.690 125.575 120.422  1.00  0.00     0.345 HD
ENDBRANCH   2   3
BRANCH   2   7
ATOM      7  C   UNL     1     131.989 125.175 118.544  1.00  0.00     0.102 C 
ATOM      8  O   UNL     1     132.956 125.537 117.824  1.00  0.00    -0.544 OA
ATOM      9  O   UNL     1     131.178 124.125 118.126  1.00  0.00    -0.544 OA
ENDBRANCH   2   7
ENDBRANCH   1   2
BRANCH   1  10
ATOM     10  O   UNL     1     130.253 127.012 118.327  1.00  0.00    -0.390 OA
ATOM     11  H   UNL     1     130.943 127.463 117.775  1.00  0.00     0.210 HD
ENDBRANCH   1  10
TORSDOF 4
ENDMDL
MODEL 5
REMARK VINA RESULT:    -2.720     18.592     19.117
REMARK INTER + INTRA:          -3.203
REMARK INTER:                  -2.789
REMARK INTRA:                  -0.415
REMARK UNBOUND:                -0.007
REMARK SMILES [NH3+][C@@H](CO)C(=O)[O-]
REMARK SMILES IDX 3 1 2 2 1 3 5 7 6 8 7 9 4 10
REMARK H PARENT 1 4 1 5 1 6 4 11
REMARK Flexibility Score: inf
ROOT
ATOM      1  C   UNL     1     129.058 138.261 119.752  1.00  0.00     0.227 C 
ENDROOT
BRANCH   1   2
ATOM      2  C   UNL     1     127.577 137.858 119.837  1.00  0.00     0.253 C 
BRANCH   2   3
ATOM      3  N   UNL     1     127.432 136.466 120.281  1.00  0.00    -0.348 N 
ATOM      4  H   UNL     1     126.486 136.104 120.020  1.00  0.00     0.345 HD
ATOM      5  H   UNL     1     127.553 136.393 121.318  1.00  0.00     0.345 HD
ATOM      6  H   UNL     1     128.150 135.868 119.809  1.00  0.00     0.345 HD
ENDBRANCH   2   3
BRANCH   2   7
ATOM      7  C   UNL     1     126.914 138.050 118.499  1.00  0.00     0.102 C 
ATOM      8  O   UNL     1     126.855 137.096 117.680  1.00  0.00    -0.544 OA
ATOM      9  O   UNL     1     126.353 139.277 118.164  1.00  0.00    -0.544 OA
ENDBRANCH   2   7
ENDBRANCH   1   2
BRANCH   1  10
ATOM     10  O   UNL     1     129.348 138.749 118.471  1.00  0.00    -0.390 OA
ATOM     11  H   UNL     1     129.293 139.738 118.535  1.00  0.00     0.210 HD
ENDBRANCH   1  10
TORSDOF 4
ENDMDL
MODEL 6
REMARK VINA RESULT:    -2.712     12.083     13.174
REMARK INTER + INTRA:          -3.194
REMARK INTER:                  -2.788
REMARK INTRA:                  -0.405
REMARK UNBOUND:                -0.007
REMARK SMILES [NH3+][C@@H](CO)C(=O)[O-]
REMARK SMILES IDX 3 1 2 2 1 3 5 7 6 8 7 9 4 10
REMARK H PARENT 1 4 1 5 1 6 4 11
REMARK Flexibility Score: inf
ROOT
ATOM      1  C   UNL     1     133.193 128.501 123.396  1.00  0.00     0.227 C 
ENDROOT
BRANCH   1   2
ATOM      2  C   UNL     1     134.146 127.839 122.388  1.00  0.00     0.253 C 
BRANCH   2   3
ATOM      3  N   UNL     1     133.789 126.433 122.166  1.00  0.00    -0.348 N 
ATOM      4  H   UNL     1     132.950 126.371 121.544  1.00  0.00     0.345 HD
ATOM      5  H   UNL     1     133.577 125.956 123.074  1.00  0.00     0.345 HD
ATOM      6  H   UNL     1     134.580 125.937 121.695  1.00  0.00     0.345 HD
ENDBRANCH   2   3
BRANCH   2   7
ATOM      7  C   UNL     1     135.566 127.945 122.877  1.00  0.00     0.102 C 
ATOM      8  O   UNL     1     136.028 127.082 123.669  1.00  0.00    -0.544 OA
ATOM      9  O   UNL     1     136.379 128.989 122.450  1.00  0.00    -0.544 OA
ENDBRANCH   2   7
ENDBRANCH   1   2
BRANCH   1  10
ATOM     10  O   UNL     1     133.929 129.135 124.405  1.00  0.00    -0.390 OA
ATOM     11  H   UNL     1     133.288 129.316 125.141  1.00  0.00     0.210 HD
ENDBRANCH   1  10
TORSDOF 4
ENDMDL
MODEL 7
REMARK VINA RESULT:    -2.700     13.886     14.800
REMARK INTER + INTRA:          -3.181
REMARK INTER:                  -2.950
REMARK INTRA:                  -0.231
REMARK UNBOUND:                -0.007
REMARK SMILES [NH3+][C@@H](CO)C(=O)[O-]
REMARK SMILES IDX 3 1 2 2 1 3 5 7 6 8 7 9 4 10
REMARK H PARENT 1 4 1 5 1 6 4 11
REMARK Flexibility Score: inf
ROOT
ATOM      1  C   UNL     1     127.018 135.990 121.862  1.00  0.00     0.227 C 
ENDROOT
BRANCH   1   2
ATOM      2  C   UNL     1     127.492 134.833 122.756  1.00  0.00     0.253 C 
BRANCH   2   3
ATOM      3  N   UNL     1     126.464 134.469 123.738  1.00  0.00    -0.348 N 
ATOM      4  H   UNL     1     126.294 135.268 124.392  1.00  0.00     0.345 HD
ATOM      5  H   UNL     1     126.759 133.631 124.291  1.00  0.00     0.345 HD
ATOM      6  H   UNL     1     125.565 134.256 123.247  1.00  0.00     0.345 HD
ENDBRANCH   2   3
BRANCH   2   7
ATOM      7  C   UNL     1     128.770 135.214 123.455  1.00  0.00     0.102 C 
ATOM      8  O   UNL     1     129.399 134.359 124.133  1.00  0.00    -0.544 OA
ATOM      9  O   UNL     1     129.268 136.508 123.349  1.00  0.00    -0.544 OA
ENDBRANCH   2   7
ENDBRANCH   1   2
BRANCH   1  10
ATOM     10  O   UNL     1     127.897 136.152 120.782  1.00  0.00    -0.390 OA
ATOM     11  H   UNL     1     127.371 135.946 119.967  1.00  0.00     0.210 HD
ENDBRANCH   1  10
TORSDOF 4
ENDMDL
MODEL 8
REMARK VINA RESULT:    -2.688     11.634     12.211
REMARK INTER + INTRA:          -3.167
REMARK INTER:                  -2.935
REMARK INTRA:                  -0.231
REMARK UNBOUND:                -0.007
REMARK SMILES [NH3+][C@@H](CO)C(=O)[O-]
REMARK SMILES IDX 3 1 2 2 1 3 5 7 6 8 7 9 4 10
REMARK H PARENT 1 4 1 5 1 6 4 11
REMARK Flexibility Score: inf
ROOT
ATOM      1  C   UNL     1     133.682 126.485 121.848  1.00  0.00     0.227 C 
ENDROOT
BRANCH   1   2
ATOM      2  C   UNL     1     134.430 127.441 122.791  1.00  0.00     0.253 C 
BRANCH   2   3
ATOM      3  N   UNL     1     135.233 126.698 123.770  1.00  0.00    -0.348 N 
ATOM      4  H   UNL     1     136.188 126.514 123.384  1.00  0.00     0.345 HD
ATOM      5  H   UNL     1     134.778 125.785 124.006  1.00  0.00     0.345 HD
ATOM      6  H   UNL     1     135.339 127.264 124.643  1.00  0.00     0.345 HD
ENDBRANCH   2   3
BRANCH   2   7
ATOM      7  C   UNL     1     133.450 128.340 123.495  1.00  0.00     0.102 C 
ATOM      8  O   UNL     1     133.863 129.310 124.184  1.00  0.00    -0.544 OA
ATOM      9  O   UNL     1     132.083 128.113 123.381  1.00  0.00    -0.544 OA
ENDBRANCH   2   7
ENDBRANCH   1   2
BRANCH   1  10
ATOM     10  O   UNL     1     133.113 127.204 120.790  1.00  0.00    -0.390 OA
ATOM     11  H   UNL     1     133.295 126.677 119.969  1.00  0.00     0.210 HD
ENDBRANCH   1  10
TORSDOF 4
ENDMDL
MODEL 9
REMARK VINA RESULT:    -2.684     21.694     22.317
REMARK INTER + INTRA:          -3.161
REMARK INTER:                  -2.752
REMARK INTRA:                  -0.409
REMARK UNBOUND:                -0.007
REMARK SMILES [NH3+][C@@H](CO)C(=O)[O-]
REMARK SMILES IDX 3 1 2 2 1 3 5 7 6 8 7 9 4 10
REMARK H PARENT 1 4 1 5 1 6 4 11
REMARK Flexibility Score: inf
ROOT
ATOM      1  C   UNL     1     138.935 133.752 117.998  1.00  0.00     0.227 C 
ENDROOT
BRANCH   1   2
ATOM      2  C   UNL     1     138.999 135.264 118.269  1.00  0.00     0.253 C 
BRANCH   2   3
ATOM      3  N   UNL     1     138.908 136.029 117.019  1.00  0.00    -0.348 N 
ATOM      4  H   UNL     1     137.939 135.965 116.631  1.00  0.00     0.345 HD
ATOM      5  H   UNL     1     139.586 135.664 116.311  1.00  0.00     0.345 HD
ATOM      6  H   UNL     1     139.116 137.037 117.206  1.00  0.00     0.345 HD
ENDBRANCH   2   3
BRANCH   2   7
ATOM      7  C   UNL     1     140.273 135.602 118.996  1.00  0.00     0.102 C 
ATOM      8  O   UNL     1     140.291 135.648 120.254  1.00  0.00    -0.544 OA
ATOM      9  O   UNL     1     141.440 135.855 118.284  1.00  0.00    -0.544 OA
ENDBRANCH   2   7
ENDBRANCH   1   2
BRANCH   1  10
ATOM     10  O   UNL     1     140.149 133.150 118.354  1.00  0.00    -0.390 OA
ATOM     11  H   UNL     1     139.912 132.348 118.887  1.00  0.00     0.210 HD
ENDBRANCH   1  10
TORSDOF 4
ENDMDL
