MODEL 1
REMARK VINA RESULT:    -6.557      0.000      0.000
REMARK INTER + INTRA:         -10.747
REMARK INTER:                  -9.048
REMARK INTRA:                  -1.699
REMARK UNBOUND:                -1.699
REMARK SMILES CC[C@@H](CC[C@H](C)[C@H]1CC[C@H]2[C@@H]3CC=C4C[C@H](O)CC[C@@]4(C)[C@H]3CC[C@]12C)C(C)C
REMARK SMILES IDX 5 1 4 2 3 3 2 4 1 5 28 6 29 7 30 8 6 9 7 10 8 11 9 12 26 13
REMARK SMILES IDX 10 14 11 15 25 16 27 17 12 18 24 19 23 20 13 21 21 22 14 23
REMARK SMILES IDX 15 24 20 25 22 26 16 27 19 28 17 29 18 30
REMARK H PARENT 18 31
REMARK Flexibility Score: inf
ROOT
ATOM      1  C   UNL     1       8.500   6.253  17.576  1.00  0.00     0.004 C 
ENDROOT
BRANCH   1   2
ATOM      2  C   UNL     1       8.883   7.506  18.398  1.00  0.00     0.004 C 
BRANCH   2   3
ATOM      3  C   UNL     1       8.197   8.844  17.973  1.00  0.00    -0.009 C 
BRANCH   3   4
ATOM      4  C   UNL     1       9.231   9.953  17.620  1.00  0.00     0.000 C 
ATOM      5  C   UNL     1       9.634  10.007  16.145  1.00  0.00     0.004 C 
ENDBRANCH   3   4
BRANCH   3   6
ATOM      6  C   UNL     1       7.145   9.313  19.042  1.00  0.00    -0.014 C 
ATOM      7  C   UNL     1       7.397  10.761  19.507  1.00  0.00     0.007 C 
ATOM      8  C   UNL     1       7.125   8.393  20.280  1.00  0.00     0.007 C 
ENDBRANCH   3   6
ENDBRANCH   2   3
ENDBRANCH   1   2
BRANCH   1   9
ATOM      9  C   UNL     1       7.396   5.339  18.181  1.00  0.00    -0.011 C 
ATOM     10  C   UNL     1       7.917   3.891  18.338  1.00  0.00     0.008 C 
BRANCH   9  11
ATOM     11  C   UNL     1       6.089   5.330  17.306  1.00  0.00    -0.002 C 
ATOM     12  C   UNL     1       5.535   3.887  17.113  1.00  0.00     0.005 C 
ATOM     13  C   UNL     1       4.837   6.135  17.782  1.00  0.00    -0.026 C 
ATOM     14  C   UNL     1       4.008   3.983  17.030  1.00  0.00     0.005 C 
ATOM     15  C   UNL     1       3.743   5.472  16.923  1.00  0.00    -0.001 C 
ATOM     16  C   UNL     1       4.820   7.643  17.411  1.00  0.00     0.007 C 
ATOM     17  C   UNL     1       4.609   5.935  19.313  1.00  0.00     0.012 C 
ATOM     18  C   UNL     1       2.314   5.983  17.214  1.00  0.00     0.000 C 
ATOM     19  C   UNL     1       3.433   8.269  17.676  1.00  0.00     0.005 C 
ATOM     20  C   UNL     1       2.267   7.516  16.960  1.00  0.00     0.003 C 
ATOM     21  C   UNL     1       1.304   5.313  16.274  1.00  0.00     0.031 C 
ATOM     22  C   UNL     1       0.828   8.126  17.237  1.00  0.00    -0.008 C 
ATOM     23  C   UNL     1      -0.070   5.865  16.491  1.00  0.00    -0.027 C 
ATOM     24  C   UNL     1      -0.301   7.133  16.893  1.00  0.00    -0.065 C 
ATOM     25  C   UNL     1       0.652   8.522  18.739  1.00  0.00     0.014 C 
ATOM     26  C   UNL     1       0.663   9.384  16.343  1.00  0.00     0.016 C 
ATOM     27  C   UNL     1      -1.723   7.532  17.229  1.00  0.00     0.063 C 
ATOM     28  C   UNL     1      -0.783   8.940  19.117  1.00  0.00     0.033 C 
ATOM     29  C   UNL     1      -1.813   7.867  18.727  1.00  0.00     0.118 C 
BRANCH  29  30
ATOM     30  O   UNL     1      -3.111   8.279  19.070  1.00  0.00    -0.393 OA
ATOM     31  H   UNL     1      -3.662   8.267  18.243  1.00  0.00     0.210 HD
ENDBRANCH  29  30
ENDBRANCH   9  11
ENDBRANCH   1   9
TORSDOF 7
ENDMDL
MODEL 2
REMARK VINA RESULT:    -5.427      2.147      5.119
REMARK INTER + INTRA:          -9.188
REMARK INTER:                  -7.620
REMARK INTRA:                  -1.568
REMARK UNBOUND:                -1.699
REMARK SMILES CC[C@@H](CC[C@H](C)[C@H]1CC[C@H]2[C@@H]3CC=C4C[C@H](O)CC[C@@]4(C)[C@H]3CC[C@]12C)C(C)C
REMARK SMILES IDX 5 1 4 2 3 3 2 4 1 5 28 6 29 7 30 8 6 9 7 10 8 11 9 12 26 13
REMARK SMILES IDX 10 14 11 15 25 16 27 17 12 18 24 19 23 20 13 21 21 22 14 23
REMARK SMILES IDX 15 24 20 25 22 26 16 27 19 28 17 29 18 30
REMARK H PARENT 18 31
REMARK Flexibility Score: inf
ROOT
ATOM      1  C   UNL     1       6.543   4.064  18.027  1.00  0.00     0.004 C 
ENDROOT
BRANCH   1   2
ATOM      2  C   UNL     1       5.566   2.869  18.120  1.00  0.00     0.004 C 
BRANCH   2   3
ATOM      3  C   UNL     1       5.349   2.054  16.804  1.00  0.00    -0.009 C 
BRANCH   3   4
ATOM      4  C   UNL     1       4.205   2.643  15.927  1.00  0.00     0.000 C 
ATOM      5  C   UNL     1       4.658   3.199  14.575  1.00  0.00     0.004 C 
ENDBRANCH   3   4
BRANCH   3   6
ATOM      6  C   UNL     1       5.157   0.524  17.104  1.00  0.00    -0.014 C 
ATOM      7  C   UNL     1       4.451   0.281  18.453  1.00  0.00     0.007 C 
ATOM      8  C   UNL     1       6.497  -0.241  17.103  1.00  0.00     0.007 C 
ENDBRANCH   3   6
ENDBRANCH   2   3
ENDBRANCH   1   2
BRANCH   1   9
ATOM      9  C   UNL     1       6.123   5.230  17.086  1.00  0.00    -0.011 C 
ATOM     10  C   UNL     1       7.369   5.985  16.569  1.00  0.00     0.008 C 
BRANCH   9  11
ATOM     11  C   UNL     1       5.157   6.247  17.799  1.00  0.00    -0.002 C 
ATOM     12  C   UNL     1       5.804   7.657  17.933  1.00  0.00     0.005 C 
ATOM     13  C   UNL     1       3.758   6.551  17.170  1.00  0.00    -0.026 C 
ATOM     14  C   UNL     1       4.681   8.696  17.832  1.00  0.00     0.005 C 
ATOM     15  C   UNL     1       3.413   7.866  17.897  1.00  0.00    -0.001 C 
ATOM     16  C   UNL     1       2.624   5.552  17.526  1.00  0.00     0.007 C 
ATOM     17  C   UNL     1       3.881   6.727  15.625  1.00  0.00     0.012 C 
ATOM     18  C   UNL     1       2.090   8.516  17.432  1.00  0.00     0.000 C 
ATOM     19  C   UNL     1       1.244   6.095  17.093  1.00  0.00     0.005 C 
ATOM     20  C   UNL     1       0.927   7.511  17.669  1.00  0.00     0.003 C 
ATOM     21  C   UNL     1       1.800   9.782  18.249  1.00  0.00     0.031 C 
ATOM     22  C   UNL     1      -0.476   8.101  17.217  1.00  0.00    -0.008 C 
ATOM     23  C   UNL     1       0.479  10.369  17.865  1.00  0.00    -0.027 C 
ATOM     24  C   UNL     1      -0.562   9.626  17.430  1.00  0.00    -0.065 C 
ATOM     25  C   UNL     1      -0.751   7.831  15.702  1.00  0.00     0.014 C 
ATOM     26  C   UNL     1      -1.576   7.424  18.076  1.00  0.00     0.016 C 
ATOM     27  C   UNL     1      -1.794  10.345  16.923  1.00  0.00     0.063 C 
ATOM     28  C   UNL     1      -2.003   8.542  15.151  1.00  0.00     0.033 C 
ATOM     29  C   UNL     1      -1.967  10.055  15.423  1.00  0.00     0.118 C 
BRANCH  29  30
ATOM     30  O   UNL     1      -3.125  10.675  14.924  1.00  0.00    -0.393 OA
ATOM     31  H   UNL     1      -3.109  11.626  15.213  1.00  0.00     0.210 HD
ENDBRANCH  29  30
ENDBRANCH   9  11
ENDBRANCH   1   9
TORSDOF 7
ENDMDL
MODEL 3
REMARK VINA RESULT:    -5.216      1.951      5.028
REMARK INTER + INTRA:          -8.898
REMARK INTER:                  -7.287
REMARK INTRA:                  -1.611
REMARK UNBOUND:                -1.699
REMARK SMILES CC[C@@H](CC[C@H](C)[C@H]1CC[C@H]2[C@@H]3CC=C4C[C@H](O)CC[C@@]4(C)[C@H]3CC[C@]12C)C(C)C
REMARK SMILES IDX 5 1 4 2 3 3 2 4 1 5 28 6 29 7 30 8 6 9 7 10 8 11 9 12 26 13
REMARK SMILES IDX 10 14 11 15 25 16 27 17 12 18 24 19 23 20 13 21 21 22 14 23
REMARK SMILES IDX 15 24 20 25 22 26 16 27 19 28 17 29 18 30
REMARK H PARENT 18 31
REMARK Flexibility Score: inf
ROOT
ATOM      1  C   UNL     1       7.382   3.990  18.419  1.00  0.00     0.004 C 
ENDROOT
BRANCH   1   2
ATOM      2  C   UNL     1       6.049   3.207  18.471  1.00  0.00     0.004 C 
BRANCH   2   3
ATOM      3  C   UNL     1       5.757   2.264  17.260  1.00  0.00    -0.009 C 
BRANCH   3   4
ATOM      4  C   UNL     1       4.456   2.660  16.502  1.00  0.00     0.000 C 
ATOM      5  C   UNL     1       4.660   3.030  15.031  1.00  0.00     0.004 C 
ENDBRANCH   3   4
BRANCH   3   6
ATOM      6  C   UNL     1       5.770   0.753  17.695  1.00  0.00    -0.014 C 
ATOM      7  C   UNL     1       6.680  -0.102  16.791  1.00  0.00     0.007 C 
ATOM      8  C   UNL     1       4.356   0.137  17.697  1.00  0.00     0.007 C 
ENDBRANCH   3   6
ENDBRANCH   2   3
ENDBRANCH   1   2
BRANCH   1   9
ATOM      9  C   UNL     1       7.414   5.238  17.491  1.00  0.00    -0.011 C 
ATOM     10  C   UNL     1       8.871   5.696  17.250  1.00  0.00     0.008 C 
BRANCH   9  11
ATOM     11  C   UNL     1       6.584   6.437  18.081  1.00  0.00    -0.002 C 
ATOM     12  C   UNL     1       7.268   7.807  17.799  1.00  0.00     0.005 C 
ATOM     13  C   UNL     1       5.113   6.664  17.603  1.00  0.00    -0.026 C 
ATOM     14  C   UNL     1       6.161   8.852  17.623  1.00  0.00     0.005 C 
ATOM     15  C   UNL     1       4.903   8.123  18.052  1.00  0.00    -0.001 C 
ATOM     16  C   UNL     1       4.026   5.829  18.333  1.00  0.00     0.007 C 
ATOM     17  C   UNL     1       5.008   6.486  16.056  1.00  0.00     0.012 C 
ATOM     18  C   UNL     1       3.537   8.720  17.642  1.00  0.00     0.000 C 
ATOM     19  C   UNL     1       2.607   6.331  17.985  1.00  0.00     0.005 C 
ATOM     20  C   UNL     1       2.404   7.855  18.262  1.00  0.00     0.003 C 
ATOM     21  C   UNL     1       3.395  10.149  18.181  1.00  0.00     0.031 C 
ATOM     22  C   UNL     1       0.961   8.400  17.889  1.00  0.00    -0.008 C 
ATOM     23  C   UNL     1       2.041  10.704  17.863  1.00  0.00    -0.027 C 
ATOM     24  C   UNL     1       0.935   9.937  17.759  1.00  0.00    -0.065 C 
ATOM     25  C   UNL     1       0.459   7.814  16.530  1.00  0.00     0.014 C 
ATOM     26  C   UNL     1      -0.012   7.988  19.025  1.00  0.00     0.016 C 
ATOM     27  C   UNL     1      -0.346  10.586  17.280  1.00  0.00     0.063 C 
ATOM     28  C   UNL     1      -0.848   8.447  16.013  1.00  0.00     0.033 C 
ATOM     29  C   UNL     1      -0.744   9.979  15.925  1.00  0.00     0.118 C 
BRANCH  29  30
ATOM     30  O   UNL     1      -1.952  10.530  15.465  1.00  0.00    -0.393 OA
ATOM     31  H   UNL     1      -1.875  10.651  14.481  1.00  0.00     0.210 HD
ENDBRANCH  29  30
ENDBRANCH   9  11
ENDBRANCH   1   9
TORSDOF 7
ENDMDL
MODEL 4
REMARK VINA RESULT:    -4.895      2.857      8.028
REMARK INTER + INTRA:          -8.454
REMARK INTER:                  -6.454
REMARK INTRA:                  -2.001
REMARK UNBOUND:                -1.699
REMARK SMILES CC[C@@H](CC[C@H](C)[C@H]1CC[C@H]2[C@@H]3CC=C4C[C@H](O)CC[C@@]4(C)[C@H]3CC[C@]12C)C(C)C
REMARK SMILES IDX 5 1 4 2 3 3 2 4 1 5 28 6 29 7 30 8 6 9 7 10 8 11 9 12 26 13
REMARK SMILES IDX 10 14 11 15 25 16 27 17 12 18 24 19 23 20 13 21 21 22 14 23
REMARK SMILES IDX 15 24 20 25 22 26 16 27 19 28 17 29 18 30
REMARK H PARENT 18 31
REMARK Flexibility Score: inf
ROOT
ATOM      1  C   UNL     1      -0.816   9.659  17.206  1.00  0.00     0.004 C 
ENDROOT
BRANCH   1   2
ATOM      2  C   UNL     1      -0.914   9.444  18.735  1.00  0.00     0.004 C 
BRANCH   2   3
ATOM      3  C   UNL     1      -2.272   8.880  19.265  1.00  0.00    -0.009 C 
BRANCH   3   4
ATOM      4  C   UNL     1      -3.113   9.960  20.006  1.00  0.00     0.000 C 
ATOM      5  C   UNL     1      -2.298  10.916  20.882  1.00  0.00     0.004 C 
ENDBRANCH   3   4
BRANCH   3   6
ATOM      6  C   UNL     1      -2.056   7.583  20.126  1.00  0.00    -0.014 C 
ATOM      7  C   UNL     1      -0.609   7.468  20.647  1.00  0.00     0.007 C 
ATOM      8  C   UNL     1      -2.402   6.300  19.342  1.00  0.00     0.007 C 
ENDBRANCH   3   6
ENDBRANCH   2   3
ENDBRANCH   1   2
BRANCH   1   9
ATOM      9  C   UNL     1      -0.543   8.392  16.346  1.00  0.00    -0.011 C 
ATOM     10  C   UNL     1      -1.873   7.713  15.944  1.00  0.00     0.008 C 
BRANCH   9  11
ATOM     11  C   UNL     1       0.365   7.350  17.097  1.00  0.00    -0.002 C 
ATOM     12  C   UNL     1       0.219   5.920  16.499  1.00  0.00     0.005 C 
ATOM     13  C   UNL     1       1.913   7.566  17.137  1.00  0.00    -0.026 C 
ATOM     14  C   UNL     1       1.573   5.216  16.638  1.00  0.00     0.005 C 
ATOM     15  C   UNL     1       2.376   6.148  17.524  1.00  0.00    -0.001 C 
ATOM     16  C   UNL     1       2.437   8.510  18.254  1.00  0.00     0.007 C 
ATOM     17  C   UNL     1       2.438   8.014  15.738  1.00  0.00     0.012 C 
ATOM     18  C   UNL     1       3.912   5.974  17.566  1.00  0.00     0.000 C 
ATOM     19  C   UNL     1       3.975   8.429  18.379  1.00  0.00     0.005 C 
ATOM     20  C   UNL     1       4.503   6.975  18.598  1.00  0.00     0.003 C 
ATOM     21  C   UNL     1       4.277   4.554  18.016  1.00  0.00     0.031 C 
ATOM     22  C   UNL     1       6.083   6.863  18.705  1.00  0.00    -0.008 C 
ATOM     23  C   UNL     1       5.760   4.402  18.143  1.00  0.00    -0.027 C 
ATOM     24  C   UNL     1       6.580   5.421  18.480  1.00  0.00    -0.065 C 
ATOM     25  C   UNL     1       6.795   7.767  17.646  1.00  0.00     0.014 C 
ATOM     26  C   UNL     1       6.496   7.308  20.133  1.00  0.00     0.016 C 
ATOM     27  C   UNL     1       8.075   5.187  18.424  1.00  0.00     0.063 C 
ATOM     28  C   UNL     1       8.321   7.561  17.565  1.00  0.00     0.033 C 
ATOM     29  C   UNL     1       8.686   6.085  17.336  1.00  0.00     0.118 C 
BRANCH  29  30
ATOM     30  O   UNL     1      10.081   5.924  17.280  1.00  0.00    -0.393 OA
ATOM     31  H   UNL     1      10.496   6.787  17.548  1.00  0.00     0.210 HD
ENDBRANCH  29  30
ENDBRANCH   9  11
ENDBRANCH   1   9
TORSDOF 7
ENDMDL
MODEL 5
REMARK VINA RESULT:    -4.814      3.403      8.182
REMARK INTER + INTRA:          -8.342
REMARK INTER:                  -7.288
REMARK INTRA:                  -1.054
REMARK UNBOUND:                -1.699
REMARK SMILES CC[C@@H](CC[C@H](C)[C@H]1CC[C@H]2[C@@H]3CC=C4C[C@H](O)CC[C@@]4(C)[C@H]3CC[C@]12C)C(C)C
REMARK SMILES IDX 5 1 4 2 3 3 2 4 1 5 28 6 29 7 30 8 6 9 7 10 8 11 9 12 26 13
REMARK SMILES IDX 10 14 11 15 25 16 27 17 12 18 24 19 23 20 13 21 21 22 14 23
REMARK SMILES IDX 15 24 20 25 22 26 16 27 19 28 17 29 18 30
REMARK H PARENT 18 31
REMARK Flexibility Score: inf
ROOT
ATOM      1  C   UNL     1      -1.546   8.356  16.408  1.00  0.00     0.004 C 
ENDROOT
BRANCH   1   2
ATOM      2  C   UNL     1      -2.936   8.554  17.060  1.00  0.00     0.004 C 
BRANCH   2   3
ATOM      3  C   UNL     1      -3.052   8.157  18.566  1.00  0.00    -0.009 C 
BRANCH   3   4
ATOM      4  C   UNL     1      -2.863   9.376  19.516  1.00  0.00     0.000 C 
ATOM      5  C   UNL     1      -3.125  10.738  18.869  1.00  0.00     0.004 C 
ENDBRANCH   3   4
BRANCH   3   6
ATOM      6  C   UNL     1      -2.096   6.960  18.918  1.00  0.00    -0.014 C 
ATOM      7  C   UNL     1      -2.752   5.592  18.637  1.00  0.00     0.007 C 
ATOM      8  C   UNL     1      -1.638   6.995  20.390  1.00  0.00     0.007 C 
ENDBRANCH   3   6
ENDBRANCH   2   3
ENDBRANCH   1   2
BRANCH   1   9
ATOM      9  C   UNL     1      -0.590   9.583  16.433  1.00  0.00    -0.011 C 
ATOM     10  C   UNL     1      -0.381  10.136  15.004  1.00  0.00     0.008 C 
BRANCH   9  11
ATOM     11  C   UNL     1       0.807   9.232  17.064  1.00  0.00    -0.002 C 
ATOM     12  C   UNL     1       0.731   9.138  18.616  1.00  0.00     0.005 C 
ATOM     13  C   UNL     1       1.524   7.903  16.658  1.00  0.00    -0.026 C 
ATOM     14  C   UNL     1       1.740   8.077  19.069  1.00  0.00     0.005 C 
ATOM     15  C   UNL     1       2.536   7.776  17.813  1.00  0.00    -0.001 C 
ATOM     16  C   UNL     1       2.365   7.958  15.353  1.00  0.00     0.007 C 
ATOM     17  C   UNL     1       0.503   6.724  16.614  1.00  0.00     0.012 C 
ATOM     18  C   UNL     1       3.378   6.480  17.775  1.00  0.00     0.000 C 
ATOM     19  C   UNL     1       3.244   6.696  15.201  1.00  0.00     0.005 C 
ATOM     20  C   UNL     1       4.164   6.430  16.435  1.00  0.00     0.003 C 
ATOM     21  C   UNL     1       4.394   6.468  18.925  1.00  0.00     0.031 C 
ATOM     22  C   UNL     1       5.060   5.126  16.313  1.00  0.00    -0.008 C 
ATOM     23  C   UNL     1       5.271   5.259  18.845  1.00  0.00    -0.027 C 
ATOM     24  C   UNL     1       5.604   4.663  17.680  1.00  0.00    -0.065 C 
ATOM     25  C   UNL     1       4.253   3.930  15.709  1.00  0.00     0.014 C 
ATOM     26  C   UNL     1       6.264   5.459  15.393  1.00  0.00     0.016 C 
ATOM     27  C   UNL     1       6.367   3.356  17.733  1.00  0.00     0.063 C 
ATOM     28  C   UNL     1       5.002   2.583  15.741  1.00  0.00     0.033 C 
ATOM     29  C   UNL     1       5.489   2.234  17.158  1.00  0.00     0.118 C 
BRANCH  29  30
ATOM     30  O   UNL     1       6.179   1.010  17.155  1.00  0.00    -0.393 OA
ATOM     31  H   UNL     1       6.802   1.011  17.930  1.00  0.00     0.210 HD
ENDBRANCH  29  30
ENDBRANCH   9  11
ENDBRANCH   1   9
TORSDOF 7
ENDMDL
MODEL 6
REMARK VINA RESULT:    -4.665      3.135      8.400
REMARK INTER + INTRA:          -8.137
REMARK INTER:                  -6.243
REMARK INTRA:                  -1.894
REMARK UNBOUND:                -1.699
REMARK SMILES CC[C@@H](CC[C@H](C)[C@H]1CC[C@H]2[C@@H]3CC=C4C[C@H](O)CC[C@@]4(C)[C@H]3CC[C@]12C)C(C)C
REMARK SMILES IDX 5 1 4 2 3 3 2 4 1 5 28 6 29 7 30 8 6 9 7 10 8 11 9 12 26 13
REMARK SMILES IDX 10 14 11 15 25 16 27 17 12 18 24 19 23 20 13 21 21 22 14 23
REMARK SMILES IDX 15 24 20 25 22 26 16 27 19 28 17 29 18 30
REMARK H PARENT 18 31
REMARK Flexibility Score: inf
ROOT
ATOM      1  C   UNL     1      -0.974   9.128  19.036  1.00  0.00     0.004 C 
ENDROOT
BRANCH   1   2
ATOM      2  C   UNL     1      -2.229   8.767  18.207  1.00  0.00     0.004 C 
BRANCH   2   3
ATOM      3  C   UNL     1      -2.681   7.272  18.259  1.00  0.00    -0.009 C 
BRANCH   3   4
ATOM      4  C   UNL     1      -1.974   6.480  19.398  1.00  0.00     0.000 C 
ATOM      5  C   UNL     1      -2.670   6.554  20.758  1.00  0.00     0.004 C 
ENDBRANCH   3   4
BRANCH   3   6
ATOM      6  C   UNL     1      -2.534   6.580  16.856  1.00  0.00    -0.014 C 
ATOM      7  C   UNL     1      -1.326   5.623  16.806  1.00  0.00     0.007 C 
ATOM      8  C   UNL     1      -2.398   7.607  15.713  1.00  0.00     0.007 C 
ENDBRANCH   3   6
ENDBRANCH   2   3
ENDBRANCH   1   2
BRANCH   1   9
ATOM      9  C   UNL     1       0.300   9.514  18.230  1.00  0.00    -0.011 C 
ATOM     10  C   UNL     1      -0.072  10.407  17.023  1.00  0.00     0.008 C 
BRANCH   9  11
ATOM     11  C   UNL     1       1.082   8.249  17.718  1.00  0.00    -0.002 C 
ATOM     12  C   UNL     1       1.093   8.168  16.163  1.00  0.00     0.005 C 
ATOM     13  C   UNL     1       2.588   8.068  18.099  1.00  0.00    -0.026 C 
ATOM     14  C   UNL     1       2.418   7.523  15.740  1.00  0.00     0.005 C 
ATOM     15  C   UNL     1       3.012   7.027  17.044  1.00  0.00    -0.001 C 
ATOM     16  C   UNL     1       2.864   7.417  19.481  1.00  0.00     0.007 C 
ATOM     17  C   UNL     1       3.352   9.420  17.957  1.00  0.00     0.012 C 
ATOM     18  C   UNL     1       4.517   6.674  17.074  1.00  0.00     0.000 C 
ATOM     19  C   UNL     1       4.352   7.031  19.631  1.00  0.00     0.005 C 
ATOM     20  C   UNL     1       4.873   6.113  18.480  1.00  0.00     0.003 C 
ATOM     21  C   UNL     1       4.833   5.592  16.034  1.00  0.00     0.031 C 
ATOM     22  C   UNL     1       6.407   5.724  18.598  1.00  0.00    -0.008 C 
ATOM     23  C   UNL     1       6.270   5.183  16.116  1.00  0.00    -0.027 C 
ATOM     24  C   UNL     1       6.982   5.207  17.263  1.00  0.00    -0.065 C 
ATOM     25  C   UNL     1       7.278   6.947  19.032  1.00  0.00     0.014 C 
ATOM     26  C   UNL     1       6.532   4.594  19.655  1.00  0.00     0.016 C 
ATOM     27  C   UNL     1       8.467   4.921  17.193  1.00  0.00     0.063 C 
ATOM     28  C   UNL     1       8.798   6.691  18.979  1.00  0.00     0.033 C 
ATOM     29  C   UNL     1       9.244   6.184  17.598  1.00  0.00     0.118 C 
BRANCH  29  30
ATOM     30  O   UNL     1      10.629   5.946  17.583  1.00  0.00    -0.393 OA
ATOM     31  H   UNL     1      10.922   5.803  18.522  1.00  0.00     0.210 HD
ENDBRANCH  29  30
ENDBRANCH   9  11
ENDBRANCH   1   9
TORSDOF 7
ENDMDL
MODEL 7
REMARK VINA RESULT:    -4.576     11.079     14.129
REMARK INTER + INTRA:          -8.013
REMARK INTER:                  -7.427
REMARK INTRA:                  -0.586
REMARK UNBOUND:                -1.699
REMARK SMILES CC[C@@H](CC[C@H](C)[C@H]1CC[C@H]2[C@@H]3CC=C4C[C@H](O)CC[C@@]4(C)[C@H]3CC[C@]12C)C(C)C
REMARK SMILES IDX 5 1 4 2 3 3 2 4 1 5 28 6 29 7 30 8 6 9 7 10 8 11 9 12 26 13
REMARK SMILES IDX 10 14 11 15 25 16 27 17 12 18 24 19 23 20 13 21 21 22 14 23
REMARK SMILES IDX 15 24 20 25 22 26 16 27 19 28 17 29 18 30
REMARK H PARENT 18 31
REMARK Flexibility Score: inf
ROOT
ATOM      1  C   UNL     1      -1.810   3.928   2.602  1.00  0.00     0.004 C 
ENDROOT
BRANCH   1   2
ATOM      2  C   UNL     1      -0.441   3.586   1.967  1.00  0.00     0.004 C 
BRANCH   2   3
ATOM      3  C   UNL     1       0.518   2.706   2.833  1.00  0.00    -0.009 C 
BRANCH   3   4
ATOM      4  C   UNL     1      -0.254   1.683   3.716  1.00  0.00     0.000 C 
ATOM      5  C   UNL     1      -0.681   0.405   2.990  1.00  0.00     0.004 C 
ENDBRANCH   3   4
BRANCH   3   6
ATOM      6  C   UNL     1       1.514   3.594   3.663  1.00  0.00    -0.014 C 
ATOM      7  C   UNL     1       2.300   4.574   2.769  1.00  0.00     0.007 C 
ATOM      8  C   UNL     1       2.520   2.743   4.466  1.00  0.00     0.007 C 
ENDBRANCH   3   6
ENDBRANCH   2   3
ENDBRANCH   1   2
BRANCH   1   9
ATOM      9  C   UNL     1      -2.207   5.432   2.620  1.00  0.00    -0.011 C 
ATOM     10  C   UNL     1      -1.012   6.313   2.187  1.00  0.00     0.008 C 
BRANCH   9  11
ATOM     11  C   UNL     1      -2.709   5.896   4.037  1.00  0.00    -0.002 C 
ATOM     12  C   UNL     1      -2.988   4.684   4.973  1.00  0.00     0.005 C 
ATOM     13  C   UNL     1      -1.802   6.823   4.910  1.00  0.00    -0.026 C 
ATOM     14  C   UNL     1      -2.662   5.118   6.407  1.00  0.00     0.005 C 
ATOM     15  C   UNL     1      -2.451   6.615   6.292  1.00  0.00    -0.001 C 
ATOM     16  C   UNL     1      -1.903   8.344   4.612  1.00  0.00     0.007 C 
ATOM     17  C   UNL     1      -0.319   6.342   4.858  1.00  0.00     0.012 C 
ATOM     18  C   UNL     1      -1.724   7.341   7.447  1.00  0.00     0.000 C 
ATOM     19  C   UNL     1      -1.193   9.176   5.703  1.00  0.00     0.005 C 
ATOM     20  C   UNL     1      -1.701   8.866   7.147  1.00  0.00     0.003 C 
ATOM     21  C   UNL     1      -2.472   7.126   8.769  1.00  0.00     0.031 C 
ATOM     22  C   UNL     1      -0.970   9.691   8.288  1.00  0.00    -0.008 C 
ATOM     23  C   UNL     1      -1.824   7.896   9.876  1.00  0.00    -0.027 C 
ATOM     24  C   UNL     1      -1.173   9.063   9.682  1.00  0.00    -0.065 C 
ATOM     25  C   UNL     1       0.572   9.773   8.039  1.00  0.00     0.014 C 
ATOM     26  C   UNL     1      -1.572  11.121   8.303  1.00  0.00     0.016 C 
ATOM     27  C   UNL     1      -0.423   9.670  10.849  1.00  0.00     0.063 C 
ATOM     28  C   UNL     1       1.368  10.392   9.206  1.00  0.00     0.033 C 
ATOM     29  C   UNL     1       1.082   9.676  10.536  1.00  0.00     0.118 C 
BRANCH  29  30
ATOM     30  O   UNL     1       1.808  10.269  11.582  1.00  0.00    -0.393 OA
ATOM     31  H   UNL     1       1.736  11.255  11.481  1.00  0.00     0.210 HD
ENDBRANCH  29  30
ENDBRANCH   9  11
ENDBRANCH   1   9
TORSDOF 7
ENDMDL
MODEL 8
REMARK VINA RESULT:    -4.493      3.449      8.350
REMARK INTER + INTRA:          -7.900
REMARK INTER:                  -6.695
REMARK INTRA:                  -1.205
REMARK UNBOUND:                -1.699
REMARK SMILES CC[C@@H](CC[C@H](C)[C@H]1CC[C@H]2[C@@H]3CC=C4C[C@H](O)CC[C@@]4(C)[C@H]3CC[C@]12C)C(C)C
REMARK SMILES IDX 5 1 4 2 3 3 2 4 1 5 28 6 29 7 30 8 6 9 7 10 8 11 9 12 26 13
REMARK SMILES IDX 10 14 11 15 25 16 27 17 12 18 24 19 23 20 13 21 21 22 14 23
REMARK SMILES IDX 15 24 20 25 22 26 16 27 19 28 17 29 18 30
REMARK H PARENT 18 31
REMARK Flexibility Score: inf
ROOT
ATOM      1  C   UNL     1      -1.624   9.418  14.678  1.00  0.00     0.004 C 
ENDROOT
BRANCH   1   2
ATOM      2  C   UNL     1      -1.219  10.785  14.078  1.00  0.00     0.004 C 
BRANCH   2   3
ATOM      3  C   UNL     1      -1.260  10.891  12.520  1.00  0.00    -0.009 C 
BRANCH   3   4
ATOM      4  C   UNL     1      -1.998   9.687  11.864  1.00  0.00     0.000 C 
ATOM      5  C   UNL     1      -2.878  10.050  10.666  1.00  0.00     0.004 C 
ENDBRANCH   3   4
BRANCH   3   6
ATOM      6  C   UNL     1       0.176  11.120  11.923  1.00  0.00    -0.014 C 
ATOM      7  C   UNL     1       0.541  10.058  10.866  1.00  0.00     0.007 C 
ATOM      8  C   UNL     1       1.265  11.123  13.016  1.00  0.00     0.007 C 
ENDBRANCH   3   6
ENDBRANCH   2   3
ENDBRANCH   1   2
BRANCH   1   9
ATOM      9  C   UNL     1      -1.137   9.128  16.127  1.00  0.00    -0.011 C 
ATOM     10  C   UNL     1      -1.908  10.002  17.143  1.00  0.00     0.008 C 
BRANCH   9  11
ATOM     11  C   UNL     1       0.407   9.376  16.294  1.00  0.00    -0.002 C 
ATOM     12  C   UNL     1       0.699  10.554  17.270  1.00  0.00     0.005 C 
ATOM     13  C   UNL     1       1.319   8.227  16.836  1.00  0.00    -0.026 C 
ATOM     14  C   UNL     1       2.010  10.241  17.999  1.00  0.00     0.005 C 
ATOM     15  C   UNL     1       2.559   9.039  17.256  1.00  0.00    -0.001 C 
ATOM     16  C   UNL     1       1.813   7.200  15.780  1.00  0.00     0.007 C 
ATOM     17  C   UNL     1       0.631   7.505  18.036  1.00  0.00     0.012 C 
ATOM     18  C   UNL     1       3.662   8.198  17.940  1.00  0.00     0.000 C 
ATOM     19  C   UNL     1       2.917   6.289  16.362  1.00  0.00     0.005 C 
ATOM     20  C   UNL     1       4.122   7.081  16.961  1.00  0.00     0.003 C 
ATOM     21  C   UNL     1       4.877   9.075  18.268  1.00  0.00     0.031 C 
ATOM     22  C   UNL     1       5.259   6.167  17.587  1.00  0.00    -0.008 C 
ATOM     23  C   UNL     1       5.982   8.253  18.852  1.00  0.00    -0.027 C 
ATOM     24  C   UNL     1       6.186   6.957  18.534  1.00  0.00    -0.065 C 
ATOM     25  C   UNL     1       4.655   4.985  18.413  1.00  0.00     0.014 C 
ATOM     26  C   UNL     1       6.114   5.605  16.420  1.00  0.00     0.016 C 
ATOM     27  C   UNL     1       7.236   6.185  19.303  1.00  0.00     0.063 C 
ATOM     28  C   UNL     1       5.697   4.172  19.206  1.00  0.00     0.033 C 
ATOM     29  C   UNL     1       6.554   5.071  20.113  1.00  0.00     0.118 C 
BRANCH  29  30
ATOM     30  O   UNL     1       7.503   4.306  20.812  1.00  0.00    -0.393 OA
ATOM     31  H   UNL     1       7.029   3.530  21.215  1.00  0.00     0.210 HD
ENDBRANCH  29  30
ENDBRANCH   9  11
ENDBRANCH   1   9
TORSDOF 7
ENDMDL
MODEL 9
REMARK VINA RESULT:    -4.482      2.807      8.225
REMARK INTER + INTRA:          -7.885
REMARK INTER:                  -7.002
REMARK INTRA:                  -0.883
REMARK UNBOUND:                -1.699
REMARK SMILES CC[C@@H](CC[C@H](C)[C@H]1CC[C@H]2[C@@H]3CC=C4C[C@H](O)CC[C@@]4(C)[C@H]3CC[C@]12C)C(C)C
REMARK SMILES IDX 5 1 4 2 3 3 2 4 1 5 28 6 29 7 30 8 6 9 7 10 8 11 9 12 26 13
REMARK SMILES IDX 10 14 11 15 25 16 27 17 12 18 24 19 23 20 13 21 21 22 14 23
REMARK SMILES IDX 15 24 20 25 22 26 16 27 19 28 17 29 18 30
REMARK H PARENT 18 31
REMARK Flexibility Score: inf
ROOT
ATOM      1  C   UNL     1      -1.888   9.430  17.798  1.00  0.00     0.004 C 
ENDROOT
BRANCH   1   2
ATOM      2  C   UNL     1      -2.893   8.455  18.457  1.00  0.00     0.004 C 
BRANCH   2   3
ATOM      3  C   UNL     1      -2.926   8.454  20.019  1.00  0.00    -0.009 C 
BRANCH   3   4
ATOM      4  C   UNL     1      -2.000   9.546  20.631  1.00  0.00     0.000 C 
ATOM      5  C   UNL     1      -2.733  10.666  21.372  1.00  0.00     0.004 C 
ENDBRANCH   3   4
BRANCH   3   6
ATOM      6  C   UNL     1      -2.639   7.021  20.597  1.00  0.00    -0.014 C 
ATOM      7  C   UNL     1      -1.341   6.981  21.429  1.00  0.00     0.007 C 
ATOM      8  C   UNL     1      -2.546   5.955  19.486  1.00  0.00     0.007 C 
ENDBRANCH   3   6
ENDBRANCH   2   3
ENDBRANCH   1   2
BRANCH   1   9
ATOM      9  C   UNL     1      -1.211   8.941  16.485  1.00  0.00    -0.011 C 
ATOM     10  C   UNL     1      -1.481   7.435  16.264  1.00  0.00     0.008 C 
BRANCH   9  11
ATOM     11  C   UNL     1       0.341   9.197  16.488  1.00  0.00    -0.002 C 
ATOM     12  C   UNL     1       0.710  10.492  17.271  1.00  0.00     0.005 C 
ATOM     13  C   UNL     1       1.297   8.122  17.100  1.00  0.00    -0.026 C 
ATOM     14  C   UNL     1       2.078  10.267  17.924  1.00  0.00     0.005 C 
ATOM     15  C   UNL     1       2.567   8.972  17.305  1.00  0.00    -0.001 C 
ATOM     16  C   UNL     1       1.705   6.960  16.154  1.00  0.00     0.007 C 
ATOM     17  C   UNL     1       0.714   7.572  18.439  1.00  0.00     0.012 C 
ATOM     18  C   UNL     1       3.725   8.220  18.001  1.00  0.00     0.000 C 
ATOM     19  C   UNL     1       2.856   6.125  16.758  1.00  0.00     0.005 C 
ATOM     20  C   UNL     1       4.105   6.979  17.145  1.00  0.00     0.003 C 
ATOM     21  C   UNL     1       4.960   9.123  18.108  1.00  0.00     0.031 C 
ATOM     22  C   UNL     1       5.292   6.147  17.790  1.00  0.00    -0.008 C 
ATOM     23  C   UNL     1       6.113   8.376  18.702  1.00  0.00    -0.027 C 
ATOM     24  C   UNL     1       6.292   7.047  18.543  1.00  0.00    -0.065 C 
ATOM     25  C   UNL     1       4.762   5.090  18.813  1.00  0.00     0.014 C 
ATOM     26  C   UNL     1       6.048   5.427  16.642  1.00  0.00     0.016 C 
ATOM     27  C   UNL     1       7.406   6.376  19.319  1.00  0.00     0.063 C 
ATOM     28  C   UNL     1       5.869   4.381  19.618  1.00  0.00     0.033 C 
ATOM     29  C   UNL     1       6.795   5.385  20.324  1.00  0.00     0.118 C 
BRANCH  29  30
ATOM     30  O   UNL     1       7.801   4.712  21.037  1.00  0.00    -0.393 OA
ATOM     31  H   UNL     1       7.922   5.180  21.906  1.00  0.00     0.210 HD
ENDBRANCH  29  30
ENDBRANCH   9  11
ENDBRANCH   1   9
TORSDOF 7
ENDMDL
