MODEL 1
REMARK VINA RESULT:    -5.574      0.000      0.000
REMARK INTER + INTRA:          -7.032
REMARK INTER:                  -6.714
REMARK INTRA:                  -0.317
REMARK UNBOUND:                -0.317
REMARK SMILES O=c1c(O)c(-c2ccc(O)cc2O)oc2cc(O)cc(O)c12
REMARK SMILES IDX 5 1 3 2 2 3 1 4 22 5 20 6 19 7 17 8 16 9 15 10 14 11 6 12
REMARK SMILES IDX 8 13 7 14 9 15 11 16 12 17 10 18 13 20 4 22 21 24 18 26
REMARK H PARENT 10 19 13 21 4 23 21 25 18 27
REMARK Flexibility Score: inf
ROOT
ATOM      1  C   UNL     1      15.560   7.363  31.540  1.00  0.00     0.184 A 
ATOM      2  C   UNL     1      14.800   6.185  31.584  1.00  0.00     0.208 A 
ATOM      3  C   UNL     1      14.978   5.298  32.656  1.00  0.00     0.238 A 
ATOM      4  O   UNL     1      14.249   4.274  32.722  1.00  0.00    -0.285 OA
ATOM      5  C   UNL     1      15.938   5.587  33.657  1.00  0.00     0.111 A 
ATOM      6  C   UNL     1      16.231   4.741  34.768  1.00  0.00     0.134 A 
ATOM      7  C   UNL     1      17.112   5.186  35.762  1.00  0.00     0.093 A 
ATOM      8  C   UNL     1      17.759   6.420  35.651  1.00  0.00     0.123 A 
ATOM      9  C   UNL     1      17.523   7.228  34.541  1.00  0.00     0.094 A 
ATOM     10  C   UNL     1      16.622   6.828  33.552  1.00  0.00     0.146 A 
ATOM     11  O   UNL     1      16.416   7.635  32.518  1.00  0.00    -0.451 OA
ENDROOT
BRANCH   1  12
ATOM     12  C   UNL     1      15.431   8.323  30.424  1.00  0.00     0.063 A 
ATOM     13  C   UNL     1      16.449   9.467  28.532  1.00  0.00     0.047 A 
ATOM     14  C   UNL     1      16.523   8.526  29.561  1.00  0.00     0.020 A 
ATOM     15  C   UNL     1      15.286  10.224  28.354  1.00  0.00     0.119 A 
ATOM     16  C   UNL     1      14.196  10.031  29.207  1.00  0.00     0.093 A 
ATOM     17  C   UNL     1      14.253   9.083  30.236  1.00  0.00     0.130 A 
BRANCH  15  18
ATOM     18  O   UNL     1      15.201  11.169  27.334  1.00  0.00    -0.508 OA
ATOM     19  H   UNL     1      15.676  11.036  26.448  1.00  0.00     0.293 HD
ENDBRANCH  15  18
BRANCH  17  20
ATOM     20  O   UNL     1      13.121   8.906  31.034  1.00  0.00    -0.507 OA
ATOM     21  H   UNL     1      12.324   8.352  30.748  1.00  0.00     0.293 HD
ENDBRANCH  17  20
ENDBRANCH   1  12
BRANCH   2  22
ATOM     22  O   UNL     1      13.862   5.923  30.581  1.00  0.00    -0.502 OA
ATOM     23  H   UNL     1      13.829   5.040  30.086  1.00  0.00     0.293 HD
ENDBRANCH   2  22
BRANCH   6  24
ATOM     24  O   UNL     1      15.710   3.454  34.930  1.00  0.00    -0.507 OA
ATOM     25  H   UNL     1      14.733   3.214  34.849  1.00  0.00     0.293 HD
ENDBRANCH   6  24
BRANCH   8  26
ATOM     26  O   UNL     1      18.646   6.848  36.636  1.00  0.00    -0.508 OA
ATOM     27  H   UNL     1      19.148   7.723  36.555  1.00  0.00     0.293 HD
ENDBRANCH   8  26
TORSDOF 6
ENDMDL
MODEL 2
REMARK VINA RESULT:    -5.351      2.363      3.397
REMARK INTER + INTRA:          -6.764
REMARK INTER:                  -6.385
REMARK INTRA:                  -0.379
REMARK UNBOUND:                -0.317
REMARK SMILES O=c1c(O)c(-c2ccc(O)cc2O)oc2cc(O)cc(O)c12
REMARK SMILES IDX 5 1 3 2 2 3 1 4 22 5 20 6 19 7 17 8 16 9 15 10 14 11 6 12
REMARK SMILES IDX 8 13 7 14 9 15 11 16 12 17 10 18 13 20 4 22 21 24 18 26
REMARK H PARENT 10 19 13 21 4 23 21 25 18 27
REMARK Flexibility Score: inf
ROOT
ATOM      1  C   UNL     1      15.925   7.095  33.778  1.00  0.00     0.184 A 
ATOM      2  C   UNL     1      15.612   5.730  33.686  1.00  0.00     0.208 A 
ATOM      3  C   UNL     1      16.601   4.782  33.988  1.00  0.00     0.238 A 
ATOM      4  O   UNL     1      16.295   3.561  33.963  1.00  0.00    -0.285 OA
ATOM      5  C   UNL     1      17.900   5.211  34.352  1.00  0.00     0.111 A 
ATOM      6  C   UNL     1      18.992   4.338  34.642  1.00  0.00     0.134 A 
ATOM      7  C   UNL     1      20.199   4.873  35.110  1.00  0.00     0.093 A 
ATOM      8  C   UNL     1      20.374   6.254  35.237  1.00  0.00     0.123 A 
ATOM      9  C   UNL     1      19.334   7.117  34.902  1.00  0.00     0.094 A 
ATOM     10  C   UNL     1      18.106   6.613  34.467  1.00  0.00     0.146 A 
ATOM     11  O   UNL     1      17.137   7.471  34.172  1.00  0.00    -0.451 OA
ENDROOT
BRANCH   1  12
ATOM     12  C   UNL     1      14.931   8.139  33.450  1.00  0.00     0.063 A 
ATOM     13  C   UNL     1      13.022   9.485  34.132  1.00  0.00     0.047 A 
ATOM     14  C   UNL     1      14.008   8.541  34.431  1.00  0.00     0.020 A 
ATOM     15  C   UNL     1      12.942  10.035  32.848  1.00  0.00     0.119 A 
ATOM     16  C   UNL     1      13.854   9.640  31.866  1.00  0.00     0.093 A 
ATOM     17  C   UNL     1      14.853   8.702  32.155  1.00  0.00     0.130 A 
BRANCH  15  18
ATOM     18  O   UNL     1      11.961  10.974  32.537  1.00  0.00    -0.508 OA
ATOM     19  H   UNL     1      11.039  10.936  32.958  1.00  0.00     0.293 HD
ENDBRANCH  15  18
BRANCH  17  20
ATOM     20  O   UNL     1      15.761   8.372  31.146  1.00  0.00    -0.507 OA
ATOM     21  H   UNL     1      15.613   8.605  30.173  1.00  0.00     0.293 HD
ENDBRANCH  17  20
ENDBRANCH   1  12
BRANCH   2  22
ATOM     22  O   UNL     1      14.322   5.335  33.321  1.00  0.00    -0.502 OA
ATOM     23  H   UNL     1      14.126   4.865  32.446  1.00  0.00     0.293 HD
ENDBRANCH   2  22
BRANCH   6  24
ATOM     24  O   UNL     1      18.953   2.953  34.463  1.00  0.00    -0.507 OA
ATOM     25  H   UNL     1      19.186   2.274  35.172  1.00  0.00     0.293 HD
ENDBRANCH   6  24
BRANCH   8  26
ATOM     26  O   UNL     1      21.584   6.777  35.688  1.00  0.00    -0.508 OA
ATOM     27  H   UNL     1      21.880   6.675  36.651  1.00  0.00     0.293 HD
ENDBRANCH   8  26
TORSDOF 6
ENDMDL
MODEL 3
REMARK VINA RESULT:    -5.322      3.073      3.383
REMARK INTER + INTRA:          -6.728
REMARK INTER:                  -6.337
REMARK INTRA:                  -0.391
REMARK UNBOUND:                -0.317
REMARK SMILES O=c1c(O)c(-c2ccc(O)cc2O)oc2cc(O)cc(O)c12
REMARK SMILES IDX 5 1 3 2 2 3 1 4 22 5 20 6 19 7 17 8 16 9 15 10 14 11 6 12
REMARK SMILES IDX 8 13 7 14 9 15 11 16 12 17 10 18 13 20 4 22 21 24 18 26
REMARK H PARENT 10 19 13 21 4 23 21 25 18 27
REMARK Flexibility Score: inf
ROOT
ATOM      1  C   UNL     1      14.188   8.106  31.290  1.00  0.00     0.184 A 
ATOM      2  C   UNL     1      13.829   6.750  31.335  1.00  0.00     0.208 A 
ATOM      3  C   UNL     1      13.150   6.262  32.462  1.00  0.00     0.238 A 
ATOM      4  O   UNL     1      12.776   5.060  32.469  1.00  0.00    -0.285 OA
ATOM      5  C   UNL     1      12.864   7.132  33.542  1.00  0.00     0.111 A 
ATOM      6  C   UNL     1      12.215   6.738  34.751  1.00  0.00     0.134 A 
ATOM      7  C   UNL     1      11.875   7.709  35.701  1.00  0.00     0.093 A 
ATOM      8  C   UNL     1      12.217   9.051  35.514  1.00  0.00     0.123 A 
ATOM      9  C   UNL     1      12.902   9.437  34.364  1.00  0.00     0.094 A 
ATOM     10  C   UNL     1      13.223   8.497  33.382  1.00  0.00     0.146 A 
ATOM     11  O   UNL     1      13.863   8.911  32.294  1.00  0.00    -0.451 OA
ENDROOT
BRANCH   1  12
ATOM     12  C   UNL     1      14.925   8.671  30.139  1.00  0.00     0.063 A 
ATOM     13  C   UNL     1      17.002   8.858  28.884  1.00  0.00     0.047 A 
ATOM     14  C   UNL     1      16.265   8.299  29.930  1.00  0.00     0.020 A 
ATOM     15  C   UNL     1      16.413   9.802  28.036  1.00  0.00     0.119 A 
ATOM     16  C   UNL     1      15.082  10.180  28.236  1.00  0.00     0.093 A 
ATOM     17  C   UNL     1      14.329   9.619  29.275  1.00  0.00     0.130 A 
BRANCH  15  18
ATOM     18  O   UNL     1      17.139  10.371  26.992  1.00  0.00    -0.508 OA
ATOM     19  H   UNL     1      17.388   9.837  26.168  1.00  0.00     0.293 HD
ENDBRANCH  15  18
BRANCH  17  20
ATOM     20  O   UNL     1      12.993  10.005  29.405  1.00  0.00    -0.507 OA
ATOM     21  H   UNL     1      12.371   9.615  30.101  1.00  0.00     0.293 HD
ENDBRANCH  17  20
ENDBRANCH   1  12
BRANCH   2  22
ATOM     22  O   UNL     1      14.127   5.914  30.255  1.00  0.00    -0.502 OA
ATOM     23  H   UNL     1      13.697   6.028  29.346  1.00  0.00     0.293 HD
ENDBRANCH   2  22
BRANCH   6  24
ATOM     24  O   UNL     1      11.910   5.413  35.078  1.00  0.00    -0.507 OA
ATOM     25  H   UNL     1      11.903   4.646  34.423  1.00  0.00     0.293 HD
ENDBRANCH   6  24
BRANCH   8  26
ATOM     26  O   UNL     1      11.889  10.007  36.472  1.00  0.00    -0.508 OA
ATOM     27  H   UNL     1      12.208  10.966  36.396  1.00  0.00     0.293 HD
ENDBRANCH   8  26
TORSDOF 6
ENDMDL
MODEL 4
REMARK VINA RESULT:    -5.303      1.802      2.832
REMARK INTER + INTRA:          -6.705
REMARK INTER:                  -6.381
REMARK INTRA:                  -0.324
REMARK UNBOUND:                -0.317
REMARK SMILES O=c1c(O)c(-c2ccc(O)cc2O)oc2cc(O)cc(O)c12
REMARK SMILES IDX 5 1 3 2 2 3 1 4 22 5 20 6 19 7 17 8 16 9 15 10 14 11 6 12
REMARK SMILES IDX 8 13 7 14 9 15 11 16 12 17 10 18 13 20 4 22 21 24 18 26
REMARK H PARENT 10 19 13 21 4 23 21 25 18 27
REMARK Flexibility Score: inf
ROOT
ATOM      1  C   UNL     1      16.110   7.000  33.385  1.00  0.00     0.184 A 
ATOM      2  C   UNL     1      15.401   6.242  34.329  1.00  0.00     0.208 A 
ATOM      3  C   UNL     1      16.100   5.651  35.392  1.00  0.00     0.238 A 
ATOM      4  O   UNL     1      15.449   5.024  36.269  1.00  0.00    -0.285 OA
ATOM      5  C   UNL     1      17.505   5.801  35.481  1.00  0.00     0.111 A 
ATOM      6  C   UNL     1      18.322   5.213  36.493  1.00  0.00     0.134 A 
ATOM      7  C   UNL     1      19.685   5.530  36.552  1.00  0.00     0.093 A 
ATOM      8  C   UNL     1      20.273   6.364  35.597  1.00  0.00     0.123 A 
ATOM      9  C   UNL     1      19.495   6.897  34.571  1.00  0.00     0.094 A 
ATOM     10  C   UNL     1      18.126   6.629  34.507  1.00  0.00     0.146 A 
ATOM     11  O   UNL     1      17.420   7.169  33.520  1.00  0.00    -0.451 OA
ENDROOT
BRANCH   1  12
ATOM     12  C   UNL     1      15.430   7.628  32.232  1.00  0.00     0.063 A 
ATOM     13  C   UNL     1      14.468   9.617  31.211  1.00  0.00     0.047 A 
ATOM     14  C   UNL     1      15.158   9.008  32.262  1.00  0.00     0.020 A 
ATOM     15  C   UNL     1      14.035   8.857  30.120  1.00  0.00     0.119 A 
ATOM     16  C   UNL     1      14.299   7.485  30.082  1.00  0.00     0.093 A 
ATOM     17  C   UNL     1      14.999   6.863  31.123  1.00  0.00     0.130 A 
BRANCH  15  18
ATOM     18  O   UNL     1      13.342   9.453  29.068  1.00  0.00    -0.508 OA
ATOM     19  H   UNL     1      13.803  10.080  28.419  1.00  0.00     0.293 HD
ENDBRANCH  15  18
BRANCH  17  20
ATOM     20  O   UNL     1      15.268   5.497  31.015  1.00  0.00    -0.507 OA
ATOM     21  H   UNL     1      14.546   4.788  31.037  1.00  0.00     0.293 HD
ENDBRANCH  17  20
ENDBRANCH   1  12
BRANCH   2  22
ATOM     22  O   UNL     1      14.014   6.108  34.214  1.00  0.00    -0.502 OA
ATOM     23  H   UNL     1      13.546   5.215  34.311  1.00  0.00     0.293 HD
ENDBRANCH   2  22
BRANCH   6  24
ATOM     24  O   UNL     1      17.854   4.297  37.440  1.00  0.00    -0.507 OA
ATOM     25  H   UNL     1      17.339   4.543  38.273  1.00  0.00     0.293 HD
ENDBRANCH   6  24
BRANCH   8  26
ATOM     26  O   UNL     1      21.632   6.661  35.654  1.00  0.00    -0.508 OA
ATOM     27  H   UNL     1      22.255   6.448  34.885  1.00  0.00     0.293 HD
ENDBRANCH   8  26
TORSDOF 6
ENDMDL
MODEL 5
REMARK VINA RESULT:    -5.153      2.051      3.439
REMARK INTER + INTRA:          -6.525
REMARK INTER:                  -6.159
REMARK INTRA:                  -0.366
REMARK UNBOUND:                -0.317
REMARK SMILES O=c1c(O)c(-c2ccc(O)cc2O)oc2cc(O)cc(O)c12
REMARK SMILES IDX 5 1 3 2 2 3 1 4 22 5 20 6 19 7 17 8 16 9 15 10 14 11 6 12
REMARK SMILES IDX 8 13 7 14 9 15 11 16 12 17 10 18 13 20 4 22 21 24 18 26
REMARK H PARENT 10 19 13 21 4 23 21 25 18 27
REMARK Flexibility Score: inf
ROOT
ATOM      1  C   UNL     1      16.179   6.985  33.843  1.00  0.00     0.184 A 
ATOM      2  C   UNL     1      15.539   7.034  35.090  1.00  0.00     0.208 A 
ATOM      3  C   UNL     1      16.228   6.585  36.228  1.00  0.00     0.238 A 
ATOM      4  O   UNL     1      15.671   6.689  37.352  1.00  0.00    -0.285 OA
ATOM      5  C   UNL     1      17.539   6.066  36.097  1.00  0.00     0.111 A 
ATOM      6  C   UNL     1      18.317   5.546  37.176  1.00  0.00     0.134 A 
ATOM      7  C   UNL     1      19.647   5.172  36.950  1.00  0.00     0.093 A 
ATOM      8  C   UNL     1      20.208   5.238  35.672  1.00  0.00     0.123 A 
ATOM      9  C   UNL     1      19.439   5.690  34.602  1.00  0.00     0.094 A 
ATOM     10  C   UNL     1      18.120   6.105  34.801  1.00  0.00     0.146 A 
ATOM     11  O   UNL     1      17.428   6.541  33.756  1.00  0.00    -0.451 OA
ENDROOT
BRANCH   1  12
ATOM     12  C   UNL     1      15.495   7.423  32.607  1.00  0.00     0.063 A 
ATOM     13  C   UNL     1      14.559   9.231  31.274  1.00  0.00     0.047 A 
ATOM     14  C   UNL     1      15.251   8.793  32.405  1.00  0.00     0.020 A 
ATOM     15  C   UNL     1      14.094   8.306  30.333  1.00  0.00     0.119 A 
ATOM     16  C   UNL     1      14.329   6.942  30.526  1.00  0.00     0.093 A 
ATOM     17  C   UNL     1      15.032   6.490  31.650  1.00  0.00     0.130 A 
BRANCH  15  18
ATOM     18  O   UNL     1      13.398   8.730  29.203  1.00  0.00    -0.508 OA
ATOM     19  H   UNL     1      13.130   8.081  28.472  1.00  0.00     0.293 HD
ENDBRANCH  15  18
BRANCH  17  20
ATOM     20  O   UNL     1      15.271   5.120  31.773  1.00  0.00    -0.507 OA
ATOM     21  H   UNL     1      14.869   4.553  32.508  1.00  0.00     0.293 HD
ENDBRANCH  17  20
ENDBRANCH   1  12
BRANCH   2  22
ATOM     22  O   UNL     1      14.243   7.548  35.189  1.00  0.00    -0.502 OA
ATOM     23  H   UNL     1      13.510   7.077  35.703  1.00  0.00     0.293 HD
ENDBRANCH   2  22
BRANCH   6  24
ATOM     24  O   UNL     1      17.826   5.353  38.470  1.00  0.00    -0.507 OA
ATOM     25  H   UNL     1      18.059   4.570  39.063  1.00  0.00     0.293 HD
ENDBRANCH   6  24
BRANCH   8  26
ATOM     26  O   UNL     1      21.527   4.848  35.454  1.00  0.00    -0.508 OA
ATOM     27  H   UNL     1      21.755   3.943  35.061  1.00  0.00     0.293 HD
ENDBRANCH   8  26
TORSDOF 6
ENDMDL
MODEL 6
REMARK VINA RESULT:    -5.144      2.174      6.547
REMARK INTER + INTRA:          -6.514
REMARK INTER:                  -6.098
REMARK INTRA:                  -0.416
REMARK UNBOUND:                -0.317
REMARK SMILES O=c1c(O)c(-c2ccc(O)cc2O)oc2cc(O)cc(O)c12
REMARK SMILES IDX 5 1 3 2 2 3 1 4 22 5 20 6 19 7 17 8 16 9 15 10 14 11 6 12
REMARK SMILES IDX 8 13 7 14 9 15 11 16 12 17 10 18 13 20 4 22 21 24 18 26
REMARK H PARENT 10 19 13 21 4 23 21 25 18 27
REMARK Flexibility Score: inf
ROOT
ATOM      1  C   UNL     1      16.753   6.975  33.900  1.00  0.00     0.184 A 
ATOM      2  C   UNL     1      15.623   7.076  34.725  1.00  0.00     0.208 A 
ATOM      3  C   UNL     1      14.464   7.686  34.221  1.00  0.00     0.238 A 
ATOM      4  O   UNL     1      13.435   7.718  34.945  1.00  0.00    -0.285 OA
ATOM      5  C   UNL     1      14.461   8.215  32.907  1.00  0.00     0.111 A 
ATOM      6  C   UNL     1      13.356   8.891  32.307  1.00  0.00     0.134 A 
ATOM      7  C   UNL     1      13.424   9.263  30.959  1.00  0.00     0.093 A 
ATOM      8  C   UNL     1      14.581   9.042  30.207  1.00  0.00     0.123 A 
ATOM      9  C   UNL     1      15.686   8.436  30.800  1.00  0.00     0.094 A 
ATOM     10  C   UNL     1      15.636   8.020  32.133  1.00  0.00     0.146 A 
ATOM     11  O   UNL     1      16.707   7.433  32.654  1.00  0.00    -0.451 OA
ENDROOT
BRANCH   1  12
ATOM     12  C   UNL     1      18.009   6.362  34.383  1.00  0.00     0.063 A 
ATOM     13  C   UNL     1      20.194   6.632  35.421  1.00  0.00     0.047 A 
ATOM     14  C   UNL     1      18.975   7.173  35.004  1.00  0.00     0.020 A 
ATOM     15  C   UNL     1      20.467   5.275  35.218  1.00  0.00     0.119 A 
ATOM     16  C   UNL     1      19.513   4.461  34.599  1.00  0.00     0.093 A 
ATOM     17  C   UNL     1      18.284   4.989  34.187  1.00  0.00     0.130 A 
BRANCH  15  18
ATOM     18  O   UNL     1      21.680   4.725  35.625  1.00  0.00    -0.508 OA
ATOM     19  H   UNL     1      22.091   3.935  35.142  1.00  0.00     0.293 HD
ENDBRANCH  15  18
BRANCH  17  20
ATOM     20  O   UNL     1      17.354   4.121  33.609  1.00  0.00    -0.507 OA
ATOM     21  H   UNL     1      16.530   4.443  33.116  1.00  0.00     0.293 HD
ENDBRANCH  17  20
ENDBRANCH   1  12
BRANCH   2  22
ATOM     22  O   UNL     1      15.655   6.548  36.018  1.00  0.00    -0.502 OA
ATOM     23  H   UNL     1      14.832   6.173  36.473  1.00  0.00     0.293 HD
ENDBRANCH   2  22
BRANCH   6  24
ATOM     24  O   UNL     1      12.189   9.240  32.992  1.00  0.00    -0.507 OA
ATOM     25  H   UNL     1      11.255   8.987  32.705  1.00  0.00     0.293 HD
ENDBRANCH   6  24
BRANCH   8  26
ATOM     26  O   UNL     1      14.645   9.431  28.871  1.00  0.00    -0.508 OA
ATOM     27  H   UNL     1      14.933   8.788  28.145  1.00  0.00     0.293 HD
ENDBRANCH   8  26
TORSDOF 6
ENDMDL
MODEL 7
REMARK VINA RESULT:    -4.858      6.161      9.498
REMARK INTER + INTRA:          -6.169
REMARK INTER:                  -5.755
REMARK INTRA:                  -0.414
REMARK UNBOUND:                -0.317
REMARK SMILES O=c1c(O)c(-c2ccc(O)cc2O)oc2cc(O)cc(O)c12
REMARK SMILES IDX 5 1 3 2 2 3 1 4 22 5 20 6 19 7 17 8 16 9 15 10 14 11 6 12
REMARK SMILES IDX 8 13 7 14 9 15 11 16 12 17 10 18 13 20 4 22 21 24 18 26
REMARK H PARENT 10 19 13 21 4 23 21 25 18 27
REMARK Flexibility Score: inf
ROOT
ATOM      1  C   UNL     1      22.015   4.461  36.612  1.00  0.00     0.184 A 
ATOM      2  C   UNL     1      22.129   4.681  37.993  1.00  0.00     0.208 A 
ATOM      3  C   UNL     1      23.365   4.459  38.619  1.00  0.00     0.238 A 
ATOM      4  O   UNL     1      23.476   4.718  39.845  1.00  0.00    -0.285 OA
ATOM      5  C   UNL     1      24.464   3.991  37.859  1.00  0.00     0.111 A 
ATOM      6  C   UNL     1      25.753   3.694  38.395  1.00  0.00     0.134 A 
ATOM      7  C   UNL     1      26.800   3.354  37.529  1.00  0.00     0.093 A 
ATOM      8  C   UNL     1      26.588   3.238  36.152  1.00  0.00     0.123 A 
ATOM      9  C   UNL     1      25.320   3.469  35.626  1.00  0.00     0.094 A 
ATOM     10  C   UNL     1      24.264   3.846  36.459  1.00  0.00     0.146 A 
ATOM     11  O   UNL     1      23.075   4.071  35.914  1.00  0.00    -0.451 OA
ENDROOT
BRANCH   1  12
ATOM     12  C   UNL     1      20.732   4.656  35.903  1.00  0.00     0.063 A 
ATOM     13  C   UNL     1      18.636   3.721  35.093  1.00  0.00     0.047 A 
ATOM     14  C   UNL     1      19.830   3.582  35.804  1.00  0.00     0.020 A 
ATOM     15  C   UNL     1      18.329   4.933  34.465  1.00  0.00     0.119 A 
ATOM     16  C   UNL     1      19.220   6.006  34.555  1.00  0.00     0.093 A 
ATOM     17  C   UNL     1      20.416   5.883  35.274  1.00  0.00     0.130 A 
BRANCH  15  18
ATOM     18  O   UNL     1      17.144   5.083  33.749  1.00  0.00    -0.508 OA
ATOM     19  H   UNL     1      16.863   5.980  33.370  1.00  0.00     0.293 HD
ENDBRANCH  15  18
BRANCH  17  20
ATOM     20  O   UNL     1      21.251   6.999  35.363  1.00  0.00    -0.507 OA
ATOM     21  H   UNL     1      21.659   7.316  36.232  1.00  0.00     0.293 HD
ENDBRANCH  17  20
ENDBRANCH   1  12
BRANCH   2  22
ATOM     22  O   UNL     1      21.026   5.140  38.718  1.00  0.00    -0.502 OA
ATOM     23  H   UNL     1      20.865   6.123  38.898  1.00  0.00     0.293 HD
ENDBRANCH   2  22
BRANCH   6  24
ATOM     24  O   UNL     1      26.049   3.691  39.761  1.00  0.00    -0.507 OA
ATOM     25  H   UNL     1      25.363   3.748  40.499  1.00  0.00     0.293 HD
ENDBRANCH   6  24
BRANCH   8  26
ATOM     26  O   UNL     1      27.632   2.883  35.301  1.00  0.00    -0.508 OA
ATOM     27  H   UNL     1      27.578   2.063  34.709  1.00  0.00     0.293 HD
ENDBRANCH   8  26
TORSDOF 6
ENDMDL
MODEL 8
REMARK VINA RESULT:    -4.724      1.588      6.465
REMARK INTER + INTRA:          -6.008
REMARK INTER:                  -5.719
REMARK INTRA:                  -0.289
REMARK UNBOUND:                -0.317
REMARK SMILES O=c1c(O)c(-c2ccc(O)cc2O)oc2cc(O)cc(O)c12
REMARK SMILES IDX 5 1 3 2 2 3 1 4 22 5 20 6 19 7 17 8 16 9 15 10 14 11 6 12
REMARK SMILES IDX 8 13 7 14 9 15 11 16 12 17 10 18 13 20 4 22 21 24 18 26
REMARK H PARENT 10 19 13 21 4 23 21 25 18 27
REMARK Flexibility Score: inf
ROOT
ATOM      1  C   UNL     1      16.161   6.404  33.786  1.00  0.00     0.184 A 
ATOM      2  C   UNL     1      14.898   5.797  33.846  1.00  0.00     0.208 A 
ATOM      3  C   UNL     1      13.948   6.101  32.859  1.00  0.00     0.238 A 
ATOM      4  O   UNL     1      12.839   5.506  32.884  1.00  0.00    -0.285 OA
ATOM      5  C   UNL     1      14.265   7.032  31.840  1.00  0.00     0.111 A 
ATOM      6  C   UNL     1      13.367   7.446  30.811  1.00  0.00     0.134 A 
ATOM      7  C   UNL     1      13.829   8.279  29.785  1.00  0.00     0.093 A 
ATOM      8  C   UNL     1      15.139   8.766  29.786  1.00  0.00     0.123 A 
ATOM      9  C   UNL     1      16.007   8.414  30.817  1.00  0.00     0.094 A 
ATOM     10  C   UNL     1      15.587   7.555  31.835  1.00  0.00     0.146 A 
ATOM     11  O   UNL     1      16.451   7.234  32.791  1.00  0.00    -0.451 OA
ENDROOT
BRANCH   1  12
ATOM     12  C   UNL     1      17.194   6.140  34.811  1.00  0.00     0.063 A 
ATOM     13  C   UNL     1      19.310   5.100  35.415  1.00  0.00     0.047 A 
ATOM     14  C   UNL     1      18.344   5.413  34.456  1.00  0.00     0.020 A 
ATOM     15  C   UNL     1      19.137   5.504  36.744  1.00  0.00     0.119 A 
ATOM     16  C   UNL     1      17.996   6.225  37.107  1.00  0.00     0.093 A 
ATOM     17  C   UNL     1      17.026   6.554  36.153  1.00  0.00     0.130 A 
BRANCH  15  18
ATOM     18  O   UNL     1      20.091   5.194  37.711  1.00  0.00    -0.508 OA
ATOM     19  H   UNL     1      20.325   5.845  38.451  1.00  0.00     0.293 HD
ENDBRANCH  15  18
BRANCH  17  20
ATOM     20  O   UNL     1      15.925   7.308  36.564  1.00  0.00    -0.507 OA
ATOM     21  H   UNL     1      15.929   8.319  36.596  1.00  0.00     0.293 HD
ENDBRANCH  17  20
ENDBRANCH   1  12
BRANCH   2  22
ATOM     22  O   UNL     1      14.612   4.885  34.865  1.00  0.00    -0.502 OA
ATOM     23  H   UNL     1      13.814   4.263  34.829  1.00  0.00     0.293 HD
ENDBRANCH   2  22
BRANCH   6  24
ATOM     24  O   UNL     1      12.015   7.092  30.765  1.00  0.00    -0.507 OA
ATOM     25  H   UNL     1      11.575   6.422  31.378  1.00  0.00     0.293 HD
ENDBRANCH   6  24
BRANCH   8  26
ATOM     26  O   UNL     1      15.584   9.607  28.769  1.00  0.00    -0.508 OA
ATOM     27  H   UNL     1      15.996  10.511  28.971  1.00  0.00     0.293 HD
ENDBRANCH   8  26
TORSDOF 6
ENDMDL
MODEL 9
REMARK VINA RESULT:    -4.682      3.447      6.287
REMARK INTER + INTRA:          -5.957
REMARK INTER:                  -5.631
REMARK INTRA:                  -0.326
REMARK UNBOUND:                -0.317
REMARK SMILES O=c1c(O)c(-c2ccc(O)cc2O)oc2cc(O)cc(O)c12
REMARK SMILES IDX 5 1 3 2 2 3 1 4 22 5 20 6 19 7 17 8 16 9 15 10 14 11 6 12
REMARK SMILES IDX 8 13 7 14 9 15 11 16 12 17 10 18 13 20 4 22 21 24 18 26
REMARK H PARENT 10 19 13 21 4 23 21 25 18 27
REMARK Flexibility Score: inf
ROOT
ATOM      1  C   UNL     1      13.980   7.898  33.800  1.00  0.00     0.184 A 
ATOM      2  C   UNL     1      13.994   6.546  33.426  1.00  0.00     0.208 A 
ATOM      3  C   UNL     1      14.442   6.198  32.142  1.00  0.00     0.238 A 
ATOM      4  O   UNL     1      14.510   4.979  31.835  1.00  0.00    -0.285 OA
ATOM      5  C   UNL     1      14.842   7.212  31.238  1.00  0.00     0.111 A 
ATOM      6  C   UNL     1      15.276   6.980  29.898  1.00  0.00     0.134 A 
ATOM      7  C   UNL     1      15.764   8.047  29.135  1.00  0.00     0.093 A 
ATOM      8  C   UNL     1      15.775   9.350  29.641  1.00  0.00     0.123 A 
ATOM      9  C   UNL     1      15.300   9.596  30.927  1.00  0.00     0.094 A 
ATOM     10  C   UNL     1      14.840   8.547  31.726  1.00  0.00     0.146 A 
ATOM     11  O   UNL     1      14.410   8.824  32.951  1.00  0.00    -0.451 OA
ENDROOT
BRANCH   1  12
ATOM     12  C   UNL     1      13.498   8.325  35.131  1.00  0.00     0.063 A 
ATOM     13  C   UNL     1      11.876   9.557  36.462  1.00  0.00     0.047 A 
ATOM     14  C   UNL     1      12.324   9.093  35.223  1.00  0.00     0.020 A 
ATOM     15  C   UNL     1      12.597   9.266  37.625  1.00  0.00     0.119 A 
ATOM     16  C   UNL     1      13.766   8.505  37.543  1.00  0.00     0.093 A 
ATOM     17  C   UNL     1      14.221   8.025  36.309  1.00  0.00     0.130 A 
BRANCH  15  18
ATOM     18  O   UNL     1      12.162   9.728  38.865  1.00  0.00    -0.508 OA
ATOM     19  H   UNL     1      12.752  10.308  39.450  1.00  0.00     0.293 HD
ENDBRANCH  15  18
BRANCH  17  20
ATOM     20  O   UNL     1      15.375   7.237  36.292  1.00  0.00    -0.507 OA
ATOM     21  H   UNL     1      15.562   6.516  36.976  1.00  0.00     0.293 HD
ENDBRANCH  17  20
ENDBRANCH   1  12
BRANCH   2  22
ATOM     22  O   UNL     1      13.590   5.566  34.337  1.00  0.00    -0.502 OA
ATOM     23  H   UNL     1      12.802   4.956  34.164  1.00  0.00     0.293 HD
ENDBRANCH   2  22
BRANCH   6  24
ATOM     24  O   UNL     1      15.223   5.735  29.265  1.00  0.00    -0.507 OA
ATOM     25  H   UNL     1      14.745   5.551  28.395  1.00  0.00     0.293 HD
ENDBRANCH   6  24
BRANCH   8  26
ATOM     26  O   UNL     1      16.248  10.408  28.869  1.00  0.00    -0.508 OA
ATOM     27  H   UNL     1      16.862  11.114  29.255  1.00  0.00     0.293 HD
ENDBRANCH   8  26
TORSDOF 6
ENDMDL
