MODEL 1
REMARK VINA RESULT:    -4.806      0.000      0.000
REMARK INTER + INTRA:          -6.060
REMARK INTER:                  -5.789
REMARK INTRA:                  -0.271
REMARK UNBOUND:                -0.271
REMARK SMILES O=c1c(O)c(-c2ccc(O)c(O)c2)oc2cc(O)cc(O)c12
REMARK SMILES IDX 5 1 3 2 2 3 1 4 22 5 20 6 19 7 17 8 16 9 15 10 14 11 6 12
REMARK SMILES IDX 7 13 8 14 9 15 13 16 11 17 10 18 12 20 4 22 21 24 18 26
REMARK H PARENT 10 19 12 21 4 23 21 25 18 27
REMARK Flexibility Score: inf
ROOT
ATOM      1  C   UNL     1     -22.032  23.857  13.613  1.00  0.00     0.180 A 
ATOM      2  C   UNL     1     -20.648  23.840  13.875  1.00  0.00     0.208 A 
ATOM      3  C   UNL     1     -20.211  23.647  15.195  1.00  0.00     0.238 A 
ATOM      4  O   UNL     1     -18.974  23.640  15.443  1.00  0.00    -0.285 OA
ATOM      5  C   UNL     1     -21.157  23.457  16.223  1.00  0.00     0.111 A 
ATOM      6  C   UNL     1     -20.798  23.253  17.577  1.00  0.00     0.134 A 
ATOM      7  C   UNL     1     -21.801  23.061  18.540  1.00  0.00     0.093 A 
ATOM      8  C   UNL     1     -23.148  23.069  18.178  1.00  0.00     0.123 A 
ATOM      9  C   UNL     1     -23.509  23.270  16.841  1.00  0.00     0.094 A 
ATOM     10  C   UNL     1     -22.526  23.464  15.866  1.00  0.00     0.146 A 
ATOM     11  O   UNL     1     -22.895  23.659  14.605  1.00  0.00    -0.452 OA
ENDROOT
BRANCH   1  12
ATOM     12  C   UNL     1     -22.572  24.073  12.251  1.00  0.00     0.025 A 
ATOM     13  C   UNL     1     -23.039  23.000  11.471  1.00  0.00     0.016 A 
ATOM     14  C   UNL     1     -23.522  23.225  10.180  1.00  0.00     0.051 A 
ATOM     15  C   UNL     1     -23.535  24.516   9.643  1.00  0.00     0.157 A 
ATOM     16  C   UNL     1     -22.566  25.364  11.702  1.00  0.00     0.062 A 
ATOM     17  C   UNL     1     -23.052  25.591  10.406  1.00  0.00     0.158 A 
BRANCH  15  18
ATOM     18  O   UNL     1     -24.025  24.709   8.352  1.00  0.00    -0.504 OA
ATOM     19  H   UNL     1     -25.017  24.768   8.156  1.00  0.00     0.293 HD
ENDBRANCH  15  18
BRANCH  17  20
ATOM     20  O   UNL     1     -23.055  26.880   9.875  1.00  0.00    -0.504 OA
ATOM     21  H   UNL     1     -22.776  27.061   8.917  1.00  0.00     0.293 HD
ENDBRANCH  17  20
ENDBRANCH   1  12
BRANCH   2  22
ATOM     22  O   UNL     1     -19.730  23.981  12.832  1.00  0.00    -0.502 OA
ATOM     23  H   UNL     1     -19.381  23.190  12.305  1.00  0.00     0.293 HD
ENDBRANCH   2  22
BRANCH   6  24
ATOM     24  O   UNL     1     -19.461  23.238  17.972  1.00  0.00    -0.507 OA
ATOM     25  H   UNL     1     -19.187  23.401  18.934  1.00  0.00     0.293 HD
ENDBRANCH   6  24
BRANCH   8  26
ATOM     26  O   UNL     1     -24.125  22.875  19.154  1.00  0.00    -0.508 OA
ATOM     27  H   UNL     1     -24.323  21.955  19.529  1.00  0.00     0.293 HD
ENDBRANCH   8  26
TORSDOF 6
ENDMDL
MODEL 2
REMARK VINA RESULT:    -4.402      3.453      8.652
REMARK INTER + INTRA:          -5.573
REMARK INTER:                  -5.307
REMARK INTRA:                  -0.266
REMARK UNBOUND:                -0.271
REMARK SMILES O=c1c(O)c(-c2ccc(O)c(O)c2)oc2cc(O)cc(O)c12
REMARK SMILES IDX 5 1 3 2 2 3 1 4 22 5 20 6 19 7 17 8 16 9 15 10 14 11 6 12
REMARK SMILES IDX 7 13 8 14 9 15 13 16 11 17 10 18 12 20 4 22 21 24 18 26
REMARK H PARENT 10 19 12 21 4 23 21 25 18 27
REMARK Flexibility Score: inf
ROOT
ATOM      1  C   UNL     1     -19.390  23.768  18.957  1.00  0.00     0.180 A 
ATOM      2  C   UNL     1     -20.713  23.386  19.254  1.00  0.00     0.208 A 
ATOM      3  C   UNL     1     -21.621  23.208  18.198  1.00  0.00     0.238 A 
ATOM      4  O   UNL     1     -22.810  22.875  18.453  1.00  0.00    -0.285 OA
ATOM      5  C   UNL     1     -21.190  23.395  16.869  1.00  0.00     0.111 A 
ATOM      6  C   UNL     1     -22.040  23.231  15.749  1.00  0.00     0.134 A 
ATOM      7  C   UNL     1     -21.532  23.426  14.456  1.00  0.00     0.093 A 
ATOM      8  C   UNL     1     -20.196  23.780  14.261  1.00  0.00     0.123 A 
ATOM      9  C   UNL     1     -19.351  23.943  15.363  1.00  0.00     0.094 A 
ATOM     10  C   UNL     1     -19.837  23.754  16.660  1.00  0.00     0.146 A 
ATOM     11  O   UNL     1     -19.015  23.921  17.690  1.00  0.00    -0.452 OA
ENDROOT
BRANCH   1  12
ATOM     12  C   UNL     1     -18.379  23.993  20.015  1.00  0.00     0.025 A 
ATOM     13  C   UNL     1     -17.395  23.032  20.303  1.00  0.00     0.016 A 
ATOM     14  C   UNL     1     -16.466  23.256  21.322  1.00  0.00     0.051 A 
ATOM     15  C   UNL     1     -16.513  24.432  22.077  1.00  0.00     0.157 A 
ATOM     16  C   UNL     1     -18.437  25.163  20.788  1.00  0.00     0.062 A 
ATOM     17  C   UNL     1     -17.504  25.390  21.811  1.00  0.00     0.158 A 
BRANCH  15  18
ATOM     18  O   UNL     1     -15.571  24.628  23.086  1.00  0.00    -0.504 OA
ATOM     19  H   UNL     1     -15.773  25.181  23.911  1.00  0.00     0.293 HD
ENDBRANCH  15  18
BRANCH  17  20
ATOM     20  O   UNL     1     -17.562  26.562  22.564  1.00  0.00    -0.504 OA
ATOM     21  H   UNL     1     -17.144  26.623  23.486  1.00  0.00     0.293 HD
ENDBRANCH  17  20
ENDBRANCH   1  12
BRANCH   2  22
ATOM     22  O   UNL     1     -21.101  23.159  20.576  1.00  0.00    -0.502 OA
ATOM     23  H   UNL     1     -21.409  23.906  21.187  1.00  0.00     0.293 HD
ENDBRANCH   2  22
BRANCH   6  24
ATOM     24  O   UNL     1     -23.380  22.877  15.910  1.00  0.00    -0.507 OA
ATOM     25  H   UNL     1     -24.002  23.402  16.514  1.00  0.00     0.293 HD
ENDBRANCH   6  24
BRANCH   8  26
ATOM     26  O   UNL     1     -19.717  23.967  12.965  1.00  0.00    -0.508 OA
ATOM     27  H   UNL     1     -18.764  24.264  12.791  1.00  0.00     0.293 HD
ENDBRANCH   8  26
TORSDOF 6
ENDMDL
MODEL 3
REMARK VINA RESULT:    -4.311     12.895     14.419
REMARK INTER + INTRA:          -5.464
REMARK INTER:                  -5.265
REMARK INTRA:                  -0.199
REMARK UNBOUND:                -0.271
REMARK SMILES O=c1c(O)c(-c2ccc(O)c(O)c2)oc2cc(O)cc(O)c12
REMARK SMILES IDX 5 1 3 2 2 3 1 4 22 5 20 6 19 7 17 8 16 9 15 10 14 11 6 12
REMARK SMILES IDX 7 13 8 14 9 15 13 16 11 17 10 18 12 20 4 22 21 24 18 26
REMARK H PARENT 10 19 12 21 4 23 21 25 18 27
REMARK Flexibility Score: inf
ROOT
ATOM      1  C   UNL     1     -22.226  35.292  22.022  1.00  0.00     0.180 A 
ATOM      2  C   UNL     1     -23.011  34.461  21.200  1.00  0.00     0.208 A 
ATOM      3  C   UNL     1     -22.673  33.102  21.090  1.00  0.00     0.238 A 
ATOM      4  O   UNL     1     -23.364  32.350  20.349  1.00  0.00    -0.285 OA
ATOM      5  C   UNL     1     -21.573  32.596  21.812  1.00  0.00     0.111 A 
ATOM      6  C   UNL     1     -21.170  31.240  21.759  1.00  0.00     0.134 A 
ATOM      7  C   UNL     1     -20.070  30.812  22.517  1.00  0.00     0.093 A 
ATOM      8  C   UNL     1     -19.368  31.708  23.324  1.00  0.00     0.123 A 
ATOM      9  C   UNL     1     -19.762  33.049  23.381  1.00  0.00     0.094 A 
ATOM     10  C   UNL     1     -20.855  33.497  22.633  1.00  0.00     0.146 A 
ATOM     11  O   UNL     1     -21.205  34.776  22.701  1.00  0.00    -0.452 OA
ENDROOT
BRANCH   1  12
ATOM     12  C   UNL     1     -22.506  36.738  22.177  1.00  0.00     0.025 A 
ATOM     13  C   UNL     1     -23.005  37.262  23.383  1.00  0.00     0.016 A 
ATOM     14  C   UNL     1     -23.285  38.625  23.497  1.00  0.00     0.051 A 
ATOM     15  C   UNL     1     -23.087  39.483  22.412  1.00  0.00     0.157 A 
ATOM     16  C   UNL     1     -22.328  37.597  21.082  1.00  0.00     0.062 A 
ATOM     17  C   UNL     1     -22.608  38.967  21.196  1.00  0.00     0.158 A 
BRANCH  15  18
ATOM     18  O   UNL     1     -23.373  40.839  22.557  1.00  0.00    -0.504 OA
ATOM     19  H   UNL     1     -24.039  41.179  23.240  1.00  0.00     0.293 HD
ENDBRANCH  15  18
BRANCH  17  20
ATOM     20  O   UNL     1     -22.414  39.814  20.106  1.00  0.00    -0.504 OA
ATOM     21  H   UNL     1     -23.192  40.272  19.644  1.00  0.00     0.293 HD
ENDBRANCH  17  20
ENDBRANCH   1  12
BRANCH   2  22
ATOM     22  O   UNL     1     -24.125  34.976  20.534  1.00  0.00    -0.502 OA
ATOM     23  H   UNL     1     -24.096  35.852  20.027  1.00  0.00     0.293 HD
ENDBRANCH   2  22
BRANCH   6  24
ATOM     24  O   UNL     1     -21.851  30.319  20.963  1.00  0.00    -0.507 OA
ATOM     25  H   UNL     1     -22.661  29.815  21.304  1.00  0.00     0.293 HD
ENDBRANCH   6  24
BRANCH   8  26
ATOM     26  O   UNL     1     -18.279  31.257  24.067  1.00  0.00    -0.508 OA
ATOM     27  H   UNL     1     -18.403  30.747  24.934  1.00  0.00     0.293 HD
ENDBRANCH   8  26
TORSDOF 6
ENDMDL
MODEL 4
REMARK VINA RESULT:    -4.256      9.777     11.884
REMARK INTER + INTRA:          -5.397
REMARK INTER:                  -5.066
REMARK INTRA:                  -0.331
REMARK UNBOUND:                -0.271
REMARK SMILES O=c1c(O)c(-c2ccc(O)c(O)c2)oc2cc(O)cc(O)c12
REMARK SMILES IDX 5 1 3 2 2 3 1 4 22 5 20 6 19 7 17 8 16 9 15 10 14 11 6 12
REMARK SMILES IDX 7 13 8 14 9 15 13 16 11 17 10 18 12 20 4 22 21 24 18 26
REMARK H PARENT 10 19 12 21 4 23 21 25 18 27
REMARK Flexibility Score: inf
ROOT
ATOM      1  C   UNL     1     -21.559  31.960  22.026  1.00  0.00     0.180 A 
ATOM      2  C   UNL     1     -20.311  31.549  22.534  1.00  0.00     0.208 A 
ATOM      3  C   UNL     1     -19.824  30.278  22.188  1.00  0.00     0.238 A 
ATOM      4  O   UNL     1     -18.712  29.896  22.646  1.00  0.00    -0.285 OA
ATOM      5  C   UNL     1     -20.578  29.452  21.330  1.00  0.00     0.111 A 
ATOM      6  C   UNL     1     -20.155  28.161  20.931  1.00  0.00     0.134 A 
ATOM      7  C   UNL     1     -20.959  27.404  20.065  1.00  0.00     0.093 A 
ATOM      8  C   UNL     1     -22.171  27.909  19.593  1.00  0.00     0.123 A 
ATOM      9  C   UNL     1     -22.594  29.184  19.984  1.00  0.00     0.094 A 
ATOM     10  C   UNL     1     -21.809  29.955  20.846  1.00  0.00     0.146 A 
ATOM     11  O   UNL     1     -22.236  31.160  21.207  1.00  0.00    -0.452 OA
ENDROOT
BRANCH   1  12
ATOM     12  C   UNL     1     -22.149  33.277  22.360  1.00  0.00     0.025 A 
ATOM     13  C   UNL     1     -22.952  33.451  23.500  1.00  0.00     0.016 A 
ATOM     14  C   UNL     1     -23.519  34.696  23.781  1.00  0.00     0.051 A 
ATOM     15  C   UNL     1     -23.305  35.780  22.925  1.00  0.00     0.157 A 
ATOM     16  C   UNL     1     -21.954  34.361  21.491  1.00  0.00     0.062 A 
ATOM     17  C   UNL     1     -22.522  35.613  21.772  1.00  0.00     0.158 A 
BRANCH  15  18
ATOM     18  O   UNL     1     -23.881  37.012  23.233  1.00  0.00    -0.504 OA
ATOM     19  H   UNL     1     -24.241  37.632  22.518  1.00  0.00     0.293 HD
ENDBRANCH  15  18
BRANCH  17  20
ATOM     20  O   UNL     1     -22.310  36.687  20.910  1.00  0.00    -0.504 OA
ATOM     21  H   UNL     1     -22.979  37.445  20.830  1.00  0.00     0.293 HD
ENDBRANCH  17  20
ENDBRANCH   1  12
BRANCH   2  22
ATOM     22  O   UNL     1     -19.561  32.406  23.343  1.00  0.00    -0.502 OA
ATOM     23  H   UNL     1     -19.835  32.635  24.290  1.00  0.00     0.293 HD
ENDBRANCH   2  22
BRANCH   6  24
ATOM     24  O   UNL     1     -18.948  27.628  21.384  1.00  0.00    -0.507 OA
ATOM     25  H   UNL     1     -18.267  27.233  20.746  1.00  0.00     0.293 HD
ENDBRANCH   6  24
BRANCH   8  26
ATOM     26  O   UNL     1     -22.950  27.137  18.733  1.00  0.00    -0.508 OA
ATOM     27  H   UNL     1     -23.840  26.752  19.027  1.00  0.00     0.293 HD
ENDBRANCH   8  26
TORSDOF 6
ENDMDL
MODEL 5
REMARK VINA RESULT:    -4.179      9.995     12.150
REMARK INTER + INTRA:          -5.305
REMARK INTER:                  -4.985
REMARK INTRA:                  -0.320
REMARK UNBOUND:                -0.271
REMARK SMILES O=c1c(O)c(-c2ccc(O)c(O)c2)oc2cc(O)cc(O)c12
REMARK SMILES IDX 5 1 3 2 2 3 1 4 22 5 20 6 19 7 17 8 16 9 15 10 14 11 6 12
REMARK SMILES IDX 7 13 8 14 9 15 13 16 11 17 10 18 12 20 4 22 21 24 18 26
REMARK H PARENT 10 19 12 21 4 23 21 25 18 27
REMARK Flexibility Score: inf
ROOT
ATOM      1  C   UNL     1     -21.441  31.896  22.041  1.00  0.00     0.180 A 
ATOM      2  C   UNL     1     -21.935  30.940  21.132  1.00  0.00     0.208 A 
ATOM      3  C   UNL     1     -21.219  29.746  20.948  1.00  0.00     0.238 A 
ATOM      4  O   UNL     1     -21.646  28.888  20.129  1.00  0.00    -0.285 OA
ATOM      5  C   UNL     1     -20.039  29.520  21.686  1.00  0.00     0.111 A 
ATOM      6  C   UNL     1     -19.263  28.343  21.562  1.00  0.00     0.134 A 
ATOM      7  C   UNL     1     -18.105  28.189  22.340  1.00  0.00     0.093 A 
ATOM      8  C   UNL     1     -17.710  29.184  23.235  1.00  0.00     0.123 A 
ATOM      9  C   UNL     1     -18.473  30.350  23.362  1.00  0.00     0.094 A 
ATOM     10  C   UNL     1     -19.629  30.523  22.596  1.00  0.00     0.146 A 
ATOM     11  O   UNL     1     -20.333  31.642  22.731  1.00  0.00    -0.452 OA
ENDROOT
BRANCH   1  12
ATOM     12  C   UNL     1     -22.128  33.187  22.277  1.00  0.00     0.025 A 
ATOM     13  C   UNL     1     -23.076  33.334  23.305  1.00  0.00     0.016 A 
ATOM     14  C   UNL     1     -23.729  34.554  23.493  1.00  0.00     0.051 A 
ATOM     15  C   UNL     1     -23.459  35.639  22.653  1.00  0.00     0.157 A 
ATOM     16  C   UNL     1     -21.875  34.270  21.422  1.00  0.00     0.062 A 
ATOM     17  C   UNL     1     -22.529  35.497  21.610  1.00  0.00     0.158 A 
BRANCH  15  18
ATOM     18  O   UNL     1     -24.125  36.845  22.867  1.00  0.00    -0.504 OA
ATOM     19  H   UNL     1     -23.633  37.727  22.934  1.00  0.00     0.293 HD
ENDBRANCH  15  18
BRANCH  17  20
ATOM     20  O   UNL     1     -22.260  36.572  20.765  1.00  0.00    -0.504 OA
ATOM     21  H   UNL     1     -21.479  37.197  20.931  1.00  0.00     0.293 HD
ENDBRANCH  17  20
ENDBRANCH   1  12
BRANCH   2  22
ATOM     22  O   UNL     1     -23.132  31.167  20.450  1.00  0.00    -0.502 OA
ATOM     23  H   UNL     1     -23.915  30.527  20.500  1.00  0.00     0.293 HD
ENDBRANCH   2  22
BRANCH   6  24
ATOM     24  O   UNL     1     -19.631  27.329  20.678  1.00  0.00    -0.507 OA
ATOM     25  H   UNL     1     -20.243  26.572  20.959  1.00  0.00     0.293 HD
ENDBRANCH   6  24
BRANCH   8  26
ATOM     26  O   UNL     1     -16.557  29.006  23.997  1.00  0.00    -0.508 OA
ATOM     27  H   UNL     1     -16.249  29.703  24.665  1.00  0.00     0.293 HD
ENDBRANCH   8  26
TORSDOF 6
ENDMDL
MODEL 6
REMARK VINA RESULT:    -4.006      7.903     10.422
REMARK INTER + INTRA:          -5.097
REMARK INTER:                  -4.827
REMARK INTRA:                  -0.270
REMARK UNBOUND:                -0.271
REMARK SMILES O=c1c(O)c(-c2ccc(O)c(O)c2)oc2cc(O)cc(O)c12
REMARK SMILES IDX 5 1 3 2 2 3 1 4 22 5 20 6 19 7 17 8 16 9 15 10 14 11 6 12
REMARK SMILES IDX 7 13 8 14 9 15 13 16 11 17 10 18 12 20 4 22 21 24 18 26
REMARK H PARENT 10 19 12 21 4 23 21 25 18 27
REMARK Flexibility Score: inf
ROOT
ATOM      1  C   UNL     1     -22.253  29.235  20.863  1.00  0.00     0.180 A 
ATOM      2  C   UNL     1     -23.211  30.060  20.242  1.00  0.00     0.208 A 
ATOM      3  C   UNL     1     -23.210  31.435  20.529  1.00  0.00     0.238 A 
ATOM      4  O   UNL     1     -24.070  32.182  19.987  1.00  0.00    -0.285 OA
ATOM      5  C   UNL     1     -22.245  31.962  21.412  1.00  0.00     0.111 A 
ATOM      6  C   UNL     1     -22.174  33.335  21.749  1.00  0.00     0.134 A 
ATOM      7  C   UNL     1     -21.176  33.783  22.628  1.00  0.00     0.093 A 
ATOM      8  C   UNL     1     -20.253  32.890  23.174  1.00  0.00     0.123 A 
ATOM      9  C   UNL     1     -20.318  31.533  22.844  1.00  0.00     0.094 A 
ATOM     10  C   UNL     1     -21.304  31.065  21.970  1.00  0.00     0.146 A 
ATOM     11  O   UNL     1     -21.348  29.770  21.678  1.00  0.00    -0.452 OA
ENDROOT
BRANCH   1  12
ATOM     12  C   UNL     1     -22.201  27.774  20.626  1.00  0.00     0.025 A 
ATOM     13  C   UNL     1     -23.155  26.908  21.187  1.00  0.00     0.016 A 
ATOM     14  C   UNL     1     -23.072  25.530  20.970  1.00  0.00     0.051 A 
ATOM     15  C   UNL     1     -22.031  24.996  20.204  1.00  0.00     0.157 A 
ATOM     16  C   UNL     1     -21.146  27.233  19.875  1.00  0.00     0.062 A 
ATOM     17  C   UNL     1     -21.061  25.850  19.656  1.00  0.00     0.158 A 
BRANCH  15  18
ATOM     18  O   UNL     1     -21.975  23.618  20.003  1.00  0.00    -0.504 OA
ATOM     19  H   UNL     1     -21.100  23.108  20.000  1.00  0.00     0.293 HD
ENDBRANCH  15  18
BRANCH  17  20
ATOM     20  O   UNL     1     -20.017  25.324  18.897  1.00  0.00    -0.504 OA
ATOM     21  H   UNL     1     -19.423  24.582  19.251  1.00  0.00     0.293 HD
ENDBRANCH  17  20
ENDBRANCH   1  12
BRANCH   2  22
ATOM     22  O   UNL     1     -24.125  29.521  19.334  1.00  0.00    -0.502 OA
ATOM     23  H   UNL     1     -23.846  28.888  18.595  1.00  0.00     0.293 HD
ENDBRANCH   2  22
BRANCH   6  24
ATOM     24  O   UNL     1     -23.081  34.253  21.221  1.00  0.00    -0.507 OA
ATOM     25  H   UNL     1     -23.991  33.968  20.879  1.00  0.00     0.293 HD
ENDBRANCH   6  24
BRANCH   8  26
ATOM     26  O   UNL     1     -19.271  33.362  24.044  1.00  0.00    -0.508 OA
ATOM     27  H   UNL     1     -19.411  33.370  25.047  1.00  0.00     0.293 HD
ENDBRANCH   8  26
TORSDOF 6
ENDMDL
MODEL 7
REMARK VINA RESULT:    -3.982      8.123     10.848
REMARK INTER + INTRA:          -5.067
REMARK INTER:                  -5.529
REMARK INTRA:                   0.461
REMARK UNBOUND:                -0.271
REMARK SMILES O=c1c(O)c(-c2ccc(O)c(O)c2)oc2cc(O)cc(O)c12
REMARK SMILES IDX 5 1 3 2 2 3 1 4 22 5 20 6 19 7 17 8 16 9 15 10 14 11 6 12
REMARK SMILES IDX 7 13 8 14 9 15 13 16 11 17 10 18 12 20 4 22 21 24 18 26
REMARK H PARENT 10 19 12 21 4 23 21 25 18 27
REMARK Flexibility Score: inf
ROOT
ATOM      1  C   UNL     1     -19.726  29.806  22.097  1.00  0.00     0.180 A 
ATOM      2  C   UNL     1     -18.661  29.351  22.898  1.00  0.00     0.208 A 
ATOM      3  C   UNL     1     -18.196  28.037  22.726  1.00  0.00     0.238 A 
ATOM      4  O   UNL     1     -17.250  27.615  23.445  1.00  0.00    -0.285 OA
ATOM      5  C   UNL     1     -18.787  27.211  21.748  1.00  0.00     0.111 A 
ATOM      6  C   UNL     1     -18.375  25.878  21.510  1.00  0.00     0.134 A 
ATOM      7  C   UNL     1     -19.008  25.123  20.510  1.00  0.00     0.093 A 
ATOM      8  C   UNL     1     -20.040  25.672  19.748  1.00  0.00     0.123 A 
ATOM      9  C   UNL     1     -20.452  26.989  19.979  1.00  0.00     0.094 A 
ATOM     10  C   UNL     1     -19.835  27.758  20.971  1.00  0.00     0.146 A 
ATOM     11  O   UNL     1     -20.249  29.003  21.174  1.00  0.00    -0.452 OA
ENDROOT
BRANCH   1  12
ATOM     12  C   UNL     1     -20.284  31.171  22.231  1.00  0.00     0.025 A 
ATOM     13  C   UNL     1     -19.707  32.115  23.098  1.00  0.00     0.016 A 
ATOM     14  C   UNL     1     -20.266  33.389  23.226  1.00  0.00     0.051 A 
ATOM     15  C   UNL     1     -21.411  33.736  22.504  1.00  0.00     0.157 A 
ATOM     16  C   UNL     1     -21.446  31.515  21.523  1.00  0.00     0.062 A 
ATOM     17  C   UNL     1     -22.007  32.794  21.650  1.00  0.00     0.158 A 
BRANCH  15  18
ATOM     18  O   UNL     1     -21.944  35.016  22.651  1.00  0.00    -0.504 OA
ATOM     19  H   UNL     1     -22.078  35.638  21.862  1.00  0.00     0.293 HD
ENDBRANCH  15  18
BRANCH  17  20
ATOM     20  O   UNL     1     -23.154  33.130  20.932  1.00  0.00    -0.504 OA
ATOM     21  H   UNL     1     -23.180  33.085  19.919  1.00  0.00     0.293 HD
ENDBRANCH  17  20
ENDBRANCH   1  12
BRANCH   2  22
ATOM     22  O   UNL     1     -18.060  30.205  23.825  1.00  0.00    -0.502 OA
ATOM     23  H   UNL     1     -18.142  31.213  23.767  1.00  0.00     0.293 HD
ENDBRANCH   2  22
BRANCH   6  24
ATOM     24  O   UNL     1     -17.346  25.299  22.253  1.00  0.00    -0.507 OA
ATOM     25  H   UNL     1     -16.618  25.859  22.682  1.00  0.00     0.293 HD
ENDBRANCH   6  24
BRANCH   8  26
ATOM     26  O   UNL     1     -20.651  24.901  18.761  1.00  0.00    -0.508 OA
ATOM     27  H   UNL     1     -21.185  24.071  18.991  1.00  0.00     0.293 HD
ENDBRANCH   8  26
TORSDOF 6
ENDMDL
MODEL 8
REMARK VINA RESULT:    -3.909      7.149      9.531
REMARK INTER + INTRA:          -4.980
REMARK INTER:                  -4.717
REMARK INTRA:                  -0.263
REMARK UNBOUND:                -0.271
REMARK SMILES O=c1c(O)c(-c2ccc(O)c(O)c2)oc2cc(O)cc(O)c12
REMARK SMILES IDX 5 1 3 2 2 3 1 4 22 5 20 6 19 7 17 8 16 9 15 10 14 11 6 12
REMARK SMILES IDX 7 13 8 14 9 15 13 16 11 17 10 18 12 20 4 22 21 24 18 26
REMARK H PARENT 10 19 12 21 4 23 21 25 18 27
REMARK Flexibility Score: inf
ROOT
ATOM      1  C   UNL     1     -20.099  27.336  21.065  1.00  0.00     0.180 A 
ATOM      2  C   UNL     1     -20.430  26.394  20.072  1.00  0.00     0.208 A 
ATOM      3  C   UNL     1     -19.611  25.265  19.909  1.00  0.00     0.238 A 
ATOM      4  O   UNL     1     -19.892  24.420  19.015  1.00  0.00    -0.285 OA
ATOM      5  C   UNL     1     -18.492  25.088  20.749  1.00  0.00     0.111 A 
ATOM      6  C   UNL     1     -17.621  23.977  20.652  1.00  0.00     0.134 A 
ATOM      7  C   UNL     1     -16.534  23.867  21.533  1.00  0.00     0.093 A 
ATOM      8  C   UNL     1     -16.303  24.842  22.504  1.00  0.00     0.123 A 
ATOM      9  C   UNL     1     -17.161  25.942  22.605  1.00  0.00     0.094 A 
ATOM     10  C   UNL     1     -18.249  26.071  21.737  1.00  0.00     0.146 A 
ATOM     11  O   UNL     1     -19.045  27.128  21.849  1.00  0.00    -0.452 OA
ENDROOT
BRANCH   1  12
ATOM     12  C   UNL     1     -20.901  28.561  21.287  1.00  0.00     0.025 A 
ATOM     13  C   UNL     1     -20.431  29.825  20.891  1.00  0.00     0.016 A 
ATOM     14  C   UNL     1     -21.195  30.970  21.132  1.00  0.00     0.051 A 
ATOM     15  C   UNL     1     -22.429  30.874  21.782  1.00  0.00     0.157 A 
ATOM     16  C   UNL     1     -22.130  28.470  21.959  1.00  0.00     0.062 A 
ATOM     17  C   UNL     1     -22.899  29.618  22.201  1.00  0.00     0.158 A 
BRANCH  15  18
ATOM     18  O   UNL     1     -23.170  32.033  22.007  1.00  0.00    -0.504 OA
ATOM     19  H   UNL     1     -23.999  32.255  21.469  1.00  0.00     0.293 HD
ENDBRANCH  15  18
BRANCH  17  20
ATOM     20  O   UNL     1     -24.124  29.515  22.856  1.00  0.00    -0.504 OA
ATOM     21  H   UNL     1     -24.293  28.804  23.559  1.00  0.00     0.293 HD
ENDBRANCH  17  20
ENDBRANCH   1  12
BRANCH   2  22
ATOM     22  O   UNL     1     -21.570  26.569  19.286  1.00  0.00    -0.502 OA
ATOM     23  H   UNL     1     -21.532  26.607  18.275  1.00  0.00     0.293 HD
ENDBRANCH   2  22
BRANCH   6  24
ATOM     24  O   UNL     1     -17.825  22.984  19.693  1.00  0.00    -0.507 OA
ATOM     25  H   UNL     1     -18.563  23.054  19.002  1.00  0.00     0.293 HD
ENDBRANCH   6  24
BRANCH   8  26
ATOM     26  O   UNL     1     -15.216  24.709  23.367  1.00  0.00    -0.508 OA
ATOM     27  H   UNL     1     -14.340  25.188  23.195  1.00  0.00     0.293 HD
ENDBRANCH   8  26
TORSDOF 6
ENDMDL
MODEL 9
REMARK VINA RESULT:    -3.847      9.389     11.533
REMARK INTER + INTRA:          -4.905
REMARK INTER:                  -4.585
REMARK INTRA:                  -0.319
REMARK UNBOUND:                -0.271
REMARK SMILES O=c1c(O)c(-c2ccc(O)c(O)c2)oc2cc(O)cc(O)c12
REMARK SMILES IDX 5 1 3 2 2 3 1 4 22 5 20 6 19 7 17 8 16 9 15 10 14 11 6 12
REMARK SMILES IDX 7 13 8 14 9 15 13 16 11 17 10 18 12 20 4 22 21 24 18 26
REMARK H PARENT 10 19 12 21 4 23 21 25 18 27
REMARK Flexibility Score: inf
ROOT
ATOM      1  C   UNL     1     -22.221  31.529  21.418  1.00  0.00     0.180 A 
ATOM      2  C   UNL     1     -22.915  30.725  20.492  1.00  0.00     0.208 A 
ATOM      3  C   UNL     1     -22.385  29.470  20.153  1.00  0.00     0.238 A 
ATOM      4  O   UNL     1     -22.992  28.746  19.318  1.00  0.00    -0.285 OA
ATOM      5  C   UNL     1     -21.187  29.034  20.755  1.00  0.00     0.111 A 
ATOM      6  C   UNL     1     -20.590  27.782  20.471  1.00  0.00     0.134 A 
ATOM      7  C   UNL     1     -19.401  27.416  21.121  1.00  0.00     0.093 A 
ATOM      8  C   UNL     1     -18.800  28.272  22.044  1.00  0.00     0.123 A 
ATOM      9  C   UNL     1     -19.386  29.511  22.329  1.00  0.00     0.094 A 
ATOM     10  C   UNL     1     -20.570  29.895  21.693  1.00  0.00     0.146 A 
ATOM     11  O   UNL     1     -21.102  31.078  21.977  1.00  0.00    -0.452 OA
ENDROOT
BRANCH   1  12
ATOM     12  C   UNL     1     -22.706  32.872  21.813  1.00  0.00     0.025 A 
ATOM     13  C   UNL     1     -23.650  33.036  22.841  1.00  0.00     0.016 A 
ATOM     14  C   UNL     1     -24.111  34.310  23.180  1.00  0.00     0.051 A 
ATOM     15  C   UNL     1     -23.649  35.436  22.492  1.00  0.00     0.157 A 
ATOM     16  C   UNL     1     -22.260  34.002  21.110  1.00  0.00     0.062 A 
ATOM     17  C   UNL     1     -22.721  35.282  21.450  1.00  0.00     0.158 A 
BRANCH  15  18
ATOM     18  O   UNL     1     -24.125  36.695  22.855  1.00  0.00    -0.504 OA
ATOM     19  H   UNL     1     -23.505  37.477  23.024  1.00  0.00     0.293 HD
ENDBRANCH  15  18
BRANCH  17  20
ATOM     20  O   UNL     1     -22.261  36.399  20.754  1.00  0.00    -0.504 OA
ATOM     21  H   UNL     1     -21.540  36.325  20.045  1.00  0.00     0.293 HD
ENDBRANCH  17  20
ENDBRANCH   1  12
BRANCH   2  22
ATOM     22  O   UNL     1     -24.125  31.160  19.948  1.00  0.00    -0.502 OA
ATOM     23  H   UNL     1     -24.967  30.599  19.979  1.00  0.00     0.293 HD
ENDBRANCH   2  22
BRANCH   6  24
ATOM     24  O   UNL     1     -21.165  26.902  19.554  1.00  0.00    -0.507 OA
ATOM     25  H   UNL     1     -20.865  25.937  19.480  1.00  0.00     0.293 HD
ENDBRANCH   6  24
BRANCH   8  26
ATOM     26  O   UNL     1     -17.620  27.884  22.676  1.00  0.00    -0.508 OA
ATOM     27  H   UNL     1     -17.250  28.396  23.468  1.00  0.00     0.293 HD
ENDBRANCH   8  26
TORSDOF 6
ENDMDL
