MODEL 1
REMARK VINA RESULT:    -5.980      0.000      0.000
REMARK INTER + INTRA:         -12.475
REMARK INTER:                 -11.574
REMARK INTRA:                  -0.901
REMARK UNBOUND:                -0.901
REMARK SMILES CCCCCCCCCCCCCCCCCC(=O)[O-]
REMARK SMILES IDX 10 1 11 2 12 3 13 4 14 5 15 6 16 7 17 8 18 9 19 10 20 11
REMARK SMILES IDX 9 12 8 13 7 14 6 15 5 16 4 17 3 18 2 19 1 20
REMARK H PARENT
REMARK Flexibility Score: inf
ROOT
ATOM      1  C   UNL     1     104.510 311.977 195.600  1.00  0.00     0.000 C 
ENDROOT
BRANCH   1   2
ATOM      2  C   UNL     1     103.969 311.711 197.011  1.00  0.00     0.000 C 
BRANCH   2   3
ATOM      3  C   UNL     1     103.924 313.007 197.835  1.00  0.00     0.000 C 
BRANCH   3   4
ATOM      4  C   UNL     1     104.002 312.747 199.348  1.00  0.00     0.000 C 
BRANCH   4   5
ATOM      5  C   UNL     1     103.221 311.490 199.768  1.00  0.00     0.000 C 
BRANCH   5   6
ATOM      6  C   UNL     1     102.640 311.590 201.190  1.00  0.00     0.000 C 
BRANCH   6   7
ATOM      7  C   UNL     1     103.642 312.021 202.277  1.00  0.00     0.006 C 
BRANCH   7   8
ATOM      8  C   UNL     1     103.975 310.897 203.266  1.00  0.00     0.053 C 
BRANCH   8   9
ATOM      9  C   UNL     1     104.374 311.467 204.590  1.00  0.00     0.041 C 
ATOM     10  O   UNL     1     105.394 312.201 204.683  1.00  0.00    -0.550 OA
ATOM     11  O   UNL     1     103.653 311.141 205.733  1.00  0.00    -0.550 OA
ENDBRANCH   8   9
ENDBRANCH   7   8
ENDBRANCH   6   7
ENDBRANCH   5   6
ENDBRANCH   4   5
ENDBRANCH   3   4
ENDBRANCH   2   3
ENDBRANCH   1   2
BRANCH   1  12
ATOM     12  C   UNL     1     103.479 311.581 194.532  1.00  0.00     0.000 C 
BRANCH  12  13
ATOM     13  C   UNL     1     104.120 311.347 193.153  1.00  0.00    -0.000 C 
BRANCH  13  14
ATOM     14  C   UNL     1     105.560 311.875 193.075  1.00  0.00    -0.000 C 
BRANCH  14  15
ATOM     15  C   UNL     1     105.658 313.065 192.112  1.00  0.00    -0.000 C 
BRANCH  15  16
ATOM     16  C   UNL     1     104.289 313.387 191.495  1.00  0.00    -0.000 C 
BRANCH  16  17
ATOM     17  C   UNL     1     103.855 314.840 191.746  1.00  0.00    -0.000 C 
BRANCH  17  18
ATOM     18  C   UNL     1     103.517 315.588 190.444  1.00  0.00    -0.000 C 
BRANCH  18  19
ATOM     19  C   UNL     1     103.530 314.667 189.215  1.00  0.00    -0.003 C 
ATOM     20  C   UNL     1     102.421 315.002 188.217  1.00  0.00     0.004 C 
ENDBRANCH  18  19
ENDBRANCH  17  18
ENDBRANCH  16  17
ENDBRANCH  15  16
ENDBRANCH  14  15
ENDBRANCH  13  14
ENDBRANCH  12  13
ENDBRANCH   1  12
TORSDOF 16
ENDMDL
MODEL 2
REMARK VINA RESULT:    -5.953      1.226      2.457
REMARK INTER + INTRA:         -12.421
REMARK INTER:                 -11.505
REMARK INTRA:                  -0.916
REMARK UNBOUND:                -0.901
REMARK SMILES CCCCCCCCCCCCCCCCCC(=O)[O-]
REMARK SMILES IDX 10 1 11 2 12 3 13 4 14 5 15 6 16 7 17 8 18 9 19 10 20 11
REMARK SMILES IDX 9 12 8 13 7 14 6 15 5 16 4 17 3 18 2 19 1 20
REMARK H PARENT
REMARK Flexibility Score: inf
ROOT
ATOM      1  C   UNL     1     103.845 313.322 197.724  1.00  0.00     0.000 C 
ENDROOT
BRANCH   1   2
ATOM      2  C   UNL     1     103.801 311.861 198.191  1.00  0.00     0.000 C 
BRANCH   2   3
ATOM      3  C   UNL     1     103.207 311.755 199.604  1.00  0.00     0.000 C 
BRANCH   3   4
ATOM      4  C   UNL     1     104.281 311.818 200.702  1.00  0.00     0.000 C 
BRANCH   4   5
ATOM      5  C   UNL     1     104.008 312.933 201.726  1.00  0.00     0.000 C 
BRANCH   5   6
ATOM      6  C   UNL     1     104.321 312.510 203.173  1.00  0.00     0.000 C 
BRANCH   6   7
ATOM      7  C   UNL     1     104.156 311.007 203.465  1.00  0.00     0.006 C 
BRANCH   7   8
ATOM      8  C   UNL     1     102.716 310.619 203.819  1.00  0.00     0.053 C 
BRANCH   8   9
ATOM      9  C   UNL     1     102.516 310.653 205.302  1.00  0.00     0.041 C 
ATOM     10  O   UNL     1     101.503 310.109 205.818  1.00  0.00    -0.550 OA
ATOM     11  O   UNL     1     103.417 311.336 206.109  1.00  0.00    -0.550 OA
ENDBRANCH   8   9
ENDBRANCH   7   8
ENDBRANCH   6   7
ENDBRANCH   5   6
ENDBRANCH   4   5
ENDBRANCH   3   4
ENDBRANCH   2   3
ENDBRANCH   1   2
BRANCH   1  12
ATOM     12  C   UNL     1     104.164 313.411 196.224  1.00  0.00     0.000 C 
BRANCH  12  13
ATOM     13  C   UNL     1     104.457 312.036 195.601  1.00  0.00    -0.000 C 
BRANCH  13  14
ATOM     14  C   UNL     1     103.456 311.664 194.496  1.00  0.00    -0.000 C 
BRANCH  14  15
ATOM     15  C   UNL     1     104.183 311.248 193.212  1.00  0.00    -0.000 C 
BRANCH  15  16
ATOM     16  C   UNL     1     105.551 311.940 193.106  1.00  0.00    -0.000 C 
BRANCH  16  17
ATOM     17  C   UNL     1     105.560 313.073 192.068  1.00  0.00    -0.000 C 
BRANCH  17  18
ATOM     18  C   UNL     1     104.150 313.403 191.541  1.00  0.00    -0.000 C 
BRANCH  18  19
ATOM     19  C   UNL     1     104.182 314.284 190.284  1.00  0.00    -0.003 C 
ATOM     20  C   UNL     1     105.525 314.991 190.094  1.00  0.00     0.004 C 
ENDBRANCH  18  19
ENDBRANCH  17  18
ENDBRANCH  16  17
ENDBRANCH  15  16
ENDBRANCH  14  15
ENDBRANCH  13  14
ENDBRANCH  12  13
ENDBRANCH   1  12
TORSDOF 16
ENDMDL
MODEL 3
REMARK VINA RESULT:    -5.912     19.673     20.688
REMARK INTER + INTRA:         -12.342
REMARK INTER:                 -11.144
REMARK INTRA:                  -1.198
REMARK UNBOUND:                -0.901
REMARK SMILES CCCCCCCCCCCCCCCCCC(=O)[O-]
REMARK SMILES IDX 10 1 11 2 12 3 13 4 14 5 15 6 16 7 17 8 18 9 19 10 20 11
REMARK SMILES IDX 9 12 8 13 7 14 6 15 5 16 4 17 3 18 2 19 1 20
REMARK H PARENT
REMARK Flexibility Score: inf
ROOT
ATOM      1  C   UNL     1      89.074 324.966 198.650  1.00  0.00     0.000 C 
ENDROOT
BRANCH   1   2
ATOM      2  C   UNL     1      88.854 325.069 200.165  1.00  0.00     0.000 C 
BRANCH   2   3
ATOM      3  C   UNL     1      89.299 326.442 200.691  1.00  0.00     0.000 C 
BRANCH   3   4
ATOM      4  C   UNL     1      90.541 326.354 201.594  1.00  0.00     0.000 C 
BRANCH   4   5
ATOM      5  C   UNL     1      90.189 325.947 203.036  1.00  0.00     0.000 C 
BRANCH   5   6
ATOM      6  C   UNL     1      89.759 327.140 203.908  1.00  0.00     0.000 C 
BRANCH   6   7
ATOM      7  C   UNL     1      88.971 326.770 205.179  1.00  0.00     0.006 C 
BRANCH   7   8
ATOM      8  C   UNL     1      88.546 325.297 205.213  1.00  0.00     0.053 C 
BRANCH   8   9
ATOM      9  C   UNL     1      87.284 325.136 206.000  1.00  0.00     0.041 C 
ATOM     10  O   UNL     1      86.396 324.329 205.617  1.00  0.00    -0.550 OA
ATOM     11  O   UNL     1      87.061 325.922 207.125  1.00  0.00    -0.550 OA
ENDBRANCH   8   9
ENDBRANCH   7   8
ENDBRANCH   6   7
ENDBRANCH   5   6
ENDBRANCH   4   5
ENDBRANCH   3   4
ENDBRANCH   2   3
ENDBRANCH   1   2
BRANCH   1  12
ATOM     12  C   UNL     1      88.602 326.242 197.937  1.00  0.00     0.000 C 
BRANCH  12  13
ATOM     13  C   UNL     1      88.006 325.955 196.548  1.00  0.00    -0.000 C 
BRANCH  13  14
ATOM     14  C   UNL     1      88.897 326.468 195.407  1.00  0.00    -0.000 C 
BRANCH  14  15
ATOM     15  C   UNL     1      88.063 326.788 194.160  1.00  0.00    -0.000 C 
BRANCH  15  16
ATOM     16  C   UNL     1      86.661 326.169 194.262  1.00  0.00    -0.000 C 
BRANCH  16  17
ATOM     17  C   UNL     1      86.440 325.036 193.247  1.00  0.00    -0.000 C 
BRANCH  17  18
ATOM     18  C   UNL     1      87.710 324.713 192.438  1.00  0.00    -0.000 C 
BRANCH  18  19
ATOM     19  C   UNL     1      88.217 323.284 192.683  1.00  0.00    -0.003 C 
ATOM     20  C   UNL     1      88.512 323.009 194.157  1.00  0.00     0.004 C 
ENDBRANCH  18  19
ENDBRANCH  17  18
ENDBRANCH  16  17
ENDBRANCH  15  16
ENDBRANCH  14  15
ENDBRANCH  13  14
ENDBRANCH  12  13
ENDBRANCH   1  12
TORSDOF 16
ENDMDL
MODEL 4
REMARK VINA RESULT:    -5.905      1.298      2.241
REMARK INTER + INTRA:         -12.329
REMARK INTER:                 -11.041
REMARK INTRA:                  -1.288
REMARK UNBOUND:                -0.901
REMARK SMILES CCCCCCCCCCCCCCCCCC(=O)[O-]
REMARK SMILES IDX 10 1 11 2 12 3 13 4 14 5 15 6 16 7 17 8 18 9 19 10 20 11
REMARK SMILES IDX 9 12 8 13 7 14 6 15 5 16 4 17 3 18 2 19 1 20
REMARK H PARENT
REMARK Flexibility Score: inf
ROOT
ATOM      1  C   UNL     1     104.085 312.862 196.774  1.00  0.00     0.000 C 
ENDROOT
BRANCH   1   2
ATOM      2  C   UNL     1     103.823 311.751 197.799  1.00  0.00     0.000 C 
BRANCH   2   3
ATOM      3  C   UNL     1     103.818 312.313 199.228  1.00  0.00     0.000 C 
BRANCH   3   4
ATOM      4  C   UNL     1     102.831 311.578 200.149  1.00  0.00     0.000 C 
BRANCH   4   5
ATOM      5  C   UNL     1     103.306 311.547 201.612  1.00  0.00     0.000 C 
BRANCH   5   6
ATOM      6  C   UNL     1     102.228 311.031 202.583  1.00  0.00     0.000 C 
BRANCH   6   7
ATOM      7  C   UNL     1     102.731 310.691 203.998  1.00  0.00     0.006 C 
BRANCH   7   8
ATOM      8  C   UNL     1     104.254 310.807 204.137  1.00  0.00     0.053 C 
BRANCH   8   9
ATOM      9  C   UNL     1     104.608 311.881 205.117  1.00  0.00     0.041 C 
ATOM     10  O   UNL     1     105.167 311.585 206.207  1.00  0.00    -0.550 OA
ATOM     11  O   UNL     1     104.269 313.202 204.854  1.00  0.00    -0.550 OA
ENDBRANCH   8   9
ENDBRANCH   7   8
ENDBRANCH   6   7
ENDBRANCH   5   6
ENDBRANCH   4   5
ENDBRANCH   3   4
ENDBRANCH   2   3
ENDBRANCH   1   2
BRANCH   1  12
ATOM     12  C   UNL     1     104.627 312.281 195.459  1.00  0.00     0.000 C 
BRANCH  12  13
ATOM     13  C   UNL     1     103.529 311.621 194.608  1.00  0.00    -0.000 C 
BRANCH  13  14
ATOM     14  C   UNL     1     103.969 311.389 193.155  1.00  0.00    -0.000 C 
BRANCH  14  15
ATOM     15  C   UNL     1     105.442 311.767 192.960  1.00  0.00    -0.000 C 
BRANCH  15  16
ATOM     16  C   UNL     1     105.576 313.036 192.104  1.00  0.00    -0.000 C 
BRANCH  16  17
ATOM     17  C   UNL     1     104.264 313.413 191.399  1.00  0.00    -0.000 C 
BRANCH  17  18
ATOM     18  C   UNL     1     103.789 314.834 191.755  1.00  0.00    -0.000 C 
BRANCH  18  19
ATOM     19  C   UNL     1     103.583 315.025 193.265  1.00  0.00    -0.003 C 
ATOM     20  C   UNL     1     104.427 316.165 193.835  1.00  0.00     0.004 C 
ENDBRANCH  18  19
ENDBRANCH  17  18
ENDBRANCH  16  17
ENDBRANCH  15  16
ENDBRANCH  14  15
ENDBRANCH  13  14
ENDBRANCH  12  13
ENDBRANCH   1  12
TORSDOF 16
ENDMDL
MODEL 5
REMARK VINA RESULT:    -5.899      1.465      2.336
REMARK INTER + INTRA:         -12.317
REMARK INTER:                 -11.250
REMARK INTRA:                  -1.068
REMARK UNBOUND:                -0.901
REMARK SMILES CCCCCCCCCCCCCCCCCC(=O)[O-]
REMARK SMILES IDX 10 1 11 2 12 3 13 4 14 5 15 6 16 7 17 8 18 9 19 10 20 11
REMARK SMILES IDX 9 12 8 13 7 14 6 15 5 16 4 17 3 18 2 19 1 20
REMARK H PARENT
REMARK Flexibility Score: inf
ROOT
ATOM      1  C   UNL     1     103.990 311.479 193.537  1.00  0.00     0.000 C 
ENDROOT
BRANCH   1   2
ATOM      2  C   UNL     1     103.409 311.647 194.947  1.00  0.00     0.000 C 
BRANCH   2   3
ATOM      3  C   UNL     1     104.507 312.029 195.951  1.00  0.00     0.000 C 
BRANCH   3   4
ATOM      4  C   UNL     1     103.949 312.739 197.195  1.00  0.00     0.000 C 
BRANCH   4   5
ATOM      5  C   UNL     1     103.637 311.758 198.339  1.00  0.00     0.000 C 
BRANCH   5   6
ATOM      6  C   UNL     1     104.276 312.172 199.677  1.00  0.00     0.000 C 
BRANCH   6   7
ATOM      7  C   UNL     1     103.291 312.336 200.849  1.00  0.00     0.006 C 
BRANCH   7   8
ATOM      8  C   UNL     1     103.646 311.461 202.057  1.00  0.00     0.053 C 
BRANCH   8   9
ATOM      9  C   UNL     1     102.408 310.878 202.661  1.00  0.00     0.041 C 
ATOM     10  O   UNL     1     102.442 310.374 203.816  1.00  0.00    -0.550 OA
ATOM     11  O   UNL     1     101.229 310.836 201.926  1.00  0.00    -0.550 OA
ENDBRANCH   8   9
ENDBRANCH   7   8
ENDBRANCH   6   7
ENDBRANCH   5   6
ENDBRANCH   4   5
ENDBRANCH   3   4
ENDBRANCH   2   3
ENDBRANCH   1   2
BRANCH   1  12
ATOM     12  C   UNL     1     105.475 311.873 193.503  1.00  0.00     0.000 C 
BRANCH  12  13
ATOM     13  C   UNL     1     105.758 313.020 192.519  1.00  0.00    -0.000 C 
BRANCH  13  14
ATOM     14  C   UNL     1     105.045 314.323 192.912  1.00  0.00    -0.000 C 
BRANCH  14  15
ATOM     15  C   UNL     1     103.866 314.610 191.973  1.00  0.00    -0.000 C 
BRANCH  15  16
ATOM     16  C   UNL     1     104.142 314.065 190.563  1.00  0.00    -0.000 C 
BRANCH  16  17
ATOM     17  C   UNL     1     104.779 315.115 189.639  1.00  0.00    -0.000 C 
BRANCH  17  18
ATOM     18  C   UNL     1     104.034 315.250 188.298  1.00  0.00    -0.000 C 
BRANCH  18  19
ATOM     19  C   UNL     1     102.649 314.585 188.324  1.00  0.00    -0.003 C 
ATOM     20  C   UNL     1     101.509 315.596 188.202  1.00  0.00     0.004 C 
ENDBRANCH  18  19
ENDBRANCH  17  18
ENDBRANCH  16  17
ENDBRANCH  15  16
ENDBRANCH  14  15
ENDBRANCH  13  14
ENDBRANCH  12  13
ENDBRANCH   1  12
TORSDOF 16
ENDMDL
MODEL 6
REMARK VINA RESULT:    -5.896     19.247     20.348
REMARK INTER + INTRA:         -12.311
REMARK INTER:                 -11.425
REMARK INTRA:                  -0.887
REMARK UNBOUND:                -0.901
REMARK SMILES CCCCCCCCCCCCCCCCCC(=O)[O-]
REMARK SMILES IDX 10 1 11 2 12 3 13 4 14 5 15 6 16 7 17 8 18 9 19 10 20 11
REMARK SMILES IDX 9 12 8 13 7 14 6 15 5 16 4 17 3 18 2 19 1 20
REMARK H PARENT
REMARK Flexibility Score: inf
ROOT
ATOM      1  C   UNL     1      89.035 325.005 196.284  1.00  0.00     0.000 C 
ENDROOT
BRANCH   1   2
ATOM      2  C   UNL     1      88.451 324.854 197.694  1.00  0.00     0.000 C 
BRANCH   2   3
ATOM      3  C   UNL     1      88.708 326.115 198.532  1.00  0.00     0.000 C 
BRANCH   3   4
ATOM      4  C   UNL     1      88.875 325.806 200.029  1.00  0.00     0.000 C 
BRANCH   4   5
ATOM      5  C   UNL     1      89.942 326.692 200.695  1.00  0.00     0.000 C 
BRANCH   5   6
ATOM      6  C   UNL     1      90.544 326.058 201.963  1.00  0.00     0.000 C 
BRANCH   6   7
ATOM      7  C   UNL     1      90.498 326.944 203.222  1.00  0.00     0.006 C 
BRANCH   7   8
ATOM      8  C   UNL     1      89.248 326.704 204.078  1.00  0.00     0.053 C 
BRANCH   8   9
ATOM      9  C   UNL     1      89.531 327.021 205.513  1.00  0.00     0.041 C 
ATOM     10  O   UNL     1      90.604 327.595 205.837  1.00  0.00    -0.550 OA
ATOM     11  O   UNL     1      88.635 326.628 206.501  1.00  0.00    -0.550 OA
ENDBRANCH   8   9
ENDBRANCH   7   8
ENDBRANCH   6   7
ENDBRANCH   5   6
ENDBRANCH   4   5
ENDBRANCH   3   4
ENDBRANCH   2   3
ENDBRANCH   1   2
BRANCH   1  12
ATOM     12  C   UNL     1      88.953 326.464 195.808  1.00  0.00     0.000 C 
BRANCH  12  13
ATOM     13  C   UNL     1      88.173 326.611 194.491  1.00  0.00    -0.000 C 
BRANCH  13  14
ATOM     14  C   UNL     1      86.680 326.284 194.651  1.00  0.00    -0.000 C 
BRANCH  14  15
ATOM     15  C   UNL     1      86.203 325.336 193.543  1.00  0.00    -0.000 C 
BRANCH  15  16
ATOM     16  C   UNL     1      87.282 324.295 193.208  1.00  0.00    -0.000 C 
BRANCH  16  17
ATOM     17  C   UNL     1      87.743 324.374 191.744  1.00  0.00    -0.000 C 
BRANCH  17  18
ATOM     18  C   UNL     1      88.050 322.988 191.147  1.00  0.00    -0.000 C 
BRANCH  18  19
ATOM     19  C   UNL     1      87.982 322.980 189.612  1.00  0.00    -0.003 C 
ATOM     20  C   UNL     1      89.181 323.673 188.966  1.00  0.00     0.004 C 
ENDBRANCH  18  19
ENDBRANCH  17  18
ENDBRANCH  16  17
ENDBRANCH  15  16
ENDBRANCH  14  15
ENDBRANCH  13  14
ENDBRANCH  12  13
ENDBRANCH   1  12
TORSDOF 16
ENDMDL
MODEL 7
REMARK VINA RESULT:    -5.896      4.207     10.669
REMARK INTER + INTRA:         -12.311
REMARK INTER:                 -11.177
REMARK INTRA:                  -1.134
REMARK UNBOUND:                -0.901
REMARK SMILES CCCCCCCCCCCCCCCCCC(=O)[O-]
REMARK SMILES IDX 10 1 11 2 12 3 13 4 14 5 15 6 16 7 17 8 18 9 19 10 20 11
REMARK SMILES IDX 9 12 8 13 7 14 6 15 5 16 4 17 3 18 2 19 1 20
REMARK H PARENT
REMARK Flexibility Score: inf
ROOT
ATOM      1  C   UNL     1     103.779 313.243 197.565  1.00  0.00     0.000 C 
ENDROOT
BRANCH   1   2
ATOM      2  C   UNL     1     104.350 313.202 196.141  1.00  0.00     0.000 C 
BRANCH   2   3
ATOM      3  C   UNL     1     104.957 311.825 195.833  1.00  0.00     0.000 C 
BRANCH   3   4
ATOM      4  C   UNL     1     105.864 311.845 194.592  1.00  0.00     0.000 C 
BRANCH   4   5
ATOM      5  C   UNL     1     105.266 311.051 193.417  1.00  0.00     0.000 C 
BRANCH   5   6
ATOM      6  C   UNL     1     104.053 311.749 192.776  1.00  0.00     0.000 C 
BRANCH   6   7
ATOM      7  C   UNL     1     104.384 312.992 191.931  1.00  0.00     0.006 C 
BRANCH   7   8
ATOM      8  C   UNL     1     103.786 314.283 192.503  1.00  0.00     0.053 C 
BRANCH   8   9
ATOM      9  C   UNL     1     104.848 315.324 192.667  1.00  0.00     0.041 C 
ATOM     10  O   UNL     1     105.775 315.158 193.504  1.00  0.00    -0.550 OA
ATOM     11  O   UNL     1     104.783 316.504 191.937  1.00  0.00    -0.550 OA
ENDBRANCH   8   9
ENDBRANCH   7   8
ENDBRANCH   6   7
ENDBRANCH   5   6
ENDBRANCH   4   5
ENDBRANCH   3   4
ENDBRANCH   2   3
ENDBRANCH   1   2
BRANCH   1  12
ATOM     12  C   UNL     1     103.704 311.832 198.168  1.00  0.00     0.000 C 
BRANCH  12  13
ATOM     13  C   UNL     1     103.844 311.838 199.700  1.00  0.00    -0.000 C 
BRANCH  13  14
ATOM     14  C   UNL     1     102.492 311.984 200.415  1.00  0.00    -0.000 C 
BRANCH  14  15
ATOM     15  C   UNL     1     102.527 311.320 201.797  1.00  0.00    -0.000 C 
BRANCH  15  16
ATOM     16  C   UNL     1     103.771 311.757 202.586  1.00  0.00    -0.000 C 
BRANCH  16  17
ATOM     17  C   UNL     1     104.248 310.685 203.578  1.00  0.00    -0.000 C 
BRANCH  17  18
ATOM     18  C   UNL     1     103.950 311.060 205.041  1.00  0.00    -0.000 C 
BRANCH  18  19
ATOM     19  C   UNL     1     104.726 312.303 205.500  1.00  0.00    -0.003 C 
ATOM     20  C   UNL     1     105.878 311.964 206.446  1.00  0.00     0.004 C 
ENDBRANCH  18  19
ENDBRANCH  17  18
ENDBRANCH  16  17
ENDBRANCH  15  16
ENDBRANCH  14  15
ENDBRANCH  13  14
ENDBRANCH  12  13
ENDBRANCH   1  12
TORSDOF 16
ENDMDL
MODEL 8
REMARK VINA RESULT:    -5.888     19.055     20.272
REMARK INTER + INTRA:         -12.297
REMARK INTER:                 -10.434
REMARK INTRA:                  -1.863
REMARK UNBOUND:                -0.901
REMARK SMILES CCCCCCCCCCCCCCCCCC(=O)[O-]
REMARK SMILES IDX 10 1 11 2 12 3 13 4 14 5 15 6 16 7 17 8 18 9 19 10 20 11
REMARK SMILES IDX 9 12 8 13 7 14 6 15 5 16 4 17 3 18 2 19 1 20
REMARK H PARENT
REMARK Flexibility Score: inf
ROOT
ATOM      1  C   UNL     1      88.845 326.292 195.629  1.00  0.00     0.000 C 
ENDROOT
BRANCH   1   2
ATOM      2  C   UNL     1      87.812 326.117 196.750  1.00  0.00     0.000 C 
BRANCH   2   3
ATOM      3  C   UNL     1      88.499 326.040 198.121  1.00  0.00     0.000 C 
BRANCH   3   4
ATOM      4  C   UNL     1      88.907 324.607 198.499  1.00  0.00     0.000 C 
BRANCH   4   5
ATOM      5  C   UNL     1      89.238 324.467 199.995  1.00  0.00     0.000 C 
BRANCH   5   6
ATOM      6  C   UNL     1      90.606 325.069 200.366  1.00  0.00     0.000 C 
BRANCH   6   7
ATOM      7  C   UNL     1      90.547 326.397 201.143  1.00  0.00     0.006 C 
BRANCH   7   8
ATOM      8  C   UNL     1      89.405 326.442 202.167  1.00  0.00     0.053 C 
BRANCH   8   9
ATOM      9  C   UNL     1      89.865 327.092 203.433  1.00  0.00     0.041 C 
ATOM     10  O   UNL     1      91.079 327.392 203.588  1.00  0.00    -0.550 OA
ATOM     11  O   UNL     1      88.964 327.314 204.467  1.00  0.00    -0.550 OA
ENDBRANCH   8   9
ENDBRANCH   7   8
ENDBRANCH   6   7
ENDBRANCH   5   6
ENDBRANCH   4   5
ENDBRANCH   3   4
ENDBRANCH   2   3
ENDBRANCH   1   2
BRANCH   1  12
ATOM     12  C   UNL     1      88.164 326.693 194.311  1.00  0.00     0.000 C 
BRANCH  12  13
ATOM     13  C   UNL     1      86.722 326.167 194.208  1.00  0.00    -0.000 C 
BRANCH  13  14
ATOM     14  C   UNL     1      86.546 325.148 193.072  1.00  0.00    -0.000 C 
BRANCH  14  15
ATOM     15  C   UNL     1      87.894 324.812 192.422  1.00  0.00    -0.000 C 
BRANCH  15  16
ATOM     16  C   UNL     1      87.882 323.394 191.833  1.00  0.00    -0.000 C 
BRANCH  16  17
ATOM     17  C   UNL     1      88.188 322.316 192.885  1.00  0.00    -0.000 C 
BRANCH  17  18
ATOM     18  C   UNL     1      88.800 322.902 194.171  1.00  0.00    -0.000 C 
BRANCH  18  19
ATOM     19  C   UNL     1      87.929 322.641 195.409  1.00  0.00    -0.003 C 
ATOM     20  C   UNL     1      86.595 321.981 195.062  1.00  0.00     0.004 C 
ENDBRANCH  18  19
ENDBRANCH  17  18
ENDBRANCH  16  17
ENDBRANCH  15  16
ENDBRANCH  14  15
ENDBRANCH  13  14
ENDBRANCH  12  13
ENDBRANCH   1  12
TORSDOF 16
ENDMDL
MODEL 9
REMARK VINA RESULT:    -5.871      4.773     10.974
REMARK INTER + INTRA:         -12.264
REMARK INTER:                 -11.256
REMARK INTRA:                  -1.008
REMARK UNBOUND:                -0.901
REMARK SMILES CCCCCCCCCCCCCCCCCC(=O)[O-]
REMARK SMILES IDX 10 1 11 2 12 3 13 4 14 5 15 6 16 7 17 8 18 9 19 10 20 11
REMARK SMILES IDX 9 12 8 13 7 14 6 15 5 16 4 17 3 18 2 19 1 20
REMARK H PARENT
REMARK Flexibility Score: inf
ROOT
ATOM      1  C   UNL     1     104.233 313.314 196.477  1.00  0.00     0.000 C 
ENDROOT
BRANCH   1   2
ATOM      2  C   UNL     1     104.392 311.927 195.842  1.00  0.00     0.000 C 
BRANCH   2   3
ATOM      3  C   UNL     1     103.427 311.751 194.660  1.00  0.00     0.000 C 
BRANCH   3   4
ATOM      4  C   UNL     1     104.132 311.241 193.393  1.00  0.00     0.000 C 
BRANCH   4   5
ATOM      5  C   UNL     1     105.521 311.875 193.199  1.00  0.00     0.000 C 
BRANCH   5   6
ATOM      6  C   UNL     1     105.535 312.971 192.119  1.00  0.00     0.000 C 
BRANCH   6   7
ATOM      7  C   UNL     1     104.163 313.300 191.502  1.00  0.00     0.006 C 
BRANCH   7   8
ATOM      8  C   UNL     1     103.802 314.787 191.602  1.00  0.00     0.053 C 
BRANCH   8   9
ATOM      9  C   UNL     1     104.809 315.619 190.873  1.00  0.00     0.041 C 
ATOM     10  O   UNL     1     105.427 316.538 191.473  1.00  0.00    -0.550 OA
ATOM     11  O   UNL     1     105.023 315.419 189.514  1.00  0.00    -0.550 OA
ENDBRANCH   8   9
ENDBRANCH   7   8
ENDBRANCH   6   7
ENDBRANCH   5   6
ENDBRANCH   4   5
ENDBRANCH   3   4
ENDBRANCH   2   3
ENDBRANCH   1   2
BRANCH   1  12
ATOM     12  C   UNL     1     103.661 313.207 197.899  1.00  0.00     0.000 C 
BRANCH  12  13
ATOM     13  C   UNL     1     103.649 311.760 198.422  1.00  0.00    -0.000 C 
BRANCH  13  14
ATOM     14  C   UNL     1     103.263 311.674 199.907  1.00  0.00    -0.000 C 
BRANCH  14  15
ATOM     15  C   UNL     1     104.423 312.123 200.804  1.00  0.00    -0.000 C 
BRANCH  15  16
ATOM     16  C   UNL     1     103.966 312.268 202.263  1.00  0.00    -0.000 C 
BRANCH  16  17
ATOM     17  C   UNL     1     104.065 310.949 203.046  1.00  0.00    -0.000 C 
BRANCH  17  18
ATOM     18  C   UNL     1     104.145 311.171 204.568  1.00  0.00    -0.000 C 
BRANCH  18  19
ATOM     19  C   UNL     1     105.316 312.080 204.970  1.00  0.00    -0.003 C 
ATOM     20  C   UNL     1     105.683 311.948 206.448  1.00  0.00     0.004 C 
ENDBRANCH  18  19
ENDBRANCH  17  18
ENDBRANCH  16  17
ENDBRANCH  15  16
ENDBRANCH  14  15
ENDBRANCH  13  14
ENDBRANCH  12  13
ENDBRANCH   1  12
TORSDOF 16
ENDMDL
