MODEL 1
REMARK VINA RESULT:    -5.023      0.000      0.000
REMARK INTER + INTRA:         -10.189
REMARK INTER:                  -8.840
REMARK INTRA:                  -1.349
REMARK UNBOUND:                -1.349
REMARK SMILES CCCCCCC=CCCCCCCCC(=O)[O-]
REMARK SMILES IDX 10 1 11 2 12 3 13 4 14 5 15 6 16 7 17 8 18 9 9 10 8 11 7 12
REMARK SMILES IDX 6 13 5 14 4 15 3 16 2 17 1 18
REMARK H PARENT
REMARK Flexibility Score: inf
ROOT
ATOM      1  C   UNL     1       5.135  43.703  14.507  1.00  0.00     0.004 C 
ENDROOT
BRANCH   1   2
ATOM      2  C   UNL     1       4.255  42.480  14.808  1.00  0.00     0.000 C 
BRANCH   2   3
ATOM      3  C   UNL     1       5.083  41.248  15.212  1.00  0.00     0.000 C 
BRANCH   3   4
ATOM      4  C   UNL     1       4.748  40.008  14.367  1.00  0.00     0.000 C 
BRANCH   4   5
ATOM      5  C   UNL     1       4.629  40.326  12.866  1.00  0.00     0.006 C 
BRANCH   5   6
ATOM      6  C   UNL     1       3.254  39.945  12.302  1.00  0.00     0.053 C 
BRANCH   6   7
ATOM      7  C   UNL     1       3.330  39.578  10.851  1.00  0.00     0.041 C 
ATOM      8  O   UNL     1       4.336  38.970  10.401  1.00  0.00    -0.550 OA
ATOM      9  O   UNL     1       2.300  39.937   9.989  1.00  0.00    -0.550 OA
ENDBRANCH   6   7
ENDBRANCH   5   6
ENDBRANCH   4   5
ENDBRANCH   3   4
ENDBRANCH   2   3
ENDBRANCH   1   2
BRANCH   1  10
ATOM     10  C   UNL     1       6.357  43.790  15.433  1.00  0.00     0.027 C 
BRANCH  10  11
ATOM     11  C   UNL     1       6.175  44.887  16.450  1.00  0.00    -0.031 C 
ATOM     12  C   UNL     1       5.686  44.702  17.691  1.00  0.00    -0.031 C 
BRANCH  12  13
ATOM     13  C   UNL     1       5.161  43.390  18.220  1.00  0.00     0.027 C 
BRANCH  13  14
ATOM     14  C   UNL     1       3.845  43.569  18.993  1.00  0.00     0.004 C 
BRANCH  14  15
ATOM     15  C   UNL     1       2.615  43.407  18.087  1.00  0.00     0.000 C 
BRANCH  15  16
ATOM     16  C   UNL     1       1.433  42.818  18.867  1.00  0.00    -0.000 C 
BRANCH  16  17
ATOM     17  C   UNL     1       1.511  43.198  20.351  1.00  0.00    -0.003 C 
ATOM     18  C   UNL     1       0.743  44.488  20.630  1.00  0.00     0.004 C 
ENDBRANCH  16  17
ENDBRANCH  15  16
ENDBRANCH  14  15
ENDBRANCH  13  14
ENDBRANCH  12  13
ENDBRANCH  10  11
ENDBRANCH   1  10
TORSDOF 13
ENDMDL
MODEL 2
REMARK VINA RESULT:    -4.929      3.630      6.809
REMARK INTER + INTRA:         -10.023
REMARK INTER:                  -8.346
REMARK INTRA:                  -1.677
REMARK UNBOUND:                -1.349
REMARK SMILES CCCCCCC=CCCCCCCCC(=O)[O-]
REMARK SMILES IDX 10 1 11 2 12 3 13 4 14 5 15 6 16 7 17 8 18 9 9 10 8 11 7 12
REMARK SMILES IDX 6 13 5 14 4 15 3 16 2 17 1 18
REMARK H PARENT
REMARK Flexibility Score: inf
ROOT
ATOM      1  C   UNL     1       6.955  44.166  17.500  1.00  0.00     0.004 C 
ENDROOT
BRANCH   1   2
ATOM      2  C   UNL     1       6.709  42.722  17.963  1.00  0.00     0.000 C 
BRANCH   2   3
ATOM      3  C   UNL     1       5.560  42.622  18.983  1.00  0.00     0.000 C 
BRANCH   3   4
ATOM      4  C   UNL     1       4.419  43.608  18.687  1.00  0.00     0.000 C 
BRANCH   4   5
ATOM      5  C   UNL     1       3.191  42.925  18.060  1.00  0.00     0.006 C 
BRANCH   5   6
ATOM      6  C   UNL     1       1.917  43.765  18.220  1.00  0.00     0.053 C 
BRANCH   6   7
ATOM      7  C   UNL     1       1.032  43.234  19.306  1.00  0.00     0.041 C 
ATOM      8  O   UNL     1      -0.155  43.639  19.412  1.00  0.00    -0.550 OA
ATOM      9  O   UNL     1       1.529  42.313  20.219  1.00  0.00    -0.550 OA
ENDBRANCH   6   7
ENDBRANCH   5   6
ENDBRANCH   4   5
ENDBRANCH   3   4
ENDBRANCH   2   3
ENDBRANCH   1   2
BRANCH   1  10
ATOM     10  C   UNL     1       6.929  44.306  15.971  1.00  0.00     0.027 C 
BRANCH  10  11
ATOM     11  C   UNL     1       5.516  44.497  15.480  1.00  0.00    -0.031 C 
ATOM     12  C   UNL     1       4.847  43.610  14.720  1.00  0.00    -0.031 C 
BRANCH  12  13
ATOM     13  C   UNL     1       5.438  42.334  14.168  1.00  0.00     0.027 C 
BRANCH  13  14
ATOM     14  C   UNL     1       5.153  41.130  15.079  1.00  0.00     0.004 C 
BRANCH  14  15
ATOM     15  C   UNL     1       4.305  40.060  14.376  1.00  0.00     0.000 C 
BRANCH  15  16
ATOM     16  C   UNL     1       4.510  40.107  12.858  1.00  0.00    -0.000 C 
BRANCH  16  17
ATOM     17  C   UNL     1       3.177  39.943  12.118  1.00  0.00    -0.003 C 
ATOM     18  C   UNL     1       3.401  39.559  10.658  1.00  0.00     0.004 C 
ENDBRANCH  16  17
ENDBRANCH  15  16
ENDBRANCH  14  15
ENDBRANCH  13  14
ENDBRANCH  12  13
ENDBRANCH  10  11
ENDBRANCH   1  10
TORSDOF 13
ENDMDL
MODEL 3
REMARK VINA RESULT:    -4.847     10.460     12.565
REMARK INTER + INTRA:          -9.878
REMARK INTER:                  -8.555
REMARK INTRA:                  -1.323
REMARK UNBOUND:                -1.349
REMARK SMILES CCCCCCC=CCCCCCCCC(=O)[O-]
REMARK SMILES IDX 10 1 11 2 12 3 13 4 14 5 15 6 16 7 17 8 18 9 9 10 8 11 7 12
REMARK SMILES IDX 6 13 5 14 4 15 3 16 2 17 1 18
REMARK H PARENT
REMARK Flexibility Score: inf
ROOT
ATOM      1  C   UNL     1      -9.362  37.305  15.728  1.00  0.00     0.004 C 
ENDROOT
BRANCH   1   2
ATOM      2  C   UNL     1     -10.076  36.060  16.277  1.00  0.00     0.000 C 
BRANCH   2   3
ATOM      3  C   UNL     1      -9.762  34.796  15.456  1.00  0.00     0.000 C 
BRANCH   3   4
ATOM      4  C   UNL     1      -8.596  33.985  16.044  1.00  0.00     0.000 C 
BRANCH   4   5
ATOM      5  C   UNL     1      -7.271  34.225  15.298  1.00  0.00     0.006 C 
BRANCH   5   6
ATOM      6  C   UNL     1      -7.465  34.277  13.777  1.00  0.00     0.053 C 
BRANCH   6   7
ATOM      7  C   UNL     1      -6.377  35.059  13.104  1.00  0.00     0.041 C 
ATOM      8  O   UNL     1      -6.367  36.316  13.168  1.00  0.00    -0.550 OA
ATOM      9  O   UNL     1      -5.393  34.397  12.380  1.00  0.00    -0.550 OA
ENDBRANCH   6   7
ENDBRANCH   5   6
ENDBRANCH   4   5
ENDBRANCH   3   4
ENDBRANCH   2   3
ENDBRANCH   1   2
BRANCH   1  10
ATOM     10  C   UNL     1      -8.564  38.049  16.808  1.00  0.00     0.027 C 
BRANCH  10  11
ATOM     11  C   UNL     1      -8.117  37.099  17.889  1.00  0.00    -0.031 C 
ATOM     12  C   UNL     1      -6.936  37.175  18.531  1.00  0.00    -0.031 C 
BRANCH  12  13
ATOM     13  C   UNL     1      -5.844  38.165  18.203  1.00  0.00     0.027 C 
BRANCH  13  14
ATOM     14  C   UNL     1      -5.973  39.455  19.026  1.00  0.00     0.004 C 
BRANCH  14  15
ATOM     15  C   UNL     1      -4.607  40.089  19.329  1.00  0.00     0.000 C 
BRANCH  15  16
ATOM     16  C   UNL     1      -4.047  40.801  18.092  1.00  0.00    -0.000 C 
BRANCH  16  17
ATOM     17  C   UNL     1      -2.580  40.422  17.858  1.00  0.00    -0.003 C 
ATOM     18  C   UNL     1      -2.410  39.665  16.544  1.00  0.00     0.004 C 
ENDBRANCH  16  17
ENDBRANCH  15  16
ENDBRANCH  14  15
ENDBRANCH  13  14
ENDBRANCH  12  13
ENDBRANCH  10  11
ENDBRANCH   1  10
TORSDOF 13
ENDMDL
MODEL 4
REMARK VINA RESULT:    -4.843      1.689      2.955
REMARK INTER + INTRA:          -9.872
REMARK INTER:                  -7.555
REMARK INTRA:                  -2.317
REMARK UNBOUND:                -1.349
REMARK SMILES CCCCCCC=CCCCCCCCC(=O)[O-]
REMARK SMILES IDX 10 1 11 2 12 3 13 4 14 5 15 6 16 7 17 8 18 9 9 10 8 11 7 12
REMARK SMILES IDX 6 13 5 14 4 15 3 16 2 17 1 18
REMARK H PARENT
REMARK Flexibility Score: inf
ROOT
ATOM      1  C   UNL     1       7.506  43.960  16.118  1.00  0.00     0.004 C 
ENDROOT
BRANCH   1   2
ATOM      2  C   UNL     1       6.476  45.061  16.415  1.00  0.00     0.000 C 
BRANCH   2   3
ATOM      3  C   UNL     1       5.238  44.965  15.506  1.00  0.00     0.000 C 
BRANCH   3   4
ATOM      4  C   UNL     1       5.324  43.796  14.512  1.00  0.00     0.000 C 
BRANCH   4   5
ATOM      5  C   UNL     1       4.118  42.845  14.606  1.00  0.00     0.006 C 
BRANCH   5   6
ATOM      6  C   UNL     1       4.515  41.460  15.134  1.00  0.00     0.053 C 
BRANCH   6   7
ATOM      7  C   UNL     1       4.509  40.427  14.048  1.00  0.00     0.041 C 
ATOM      8  O   UNL     1       3.797  40.589  13.022  1.00  0.00    -0.550 OA
ATOM      9  O   UNL     1       5.270  39.272  14.183  1.00  0.00    -0.550 OA
ENDBRANCH   6   7
ENDBRANCH   5   6
ENDBRANCH   4   5
ENDBRANCH   3   4
ENDBRANCH   2   3
ENDBRANCH   1   2
BRANCH   1  10
ATOM     10  C   UNL     1       7.910  43.178  17.376  1.00  0.00     0.027 C 
BRANCH  10  11
ATOM     11  C   UNL     1       6.972  42.021  17.607  1.00  0.00    -0.031 C 
ATOM     12  C   UNL     1       5.985  42.011  18.522  1.00  0.00    -0.031 C 
BRANCH  12  13
ATOM     13  C   UNL     1       5.726  43.116  19.518  1.00  0.00     0.027 C 
BRANCH  13  14
ATOM     14  C   UNL     1       4.460  43.914  19.171  1.00  0.00     0.004 C 
BRANCH  14  15
ATOM     15  C   UNL     1       3.498  43.116  18.279  1.00  0.00     0.000 C 
BRANCH  15  16
ATOM     16  C   UNL     1       2.116  43.779  18.232  1.00  0.00    -0.000 C 
BRANCH  16  17
ATOM     17  C   UNL     1       1.032  42.825  18.748  1.00  0.00    -0.003 C 
ATOM     18  C   UNL     1       0.883  42.929  20.264  1.00  0.00     0.004 C 
ENDBRANCH  16  17
ENDBRANCH  15  16
ENDBRANCH  14  15
ENDBRANCH  13  14
ENDBRANCH  12  13
ENDBRANCH  10  11
ENDBRANCH   1  10
TORSDOF 13
ENDMDL
MODEL 5
REMARK VINA RESULT:    -4.803      1.661      2.822
REMARK INTER + INTRA:          -9.802
REMARK INTER:                  -7.553
REMARK INTRA:                  -2.249
REMARK UNBOUND:                -1.349
REMARK SMILES CCCCCCC=CCCCCCCCC(=O)[O-]
REMARK SMILES IDX 10 1 11 2 12 3 13 4 14 5 15 6 16 7 17 8 18 9 9 10 8 11 7 12
REMARK SMILES IDX 6 13 5 14 4 15 3 16 2 17 1 18
REMARK H PARENT
REMARK Flexibility Score: inf
ROOT
ATOM      1  C   UNL     1       6.795  45.206  16.515  1.00  0.00     0.004 C 
ENDROOT
BRANCH   1   2
ATOM      2  C   UNL     1       5.335  45.034  16.067  1.00  0.00     0.000 C 
BRANCH   2   3
ATOM      3  C   UNL     1       5.203  44.102  14.849  1.00  0.00     0.000 C 
BRANCH   3   4
ATOM      4  C   UNL     1       4.139  43.011  15.053  1.00  0.00     0.000 C 
BRANCH   4   5
ATOM      5  C   UNL     1       4.742  41.598  15.120  1.00  0.00     0.006 C 
BRANCH   5   6
ATOM      6  C   UNL     1       5.289  41.137  13.763  1.00  0.00     0.053 C 
BRANCH   6   7
ATOM      7  C   UNL     1       4.368  40.163  13.092  1.00  0.00     0.041 C 
ATOM      8  O   UNL     1       4.440  39.974  11.850  1.00  0.00    -0.550 OA
ATOM      9  O   UNL     1       3.410  39.487  13.838  1.00  0.00    -0.550 OA
ENDBRANCH   6   7
ENDBRANCH   5   6
ENDBRANCH   4   5
ENDBRANCH   3   4
ENDBRANCH   2   3
ENDBRANCH   1   2
BRANCH   1  10
ATOM     10  C   UNL     1       7.695  44.055  16.043  1.00  0.00     0.027 C 
BRANCH  10  11
ATOM     11  C   UNL     1       8.432  43.444  17.208  1.00  0.00    -0.031 C 
ATOM     12  C   UNL     1       7.918  42.509  18.029  1.00  0.00    -0.031 C 
BRANCH  12  13
ATOM     13  C   UNL     1       6.499  41.998  17.967  1.00  0.00     0.027 C 
BRANCH  13  14
ATOM     14  C   UNL     1       5.765  42.178  19.304  1.00  0.00     0.004 C 
BRANCH  14  15
ATOM     15  C   UNL     1       5.715  43.649  19.744  1.00  0.00     0.000 C 
BRANCH  15  16
ATOM     16  C   UNL     1       4.360  44.279  19.399  1.00  0.00    -0.000 C 
BRANCH  16  17
ATOM     17  C   UNL     1       3.264  43.210  19.314  1.00  0.00    -0.003 C 
ATOM     18  C   UNL     1       2.321  43.480  18.144  1.00  0.00     0.004 C 
ENDBRANCH  16  17
ENDBRANCH  15  16
ENDBRANCH  14  15
ENDBRANCH  13  14
ENDBRANCH  12  13
ENDBRANCH  10  11
ENDBRANCH   1  10
TORSDOF 13
ENDMDL
MODEL 6
REMARK VINA RESULT:    -4.757     10.736     13.640
REMARK INTER + INTRA:          -9.721
REMARK INTER:                  -8.132
REMARK INTRA:                  -1.590
REMARK UNBOUND:                -1.349
REMARK SMILES CCCCCCC=CCCCCCCCC(=O)[O-]
REMARK SMILES IDX 10 1 11 2 12 3 13 4 14 5 15 6 16 7 17 8 18 9 9 10 8 11 7 12
REMARK SMILES IDX 6 13 5 14 4 15 3 16 2 17 1 18
REMARK H PARENT
REMARK Flexibility Score: inf
ROOT
ATOM      1  C   UNL     1      -6.808  37.008  16.919  1.00  0.00     0.004 C 
ENDROOT
BRANCH   1   2
ATOM      2  C   UNL     1      -6.732  37.461  18.385  1.00  0.00     0.000 C 
BRANCH   2   3
ATOM      3  C   UNL     1      -5.724  38.607  18.592  1.00  0.00     0.000 C 
BRANCH   3   4
ATOM      4  C   UNL     1      -4.504  38.496  17.663  1.00  0.00     0.000 C 
BRANCH   4   5
ATOM      5  C   UNL     1      -3.520  39.666  17.834  1.00  0.00     0.006 C 
BRANCH   5   6
ATOM      6  C   UNL     1      -4.004  40.681  18.877  1.00  0.00     0.053 C 
BRANCH   6   7
ATOM      7  C   UNL     1      -2.901  41.099  19.801  1.00  0.00     0.041 C 
ATOM      8  O   UNL     1      -1.874  41.670  19.347  1.00  0.00    -0.550 OA
ATOM      9  O   UNL     1      -2.994  40.830  21.161  1.00  0.00    -0.550 OA
ENDBRANCH   6   7
ENDBRANCH   5   6
ENDBRANCH   4   5
ENDBRANCH   3   4
ENDBRANCH   2   3
ENDBRANCH   1   2
BRANCH   1  10
ATOM     10  C   UNL     1      -7.997  37.629  16.172  1.00  0.00     0.027 C 
BRANCH  10  11
ATOM     11  C   UNL     1      -9.295  37.273  16.850  1.00  0.00    -0.031 C 
ATOM     12  C   UNL     1     -10.043  36.195  16.545  1.00  0.00    -0.031 C 
BRANCH  12  13
ATOM     13  C   UNL     1      -9.745  35.234  15.421  1.00  0.00     0.027 C 
BRANCH  13  14
ATOM     14  C   UNL     1      -8.982  33.995  15.913  1.00  0.00     0.004 C 
BRANCH  14  15
ATOM     15  C   UNL     1      -7.584  33.887  15.286  1.00  0.00     0.000 C 
BRANCH  15  16
ATOM     16  C   UNL     1      -7.644  34.117  13.771  1.00  0.00    -0.000 C 
BRANCH  16  17
ATOM     17  C   UNL     1      -6.421  34.904  13.286  1.00  0.00    -0.003 C 
ATOM     18  C   UNL     1      -6.779  36.362  13.009  1.00  0.00     0.004 C 
ENDBRANCH  16  17
ENDBRANCH  15  16
ENDBRANCH  14  15
ENDBRANCH  13  14
ENDBRANCH  12  13
ENDBRANCH  10  11
ENDBRANCH   1  10
TORSDOF 13
ENDMDL
MODEL 7
REMARK VINA RESULT:    -4.752     12.500     15.044
REMARK INTER + INTRA:          -9.712
REMARK INTER:                  -7.701
REMARK INTRA:                  -2.011
REMARK UNBOUND:                -1.349
REMARK SMILES CCCCCCC=CCCCCCCCC(=O)[O-]
REMARK SMILES IDX 10 1 11 2 12 3 13 4 14 5 15 6 16 7 17 8 18 9 9 10 8 11 7 12
REMARK SMILES IDX 6 13 5 14 4 15 3 16 2 17 1 18
REMARK H PARENT
REMARK Flexibility Score: inf
ROOT
ATOM      1  C   UNL     1       3.811  29.640   7.237  1.00  0.00     0.004 C 
ENDROOT
BRANCH   1   2
ATOM      2  C   UNL     1       3.496  29.196   5.800  1.00  0.00     0.000 C 
BRANCH   2   3
ATOM      3  C   UNL     1       3.005  30.361   4.922  1.00  0.00     0.000 C 
BRANCH   3   4
ATOM      4  C   UNL     1       2.347  29.882   3.618  1.00  0.00     0.000 C 
BRANCH   4   5
ATOM      5  C   UNL     1       0.895  30.369   3.471  1.00  0.00     0.006 C 
BRANCH   5   6
ATOM      6  C   UNL     1       0.059  30.081   4.725  1.00  0.00     0.053 C 
BRANCH   6   7
ATOM      7  C   UNL     1      -0.619  28.747   4.649  1.00  0.00     0.041 C 
ATOM      8  O   UNL     1      -0.020  27.708   5.031  1.00  0.00    -0.550 OA
ATOM      9  O   UNL     1      -1.903  28.649   4.127  1.00  0.00    -0.550 OA
ENDBRANCH   6   7
ENDBRANCH   5   6
ENDBRANCH   4   5
ENDBRANCH   3   4
ENDBRANCH   2   3
ENDBRANCH   1   2
BRANCH   1  10
ATOM     10  C   UNL     1       5.205  30.271   7.366  1.00  0.00     0.027 C 
BRANCH  10  11
ATOM     11  C   UNL     1       5.258  31.206   8.547  1.00  0.00    -0.031 C 
ATOM     12  C   UNL     1       5.201  32.548   8.459  1.00  0.00    -0.031 C 
BRANCH  12  13
ATOM     13  C   UNL     1       5.170  33.323   7.164  1.00  0.00     0.027 C 
BRANCH  13  14
ATOM     14  C   UNL     1       4.687  34.767   7.372  1.00  0.00     0.004 C 
BRANCH  14  15
ATOM     15  C   UNL     1       3.216  34.950   6.970  1.00  0.00     0.000 C 
BRANCH  15  16
ATOM     16  C   UNL     1       2.826  33.971   5.856  1.00  0.00    -0.000 C 
BRANCH  16  17
ATOM     17  C   UNL     1       1.532  33.227   6.207  1.00  0.00    -0.003 C 
ATOM     18  C   UNL     1       1.516  32.812   7.676  1.00  0.00     0.004 C 
ENDBRANCH  16  17
ENDBRANCH  15  16
ENDBRANCH  14  15
ENDBRANCH  13  14
ENDBRANCH  12  13
ENDBRANCH  10  11
ENDBRANCH   1  10
TORSDOF 13
ENDMDL
MODEL 8
REMARK VINA RESULT:    -4.703     12.881     14.615
REMARK INTER + INTRA:          -9.626
REMARK INTER:                  -7.351
REMARK INTRA:                  -2.274
REMARK UNBOUND:                -1.349
REMARK SMILES CCCCCCC=CCCCCCCCC(=O)[O-]
REMARK SMILES IDX 10 1 11 2 12 3 13 4 14 5 15 6 16 7 17 8 18 9 9 10 8 11 7 12
REMARK SMILES IDX 6 13 5 14 4 15 3 16 2 17 1 18
REMARK H PARENT
REMARK Flexibility Score: inf
ROOT
ATOM      1  C   UNL     1       3.917  29.605   7.318  1.00  0.00     0.004 C 
ENDROOT
BRANCH   1   2
ATOM      2  C   UNL     1       3.442  29.968   5.903  1.00  0.00     0.000 C 
BRANCH   2   3
ATOM      3  C   UNL     1       2.363  31.065   5.911  1.00  0.00     0.000 C 
BRANCH   3   4
ATOM      4  C   UNL     1       1.699  31.231   7.287  1.00  0.00     0.000 C 
BRANCH   4   5
ATOM      5  C   UNL     1       1.537  32.706   7.695  1.00  0.00     0.006 C 
BRANCH   5   6
ATOM      6  C   UNL     1       0.721  33.503   6.669  1.00  0.00     0.053 C 
BRANCH   6   7
ATOM      7  C   UNL     1      -0.731  33.132   6.702  1.00  0.00     0.041 C 
ATOM      8  O   UNL     1      -1.384  33.220   7.775  1.00  0.00    -0.550 OA
ATOM      9  O   UNL     1      -1.354  32.660   5.553  1.00  0.00    -0.550 OA
ENDBRANCH   6   7
ENDBRANCH   5   6
ENDBRANCH   4   5
ENDBRANCH   3   4
ENDBRANCH   2   3
ENDBRANCH   1   2
BRANCH   1  10
ATOM     10  C   UNL     1       5.316  30.158   7.629  1.00  0.00     0.027 C 
BRANCH  10  11
ATOM     11  C   UNL     1       5.224  31.348   8.549  1.00  0.00    -0.031 C 
ATOM     12  C   UNL     1       5.350  32.629   8.154  1.00  0.00    -0.031 C 
BRANCH  12  13
ATOM     13  C   UNL     1       5.693  33.063   6.749  1.00  0.00     0.027 C 
BRANCH  13  14
ATOM     14  C   UNL     1       4.672  34.068   6.195  1.00  0.00     0.004 C 
BRANCH  14  15
ATOM     15  C   UNL     1       4.494  33.935   4.675  1.00  0.00     0.000 C 
BRANCH  15  16
ATOM     16  C   UNL     1       5.392  34.929   3.928  1.00  0.00    -0.000 C 
BRANCH  16  17
ATOM     17  C   UNL     1       6.632  34.229   3.361  1.00  0.00    -0.003 C 
ATOM     18  C   UNL     1       7.886  34.608   4.144  1.00  0.00     0.004 C 
ENDBRANCH  16  17
ENDBRANCH  15  16
ENDBRANCH  14  15
ENDBRANCH  13  14
ENDBRANCH  12  13
ENDBRANCH  10  11
ENDBRANCH   1  10
TORSDOF 13
ENDMDL
MODEL 9
REMARK VINA RESULT:    -4.626     12.364     14.179
REMARK INTER + INTRA:          -9.491
REMARK INTER:                  -7.751
REMARK INTRA:                  -1.740
REMARK UNBOUND:                -1.349
REMARK SMILES CCCCCCC=CCCCCCCCC(=O)[O-]
REMARK SMILES IDX 10 1 11 2 12 3 13 4 14 5 15 6 16 7 17 8 18 9 9 10 8 11 7 12
REMARK SMILES IDX 6 13 5 14 4 15 3 16 2 17 1 18
REMARK H PARENT
REMARK Flexibility Score: inf
ROOT
ATOM      1  C   UNL     1      -0.321  34.097   6.231  1.00  0.00     0.004 C 
ENDROOT
BRANCH   1   2
ATOM      2  C   UNL     1      -0.033  35.587   5.993  1.00  0.00     0.000 C 
BRANCH   2   3
ATOM      3  C   UNL     1      -0.039  35.953   4.498  1.00  0.00     0.000 C 
BRANCH   3   4
ATOM      4  C   UNL     1      -0.684  34.865   3.625  1.00  0.00     0.000 C 
BRANCH   4   5
ATOM      5  C   UNL     1      -1.986  35.335   2.954  1.00  0.00     0.006 C 
BRANCH   5   6
ATOM      6  C   UNL     1      -2.301  36.803   3.270  1.00  0.00     0.053 C 
BRANCH   6   7
ATOM      7  C   UNL     1      -3.473  36.936   4.195  1.00  0.00     0.041 C 
ATOM      8  O   UNL     1      -3.511  36.280   5.269  1.00  0.00    -0.550 OA
ATOM      9  O   UNL     1      -4.537  37.762   3.854  1.00  0.00    -0.550 OA
ENDBRANCH   6   7
ENDBRANCH   5   6
ENDBRANCH   4   5
ENDBRANCH   3   4
ENDBRANCH   2   3
ENDBRANCH   1   2
BRANCH   1  10
ATOM     10  C   UNL     1       0.817  33.390   6.982  1.00  0.00     0.027 C 
BRANCH  10  11
ATOM     11  C   UNL     1       1.732  32.682   6.015  1.00  0.00    -0.031 C 
ATOM     12  C   UNL     1       2.906  33.174   5.578  1.00  0.00    -0.031 C 
BRANCH  12  13
ATOM     13  C   UNL     1       3.441  34.545   5.914  1.00  0.00     0.027 C 
BRANCH  13  14
ATOM     14  C   UNL     1       4.366  34.515   7.139  1.00  0.00     0.004 C 
BRANCH  14  15
ATOM     15  C   UNL     1       5.172  33.209   7.225  1.00  0.00     0.000 C 
BRANCH  15  16
ATOM     16  C   UNL     1       5.103  32.615   8.637  1.00  0.00    -0.000 C 
BRANCH  16  17
ATOM     17  C   UNL     1       5.314  31.097   8.604  1.00  0.00    -0.003 C 
ATOM     18  C   UNL     1       5.016  30.529   7.218  1.00  0.00     0.004 C 
ENDBRANCH  16  17
ENDBRANCH  15  16
ENDBRANCH  14  15
ENDBRANCH  13  14
ENDBRANCH  12  13
ENDBRANCH  10  11
ENDBRANCH   1  10
TORSDOF 13
ENDMDL
