MODEL 1
REMARK VINA RESULT:    -6.061      0.000      0.000
REMARK INTER + INTRA:          -7.384
REMARK INTER:                  -7.124
REMARK INTRA:                  -0.260
REMARK UNBOUND:                -0.260
REMARK SMILES O=c1cc(-c2ccc(O)c(O)c2)oc2cc(O)cc(O)c12
REMARK SMILES IDX 4 1 3 2 2 3 1 4 21 5 19 6 18 7 16 8 15 9 14 10 13 11 5 12
REMARK SMILES IDX 6 13 7 14 8 15 12 16 10 17 9 18 11 20 20 22 17 24
REMARK H PARENT 9 19 11 21 20 23 17 25
REMARK Flexibility Score: inf
ROOT
ATOM      1  C   UNL     1     -33.908  10.495 -39.067  1.00  0.00     0.138 A 
ATOM      2  C   UNL     1     -32.932   9.864 -39.856  1.00  0.00     0.100 A 
ATOM      3  C   UNL     1     -33.233   9.520 -41.174  1.00  0.00     0.197 A 
ATOM      4  O   UNL     1     -32.351   8.954 -41.875  1.00  0.00    -0.289 OA
ATOM      5  C   UNL     1     -34.511   9.807 -41.694  1.00  0.00     0.107 A 
ATOM      6  C   UNL     1     -34.897   9.493 -43.018  1.00  0.00     0.134 A 
ATOM      7  C   UNL     1     -36.192   9.807 -43.459  1.00  0.00     0.093 A 
ATOM      8  C   UNL     1     -37.105  10.427 -42.601  1.00  0.00     0.123 A 
ATOM      9  C   UNL     1     -36.729  10.738 -41.290  1.00  0.00     0.094 A 
ATOM     10  C   UNL     1     -35.444  10.435 -40.833  1.00  0.00     0.146 A 
ATOM     11  O   UNL     1     -35.109  10.743 -39.584  1.00  0.00    -0.456 OA
ENDROOT
BRANCH   1  12
ATOM     12  C   UNL     1     -33.645  10.883 -37.657  1.00  0.00     0.021 A 
ATOM     13  C   UNL     1     -33.429  12.224 -37.287  1.00  0.00     0.016 A 
ATOM     14  C   UNL     1     -33.195  12.560 -35.951  1.00  0.00     0.051 A 
ATOM     15  C   UNL     1     -33.178  11.572 -34.963  1.00  0.00     0.157 A 
ATOM     16  C   UNL     1     -33.641   9.894 -36.657  1.00  0.00     0.062 A 
ATOM     17  C   UNL     1     -33.404  10.232 -35.316  1.00  0.00     0.158 A 
BRANCH  15  18
ATOM     18  O   UNL     1     -32.939  11.940 -33.639  1.00  0.00    -0.504 OA
ATOM     19  H   UNL     1     -32.389  12.754 -33.398  1.00  0.00     0.293 HD
ENDBRANCH  15  18
BRANCH  17  20
ATOM     20  O   UNL     1     -33.393   9.241 -34.336  1.00  0.00    -0.504 OA
ATOM     21  H   UNL     1     -32.734   8.471 -34.366  1.00  0.00     0.293 HD
ENDBRANCH  17  20
ENDBRANCH   1  12
BRANCH   6  22
ATOM     22  O   UNL     1     -34.007   8.875 -43.898  1.00  0.00    -0.507 OA
ATOM     23  H   UNL     1     -33.149   8.444 -43.573  1.00  0.00     0.293 HD
ENDBRANCH   6  22
BRANCH   8  24
ATOM     24  O   UNL     1     -38.384  10.727 -43.063  1.00  0.00    -0.508 OA
ATOM     25  H   UNL     1     -38.889  10.094 -43.673  1.00  0.00     0.293 HD
ENDBRANCH   8  24
TORSDOF 5
ENDMDL
MODEL 2
REMARK VINA RESULT:    -5.847      0.842      1.448
REMARK INTER + INTRA:          -7.132
REMARK INTER:                  -6.837
REMARK INTRA:                  -0.295
REMARK UNBOUND:                -0.260
REMARK SMILES O=c1cc(-c2ccc(O)c(O)c2)oc2cc(O)cc(O)c12
REMARK SMILES IDX 4 1 3 2 2 3 1 4 21 5 19 6 18 7 16 8 15 9 14 10 13 11 5 12
REMARK SMILES IDX 6 13 7 14 8 15 12 16 10 17 9 18 11 20 20 22 17 24
REMARK H PARENT 9 19 11 21 20 23 17 25
REMARK Flexibility Score: inf
ROOT
ATOM      1  C   UNL     1     -33.517   9.929 -39.097  1.00  0.00     0.138 A 
ATOM      2  C   UNL     1     -32.546   9.467 -40.001  1.00  0.00     0.100 A 
ATOM      3  C   UNL     1     -32.887   9.291 -41.343  1.00  0.00     0.197 A 
ATOM      4  O   UNL     1     -32.009   8.875 -42.147  1.00  0.00    -0.289 OA
ATOM      5  C   UNL     1     -34.199   9.575 -41.771  1.00  0.00     0.107 A 
ATOM      6  C   UNL     1     -34.625   9.424 -43.112  1.00  0.00     0.134 A 
ATOM      7  C   UNL     1     -35.953   9.723 -43.457  1.00  0.00     0.093 A 
ATOM      8  C   UNL     1     -36.857  10.168 -42.489  1.00  0.00     0.123 A 
ATOM      9  C   UNL     1     -36.441  10.318 -41.162  1.00  0.00     0.094 A 
ATOM     10  C   UNL     1     -35.123  10.026 -40.799  1.00  0.00     0.146 A 
ATOM     11  O   UNL     1     -34.751  10.179 -39.532  1.00  0.00    -0.456 OA
ENDROOT
BRANCH   1  12
ATOM     12  C   UNL     1     -33.213  10.134 -37.658  1.00  0.00     0.021 A 
ATOM     13  C   UNL     1     -32.438   9.213 -36.928  1.00  0.00     0.016 A 
ATOM     14  C   UNL     1     -32.160   9.437 -35.577  1.00  0.00     0.051 A 
ATOM     15  C   UNL     1     -32.640  10.581 -34.934  1.00  0.00     0.157 A 
ATOM     16  C   UNL     1     -33.683  11.291 -37.009  1.00  0.00     0.062 A 
ATOM     17  C   UNL     1     -33.404  11.515 -35.653  1.00  0.00     0.158 A 
BRANCH  15  18
ATOM     18  O   UNL     1     -32.346  10.775 -33.584  1.00  0.00    -0.504 OA
ATOM     19  H   UNL     1     -32.947  10.428 -32.847  1.00  0.00     0.293 HD
ENDBRANCH  15  18
BRANCH  17  20
ATOM     20  O   UNL     1     -33.883  12.660 -35.020  1.00  0.00    -0.504 OA
ATOM     21  H   UNL     1     -34.310  12.620 -34.102  1.00  0.00     0.293 HD
ENDBRANCH  17  20
ENDBRANCH   1  12
BRANCH   6  22
ATOM     22  O   UNL     1     -33.745   8.983 -44.100  1.00  0.00    -0.507 OA
ATOM     23  H   UNL     1     -33.716   9.411 -45.018  1.00  0.00     0.293 HD
ENDBRANCH   6  22
BRANCH   8  24
ATOM     24  O   UNL     1     -38.169  10.457 -42.858  1.00  0.00    -0.508 OA
ATOM     25  H   UNL     1     -38.943  10.315 -42.219  1.00  0.00     0.293 HD
ENDBRANCH   8  24
TORSDOF 5
ENDMDL
MODEL 3
REMARK VINA RESULT:    -5.189      1.167      1.657
REMARK INTER + INTRA:          -6.359
REMARK INTER:                  -6.052
REMARK INTRA:                  -0.308
REMARK UNBOUND:                -0.260
REMARK SMILES O=c1cc(-c2ccc(O)c(O)c2)oc2cc(O)cc(O)c12
REMARK SMILES IDX 4 1 3 2 2 3 1 4 21 5 19 6 18 7 16 8 15 9 14 10 13 11 5 12
REMARK SMILES IDX 6 13 7 14 8 15 12 16 10 17 9 18 11 20 20 22 17 24
REMARK H PARENT 9 19 11 21 20 23 17 25
REMARK Flexibility Score: inf
ROOT
ATOM      1  C   UNL     1     -33.241  10.363 -38.280  1.00  0.00     0.138 A 
ATOM      2  C   UNL     1     -32.274   9.739 -39.085  1.00  0.00     0.100 A 
ATOM      3  C   UNL     1     -32.578   9.435 -40.412  1.00  0.00     0.197 A 
ATOM      4  O   UNL     1     -31.704   8.875 -41.127  1.00  0.00    -0.289 OA
ATOM      5  C   UNL     1     -33.851   9.755 -40.925  1.00  0.00     0.107 A 
ATOM      6  C   UNL     1     -34.239   9.482 -42.258  1.00  0.00     0.134 A 
ATOM      7  C   UNL     1     -35.529   9.827 -42.691  1.00  0.00     0.093 A 
ATOM      8  C   UNL     1     -36.434  10.437 -41.818  1.00  0.00     0.123 A 
ATOM      9  C   UNL     1     -36.055  10.707 -40.499  1.00  0.00     0.094 A 
ATOM     10  C   UNL     1     -34.775  10.373 -40.049  1.00  0.00     0.146 A 
ATOM     11  O   UNL     1     -34.438  10.643 -38.792  1.00  0.00    -0.456 OA
ENDROOT
BRANCH   1  12
ATOM     12  C   UNL     1     -32.975  10.709 -36.860  1.00  0.00     0.021 A 
ATOM     13  C   UNL     1     -32.047   9.987 -36.085  1.00  0.00     0.016 A 
ATOM     14  C   UNL     1     -31.809  10.342 -34.755  1.00  0.00     0.051 A 
ATOM     15  C   UNL     1     -32.483  11.420 -34.176  1.00  0.00     0.157 A 
ATOM     16  C   UNL     1     -33.641  11.802 -36.277  1.00  0.00     0.062 A 
ATOM     17  C   UNL     1     -33.403  12.157 -34.942  1.00  0.00     0.158 A 
BRANCH  15  18
ATOM     18  O   UNL     1     -32.225  11.748 -32.846  1.00  0.00    -0.504 OA
ATOM     19  H   UNL     1     -31.387  12.243 -32.566  1.00  0.00     0.293 HD
ENDBRANCH  15  18
BRANCH  17  20
ATOM     20  O   UNL     1     -34.076  13.236 -34.373  1.00  0.00    -0.504 OA
ATOM     21  H   UNL     1     -34.402  14.015 -34.934  1.00  0.00     0.293 HD
ENDBRANCH  17  20
ENDBRANCH   1  12
BRANCH   6  22
ATOM     22  O   UNL     1     -33.358   8.875 -43.153  1.00  0.00    -0.507 OA
ATOM     23  H   UNL     1     -33.558   7.973 -43.569  1.00  0.00     0.293 HD
ENDBRANCH   6  22
BRANCH   8  24
ATOM     24  O   UNL     1     -37.709  10.768 -42.273  1.00  0.00    -0.508 OA
ATOM     25  H   UNL     1     -38.146  11.649 -42.027  1.00  0.00     0.293 HD
ENDBRANCH   8  24
TORSDOF 5
ENDMDL
MODEL 4
REMARK VINA RESULT:    -4.048      1.946      3.048
REMARK INTER + INTRA:          -5.018
REMARK INTER:                  -4.701
REMARK INTRA:                  -0.317
REMARK UNBOUND:                -0.260
REMARK SMILES O=c1cc(-c2ccc(O)c(O)c2)oc2cc(O)cc(O)c12
REMARK SMILES IDX 4 1 3 2 2 3 1 4 21 5 19 6 18 7 16 8 15 9 14 10 13 11 5 12
REMARK SMILES IDX 6 13 7 14 8 15 12 16 10 17 9 18 11 20 20 22 17 24
REMARK H PARENT 9 19 11 21 20 23 17 25
REMARK Flexibility Score: inf
ROOT
ATOM      1  C   UNL     1     -32.791  11.001 -36.611  1.00  0.00     0.138 A 
ATOM      2  C   UNL     1     -31.797  10.143 -37.110  1.00  0.00     0.100 A 
ATOM      3  C   UNL     1     -31.872   9.701 -38.431  1.00  0.00     0.197 A 
ATOM      4  O   UNL     1     -30.975   8.931 -38.870  1.00  0.00    -0.289 OA
ATOM      5  C   UNL     1     -32.943  10.118 -39.245  1.00  0.00     0.107 A 
ATOM      6  C   UNL     1     -33.093   9.718 -40.594  1.00  0.00     0.134 A 
ATOM      7  C   UNL     1     -34.194  10.173 -41.336  1.00  0.00     0.093 A 
ATOM      8  C   UNL     1     -35.144  11.018 -40.756  1.00  0.00     0.123 A 
ATOM      9  C   UNL     1     -35.001  11.416 -39.423  1.00  0.00     0.094 A 
ATOM     10  C   UNL     1     -33.912  10.974 -38.667  1.00  0.00     0.146 A 
ATOM     11  O   UNL     1     -33.797  11.369 -37.403  1.00  0.00    -0.456 OA
ENDROOT
BRANCH   1  12
ATOM     12  C   UNL     1     -32.764  11.502 -35.213  1.00  0.00     0.021 A 
ATOM     13  C   UNL     1     -31.637  11.330 -34.387  1.00  0.00     0.016 A 
ATOM     14  C   UNL     1     -31.637  11.821 -33.079  1.00  0.00     0.051 A 
ATOM     15  C   UNL     1     -32.752  12.495 -32.574  1.00  0.00     0.157 A 
ATOM     16  C   UNL     1     -33.879  12.193 -34.704  1.00  0.00     0.062 A 
ATOM     17  C   UNL     1     -33.879  12.685 -33.391  1.00  0.00     0.158 A 
BRANCH  15  18
ATOM     18  O   UNL     1     -32.721  12.972 -31.264  1.00  0.00    -0.504 OA
ATOM     19  H   UNL     1     -31.899  13.412 -30.871  1.00  0.00     0.293 HD
ENDBRANCH  15  18
BRANCH  17  20
ATOM     20  O   UNL     1     -34.993  13.360 -32.896  1.00  0.00    -0.504 OA
ATOM     21  H   UNL     1     -35.690  12.891 -32.330  1.00  0.00     0.293 HD
ENDBRANCH  17  20
ENDBRANCH   1  12
BRANCH   6  22
ATOM     22  O   UNL     1     -32.161   8.875 -41.200  1.00  0.00    -0.507 OA
ATOM     23  H   UNL     1     -31.175   9.106 -41.230  1.00  0.00     0.293 HD
ENDBRANCH   6  22
BRANCH   8  24
ATOM     24  O   UNL     1     -36.227  11.455 -41.515  1.00  0.00    -0.508 OA
ATOM     25  H   UNL     1     -36.238  11.363 -42.524  1.00  0.00     0.293 HD
ENDBRANCH   8  24
TORSDOF 5
ENDMDL
MODEL 5
REMARK VINA RESULT:    -3.443      1.674      3.276
REMARK INTER + INTRA:          -4.306
REMARK INTER:                  -4.040
REMARK INTRA:                  -0.266
REMARK UNBOUND:                -0.260
REMARK SMILES O=c1cc(-c2ccc(O)c(O)c2)oc2cc(O)cc(O)c12
REMARK SMILES IDX 4 1 3 2 2 3 1 4 21 5 19 6 18 7 16 8 15 9 14 10 13 11 5 12
REMARK SMILES IDX 6 13 7 14 8 15 12 16 10 17 9 18 11 20 20 22 17 24
REMARK H PARENT 9 19 11 21 20 23 17 25
REMARK Flexibility Score: inf
ROOT
ATOM      1  C   UNL     1     -33.531   9.654 -38.940  1.00  0.00     0.138 A 
ATOM      2  C   UNL     1     -34.850   9.568 -39.414  1.00  0.00     0.100 A 
ATOM      3  C   UNL     1     -35.079   9.348 -40.773  1.00  0.00     0.197 A 
ATOM      4  O   UNL     1     -36.267   9.272 -41.188  1.00  0.00    -0.289 OA
ATOM      5  C   UNL     1     -33.984   9.218 -41.650  1.00  0.00     0.107 A 
ATOM      6  C   UNL     1     -34.129   8.993 -43.040  1.00  0.00     0.134 A 
ATOM      7  C   UNL     1     -32.987   8.881 -43.848  1.00  0.00     0.093 A 
ATOM      8  C   UNL     1     -31.708   8.991 -43.294  1.00  0.00     0.123 A 
ATOM      9  C   UNL     1     -31.561   9.215 -41.922  1.00  0.00     0.094 A 
ATOM     10  C   UNL     1     -32.685   9.328 -41.100  1.00  0.00     0.146 A 
ATOM     11  O   UNL     1     -32.518   9.538 -39.798  1.00  0.00    -0.456 OA
ENDROOT
BRANCH   1  12
ATOM     12  C   UNL     1     -33.227   9.889 -37.506  1.00  0.00     0.021 A 
ATOM     13  C   UNL     1     -32.454   8.983 -36.756  1.00  0.00     0.016 A 
ATOM     14  C   UNL     1     -32.175   9.235 -35.410  1.00  0.00     0.051 A 
ATOM     15  C   UNL     1     -32.652  10.393 -34.792  1.00  0.00     0.157 A 
ATOM     16  C   UNL     1     -33.693  11.061 -36.882  1.00  0.00     0.062 A 
ATOM     17  C   UNL     1     -33.414  11.313 -35.531  1.00  0.00     0.158 A 
BRANCH  15  18
ATOM     18  O   UNL     1     -32.358  10.616 -33.447  1.00  0.00    -0.504 OA
ATOM     19  H   UNL     1     -31.433  10.461 -33.065  1.00  0.00     0.293 HD
ENDBRANCH  15  18
BRANCH  17  20
ATOM     20  O   UNL     1     -33.891  12.473 -34.923  1.00  0.00    -0.504 OA
ATOM     21  H   UNL     1     -34.874  12.594 -34.707  1.00  0.00     0.293 HD
ENDBRANCH  17  20
ENDBRANCH   1  12
BRANCH   6  22
ATOM     22  O   UNL     1     -35.392   8.878 -43.621  1.00  0.00    -0.507 OA
ATOM     23  H   UNL     1     -36.095   8.252 -43.248  1.00  0.00     0.293 HD
ENDBRANCH   6  22
BRANCH   8  24
ATOM     24  O   UNL     1     -30.592   8.876 -44.120  1.00  0.00    -0.508 OA
ATOM     25  H   UNL     1     -29.691   9.252 -43.846  1.00  0.00     0.293 HD
ENDBRANCH   8  24
TORSDOF 5
ENDMDL
