MODEL 1
REMARK VINA RESULT:    -5.057      0.000      0.000
REMARK INTER + INTRA:         -10.134
REMARK INTER:                  -8.901
REMARK INTRA:                  -1.234
REMARK UNBOUND:                -1.234
REMARK SMILES CCCCCCCCCCCCCCC(=O)[O-]
REMARK SMILES IDX 9 1 10 2 11 3 12 4 13 5 14 6 15 7 16 8 17 9 8 10 7 11 6 12
REMARK SMILES IDX 5 13 4 14 3 15 2 16 1 17
REMARK H PARENT
REMARK Flexibility Score: inf
ROOT
ATOM      1  C   UNL     1      46.808   4.936 129.888  1.00  0.00     0.000 C 
ENDROOT
BRANCH   1   2
ATOM      2  C   UNL     1      47.360   4.501 131.253  1.00  0.00     0.000 C 
BRANCH   2   3
ATOM      3  C   UNL     1      46.265   3.996 132.209  1.00  0.00     0.000 C 
BRANCH   3   4
ATOM      4  C   UNL     1      44.826   4.085 131.660  1.00  0.00     0.000 C 
BRANCH   4   5
ATOM      5  C   UNL     1      43.773   3.296 132.460  1.00  0.00     0.006 C 
BRANCH   5   6
ATOM      6  C   UNL     1      44.369   2.098 133.207  1.00  0.00     0.053 C 
BRANCH   6   7
ATOM      7  C   UNL     1      44.103   0.830 132.459  1.00  0.00     0.041 C 
ATOM      8  O   UNL     1      45.017  -0.024 132.314  1.00  0.00    -0.550 OA
ATOM      9  O   UNL     1      42.860   0.615 131.876  1.00  0.00    -0.550 OA
ENDBRANCH   6   7
ENDBRANCH   5   6
ENDBRANCH   4   5
ENDBRANCH   3   4
ENDBRANCH   2   3
ENDBRANCH   1   2
BRANCH   1  10
ATOM     10  C   UNL     1      47.735   5.968 129.226  1.00  0.00     0.000 C 
BRANCH  10  11
ATOM     11  C   UNL     1      46.965   7.127 128.572  1.00  0.00    -0.000 C 
BRANCH  11  12
ATOM     12  C   UNL     1      45.714   7.530 129.372  1.00  0.00    -0.000 C 
BRANCH  12  13
ATOM     13  C   UNL     1      44.444   7.556 128.507  1.00  0.00    -0.000 C 
BRANCH  13  14
ATOM     14  C   UNL     1      43.486   6.398 128.823  1.00  0.00    -0.000 C 
BRANCH  14  15
ATOM     15  C   UNL     1      42.496   6.175 127.673  1.00  0.00    -0.000 C 
BRANCH  15  16
ATOM     16  C   UNL     1      43.149   5.390 126.529  1.00  0.00    -0.003 C 
ATOM     17  C   UNL     1      44.379   4.629 127.013  1.00  0.00     0.004 C 
ENDBRANCH  15  16
ENDBRANCH  14  15
ENDBRANCH  13  14
ENDBRANCH  12  13
ENDBRANCH  11  12
ENDBRANCH  10  11
ENDBRANCH   1  10
TORSDOF 13
ENDMDL
MODEL 2
REMARK VINA RESULT:    -5.052      0.947      1.638
REMARK INTER + INTRA:         -10.125
REMARK INTER:                  -9.152
REMARK INTRA:                  -0.973
REMARK UNBOUND:                -1.234
REMARK SMILES CCCCCCCCCCCCCCC(=O)[O-]
REMARK SMILES IDX 9 1 10 2 11 3 12 4 13 5 14 6 15 7 16 8 17 9 8 10 7 11 6 12
REMARK SMILES IDX 5 13 4 14 3 15 2 16 1 17
REMARK H PARENT
REMARK Flexibility Score: inf
ROOT
ATOM      1  C   UNL     1      46.451   4.948 130.472  1.00  0.00     0.000 C 
ENDROOT
BRANCH   1   2
ATOM      2  C   UNL     1      47.106   4.173 131.626  1.00  0.00     0.000 C 
BRANCH   2   3
ATOM      3  C   UNL     1      46.240   4.146 132.897  1.00  0.00     0.000 C 
BRANCH   3   4
ATOM      4  C   UNL     1      46.253   2.812 133.670  1.00  0.00     0.000 C 
BRANCH   4   5
ATOM      5  C   UNL     1      44.867   2.198 133.936  1.00  0.00     0.006 C 
BRANCH   5   6
ATOM      6  C   UNL     1      43.997   2.124 132.676  1.00  0.00     0.053 C 
BRANCH   6   7
ATOM      7  C   UNL     1      43.895   0.711 132.194  1.00  0.00     0.041 C 
ATOM      8  O   UNL     1      44.880  -0.067 132.297  1.00  0.00    -0.550 OA
ATOM      9  O   UNL     1      42.727   0.267 131.585  1.00  0.00    -0.550 OA
ENDBRANCH   6   7
ENDBRANCH   5   6
ENDBRANCH   4   5
ENDBRANCH   3   4
ENDBRANCH   2   3
ENDBRANCH   1   2
BRANCH   1  10
ATOM     10  C   UNL     1      47.508   5.694 129.644  1.00  0.00     0.000 C 
BRANCH  10  11
ATOM     11  C   UNL     1      46.928   6.900 128.886  1.00  0.00    -0.000 C 
BRANCH  11  12
ATOM     12  C   UNL     1      47.011   6.732 127.358  1.00  0.00    -0.000 C 
BRANCH  12  13
ATOM     13  C   UNL     1      45.626   6.643 126.699  1.00  0.00    -0.000 C 
BRANCH  13  14
ATOM     14  C   UNL     1      44.797   5.457 127.215  1.00  0.00    -0.000 C 
BRANCH  14  15
ATOM     15  C   UNL     1      43.333   5.578 126.774  1.00  0.00    -0.000 C 
BRANCH  15  16
ATOM     16  C   UNL     1      42.490   6.278 127.847  1.00  0.00    -0.003 C 
ATOM     17  C   UNL     1      43.229   6.331 129.180  1.00  0.00     0.004 C 
ENDBRANCH  15  16
ENDBRANCH  14  15
ENDBRANCH  13  14
ENDBRANCH  12  13
ENDBRANCH  11  12
ENDBRANCH  10  11
ENDBRANCH   1  10
TORSDOF 13
ENDMDL
MODEL 3
REMARK VINA RESULT:    -5.018      2.708      6.190
REMARK INTER + INTRA:         -10.066
REMARK INTER:                  -9.119
REMARK INTRA:                  -0.947
REMARK UNBOUND:                -1.234
REMARK SMILES CCCCCCCCCCCCCCC(=O)[O-]
REMARK SMILES IDX 9 1 10 2 11 3 12 4 13 5 14 6 15 7 16 8 17 9 8 10 7 11 6 12
REMARK SMILES IDX 5 13 4 14 3 15 2 16 1 17
REMARK H PARENT
REMARK Flexibility Score: inf
ROOT
ATOM      1  C   UNL     1      46.420   4.673 130.760  1.00  0.00     0.000 C 
ENDROOT
BRANCH   1   2
ATOM      2  C   UNL     1      47.568   5.006 129.796  1.00  0.00     0.000 C 
BRANCH   2   3
ATOM      3  C   UNL     1      47.132   5.922 128.639  1.00  0.00     0.000 C 
BRANCH   3   4
ATOM      4  C   UNL     1      46.470   7.248 129.069  1.00  0.00     0.000 C 
BRANCH   4   5
ATOM      5  C   UNL     1      45.035   7.458 128.553  1.00  0.00     0.006 C 
BRANCH   5   6
ATOM      6  C   UNL     1      44.647   6.465 127.451  1.00  0.00     0.053 C 
BRANCH   6   7
ATOM      7  C   UNL     1      43.203   6.094 127.567  1.00  0.00     0.041 C 
ATOM      8  O   UNL     1      42.630   5.476 126.631  1.00  0.00    -0.550 OA
ATOM      9  O   UNL     1      42.474   6.477 128.687  1.00  0.00    -0.550 OA
ENDBRANCH   6   7
ENDBRANCH   5   6
ENDBRANCH   4   5
ENDBRANCH   3   4
ENDBRANCH   2   3
ENDBRANCH   1   2
BRANCH   1  10
ATOM     10  C   UNL     1      46.955   4.399 132.175  1.00  0.00     0.000 C 
BRANCH  10  11
ATOM     11  C   UNL     1      46.647   2.974 132.662  1.00  0.00    -0.000 C 
BRANCH  11  12
ATOM     12  C   UNL     1      45.883   2.959 133.998  1.00  0.00    -0.000 C 
BRANCH  12  13
ATOM     13  C   UNL     1      44.577   2.153 133.922  1.00  0.00    -0.000 C 
BRANCH  13  14
ATOM     14  C   UNL     1      43.990   2.104 132.503  1.00  0.00    -0.000 C 
BRANCH  14  15
ATOM     15  C   UNL     1      43.740   0.657 132.061  1.00  0.00    -0.000 C 
BRANCH  15  16
ATOM     16  C   UNL     1      42.243   0.327 132.077  1.00  0.00    -0.003 C 
ATOM     17  C   UNL     1      41.858  -0.429 133.345  1.00  0.00     0.004 C 
ENDBRANCH  15  16
ENDBRANCH  14  15
ENDBRANCH  13  14
ENDBRANCH  12  13
ENDBRANCH  11  12
ENDBRANCH  10  11
ENDBRANCH   1  10
TORSDOF 13
ENDMDL
MODEL 4
REMARK VINA RESULT:    -4.963      2.578      5.997
REMARK INTER + INTRA:          -9.969
REMARK INTER:                  -8.558
REMARK INTRA:                  -1.411
REMARK UNBOUND:                -1.234
REMARK SMILES CCCCCCCCCCCCCCC(=O)[O-]
REMARK SMILES IDX 9 1 10 2 11 3 12 4 13 5 14 6 15 7 16 8 17 9 8 10 7 11 6 12
REMARK SMILES IDX 5 13 4 14 3 15 2 16 1 17
REMARK H PARENT
REMARK Flexibility Score: inf
ROOT
ATOM      1  C   UNL     1      47.717   4.613 130.313  1.00  0.00     0.000 C 
ENDROOT
BRANCH   1   2
ATOM      2  C   UNL     1      47.136   5.903 129.714  1.00  0.00     0.000 C 
BRANCH   2   3
ATOM      3  C   UNL     1      46.870   5.794 128.202  1.00  0.00     0.000 C 
BRANCH   3   4
ATOM      4  C   UNL     1      46.148   4.506 127.756  1.00  0.00     0.000 C 
BRANCH   4   5
ATOM      5  C   UNL     1      44.683   4.696 127.324  1.00  0.00     0.006 C 
BRANCH   5   6
ATOM      6  C   UNL     1      44.255   6.168 127.304  1.00  0.00     0.053 C 
BRANCH   6   7
ATOM      7  C   UNL     1      43.197   6.419 128.331  1.00  0.00     0.041 C 
ATOM      8  O   UNL     1      42.000   6.591 127.979  1.00  0.00    -0.550 OA
ATOM      9  O   UNL     1      43.540   6.513 129.674  1.00  0.00    -0.550 OA
ENDBRANCH   6   7
ENDBRANCH   5   6
ENDBRANCH   4   5
ENDBRANCH   3   4
ENDBRANCH   2   3
ENDBRANCH   1   2
BRANCH   1  10
ATOM     10  C   UNL     1      46.977   4.227 131.604  1.00  0.00     0.000 C 
BRANCH  10  11
ATOM     11  C   UNL     1      45.451   4.183 131.424  1.00  0.00    -0.000 C 
BRANCH  11  12
ATOM     12  C   UNL     1      44.708   3.934 132.748  1.00  0.00    -0.000 C 
BRANCH  12  13
ATOM     13  C   UNL     1      45.634   3.404 133.854  1.00  0.00    -0.000 C 
BRANCH  13  14
ATOM     14  C   UNL     1      45.084   2.143 134.537  1.00  0.00    -0.000 C 
BRANCH  14  15
ATOM     15  C   UNL     1      43.670   1.821 134.039  1.00  0.00    -0.000 C 
BRANCH  15  16
ATOM     16  C   UNL     1      43.622   0.442 133.369  1.00  0.00    -0.003 C 
ATOM     17  C   UNL     1      43.404   0.568 131.865  1.00  0.00     0.004 C 
ENDBRANCH  15  16
ENDBRANCH  14  15
ENDBRANCH  13  14
ENDBRANCH  12  13
ENDBRANCH  11  12
ENDBRANCH  10  11
ENDBRANCH   1  10
TORSDOF 13
ENDMDL
MODEL 5
REMARK VINA RESULT:    -4.962      0.979      1.976
REMARK INTER + INTRA:          -9.967
REMARK INTER:                  -8.816
REMARK INTRA:                  -1.151
REMARK UNBOUND:                -1.234
REMARK SMILES CCCCCCCCCCCCCCC(=O)[O-]
REMARK SMILES IDX 9 1 10 2 11 3 12 4 13 5 14 6 15 7 16 8 17 9 8 10 7 11 6 12
REMARK SMILES IDX 5 13 4 14 3 15 2 16 1 17
REMARK H PARENT
REMARK Flexibility Score: inf
ROOT
ATOM      1  C   UNL     1      47.777   4.356 131.294  1.00  0.00     0.000 C 
ENDROOT
BRANCH   1   2
ATOM      2  C   UNL     1      47.028   3.217 132.001  1.00  0.00     0.000 C 
BRANCH   2   3
ATOM      3  C   UNL     1      45.874   3.718 132.887  1.00  0.00     0.000 C 
BRANCH   3   4
ATOM      4  C   UNL     1      45.725   2.992 134.240  1.00  0.00     0.000 C 
BRANCH   4   5
ATOM      5  C   UNL     1      44.590   1.954 134.301  1.00  0.00     0.006 C 
BRANCH   5   6
ATOM      6  C   UNL     1      43.676   1.999 133.071  1.00  0.00     0.053 C 
BRANCH   6   7
ATOM      7  C   UNL     1      43.841   0.759 132.251  1.00  0.00     0.041 C 
ATOM      8  O   UNL     1      42.910   0.366 131.500  1.00  0.00    -0.550 OA
ATOM      9  O   UNL     1      45.006   0.007 132.354  1.00  0.00    -0.550 OA
ENDBRANCH   6   7
ENDBRANCH   5   6
ENDBRANCH   4   5
ENDBRANCH   3   4
ENDBRANCH   2   3
ENDBRANCH   1   2
BRANCH   1  10
ATOM     10  C   UNL     1      46.799   5.264 130.531  1.00  0.00     0.000 C 
BRANCH  10  11
ATOM     11  C   UNL     1      46.560   4.800 129.085  1.00  0.00    -0.000 C 
BRANCH  11  12
ATOM     12  C   UNL     1      46.842   5.908 128.055  1.00  0.00    -0.000 C 
BRANCH  12  13
ATOM     13  C   UNL     1      46.285   7.273 128.490  1.00  0.00    -0.000 C 
BRANCH  13  14
ATOM     14  C   UNL     1      44.868   7.534 127.959  1.00  0.00    -0.000 C 
BRANCH  14  15
ATOM     15  C   UNL     1      43.813   7.187 129.016  1.00  0.00    -0.000 C 
BRANCH  15  16
ATOM     16  C   UNL     1      42.602   6.494 128.381  1.00  0.00    -0.003 C 
ATOM     17  C   UNL     1      43.008   5.701 127.143  1.00  0.00     0.004 C 
ENDBRANCH  15  16
ENDBRANCH  14  15
ENDBRANCH  13  14
ENDBRANCH  12  13
ENDBRANCH  11  12
ENDBRANCH  10  11
ENDBRANCH   1  10
TORSDOF 13
ENDMDL
MODEL 6
REMARK VINA RESULT:    -4.936      2.933      6.375
REMARK INTER + INTRA:          -9.922
REMARK INTER:                  -8.717
REMARK INTRA:                  -1.204
REMARK UNBOUND:                -1.234
REMARK SMILES CCCCCCCCCCCCCCC(=O)[O-]
REMARK SMILES IDX 9 1 10 2 11 3 12 4 13 5 14 6 15 7 16 8 17 9 8 10 7 11 6 12
REMARK SMILES IDX 5 13 4 14 3 15 2 16 1 17
REMARK H PARENT
REMARK Flexibility Score: inf
ROOT
ATOM      1  C   UNL     1      45.518   4.035 131.596  1.00  0.00     0.000 C 
ENDROOT
BRANCH   1   2
ATOM      2  C   UNL     1      47.012   4.386 131.669  1.00  0.00     0.000 C 
BRANCH   2   3
ATOM      3  C   UNL     1      47.582   4.858 130.320  1.00  0.00     0.000 C 
BRANCH   3   4
ATOM      4  C   UNL     1      46.581   5.596 129.408  1.00  0.00     0.000 C 
BRANCH   4   5
ATOM      5  C   UNL     1      46.340   4.938 128.038  1.00  0.00     0.006 C 
BRANCH   5   6
ATOM      6  C   UNL     1      44.873   4.553 127.812  1.00  0.00     0.053 C 
BRANCH   6   7
ATOM      7  C   UNL     1      44.135   5.673 127.151  1.00  0.00     0.041 C 
ATOM      8  O   UNL     1      44.408   6.001 125.966  1.00  0.00    -0.550 OA
ATOM      9  O   UNL     1      43.178   6.389 127.860  1.00  0.00    -0.550 OA
ENDBRANCH   6   7
ENDBRANCH   5   6
ENDBRANCH   4   5
ENDBRANCH   3   4
ENDBRANCH   2   3
ENDBRANCH   1   2
BRANCH   1  10
ATOM     10  C   UNL     1      44.866   4.123 132.985  1.00  0.00     0.000 C 
BRANCH  10  11
ATOM     11  C   UNL     1      45.854   3.829 134.125  1.00  0.00    -0.000 C 
BRANCH  11  12
ATOM     12  C   UNL     1      45.591   2.471 134.800  1.00  0.00    -0.000 C 
BRANCH  12  13
ATOM     13  C   UNL     1      44.201   1.908 134.468  1.00  0.00    -0.000 C 
BRANCH  13  14
ATOM     14  C   UNL     1      44.258   0.484 133.893  1.00  0.00    -0.000 C 
BRANCH  14  15
ATOM     15  C   UNL     1      44.234   0.510 132.360  1.00  0.00    -0.000 C 
BRANCH  15  16
ATOM     16  C   UNL     1      42.797   0.438 131.830  1.00  0.00    -0.003 C 
ATOM     17  C   UNL     1      41.879  -0.270 132.820  1.00  0.00     0.004 C 
ENDBRANCH  15  16
ENDBRANCH  14  15
ENDBRANCH  13  14
ENDBRANCH  12  13
ENDBRANCH  11  12
ENDBRANCH  10  11
ENDBRANCH   1  10
TORSDOF 13
ENDMDL
MODEL 7
REMARK VINA RESULT:    -4.880      2.928      6.471
REMARK INTER + INTRA:          -9.822
REMARK INTER:                  -8.785
REMARK INTRA:                  -1.038
REMARK UNBOUND:                -1.234
REMARK SMILES CCCCCCCCCCCCCCC(=O)[O-]
REMARK SMILES IDX 9 1 10 2 11 3 12 4 13 5 14 6 15 7 16 8 17 9 8 10 7 11 6 12
REMARK SMILES IDX 5 13 4 14 3 15 2 16 1 17
REMARK H PARENT
REMARK Flexibility Score: inf
ROOT
ATOM      1  C   UNL     1      46.154   4.195 131.603  1.00  0.00     0.000 C 
ENDROOT
BRANCH   1   2
ATOM      2  C   UNL     1      47.357   4.618 130.748  1.00  0.00     0.000 C 
BRANCH   2   3
ATOM      3  C   UNL     1      46.972   5.566 129.599  1.00  0.00     0.000 C 
BRANCH   3   4
ATOM      4  C   UNL     1      46.675   4.875 128.252  1.00  0.00     0.000 C 
BRANCH   4   5
ATOM      5  C   UNL     1      45.210   4.957 127.786  1.00  0.00     0.006 C 
BRANCH   5   6
ATOM      6  C   UNL     1      44.422   6.065 128.494  1.00  0.00     0.053 C 
BRANCH   6   7
ATOM      7  C   UNL     1      43.048   6.183 127.913  1.00  0.00     0.041 C 
ATOM      8  O   UNL     1      42.131   6.749 128.563  1.00  0.00    -0.550 OA
ATOM      9  O   UNL     1      42.768   5.621 126.673  1.00  0.00    -0.550 OA
ENDBRANCH   6   7
ENDBRANCH   5   6
ENDBRANCH   4   5
ENDBRANCH   3   4
ENDBRANCH   2   3
ENDBRANCH   1   2
BRANCH   1  10
ATOM     10  C   UNL     1      46.613   3.433 132.856  1.00  0.00     0.000 C 
BRANCH  10  11
ATOM     11  C   UNL     1      45.605   3.528 134.013  1.00  0.00    -0.000 C 
BRANCH  11  12
ATOM     12  C   UNL     1      46.001   2.653 135.215  1.00  0.00    -0.000 C 
BRANCH  12  13
ATOM     13  C   UNL     1      44.836   1.792 135.727  1.00  0.00    -0.000 C 
BRANCH  13  14
ATOM     14  C   UNL     1      43.790   1.500 134.641  1.00  0.00    -0.000 C 
BRANCH  14  15
ATOM     15  C   UNL     1      44.114   0.195 133.903  1.00  0.00    -0.000 C 
BRANCH  15  16
ATOM     16  C   UNL     1      44.231   0.430 132.393  1.00  0.00    -0.003 C 
ATOM     17  C   UNL     1      42.866   0.362 131.717  1.00  0.00     0.004 C 
ENDBRANCH  15  16
ENDBRANCH  14  15
ENDBRANCH  13  14
ENDBRANCH  12  13
ENDBRANCH  11  12
ENDBRANCH  10  11
ENDBRANCH   1  10
TORSDOF 13
ENDMDL
MODEL 8
REMARK VINA RESULT:    -4.670      6.423      8.995
REMARK INTER + INTRA:          -9.452
REMARK INTER:                  -8.140
REMARK INTRA:                  -1.312
REMARK UNBOUND:                -1.234
REMARK SMILES CCCCCCCCCCCCCCC(=O)[O-]
REMARK SMILES IDX 9 1 10 2 11 3 12 4 13 5 14 6 15 7 16 8 17 9 8 10 7 11 6 12
REMARK SMILES IDX 5 13 4 14 3 15 2 16 1 17
REMARK H PARENT
REMARK Flexibility Score: inf
ROOT
ATOM      1  C   UNL     1      46.294   7.879 125.998  1.00  0.00     0.000 C 
ENDROOT
BRANCH   1   2
ATOM      2  C   UNL     1      46.597   7.805 124.494  1.00  0.00     0.000 C 
BRANCH   2   3
ATOM      3  C   UNL     1      47.808   8.661 124.085  1.00  0.00     0.000 C 
BRANCH   3   4
ATOM      4  C   UNL     1      47.493  10.142 123.792  1.00  0.00     0.000 C 
BRANCH   4   5
ATOM      5  C   UNL     1      47.207  10.469 122.315  1.00  0.00     0.006 C 
BRANCH   5   6
ATOM      6  C   UNL     1      45.711  10.456 121.982  1.00  0.00     0.053 C 
BRANCH   6   7
ATOM      7  C   UNL     1      45.055  11.706 122.477  1.00  0.00     0.041 C 
ATOM      8  O   UNL     1      44.260  11.662 123.453  1.00  0.00    -0.550 OA
ATOM      9  O   UNL     1      45.281  12.914 121.827  1.00  0.00    -0.550 OA
ENDBRANCH   6   7
ENDBRANCH   5   6
ENDBRANCH   4   5
ENDBRANCH   3   4
ENDBRANCH   2   3
ENDBRANCH   1   2
BRANCH   1  10
ATOM     10  C   UNL     1      47.356   7.121 126.809  1.00  0.00     0.000 C 
BRANCH  10  11
ATOM     11  C   UNL     1      47.103   7.181 128.324  1.00  0.00    -0.000 C 
BRANCH  11  12
ATOM     12  C   UNL     1      46.684   5.820 128.907  1.00  0.00    -0.000 C 
BRANCH  12  13
ATOM     13  C   UNL     1      46.231   4.829 127.824  1.00  0.00    -0.000 C 
BRANCH  13  14
ATOM     14  C   UNL     1      44.730   4.511 127.900  1.00  0.00    -0.000 C 
BRANCH  14  15
ATOM     15  C   UNL     1      43.980   5.111 126.704  1.00  0.00    -0.000 C 
BRANCH  15  16
ATOM     16  C   UNL     1      42.723   5.861 127.161  1.00  0.00    -0.003 C 
ATOM     17  C   UNL     1      43.018   6.746 128.368  1.00  0.00     0.004 C 
ENDBRANCH  15  16
ENDBRANCH  14  15
ENDBRANCH  13  14
ENDBRANCH  12  13
ENDBRANCH  11  12
ENDBRANCH  10  11
ENDBRANCH   1  10
TORSDOF 13
ENDMDL
MODEL 9
REMARK VINA RESULT:    -4.648      5.208      6.597
REMARK INTER + INTRA:          -9.413
REMARK INTER:                  -8.035
REMARK INTRA:                  -1.378
REMARK UNBOUND:                -1.234
REMARK SMILES CCCCCCCCCCCCCCC(=O)[O-]
REMARK SMILES IDX 9 1 10 2 11 3 12 4 13 5 14 6 15 7 16 8 17 9 8 10 7 11 6 12
REMARK SMILES IDX 5 13 4 14 3 15 2 16 1 17
REMARK H PARENT
REMARK Flexibility Score: inf
ROOT
ATOM      1  C   UNL     1      46.502   7.905 125.932  1.00  0.00     0.000 C 
ENDROOT
BRANCH   1   2
ATOM      2  C   UNL     1      47.880   7.445 126.430  1.00  0.00     0.000 C 
BRANCH   2   3
ATOM      3  C   UNL     1      47.871   7.020 127.909  1.00  0.00     0.000 C 
BRANCH   3   4
ATOM      4  C   UNL     1      46.483   7.027 128.583  1.00  0.00     0.000 C 
BRANCH   4   5
ATOM      5  C   UNL     1      45.957   5.644 129.006  1.00  0.00     0.006 C 
BRANCH   5   6
ATOM      6  C   UNL     1      45.404   4.832 127.829  1.00  0.00     0.053 C 
BRANCH   6   7
ATOM      7  C   UNL     1      44.128   5.434 127.333  1.00  0.00     0.041 C 
ATOM      8  O   UNL     1      43.253   5.829 128.149  1.00  0.00    -0.550 OA
ATOM      9  O   UNL     1      43.882   5.514 125.967  1.00  0.00    -0.550 OA
ENDBRANCH   6   7
ENDBRANCH   5   6
ENDBRANCH   4   5
ENDBRANCH   3   4
ENDBRANCH   2   3
ENDBRANCH   1   2
BRANCH   1  10
ATOM     10  C   UNL     1      46.458   7.940 124.396  1.00  0.00     0.000 C 
BRANCH  10  11
ATOM     11  C   UNL     1      47.650   8.695 123.784  1.00  0.00    -0.000 C 
BRANCH  11  12
ATOM     12  C   UNL     1      47.234  10.023 123.128  1.00  0.00    -0.000 C 
BRANCH  12  13
ATOM     13  C   UNL     1      46.979  11.135 124.157  1.00  0.00    -0.000 C 
BRANCH  13  14
ATOM     14  C   UNL     1      45.531  11.648 124.131  1.00  0.00    -0.000 C 
BRANCH  14  15
ATOM     15  C   UNL     1      44.741  11.005 122.985  1.00  0.00    -0.000 C 
BRANCH  15  16
ATOM     16  C   UNL     1      44.189  12.071 122.031  1.00  0.00    -0.003 C 
ATOM     17  C   UNL     1      45.299  12.678 121.180  1.00  0.00     0.004 C 
ENDBRANCH  15  16
ENDBRANCH  14  15
ENDBRANCH  13  14
ENDBRANCH  12  13
ENDBRANCH  11  12
ENDBRANCH  10  11
ENDBRANCH   1  10
TORSDOF 13
ENDMDL
