MODEL 1
REMARK VINA RESULT:    -3.950      0.000      0.000
REMARK INTER + INTRA:          -5.812
REMARK INTER:                  -5.336
REMARK INTRA:                  -0.476
REMARK UNBOUND:                -0.476
REMARK SMILES CCCCCCCC(=O)[O-]
REMARK SMILES IDX 5 1 6 2 7 3 8 4 9 5 10 6 4 7 3 8 2 9 1 10
REMARK H PARENT
REMARK Flexibility Score: inf
ROOT
ATOM      1  C   UNL     1      29.426   0.177  31.446  1.00  0.00     0.000 C 
ENDROOT
BRANCH   1   2
ATOM      2  C   UNL     1      29.974  -0.677  30.290  1.00  0.00     0.006 C 
BRANCH   2   3
ATOM      3  C   UNL     1      29.060  -1.860  29.945  1.00  0.00     0.053 C 
BRANCH   3   4
ATOM      4  C   UNL     1      29.867  -3.109  29.779  1.00  0.00     0.041 C 
ATOM      5  O   UNL     1      29.297  -4.204  29.534  1.00  0.00    -0.550 OA
ATOM      6  O   UNL     1      31.246  -3.073  29.944  1.00  0.00    -0.550 OA
ENDBRANCH   3   4
ENDBRANCH   2   3
ENDBRANCH   1   2
BRANCH   1   7
ATOM      7  C   UNL     1      27.983  -0.198  31.822  1.00  0.00     0.000 C 
BRANCH   7   8
ATOM      8  C   UNL     1      26.946   0.815  31.301  1.00  0.00    -0.000 C 
BRANCH   8   9
ATOM      9  C   UNL     1      26.024   0.287  30.188  1.00  0.00    -0.003 C 
ATOM     10  C   UNL     1      26.512   0.644  28.784  1.00  0.00     0.004 C 
ENDBRANCH   8   9
ENDBRANCH   7   8
ENDBRANCH   1   7
TORSDOF 6
ENDMDL
MODEL 2
REMARK VINA RESULT:    -3.941      4.189      5.190
REMARK INTER + INTRA:          -5.800
REMARK INTER:                  -5.323
REMARK INTRA:                  -0.477
REMARK UNBOUND:                -0.476
REMARK SMILES CCCCCCCC(=O)[O-]
REMARK SMILES IDX 5 1 6 2 7 3 8 4 9 5 10 6 4 7 3 8 2 9 1 10
REMARK H PARENT
REMARK Flexibility Score: inf
ROOT
ATOM      1  C   UNL     1      29.716   0.787  30.548  1.00  0.00     0.000 C 
ENDROOT
BRANCH   1   2
ATOM      2  C   UNL     1      29.173   1.703  31.658  1.00  0.00     0.006 C 
BRANCH   2   3
ATOM      3  C   UNL     1      28.157   2.726  31.135  1.00  0.00     0.053 C 
BRANCH   3   4
ATOM      4  C   UNL     1      28.388   4.061  31.772  1.00  0.00     0.041 C 
ATOM      5  O   UNL     1      27.641   5.035  31.490  1.00  0.00    -0.550 OA
ATOM      6  O   UNL     1      29.457   4.242  32.640  1.00  0.00    -0.550 OA
ENDBRANCH   3   4
ENDBRANCH   2   3
ENDBRANCH   1   2
BRANCH   1   7
ATOM      7  C   UNL     1      29.035   1.038  29.192  1.00  0.00     0.000 C 
BRANCH   7   8
ATOM      8  C   UNL     1      28.110  -0.118  28.764  1.00  0.00    -0.000 C 
BRANCH   8   9
ATOM      9  C   UNL     1      26.608   0.217  28.768  1.00  0.00    -0.003 C 
ATOM     10  C   UNL     1      25.938  -0.052  30.116  1.00  0.00     0.004 C 
ENDBRANCH   8   9
ENDBRANCH   7   8
ENDBRANCH   1   7
TORSDOF 6
ENDMDL
MODEL 3
REMARK VINA RESULT:    -3.908      2.063      3.480
REMARK INTER + INTRA:          -5.755
REMARK INTER:                  -5.277
REMARK INTRA:                  -0.478
REMARK UNBOUND:                -0.476
REMARK SMILES CCCCCCCC(=O)[O-]
REMARK SMILES IDX 5 1 6 2 7 3 8 4 9 5 10 6 4 7 3 8 2 9 1 10
REMARK H PARENT
REMARK Flexibility Score: inf
ROOT
ATOM      1  C   UNL     1      26.851   0.028  29.325  1.00  0.00     0.000 C 
ENDROOT
BRANCH   1   2
ATOM      2  C   UNL     1      26.389  -0.992  30.381  1.00  0.00     0.006 C 
BRANCH   2   3
ATOM      3  C   UNL     1      27.497  -1.977  30.775  1.00  0.00     0.053 C 
BRANCH   3   4
ATOM      4  C   UNL     1      26.965  -3.375  30.799  1.00  0.00     0.041 C 
ATOM      5  O   UNL     1      25.725  -3.582  30.746  1.00  0.00    -0.550 OA
ATOM      6  O   UNL     1      27.837  -4.449  30.929  1.00  0.00    -0.550 OA
ENDBRANCH   3   4
ENDBRANCH   2   3
ENDBRANCH   1   2
BRANCH   1   7
ATOM      7  C   UNL     1      28.309  -0.197  28.888  1.00  0.00     0.000 C 
BRANCH   7   8
ATOM      8  C   UNL     1      29.244   0.951  29.310  1.00  0.00    -0.000 C 
BRANCH   8   9
ATOM      9  C   UNL     1      30.242   0.598  30.427  1.00  0.00    -0.003 C 
ATOM     10  C   UNL     1      29.671   0.807  31.829  1.00  0.00     0.004 C 
ENDBRANCH   8   9
ENDBRANCH   7   8
ENDBRANCH   1   7
TORSDOF 6
ENDMDL
MODEL 4
REMARK VINA RESULT:    -3.901      3.577      4.957
REMARK INTER + INTRA:          -5.745
REMARK INTER:                  -5.158
REMARK INTRA:                  -0.587
REMARK UNBOUND:                -0.476
REMARK SMILES CCCCCCCC(=O)[O-]
REMARK SMILES IDX 5 1 6 2 7 3 8 4 9 5 10 6 4 7 3 8 2 9 1 10
REMARK H PARENT
REMARK Flexibility Score: inf
ROOT
ATOM      1  C   UNL     1      26.542  -0.883  30.165  1.00  0.00     0.000 C 
ENDROOT
BRANCH   1   2
ATOM      2  C   UNL     1      26.201   0.614  30.065  1.00  0.00     0.006 C 
BRANCH   2   3
ATOM      3  C   UNL     1      26.860   1.290  28.855  1.00  0.00     0.053 C 
BRANCH   3   4
ATOM      4  C   UNL     1      27.208   2.709  29.179  1.00  0.00     0.041 C 
ATOM      5  O   UNL     1      27.912   2.975  30.188  1.00  0.00    -0.550 OA
ATOM      6  O   UNL     1      26.715   3.742  28.392  1.00  0.00    -0.550 OA
ENDBRANCH   3   4
ENDBRANCH   2   3
ENDBRANCH   1   2
BRANCH   1   7
ATOM      7  C   UNL     1      27.944  -1.129  30.748  1.00  0.00     0.000 C 
BRANCH   7   8
ATOM      8  C   UNL     1      28.290  -0.170  31.902  1.00  0.00    -0.000 C 
BRANCH   8   9
ATOM      9  C   UNL     1      29.660   0.520  31.785  1.00  0.00    -0.003 C 
ATOM     10  C   UNL     1      30.314   0.328  30.416  1.00  0.00     0.004 C 
ENDBRANCH   8   9
ENDBRANCH   7   8
ENDBRANCH   1   7
TORSDOF 6
ENDMDL
MODEL 5
REMARK VINA RESULT:    -3.844      2.776      4.437
REMARK INTER + INTRA:          -5.668
REMARK INTER:                  -5.172
REMARK INTRA:                  -0.496
REMARK UNBOUND:                -0.476
REMARK SMILES CCCCCCCC(=O)[O-]
REMARK SMILES IDX 5 1 6 2 7 3 8 4 9 5 10 6 4 7 3 8 2 9 1 10
REMARK H PARENT
REMARK Flexibility Score: inf
ROOT
ATOM      1  C   UNL     1      28.109  -0.208  31.974  1.00  0.00     0.000 C 
ENDROOT
BRANCH   1   2
ATOM      2  C   UNL     1      27.022   0.820  31.619  1.00  0.00     0.006 C 
BRANCH   2   3
ATOM      3  C   UNL     1      26.150   0.374  30.437  1.00  0.00     0.053 C 
BRANCH   3   4
ATOM      4  C   UNL     1      26.615   1.026  29.173  1.00  0.00     0.041 C 
ATOM      5  O   UNL     1      27.434   1.981  29.216  1.00  0.00    -0.550 OA
ATOM      6  O   UNL     1      26.106   0.611  27.949  1.00  0.00    -0.550 OA
ENDBRANCH   3   4
ENDBRANCH   2   3
ENDBRANCH   1   2
BRANCH   1   7
ATOM      7  C   UNL     1      29.500   0.205  31.461  1.00  0.00     0.000 C 
BRANCH   7   8
ATOM      8  C   UNL     1      30.014  -0.705  30.329  1.00  0.00    -0.000 C 
BRANCH   8   9
ATOM      9  C   UNL     1      29.044  -1.819  29.899  1.00  0.00    -0.003 C 
ATOM     10  C   UNL     1      29.744  -3.147  29.614  1.00  0.00     0.004 C 
ENDBRANCH   8   9
ENDBRANCH   7   8
ENDBRANCH   1   7
TORSDOF 6
ENDMDL
MODEL 6
REMARK VINA RESULT:    -3.813      1.852      3.039
REMARK INTER + INTRA:          -5.627
REMARK INTER:                  -5.087
REMARK INTRA:                  -0.540
REMARK UNBOUND:                -0.476
REMARK SMILES CCCCCCCC(=O)[O-]
REMARK SMILES IDX 5 1 6 2 7 3 8 4 9 5 10 6 4 7 3 8 2 9 1 10
REMARK H PARENT
REMARK Flexibility Score: inf
ROOT
ATOM      1  C   UNL     1      26.892   0.846  31.537  1.00  0.00     0.000 C 
ENDROOT
BRANCH   1   2
ATOM      2  C   UNL     1      27.914  -0.240  31.915  1.00  0.00     0.006 C 
BRANCH   2   3
ATOM      3  C   UNL     1      29.360   0.268  31.869  1.00  0.00     0.053 C 
BRANCH   3   4
ATOM      4  C   UNL     1      30.044  -0.219  30.631  1.00  0.00     0.041 C 
ATOM      5  O   UNL     1      31.120   0.312  30.250  1.00  0.00    -0.550 OA
ATOM      6  O   UNL     1      29.467  -1.227  29.869  1.00  0.00    -0.550 OA
ENDBRANCH   3   4
ENDBRANCH   2   3
ENDBRANCH   1   2
BRANCH   1   7
ATOM      7  C   UNL     1      26.212   0.569  30.185  1.00  0.00     0.000 C 
BRANCH   7   8
ATOM      8  C   UNL     1      26.984   1.166  28.993  1.00  0.00    -0.000 C 
BRANCH   8   9
ATOM      9  C   UNL     1      27.782   2.443  29.311  1.00  0.00    -0.003 C 
ATOM     10  C   UNL     1      27.110   3.715  28.791  1.00  0.00     0.004 C 
ENDBRANCH   8   9
ENDBRANCH   7   8
ENDBRANCH   1   7
TORSDOF 6
ENDMDL
MODEL 7
REMARK VINA RESULT:    -3.785      2.913      3.966
REMARK INTER + INTRA:          -5.589
REMARK INTER:                  -5.119
REMARK INTRA:                  -0.470
REMARK UNBOUND:                -0.476
REMARK SMILES CCCCCCCC(=O)[O-]
REMARK SMILES IDX 5 1 6 2 7 3 8 4 9 5 10 6 4 7 3 8 2 9 1 10
REMARK H PARENT
REMARK Flexibility Score: inf
ROOT
ATOM      1  C   UNL     1      28.069  -0.070  28.751  1.00  0.00     0.000 C 
ENDROOT
BRANCH   1   2
ATOM      2  C   UNL     1      29.056   1.062  29.083  1.00  0.00     0.006 C 
BRANCH   2   3
ATOM      3  C   UNL     1      30.044   0.677  30.192  1.00  0.00     0.053 C 
BRANCH   3   4
ATOM      4  C   UNL     1      29.588   1.223  31.508  1.00  0.00     0.041 C 
ATOM      5  O   UNL     1      30.029   0.738  32.583  1.00  0.00    -0.550 OA
ATOM      6  O   UNL     1      28.638   2.236  31.549  1.00  0.00    -0.550 OA
ENDBRANCH   3   4
ENDBRANCH   2   3
ENDBRANCH   1   2
BRANCH   1   7
ATOM      7  C   UNL     1      26.710   0.110  29.448  1.00  0.00     0.000 C 
BRANCH   7   8
ATOM      8  C   UNL     1      26.347  -1.073  30.366  1.00  0.00    -0.000 C 
BRANCH   8   9
ATOM      9  C   UNL     1      27.531  -1.969  30.769  1.00  0.00    -0.003 C 
ATOM     10  C   UNL     1      27.130  -3.427  30.995  1.00  0.00     0.004 C 
ENDBRANCH   8   9
ENDBRANCH   7   8
ENDBRANCH   1   7
TORSDOF 6
ENDMDL
MODEL 8
REMARK VINA RESULT:    -3.771      1.811      2.941
REMARK INTER + INTRA:          -5.569
REMARK INTER:                  -4.971
REMARK INTRA:                  -0.598
REMARK UNBOUND:                -0.476
REMARK SMILES CCCCCCCC(=O)[O-]
REMARK SMILES IDX 5 1 6 2 7 3 8 4 9 5 10 6 4 7 3 8 2 9 1 10
REMARK H PARENT
REMARK Flexibility Score: inf
ROOT
ATOM      1  C   UNL     1      27.767   2.268  31.008  1.00  0.00     0.000 C 
ENDROOT
BRANCH   1   2
ATOM      2  C   UNL     1      29.155   1.914  31.570  1.00  0.00     0.006 C 
BRANCH   2   3
ATOM      3  C   UNL     1      29.332   0.408  31.803  1.00  0.00     0.053 C 
BRANCH   3   4
ATOM      4  C   UNL     1      30.116  -0.203  30.684  1.00  0.00     0.041 C 
ATOM      5  O   UNL     1      31.098   0.411  30.190  1.00  0.00    -0.550 OA
ATOM      6  O   UNL     1      29.733  -1.428  30.154  1.00  0.00    -0.550 OA
ENDBRANCH   3   4
ENDBRANCH   2   3
ENDBRANCH   1   2
BRANCH   1   7
ATOM      7  C   UNL     1      27.706   2.151  29.476  1.00  0.00     0.000 C 
BRANCH   7   8
ATOM      8  C   UNL     1      26.877   0.943  29.001  1.00  0.00    -0.000 C 
BRANCH   8   9
ATOM      9  C   UNL     1      25.975   0.311  30.076  1.00  0.00    -0.003 C 
ATOM     10  C   UNL     1      26.302  -1.159  30.344  1.00  0.00     0.004 C 
ENDBRANCH   8   9
ENDBRANCH   7   8
ENDBRANCH   1   7
TORSDOF 6
ENDMDL
MODEL 9
REMARK VINA RESULT:    -3.757      3.000      4.390
REMARK INTER + INTRA:          -5.550
REMARK INTER:                  -4.972
REMARK INTRA:                  -0.579
REMARK UNBOUND:                -0.476
REMARK SMILES CCCCCCCC(=O)[O-]
REMARK SMILES IDX 5 1 6 2 7 3 8 4 9 5 10 6 4 7 3 8 2 9 1 10
REMARK H PARENT
REMARK Flexibility Score: inf
ROOT
ATOM      1  C   UNL     1      27.871  -1.274  31.086  1.00  0.00     0.000 C 
ENDROOT
BRANCH   1   2
ATOM      2  C   UNL     1      26.549  -1.005  30.347  1.00  0.00     0.006 C 
BRANCH   2   3
ATOM      3  C   UNL     1      26.154   0.477  30.365  1.00  0.00     0.053 C 
BRANCH   3   4
ATOM      4  C   UNL     1      26.519   1.129  29.069  1.00  0.00     0.041 C 
ATOM      5  O   UNL     1      26.241   0.568  27.977  1.00  0.00    -0.550 OA
ATOM      6  O   UNL     1      27.211   2.334  29.067  1.00  0.00    -0.550 OA
ENDBRANCH   3   4
ENDBRANCH   2   3
ENDBRANCH   1   2
BRANCH   1   7
ATOM      7  C   UNL     1      29.090  -1.216  30.150  1.00  0.00     0.000 C 
BRANCH   7   8
ATOM      8  C   UNL     1      29.961   0.034  30.379  1.00  0.00    -0.000 C 
BRANCH   8   9
ATOM      9  C   UNL     1      29.875   0.635  31.794  1.00  0.00    -0.003 C 
ATOM     10  C   UNL     1      29.229   2.020  31.818  1.00  0.00     0.004 C 
ENDBRANCH   8   9
ENDBRANCH   7   8
ENDBRANCH   1   7
TORSDOF 6
ENDMDL
