MODEL 1
REMARK VINA RESULT:    -5.695      0.000      0.000
REMARK INTER + INTRA:         -10.373
REMARK INTER:                  -8.691
REMARK INTRA:                  -1.683
REMARK UNBOUND:                -1.683
REMARK SMILES CC(=O)CCC=C(C)CCC=C(C)CCC=C(C)C
REMARK SMILES IDX 10 1 11 2 12 3 13 4 14 5 15 6 16 7 18 8 17 9 19 10 9 11 7 12
REMARK SMILES IDX 6 13 8 14 5 15 4 16 2 17 3 18 1 19
REMARK H PARENT
REMARK Flexibility Score: inf
ROOT
ATOM      1  C   UNL     1      99.901 115.808 126.516  1.00  0.00     0.032 C 
ENDROOT
BRANCH   1   2
ATOM      2  C   UNL     1     100.991 114.766 126.605  1.00  0.00    -0.028 C 
ATOM      3  C   UNL     1     100.788 113.431 126.532  1.00  0.00    -0.077 C 
ATOM      4  C   UNL     1      99.423 112.841 126.278  1.00  0.00     0.039 C 
BRANCH   3   5
ATOM      5  C   UNL     1     101.973 112.497 126.661  1.00  0.00     0.034 C 
BRANCH   5   6
ATOM      6  C   UNL     1     102.771 112.405 125.354  1.00  0.00     0.032 C 
BRANCH   6   7
ATOM      7  C   UNL     1     102.185 111.370 124.422  1.00  0.00    -0.028 C 
ATOM      8  C   UNL     1     101.120 113.064 122.914  1.00  0.00     0.039 C 
ATOM      9  C   UNL     1     101.466 111.649 123.313  1.00  0.00    -0.080 C 
ATOM     10  C   UNL     1     101.003 110.502 122.451  1.00  0.00     0.039 C 
ENDBRANCH   6   7
ENDBRANCH   5   6
ENDBRANCH   3   5
ENDBRANCH   1   2
BRANCH   1  11
ATOM     11  C   UNL     1     100.449 117.190 126.132  1.00  0.00     0.034 C 
BRANCH  11  12
ATOM     12  C   UNL     1     100.009 117.604 124.742  1.00  0.00    -0.077 C 
ATOM     13  C   UNL     1      99.464 116.679 123.920  1.00  0.00    -0.028 C 
ATOM     14  C   UNL     1     100.155 119.051 124.337  1.00  0.00     0.039 C 
BRANCH  13  15
ATOM     15  C   UNL     1      99.003 116.942 122.505  1.00  0.00     0.035 C 
BRANCH  15  16
ATOM     16  C   UNL     1      99.938 116.275 121.491  1.00  0.00     0.079 C 
BRANCH  16  17
ATOM     17  C   UNL     1     100.418 117.251 120.450  1.00  0.00     0.130 C 
ATOM     18  O   UNL     1      99.759 117.426 119.435  1.00  0.00    -0.300 OA
ATOM     19  C   UNL     1     101.703 117.997 120.642  1.00  0.00     0.087 C 
ENDBRANCH  16  17
ENDBRANCH  15  16
ENDBRANCH  13  15
ENDBRANCH  11  12
ENDBRANCH   1  11
TORSDOF 9
ENDMDL
MODEL 2
REMARK VINA RESULT:    -5.655      2.726      4.038
REMARK INTER + INTRA:         -10.314
REMARK INTER:                  -9.292
REMARK INTRA:                  -1.021
REMARK UNBOUND:                -1.683
REMARK SMILES CC(=O)CCC=C(C)CCC=C(C)CCC=C(C)C
REMARK SMILES IDX 10 1 11 2 12 3 13 4 14 5 15 6 16 7 18 8 17 9 19 10 9 11 7 12
REMARK SMILES IDX 6 13 8 14 5 15 4 16 2 17 3 18 1 19
REMARK H PARENT
REMARK Flexibility Score: inf
ROOT
ATOM      1  C   UNL     1      99.127 116.914 123.568  1.00  0.00     0.032 C 
ENDROOT
BRANCH   1   2
ATOM      2  C   UNL     1      99.599 115.889 124.571  1.00  0.00    -0.028 C 
ATOM      3  C   UNL     1     100.074 116.180 125.804  1.00  0.00    -0.077 C 
ATOM      4  C   UNL     1     100.112 117.592 126.335  1.00  0.00     0.039 C 
BRANCH   3   5
ATOM      5  C   UNL     1     100.538 115.051 126.700  1.00  0.00     0.034 C 
BRANCH   5   6
ATOM      6  C   UNL     1      99.981 113.696 126.245  1.00  0.00     0.032 C 
BRANCH   6   7
ATOM      7  C   UNL     1     101.065 112.646 126.188  1.00  0.00    -0.028 C 
ATOM      8  C   UNL     1     100.972 112.423 123.694  1.00  0.00     0.039 C 
ATOM      9  C   UNL     1     101.538 112.084 125.054  1.00  0.00    -0.080 C 
ATOM     10  C   UNL     1     102.668 111.093 125.161  1.00  0.00     0.039 C 
ENDBRANCH   6   7
ENDBRANCH   5   6
ENDBRANCH   3   5
ENDBRANCH   1   2
BRANCH   1  11
ATOM     11  C   UNL     1     100.019 116.958 122.319  1.00  0.00     0.034 C 
BRANCH  11  12
ATOM     12  C   UNL     1      99.291 117.547 121.127  1.00  0.00    -0.077 C 
ATOM     13  C   UNL     1      98.107 118.174 121.321  1.00  0.00    -0.028 C 
ATOM     14  C   UNL     1      99.934 117.452 119.765  1.00  0.00     0.039 C 
BRANCH  13  15
ATOM     15  C   UNL     1      97.262 118.786 120.228  1.00  0.00     0.035 C 
BRANCH  15  16
ATOM     16  C   UNL     1      96.305 117.750 119.631  1.00  0.00     0.079 C 
BRANCH  16  17
ATOM     17  C   UNL     1      94.931 118.326 119.406  1.00  0.00     0.130 C 
ATOM     18  O   UNL     1      94.698 119.479 119.734  1.00  0.00    -0.300 OA
ATOM     19  C   UNL     1      93.847 117.488 118.798  1.00  0.00     0.087 C 
ENDBRANCH  16  17
ENDBRANCH  15  16
ENDBRANCH  13  15
ENDBRANCH  11  12
ENDBRANCH   1  11
TORSDOF 9
ENDMDL
MODEL 3
REMARK VINA RESULT:    -5.634      2.422      6.520
REMARK INTER + INTRA:         -10.281
REMARK INTER:                  -8.325
REMARK INTRA:                  -1.957
REMARK UNBOUND:                -1.683
REMARK SMILES CC(=O)CCC=C(C)CCC=C(C)CCC=C(C)C
REMARK SMILES IDX 10 1 11 2 12 3 13 4 14 5 15 6 16 7 18 8 17 9 19 10 9 11 7 12
REMARK SMILES IDX 6 13 8 14 5 15 4 16 2 17 3 18 1 19
REMARK H PARENT
REMARK Flexibility Score: inf
ROOT
ATOM      1  C   UNL     1     101.009 116.110 126.129  1.00  0.00     0.032 C 
ENDROOT
BRANCH   1   2
ATOM      2  C   UNL     1     100.019 116.373 125.019  1.00  0.00    -0.028 C 
ATOM      3  C   UNL     1     100.234 116.094 123.713  1.00  0.00    -0.077 C 
ATOM      4  C   UNL     1     101.492 115.409 123.236  1.00  0.00     0.039 C 
BRANCH   3   5
ATOM      5  C   UNL     1      99.161 116.433 122.700  1.00  0.00     0.034 C 
BRANCH   5   6
ATOM      6  C   UNL     1      99.341 117.847 122.131  1.00  0.00     0.032 C 
BRANCH   6   7
ATOM      7  C   UNL     1      98.458 118.844 122.843  1.00  0.00    -0.028 C 
ATOM      8  C   UNL     1     100.342 119.854 124.151  1.00  0.00     0.039 C 
ATOM      9  C   UNL     1      98.894 119.766 123.731  1.00  0.00    -0.080 C 
ATOM     10  C   UNL     1      97.894 120.733 124.309  1.00  0.00     0.039 C 
ENDBRANCH   6   7
ENDBRANCH   5   6
ENDBRANCH   3   5
ENDBRANCH   1   2
BRANCH   1  11
ATOM     11  C   UNL     1     100.507 115.044 127.114  1.00  0.00     0.034 C 
BRANCH  11  12
ATOM     12  C   UNL     1     100.765 113.640 126.604  1.00  0.00    -0.077 C 
ATOM     13  C   UNL     1     102.032 113.166 126.591  1.00  0.00    -0.028 C 
ATOM     14  C   UNL     1      99.589 112.800 126.168  1.00  0.00     0.039 C 
BRANCH  13  15
ATOM     15  C   UNL     1     102.440 111.800 126.090  1.00  0.00     0.035 C 
BRANCH  15  16
ATOM     16  C   UNL     1     102.936 111.872 124.643  1.00  0.00     0.079 C 
BRANCH  16  17
ATOM     17  C   UNL     1     102.084 111.039 123.720  1.00  0.00     0.130 C 
ATOM     18  O   UNL     1     102.325 109.849 123.584  1.00  0.00    -0.300 OA
ATOM     19  C   UNL     1     100.955 111.665 122.960  1.00  0.00     0.087 C 
ENDBRANCH  16  17
ENDBRANCH  15  16
ENDBRANCH  13  15
ENDBRANCH  11  12
ENDBRANCH   1  11
TORSDOF 9
ENDMDL
MODEL 4
REMARK VINA RESULT:    -5.593      1.604      4.768
REMARK INTER + INTRA:         -10.218
REMARK INTER:                  -8.549
REMARK INTRA:                  -1.669
REMARK UNBOUND:                -1.683
REMARK SMILES CC(=O)CCC=C(C)CCC=C(C)CCC=C(C)C
REMARK SMILES IDX 10 1 11 2 12 3 13 4 14 5 15 6 16 7 18 8 17 9 19 10 9 11 7 12
REMARK SMILES IDX 6 13 8 14 5 15 4 16 2 17 3 18 1 19
REMARK H PARENT
REMARK Flexibility Score: inf
ROOT
ATOM      1  C   UNL     1     101.328 112.324 125.730  1.00  0.00     0.032 C 
ENDROOT
BRANCH   1   2
ATOM      2  C   UNL     1     100.830 112.746 124.369  1.00  0.00    -0.028 C 
ATOM      3  C   UNL     1     101.587 113.351 123.424  1.00  0.00    -0.077 C 
ATOM      4  C   UNL     1     103.061 113.604 123.621  1.00  0.00     0.039 C 
BRANCH   3   5
ATOM      5  C   UNL     1     100.949 113.743 122.108  1.00  0.00     0.034 C 
BRANCH   5   6
ATOM      6  C   UNL     1     101.056 115.251 121.850  1.00  0.00     0.032 C 
BRANCH   6   7
ATOM      7  C   UNL     1      99.742 115.824 121.374  1.00  0.00    -0.028 C 
ATOM      8  C   UNL     1     100.812 117.682 120.078  1.00  0.00     0.039 C 
ATOM      9  C   UNL     1      99.616 116.895 120.560  1.00  0.00    -0.080 C 
ATOM     10  C   UNL     1      98.234 117.305 120.123  1.00  0.00     0.039 C 
ENDBRANCH   6   7
ENDBRANCH   5   6
ENDBRANCH   3   5
ENDBRANCH   1   2
BRANCH   1  11
ATOM     11  C   UNL     1     100.683 113.137 126.862  1.00  0.00     0.034 C 
BRANCH  11  12
ATOM     12  C   UNL     1     100.992 114.616 126.741  1.00  0.00    -0.077 C 
ATOM     13  C   UNL     1      99.988 115.477 126.456  1.00  0.00    -0.028 C 
ATOM     14  C   UNL     1     102.406 115.083 126.985  1.00  0.00     0.039 C 
BRANCH  13  15
ATOM     15  C   UNL     1     100.152 116.970 126.283  1.00  0.00     0.035 C 
BRANCH  15  16
ATOM     16  C   UNL     1     100.180 117.350 124.799  1.00  0.00     0.079 C 
BRANCH  16  17
ATOM     17  C   UNL     1     100.112 118.842 124.605  1.00  0.00     0.130 C 
ATOM     18  O   UNL     1     100.331 119.319 123.502  1.00  0.00    -0.300 OA
ATOM     19  C   UNL     1      99.794 119.744 125.759  1.00  0.00     0.087 C 
ENDBRANCH  16  17
ENDBRANCH  15  16
ENDBRANCH  13  15
ENDBRANCH  11  12
ENDBRANCH   1  11
TORSDOF 9
ENDMDL
MODEL 5
REMARK VINA RESULT:    -5.442      1.759      5.515
REMARK INTER + INTRA:          -9.988
REMARK INTER:                  -8.561
REMARK INTRA:                  -1.427
REMARK UNBOUND:                -1.683
REMARK SMILES CC(=O)CCC=C(C)CCC=C(C)CCC=C(C)C
REMARK SMILES IDX 10 1 11 2 12 3 13 4 14 5 15 6 16 7 18 8 17 9 19 10 9 11 7 12
REMARK SMILES IDX 6 13 8 14 5 15 4 16 2 17 3 18 1 19
REMARK H PARENT
REMARK Flexibility Score: inf
ROOT
ATOM      1  C   UNL     1     100.079 115.823 126.575  1.00  0.00     0.032 C 
ENDROOT
BRANCH   1   2
ATOM      2  C   UNL     1     100.107 116.657 125.317  1.00  0.00    -0.028 C 
ATOM      3  C   UNL     1      99.979 118.003 125.282  1.00  0.00    -0.077 C 
ATOM      4  C   UNL     1      99.863 118.830 126.540  1.00  0.00     0.039 C 
BRANCH   3   5
ATOM      5  C   UNL     1     100.001 118.712 123.944  1.00  0.00     0.034 C 
BRANCH   5   6
ATOM      6  C   UNL     1     100.336 117.751 122.796  1.00  0.00     0.032 C 
BRANCH   6   7
ATOM      7  C   UNL     1      99.149 117.546 121.884  1.00  0.00    -0.028 C 
ATOM      8  C   UNL     1     100.521 117.592 119.788  1.00  0.00     0.039 C 
ATOM      9  C   UNL     1      99.218 117.448 120.538  1.00  0.00    -0.080 C 
ATOM     10  C   UNL     1      97.947 117.181 119.773  1.00  0.00     0.039 C 
ENDBRANCH   6   7
ENDBRANCH   5   6
ENDBRANCH   3   5
ENDBRANCH   1   2
BRANCH   1  11
ATOM     11  C   UNL     1     101.274 114.863 126.662  1.00  0.00     0.034 C 
BRANCH  11  12
ATOM     12  C   UNL     1     100.979 113.534 125.996  1.00  0.00    -0.077 C 
ATOM     13  C   UNL     1     101.925 112.963 125.216  1.00  0.00    -0.028 C 
ATOM     14  C   UNL     1      99.650 112.869 126.263  1.00  0.00     0.039 C 
BRANCH  13  15
ATOM     15  C   UNL     1     101.763 111.657 124.473  1.00  0.00     0.035 C 
BRANCH  15  16
ATOM     16  C   UNL     1     100.970 111.858 123.177  1.00  0.00     0.079 C 
BRANCH  16  17
ATOM     17  C   UNL     1     101.606 112.897 122.291  1.00  0.00     0.130 C 
ATOM     18  O   UNL     1     102.729 112.709 121.848  1.00  0.00    -0.300 OA
ATOM     19  C   UNL     1     100.876 114.165 121.964  1.00  0.00     0.087 C 
ENDBRANCH  16  17
ENDBRANCH  15  16
ENDBRANCH  13  15
ENDBRANCH  11  12
ENDBRANCH   1  11
TORSDOF 9
ENDMDL
MODEL 6
REMARK VINA RESULT:    -5.368      2.120      2.905
REMARK INTER + INTRA:          -9.876
REMARK INTER:                  -8.463
REMARK INTRA:                  -1.413
REMARK UNBOUND:                -1.683
REMARK SMILES CC(=O)CCC=C(C)CCC=C(C)CCC=C(C)C
REMARK SMILES IDX 10 1 11 2 12 3 13 4 14 5 15 6 16 7 18 8 17 9 19 10 9 11 7 12
REMARK SMILES IDX 6 13 8 14 5 15 4 16 2 17 3 18 1 19
REMARK H PARENT
REMARK Flexibility Score: inf
ROOT
ATOM      1  C   UNL     1      99.890 113.850 125.694  1.00  0.00     0.032 C 
ENDROOT
BRANCH   1   2
ATOM      2  C   UNL     1     100.802 112.744 126.169  1.00  0.00    -0.028 C 
ATOM      3  C   UNL     1     102.070 112.552 125.739  1.00  0.00    -0.077 C 
ATOM      4  C   UNL     1     102.737 113.494 124.766  1.00  0.00     0.039 C 
BRANCH   3   5
ATOM      5  C   UNL     1     102.865 111.385 126.284  1.00  0.00     0.034 C 
BRANCH   5   6
ATOM      6  C   UNL     1     103.787 110.777 125.219  1.00  0.00     0.032 C 
BRANCH   6   7
ATOM      7  C   UNL     1     103.273 109.438 124.745  1.00  0.00    -0.028 C 
ATOM      8  C   UNL     1     102.104 110.389 122.744  1.00  0.00     0.039 C 
ATOM      9  C   UNL     1     102.540 109.244 123.626  1.00  0.00    -0.080 C 
ATOM     10  C   UNL     1     102.157 107.835 123.256  1.00  0.00     0.039 C 
ENDBRANCH   6   7
ENDBRANCH   5   6
ENDBRANCH   3   5
ENDBRANCH   1   2
BRANCH   1  11
ATOM     11  C   UNL     1      99.968 115.093 126.592  1.00  0.00     0.034 C 
BRANCH  11  12
ATOM     12  C   UNL     1     100.146 116.362 125.783  1.00  0.00    -0.077 C 
ATOM     13  C   UNL     1     100.127 116.291 124.432  1.00  0.00    -0.028 C 
ATOM     14  C   UNL     1     100.296 117.674 126.516  1.00  0.00     0.039 C 
BRANCH  13  15
ATOM     15  C   UNL     1     100.315 117.467 123.501  1.00  0.00     0.035 C 
BRANCH  15  16
ATOM     16  C   UNL     1      98.979 118.159 123.215  1.00  0.00     0.079 C 
BRANCH  16  17
ATOM     17  C   UNL     1      98.865 119.472 123.942  1.00  0.00     0.130 C 
ATOM     18  O   UNL     1      97.811 119.776 124.482  1.00  0.00    -0.300 OA
ATOM     19  C   UNL     1     100.029 120.415 123.995  1.00  0.00     0.087 C 
ENDBRANCH  16  17
ENDBRANCH  15  16
ENDBRANCH  13  15
ENDBRANCH  11  12
ENDBRANCH   1  11
TORSDOF 9
ENDMDL
MODEL 7
REMARK VINA RESULT:    -5.332      3.250      6.718
REMARK INTER + INTRA:          -9.820
REMARK INTER:                  -9.044
REMARK INTRA:                  -0.776
REMARK UNBOUND:                -1.683
REMARK SMILES CC(=O)CCC=C(C)CCC=C(C)CCC=C(C)C
REMARK SMILES IDX 10 1 11 2 12 3 13 4 14 5 15 6 16 7 18 8 17 9 19 10 9 11 7 12
REMARK SMILES IDX 6 13 8 14 5 15 4 16 2 17 3 18 1 19
REMARK H PARENT
REMARK Flexibility Score: inf
ROOT
ATOM      1  C   UNL     1      99.181 117.682 122.865  1.00  0.00     0.032 C 
ENDROOT
BRANCH   1   2
ATOM      2  C   UNL     1     100.062 117.479 121.656  1.00  0.00    -0.028 C 
ATOM      3  C   UNL     1      99.611 117.208 120.410  1.00  0.00    -0.077 C 
ATOM      4  C   UNL     1      98.138 117.150 120.086  1.00  0.00     0.039 C 
BRANCH   3   5
ATOM      5  C   UNL     1     100.611 117.003 119.291  1.00  0.00     0.034 C 
BRANCH   5   6
ATOM      6  C   UNL     1     100.230 115.816 118.397  1.00  0.00     0.032 C 
BRANCH   6   7
ATOM      7  C   UNL     1      99.894 116.267 116.995  1.00  0.00    -0.028 C 
ATOM      8  C   UNL     1      99.677 113.937 116.101  1.00  0.00     0.039 C 
ATOM      9  C   UNL     1      99.619 115.439 115.962  1.00  0.00    -0.080 C 
ATOM     10  C   UNL     1      99.240 116.048 114.637  1.00  0.00     0.039 C 
ENDBRANCH   6   7
ENDBRANCH   5   6
ENDBRANCH   3   5
ENDBRANCH   1   2
BRANCH   1  11
ATOM     11  C   UNL     1      99.845 118.574 123.924  1.00  0.00     0.034 C 
BRANCH  11  12
ATOM     12  C   UNL     1      99.917 117.888 125.273  1.00  0.00    -0.077 C 
ATOM     13  C   UNL     1     100.096 116.548 125.322  1.00  0.00    -0.028 C 
ATOM     14  C   UNL     1      99.830 118.732 126.521  1.00  0.00     0.039 C 
BRANCH  13  15
ATOM     15  C   UNL     1     100.164 115.729 126.591  1.00  0.00     0.035 C 
BRANCH  15  16
ATOM     16  C   UNL     1     101.475 114.941 126.666  1.00  0.00     0.079 C 
BRANCH  16  17
ATOM     17  C   UNL     1     101.258 113.472 126.417  1.00  0.00     0.130 C 
ATOM     18  O   UNL     1     102.220 112.736 126.261  1.00  0.00    -0.300 OA
ATOM     19  C   UNL     1      99.869 112.912 126.343  1.00  0.00     0.087 C 
ENDBRANCH  16  17
ENDBRANCH  15  16
ENDBRANCH  13  15
ENDBRANCH  11  12
ENDBRANCH   1  11
TORSDOF 9
ENDMDL
MODEL 8
REMARK VINA RESULT:    -5.321      1.971      2.688
REMARK INTER + INTRA:          -9.804
REMARK INTER:                  -8.638
REMARK INTRA:                  -1.166
REMARK UNBOUND:                -1.683
REMARK SMILES CC(=O)CCC=C(C)CCC=C(C)CCC=C(C)C
REMARK SMILES IDX 10 1 11 2 12 3 13 4 14 5 15 6 16 7 18 8 17 9 19 10 9 11 7 12
REMARK SMILES IDX 6 13 8 14 5 15 4 16 2 17 3 18 1 19
REMARK H PARENT
REMARK Flexibility Score: inf
ROOT
ATOM      1  C   UNL     1      99.841 113.797 126.145  1.00  0.00     0.032 C 
ENDROOT
BRANCH   1   2
ATOM      2  C   UNL     1     101.019 112.935 126.531  1.00  0.00    -0.028 C 
ATOM      3  C   UNL     1     101.750 112.196 125.664  1.00  0.00    -0.077 C 
ATOM      4  C   UNL     1     101.495 112.221 124.177  1.00  0.00     0.039 C 
BRANCH   3   5
ATOM      5  C   UNL     1     102.893 111.355 126.194  1.00  0.00     0.034 C 
BRANCH   5   6
ATOM      6  C   UNL     1     103.652 110.650 125.063  1.00  0.00     0.032 C 
BRANCH   6   7
ATOM      7  C   UNL     1     103.839 109.180 125.357  1.00  0.00    -0.028 C 
ATOM      8  C   UNL     1     102.425 108.426 123.431  1.00  0.00     0.039 C 
ATOM      9  C   UNL     1     103.318 108.172 124.623  1.00  0.00    -0.080 C 
ATOM     10  C   UNL     1     103.649 106.755 125.013  1.00  0.00     0.039 C 
ENDBRANCH   6   7
ENDBRANCH   5   6
ENDBRANCH   3   5
ENDBRANCH   1   2
BRANCH   1  11
ATOM     11  C   UNL     1      99.957 115.222 126.706  1.00  0.00     0.034 C 
BRANCH  11  12
ATOM     12  C   UNL     1     100.134 116.248 125.605  1.00  0.00    -0.077 C 
ATOM     13  C   UNL     1     100.166 115.835 124.317  1.00  0.00    -0.028 C 
ATOM     14  C   UNL     1     100.226 117.707 125.982  1.00  0.00     0.039 C 
BRANCH  13  15
ATOM     15  C   UNL     1     100.360 116.739 123.122  1.00  0.00     0.035 C 
BRANCH  15  16
ATOM     16  C   UNL     1      99.126 116.721 122.215  1.00  0.00     0.079 C 
BRANCH  16  17
ATOM     17  C   UNL     1      99.479 116.337 120.802  1.00  0.00     0.130 C 
ATOM     18  O   UNL     1     100.347 115.501 120.601  1.00  0.00    -0.300 OA
ATOM     19  C   UNL     1      98.784 116.985 119.643  1.00  0.00     0.087 C 
ENDBRANCH  16  17
ENDBRANCH  15  16
ENDBRANCH  13  15
ENDBRANCH  11  12
ENDBRANCH   1  11
TORSDOF 9
ENDMDL
MODEL 9
REMARK VINA RESULT:    -5.306      1.237      4.675
REMARK INTER + INTRA:          -9.780
REMARK INTER:                  -7.981
REMARK INTRA:                  -1.798
REMARK UNBOUND:                -1.683
REMARK SMILES CC(=O)CCC=C(C)CCC=C(C)CCC=C(C)C
REMARK SMILES IDX 10 1 11 2 12 3 13 4 14 5 15 6 16 7 18 8 17 9 19 10 9 11 7 12
REMARK SMILES IDX 6 13 8 14 5 15 4 16 2 17 3 18 1 19
REMARK H PARENT
REMARK Flexibility Score: inf
ROOT
ATOM      1  C   UNL     1     102.435 112.541 125.800  1.00  0.00     0.032 C 
ENDROOT
BRANCH   1   2
ATOM      2  C   UNL     1     101.779 113.834 126.221  1.00  0.00    -0.028 C 
ATOM      3  C   UNL     1     100.444 114.013 126.354  1.00  0.00    -0.077 C 
ATOM      4  C   UNL     1      99.461 112.885 126.157  1.00  0.00     0.039 C 
BRANCH   3   5
ATOM      5  C   UNL     1      99.920 115.374 126.760  1.00  0.00     0.034 C 
BRANCH   5   6
ATOM      6  C   UNL     1     100.809 116.508 126.234  1.00  0.00     0.032 C 
BRANCH   6   7
ATOM      7  C   UNL     1     100.276 117.071 124.938  1.00  0.00    -0.028 C 
ATOM      8  C   UNL     1      99.740 119.312 125.920  1.00  0.00     0.039 C 
ATOM      9  C   UNL     1      99.817 118.331 124.774  1.00  0.00    -0.080 C 
ATOM     10  C   UNL     1      99.376 118.760 123.399  1.00  0.00     0.039 C 
ENDBRANCH   6   7
ENDBRANCH   5   6
ENDBRANCH   3   5
ENDBRANCH   1   2
BRANCH   1  11
ATOM     11  C   UNL     1     102.982 112.607 124.367  1.00  0.00     0.034 C 
BRANCH  11  12
ATOM     12  C   UNL     1     101.878 112.825 123.352  1.00  0.00    -0.077 C 
ATOM     13  C   UNL     1     101.728 114.048 122.793  1.00  0.00    -0.028 C 
ATOM     14  C   UNL     1     101.008 111.653 122.965  1.00  0.00     0.039 C 
BRANCH  13  15
ATOM     15  C   UNL     1     100.660 114.415 121.789  1.00  0.00     0.035 C 
BRANCH  15  16
ATOM     16  C   UNL     1     100.828 115.862 121.314  1.00  0.00     0.079 C 
BRANCH  16  17
ATOM     17  C   UNL     1      99.661 116.312 120.476  1.00  0.00     0.130 C 
ATOM     18  O   UNL     1      98.534 116.295 120.948  1.00  0.00    -0.300 OA
ATOM     19  C   UNL     1      99.871 116.766 119.063  1.00  0.00     0.087 C 
ENDBRANCH  16  17
ENDBRANCH  15  16
ENDBRANCH  13  15
ENDBRANCH  11  12
ENDBRANCH   1  11
TORSDOF 9
ENDMDL
