MODEL 1
REMARK VINA RESULT:    -6.269      0.000      0.000
REMARK INTER + INTRA:          -9.675
REMARK INTER:                  -8.652
REMARK INTRA:                  -1.023
REMARK UNBOUND:                -1.023
REMARK SMILES O=C([O-])[C@@H]1O[C@@H](Oc2cc3oc(-c4ccccc4)cc(=O)c3c(O)c2O)[C@H](O)[C@@H](O)[C@H]1O
REMARK SMILES IDX 7 1 6 2 4 3 31 4 5 5 29 6 27 7 2 8 1 9 3 10 32 11 30 13
REMARK SMILES IDX 28 15 8 17 25 18 9 19 23 20 10 21 22 22 11 23 20 24 12 25
REMARK SMILES IDX 19 26 21 27 26 28 24 30 13 32 14 33 18 34 15 35 17 36 16 37
REMARK H PARENT 32 12 30 14 28 16 26 29 24 31
REMARK Flexibility Score: inf
ROOT
ATOM      1  O   UNL     1       7.143 -56.452 194.736  1.00  0.00    -0.458 OA
ENDROOT
BRANCH   1   2
ATOM      2  C   UNL     1       7.517 -56.891 196.042  1.00  0.00     0.339 C 
ATOM      3  C   UNL     1       6.758 -56.929 198.308  1.00  0.00     0.199 C 
ATOM      4  C   UNL     1       8.063 -56.272 198.808  1.00  0.00     0.180 C 
ATOM      5  O   UNL     1       6.457 -56.612 196.950  1.00  0.00    -0.328 OA
ATOM      6  C   UNL     1       9.223 -56.571 197.850  1.00  0.00     0.181 C 
ATOM      7  C   UNL     1       8.821 -56.179 196.424  1.00  0.00     0.214 C 
BRANCH   3   8
ATOM      8  C   UNL     1       6.689 -58.408 198.616  1.00  0.00     0.073 C 
ATOM      9  O   UNL     1       7.178 -58.837 199.693  1.00  0.00    -0.547 OA
ATOM     10  O   UNL     1       6.125 -59.318 197.734  1.00  0.00    -0.547 OA
ENDBRANCH   3   8
BRANCH   4  11
ATOM     11  O   UNL     1       7.868 -54.881 198.893  1.00  0.00    -0.387 OA
ATOM     12  H   UNL     1       7.322 -54.610 198.111  1.00  0.00     0.211 HD
ENDBRANCH   4  11
BRANCH   6  13
ATOM     13  O   UNL     1      10.362 -55.849 198.235  1.00  0.00    -0.387 OA
ATOM     14  H   UNL     1      11.129 -56.230 197.737  1.00  0.00     0.211 HD
ENDBRANCH   6  13
BRANCH   7  15
ATOM     15  O   UNL     1       9.829 -56.567 195.524  1.00  0.00    -0.384 OA
ATOM     16  H   UNL     1      10.284 -55.739 195.214  1.00  0.00     0.211 HD
ENDBRANCH   7  15
ENDBRANCH   1   2
BRANCH   1  17
ATOM     17  C   UNL     1       6.215 -57.124 193.935  1.00  0.00     0.172 A 
ATOM     18  C   UNL     1       4.858 -56.763 193.906  1.00  0.00     0.201 A 
ATOM     19  C   UNL     1       6.673 -58.154 193.119  1.00  0.00     0.098 A 
ATOM     20  C   UNL     1       3.952 -57.460 193.083  1.00  0.00     0.176 A 
ATOM     21  C   UNL     1       5.803 -58.836 192.269  1.00  0.00     0.146 A 
ATOM     22  C   UNL     1       4.429 -58.492 192.220  1.00  0.00     0.111 A 
ATOM     23  O   UNL     1       6.295 -59.805 191.502  1.00  0.00    -0.456 OA
ATOM     24  C   UNL     1       3.635 -59.189 191.279  1.00  0.00     0.197 A 
ATOM     25  C   UNL     1       5.563 -60.502 190.639  1.00  0.00     0.138 A 
ATOM     26  C   UNL     1       4.198 -60.208 190.510  1.00  0.00     0.100 A 
ATOM     27  O   UNL     1       2.425 -58.906 191.088  1.00  0.00    -0.289 OA
BRANCH  18  28
ATOM     28  O   UNL     1       4.419 -55.697 194.689  1.00  0.00    -0.502 OA
ATOM     29  H   UNL     1       3.600 -55.750 195.283  1.00  0.00     0.293 HD
ENDBRANCH  18  28
BRANCH  20  30
ATOM     30  O   UNL     1       2.602 -57.107 193.182  1.00  0.00    -0.504 OA
ATOM     31  H   UNL     1       2.254 -56.255 193.601  1.00  0.00     0.293 HD
ENDBRANCH  20  30
BRANCH  25  32
ATOM     32  C   UNL     1       6.221 -61.577 189.850  1.00  0.00     0.017 A 
ATOM     33  C   UNL     1       7.555 -61.973 190.086  1.00  0.00     0.012 A 
ATOM     34  C   UNL     1       5.492 -62.238 188.845  1.00  0.00     0.012 A 
ATOM     35  C   UNL     1       8.148 -62.973 189.309  1.00  0.00     0.001 A 
ATOM     36  C   UNL     1       6.086 -63.245 188.079  1.00  0.00     0.001 A 
ATOM     37  C   UNL     1       7.415 -63.605 188.305  1.00  0.00     0.000 A 
ENDBRANCH  25  32
ENDBRANCH   1  17
TORSDOF 9
ENDMDL
MODEL 2
REMARK VINA RESULT:    -6.228      1.487      2.177
REMARK INTER + INTRA:          -9.617
REMARK INTER:                  -8.674
REMARK INTRA:                  -0.943
REMARK UNBOUND:                -1.023
REMARK SMILES O=C([O-])[C@@H]1O[C@@H](Oc2cc3oc(-c4ccccc4)cc(=O)c3c(O)c2O)[C@H](O)[C@@H](O)[C@H]1O
REMARK SMILES IDX 7 1 6 2 4 3 31 4 5 5 29 6 27 7 2 8 1 9 3 10 32 11 30 13
REMARK SMILES IDX 28 15 8 17 25 18 9 19 23 20 10 21 22 22 11 23 20 24 12 25
REMARK SMILES IDX 19 26 21 27 26 28 24 30 13 32 14 33 18 34 15 35 17 36 16 37
REMARK H PARENT 32 12 30 14 28 16 26 29 24 31
REMARK Flexibility Score: inf
ROOT
ATOM      1  O   UNL     1       6.158 -57.480 195.655  1.00  0.00    -0.458 OA
ENDROOT
BRANCH   1   2
ATOM      2  C   UNL     1       6.038 -58.343 196.786  1.00  0.00     0.339 C 
ATOM      3  C   UNL     1       4.435 -59.224 198.324  1.00  0.00     0.199 C 
ATOM      4  C   UNL     1       5.258 -58.736 199.537  1.00  0.00     0.180 C 
ATOM      5  O   UNL     1       4.666 -58.454 197.145  1.00  0.00    -0.328 OA
ATOM      6  C   UNL     1       6.744 -58.622 199.174  1.00  0.00     0.181 C 
ATOM      7  C   UNL     1       6.898 -57.761 197.916  1.00  0.00     0.214 C 
BRANCH   3   8
ATOM      8  C   UNL     1       4.541 -60.717 198.104  1.00  0.00     0.073 C 
ATOM      9  O   UNL     1       4.019 -61.228 197.079  1.00  0.00    -0.547 OA
ATOM     10  O   UNL     1       5.175 -61.551 199.012  1.00  0.00    -0.547 OA
ENDBRANCH   3   8
BRANCH   4  11
ATOM     11  O   UNL     1       4.772 -57.478 199.939  1.00  0.00    -0.387 OA
ATOM     12  H   UNL     1       5.015 -57.358 200.893  1.00  0.00     0.211 HD
ENDBRANCH   4  11
BRANCH   6  13
ATOM     13  O   UNL     1       7.453 -58.039 200.236  1.00  0.00    -0.387 OA
ATOM     14  H   UNL     1       8.334 -58.490 200.277  1.00  0.00     0.211 HD
ENDBRANCH   6  13
BRANCH   7  15
ATOM     15  O   UNL     1       8.242 -57.758 197.507  1.00  0.00    -0.384 OA
ATOM     16  H   UNL     1       8.427 -56.865 197.108  1.00  0.00     0.211 HD
ENDBRANCH   7  15
ENDBRANCH   1   2
BRANCH   1  17
ATOM     17  C   UNL     1       5.546 -57.736 194.424  1.00  0.00     0.172 A 
ATOM     18  C   UNL     1       4.468 -56.968 193.955  1.00  0.00     0.201 A 
ATOM     19  C   UNL     1       6.058 -58.763 193.635  1.00  0.00     0.098 A 
ATOM     20  C   UNL     1       3.879 -57.252 192.707  1.00  0.00     0.176 A 
ATOM     21  C   UNL     1       5.515 -59.040 192.381  1.00  0.00     0.146 A 
ATOM     22  C   UNL     1       4.427 -58.280 191.884  1.00  0.00     0.111 A 
ATOM     23  O   UNL     1       6.048 -60.024 191.663  1.00  0.00    -0.456 OA
ATOM     24  C   UNL     1       3.987 -58.586 190.575  1.00  0.00     0.197 A 
ATOM     25  C   UNL     1       5.628 -60.359 190.447  1.00  0.00     0.138 A 
ATOM     26  C   UNL     1       4.571 -59.640 189.871  1.00  0.00     0.100 A 
ATOM     27  O   UNL     1       3.089 -57.919 190.000  1.00  0.00    -0.289 OA
BRANCH  18  28
ATOM     28  O   UNL     1       3.996 -55.910 194.730  1.00  0.00    -0.502 OA
ATOM     29  H   UNL     1       3.329 -56.032 195.482  1.00  0.00     0.293 HD
ENDBRANCH  18  28
BRANCH  20  30
ATOM     30  O   UNL     1       2.749 -56.506 192.354  1.00  0.00    -0.504 OA
ATOM     31  H   UNL     1       1.813 -56.878 192.265  1.00  0.00     0.293 HD
ENDBRANCH  20  30
BRANCH  25  32
ATOM     32  C   UNL     1       6.290 -61.493 189.749  1.00  0.00     0.017 A 
ATOM     33  C   UNL     1       7.611 -61.892 190.048  1.00  0.00     0.012 A 
ATOM     34  C   UNL     1       5.577 -62.209 188.771  1.00  0.00     0.012 A 
ATOM     35  C   UNL     1       8.208 -62.948 189.356  1.00  0.00     0.001 A 
ATOM     36  C   UNL     1       6.176 -63.273 188.090  1.00  0.00     0.001 A 
ATOM     37  C   UNL     1       7.493 -63.636 188.376  1.00  0.00     0.000 A 
ENDBRANCH  25  32
ENDBRANCH   1  17
TORSDOF 9
ENDMDL
MODEL 3
REMARK VINA RESULT:    -6.185      2.465      8.392
REMARK INTER + INTRA:          -9.558
REMARK INTER:                  -8.850
REMARK INTRA:                  -0.709
REMARK UNBOUND:                -1.023
REMARK SMILES O=C([O-])[C@@H]1O[C@@H](Oc2cc3oc(-c4ccccc4)cc(=O)c3c(O)c2O)[C@H](O)[C@@H](O)[C@H]1O
REMARK SMILES IDX 7 1 6 2 4 3 31 4 5 5 29 6 27 7 2 8 1 9 3 10 32 11 30 13
REMARK SMILES IDX 28 15 8 17 25 18 9 19 23 20 10 21 22 22 11 23 20 24 12 25
REMARK SMILES IDX 19 26 21 27 26 28 24 30 13 32 14 33 18 34 15 35 17 36 16 37
REMARK H PARENT 32 12 30 14 28 16 26 29 24 31
REMARK Flexibility Score: inf
ROOT
ATOM      1  O   UNL     1       4.871 -59.398 190.247  1.00  0.00    -0.458 OA
ENDROOT
BRANCH   1   2
ATOM      2  C   UNL     1       5.507 -60.662 190.057  1.00  0.00     0.339 C 
ATOM      3  C   UNL     1       7.541 -61.652 189.287  1.00  0.00     0.199 C 
ATOM      4  C   UNL     1       6.781 -62.561 188.295  1.00  0.00     0.180 C 
ATOM      5  O   UNL     1       6.837 -60.451 189.598  1.00  0.00    -0.328 OA
ATOM      6  C   UNL     1       5.347 -62.812 188.779  1.00  0.00     0.181 C 
ATOM      7  C   UNL     1       4.663 -61.471 189.064  1.00  0.00     0.214 C 
BRANCH   3   8
ATOM      8  C   UNL     1       8.036 -62.399 190.506  1.00  0.00     0.073 C 
ATOM      9  O   UNL     1       9.251 -62.719 190.582  1.00  0.00    -0.547 OA
ATOM     10  O   UNL     1       7.186 -62.769 191.538  1.00  0.00    -0.547 OA
ENDBRANCH   3   8
BRANCH   4  11
ATOM     11  O   UNL     1       6.751 -61.933 187.036  1.00  0.00    -0.387 OA
ATOM     12  H   UNL     1       7.417 -61.198 187.055  1.00  0.00     0.211 HD
ENDBRANCH   4  11
BRANCH   6  13
ATOM     13  O   UNL     1       4.626 -63.511 187.799  1.00  0.00    -0.387 OA
ATOM     14  H   UNL     1       4.687 -64.474 188.028  1.00  0.00     0.211 HD
ENDBRANCH   6  13
BRANCH   7  15
ATOM     15  O   UNL     1       3.394 -61.697 189.627  1.00  0.00    -0.384 OA
ATOM     16  H   UNL     1       2.746 -61.125 189.135  1.00  0.00     0.211 HD
ENDBRANCH   7  15
ENDBRANCH   1   2
BRANCH   1  17
ATOM     17  C   UNL     1       5.269 -58.475 191.219  1.00  0.00     0.172 A 
ATOM     18  C   UNL     1       5.506 -57.125 190.910  1.00  0.00     0.201 A 
ATOM     19  C   UNL     1       5.394 -58.915 192.533  1.00  0.00     0.098 A 
ATOM     20  C   UNL     1       5.902 -56.222 191.916  1.00  0.00     0.176 A 
ATOM     21  C   UNL     1       5.750 -58.033 193.553  1.00  0.00     0.146 A 
ATOM     22  C   UNL     1       5.994 -56.666 193.269  1.00  0.00     0.111 A 
ATOM     23  O   UNL     1       5.845 -58.503 194.794  1.00  0.00    -0.456 OA
ATOM     24  C   UNL     1       6.281 -55.831 194.374  1.00  0.00     0.197 A 
ATOM     25  C   UNL     1       6.152 -57.749 195.844  1.00  0.00     0.138 A 
ATOM     26  C   UNL     1       6.384 -56.379 195.654  1.00  0.00     0.100 A 
ATOM     27  O   UNL     1       6.427 -54.589 194.251  1.00  0.00    -0.289 OA
BRANCH  18  28
ATOM     28  O   UNL     1       5.329 -56.684 189.600  1.00  0.00    -0.502 OA
ATOM     29  H   UNL     1       5.972 -56.052 189.139  1.00  0.00     0.293 HD
ENDBRANCH  18  28
BRANCH  20  30
ATOM     30  O   UNL     1       6.212 -54.919 191.514  1.00  0.00    -0.504 OA
ATOM     31  H   UNL     1       5.692 -54.091 191.774  1.00  0.00     0.293 HD
ENDBRANCH  20  30
BRANCH  25  32
ATOM     32  C   UNL     1       6.248 -58.392 197.181  1.00  0.00     0.017 A 
ATOM     33  C   UNL     1       6.914 -57.778 198.264  1.00  0.00     0.012 A 
ATOM     34  C   UNL     1       5.644 -59.645 197.388  1.00  0.00     0.012 A 
ATOM     35  C   UNL     1       7.004 -58.422 199.501  1.00  0.00     0.001 A 
ATOM     36  C   UNL     1       5.727 -60.280 198.630  1.00  0.00     0.001 A 
ATOM     37  C   UNL     1       6.414 -59.673 199.683  1.00  0.00     0.000 A 
ENDBRANCH  25  32
ENDBRANCH   1  17
TORSDOF 9
ENDMDL
MODEL 4
REMARK VINA RESULT:    -6.147      1.653      2.924
REMARK INTER + INTRA:          -9.506
REMARK INTER:                  -8.590
REMARK INTRA:                  -0.916
REMARK UNBOUND:                -1.023
REMARK SMILES O=C([O-])[C@@H]1O[C@@H](Oc2cc3oc(-c4ccccc4)cc(=O)c3c(O)c2O)[C@H](O)[C@@H](O)[C@H]1O
REMARK SMILES IDX 7 1 6 2 4 3 31 4 5 5 29 6 27 7 2 8 1 9 3 10 32 11 30 13
REMARK SMILES IDX 28 15 8 17 25 18 9 19 23 20 10 21 22 22 11 23 20 24 12 25
REMARK SMILES IDX 19 26 21 27 26 28 24 30 13 32 14 33 18 34 15 35 17 36 16 37
REMARK H PARENT 32 12 30 14 28 16 26 29 24 31
REMARK Flexibility Score: inf
ROOT
ATOM      1  O   UNL     1       5.623 -56.614 195.371  1.00  0.00    -0.458 OA
ENDROOT
BRANCH   1   2
ATOM      2  C   UNL     1       5.640 -57.333 196.604  1.00  0.00     0.339 C 
ATOM      3  C   UNL     1       6.640 -59.222 197.671  1.00  0.00     0.199 C 
ATOM      4  C   UNL     1       5.259 -59.807 198.041  1.00  0.00     0.180 C 
ATOM      5  O   UNL     1       6.601 -58.378 196.522  1.00  0.00    -0.328 OA
ATOM      6  C   UNL     1       4.210 -58.694 198.148  1.00  0.00     0.181 C 
ATOM      7  C   UNL     1       4.221 -57.856 196.865  1.00  0.00     0.214 C 
BRANCH   3   8
ATOM      8  C   UNL     1       7.352 -58.605 198.854  1.00  0.00     0.073 C 
ATOM      9  O   UNL     1       8.315 -57.819 198.654  1.00  0.00    -0.547 OA
ATOM     10  O   UNL     1       6.996 -58.897 200.163  1.00  0.00    -0.547 OA
ENDBRANCH   3   8
BRANCH   4  11
ATOM     11  O   UNL     1       4.874 -60.725 197.047  1.00  0.00    -0.387 OA
ATOM     12  H   UNL     1       5.649 -61.321 196.878  1.00  0.00     0.211 HD
ENDBRANCH   4  11
BRANCH   6  13
ATOM     13  O   UNL     1       2.936 -59.252 198.336  1.00  0.00    -0.387 OA
ATOM     14  H   UNL     1       2.963 -60.168 197.959  1.00  0.00     0.211 HD
ENDBRANCH   6  13
BRANCH   7  15
ATOM     15  O   UNL     1       3.353 -56.760 197.007  1.00  0.00    -0.384 OA
ATOM     16  H   UNL     1       3.689 -56.037 196.412  1.00  0.00     0.211 HD
ENDBRANCH   7  15
ENDBRANCH   1   2
BRANCH   1  17
ATOM     17  C   UNL     1       5.056 -57.115 194.195  1.00  0.00     0.172 A 
ATOM     18  C   UNL     1       3.877 -56.582 193.652  1.00  0.00     0.201 A 
ATOM     19  C   UNL     1       5.714 -58.150 193.537  1.00  0.00     0.098 A 
ATOM     20  C   UNL     1       3.336 -57.110 192.463  1.00  0.00     0.176 A 
ATOM     21  C   UNL     1       5.219 -58.666 192.340  1.00  0.00     0.146 A 
ATOM     22  C   UNL     1       4.030 -58.146 191.769  1.00  0.00     0.111 A 
ATOM     23  O   UNL     1       5.892 -59.647 191.745  1.00  0.00    -0.456 OA
ATOM     24  C   UNL     1       3.641 -58.682 190.519  1.00  0.00     0.197 A 
ATOM     25  C   UNL     1       5.527 -60.195 190.591  1.00  0.00     0.138 A 
ATOM     26  C   UNL     1       4.375 -59.722 189.947  1.00  0.00     0.100 A 
ATOM     27  O   UNL     1       2.654 -58.235 189.881  1.00  0.00    -0.289 OA
BRANCH  18  28
ATOM     28  O   UNL     1       3.253 -55.513 194.293  1.00  0.00    -0.502 OA
ATOM     29  H   UNL     1       2.527 -55.634 194.988  1.00  0.00     0.293 HD
ENDBRANCH  18  28
BRANCH  20  30
ATOM     30  O   UNL     1       2.108 -56.592 192.037  1.00  0.00    -0.504 OA
ATOM     31  H   UNL     1       1.995 -55.773 191.455  1.00  0.00     0.293 HD
ENDBRANCH  20  30
BRANCH  25  32
ATOM     32  C   UNL     1       6.350 -61.302 190.033  1.00  0.00     0.017 A 
ATOM     33  C   UNL     1       7.579 -61.688 190.610  1.00  0.00     0.012 A 
ATOM     34  C   UNL     1       5.886 -62.003 188.905  1.00  0.00     0.012 A 
ATOM     35  C   UNL     1       8.336 -62.718 190.045  1.00  0.00     0.001 A 
ATOM     36  C   UNL     1       6.642 -63.040 188.351  1.00  0.00     0.001 A 
ATOM     37  C   UNL     1       7.870 -63.391 188.916  1.00  0.00     0.000 A 
ENDBRANCH  25  32
ENDBRANCH   1  17
TORSDOF 9
ENDMDL
MODEL 5
REMARK VINA RESULT:    -6.094      1.353      2.853
REMARK INTER + INTRA:          -9.433
REMARK INTER:                  -8.644
REMARK INTRA:                  -0.789
REMARK UNBOUND:                -1.023
REMARK SMILES O=C([O-])[C@@H]1O[C@@H](Oc2cc3oc(-c4ccccc4)cc(=O)c3c(O)c2O)[C@H](O)[C@@H](O)[C@H]1O
REMARK SMILES IDX 7 1 6 2 4 3 31 4 5 5 29 6 27 7 2 8 1 9 3 10 32 11 30 13
REMARK SMILES IDX 28 15 8 17 25 18 9 19 23 20 10 21 22 22 11 23 20 24 12 25
REMARK SMILES IDX 19 26 21 27 26 28 24 30 13 32 14 33 18 34 15 35 17 36 16 37
REMARK H PARENT 32 12 30 14 28 16 26 29 24 31
REMARK Flexibility Score: inf
ROOT
ATOM      1  O   UNL     1       6.532 -57.455 195.424  1.00  0.00    -0.458 OA
ENDROOT
BRANCH   1   2
ATOM      2  C   UNL     1       7.558 -56.470 195.542  1.00  0.00     0.339 C 
ATOM      3  C   UNL     1       9.786 -55.975 194.833  1.00  0.00     0.199 C 
ATOM      4  C   UNL     1      10.258 -55.775 196.291  1.00  0.00     0.180 C 
ATOM      5  O   UNL     1       8.660 -56.844 194.724  1.00  0.00    -0.328 OA
ATOM      6  C   UNL     1       9.085 -55.357 197.188  1.00  0.00     0.181 C 
ATOM      7  C   UNL     1       7.937 -56.358 197.024  1.00  0.00     0.214 C 
BRANCH   3   8
ATOM      8  C   UNL     1       9.620 -54.670 194.085  1.00  0.00     0.073 C 
ATOM      9  O   UNL     1       8.805 -54.607 193.129  1.00  0.00    -0.547 OA
ATOM     10  O   UNL     1      10.360 -53.541 194.402  1.00  0.00    -0.547 OA
ENDBRANCH   3   8
BRANCH   4  11
ATOM     11  O   UNL     1      10.805 -56.982 196.761  1.00  0.00    -0.387 OA
ATOM     12  H   UNL     1      10.113 -57.684 196.650  1.00  0.00     0.211 HD
ENDBRANCH   4  11
BRANCH   6  13
ATOM     13  O   UNL     1       9.497 -55.324 198.529  1.00  0.00    -0.387 OA
ATOM     14  H   UNL     1       8.950 -54.632 198.982  1.00  0.00     0.211 HD
ENDBRANCH   6  13
BRANCH   7  15
ATOM     15  O   UNL     1       6.815 -55.912 197.746  1.00  0.00    -0.384 OA
ATOM     16  H   UNL     1       7.035 -55.014 198.110  1.00  0.00     0.211 HD
ENDBRANCH   7  15
ENDBRANCH   1   2
BRANCH   1  17
ATOM     17  C   UNL     1       5.825 -57.693 194.241  1.00  0.00     0.172 A 
ATOM     18  C   UNL     1       4.758 -56.875 193.835  1.00  0.00     0.201 A 
ATOM     19  C   UNL     1       6.228 -58.754 193.435  1.00  0.00     0.098 A 
ATOM     20  C   UNL     1       4.071 -57.143 192.635  1.00  0.00     0.176 A 
ATOM     21  C   UNL     1       5.587 -59.017 192.225  1.00  0.00     0.146 A 
ATOM     22  C   UNL     1       4.508 -58.207 191.792  1.00  0.00     0.111 A 
ATOM     23  O   UNL     1       6.019 -60.036 191.487  1.00  0.00    -0.456 OA
ATOM     24  C   UNL     1       3.964 -58.505 190.520  1.00  0.00     0.197 A 
ATOM     25  C   UNL     1       5.500 -60.362 190.308  1.00  0.00     0.138 A 
ATOM     26  C   UNL     1       4.444 -59.596 189.794  1.00  0.00     0.100 A 
ATOM     27  O   UNL     1       3.064 -57.799 189.998  1.00  0.00    -0.289 OA
BRANCH  18  28
ATOM     28  O   UNL     1       4.395 -55.786 194.625  1.00  0.00    -0.502 OA
ATOM     29  H   UNL     1       4.181 -54.874 194.241  1.00  0.00     0.293 HD
ENDBRANCH  18  28
BRANCH  20  30
ATOM     30  O   UNL     1       2.959 -56.344 192.347  1.00  0.00    -0.504 OA
ATOM     31  H   UNL     1       2.821 -55.399 192.680  1.00  0.00     0.293 HD
ENDBRANCH  20  30
BRANCH  25  32
ATOM     32  C   UNL     1       6.054 -61.537 189.584  1.00  0.00     0.017 A 
ATOM     33  C   UNL     1       7.407 -61.923 189.700  1.00  0.00     0.012 A 
ATOM     34  C   UNL     1       5.204 -62.307 188.769  1.00  0.00     0.012 A 
ATOM     35  C   UNL     1       7.898 -63.020 188.988  1.00  0.00     0.001 A 
ATOM     36  C   UNL     1       5.697 -63.410 188.067  1.00  0.00     0.001 A 
ATOM     37  C   UNL     1       7.045 -63.760 188.169  1.00  0.00     0.000 A 
ENDBRANCH  25  32
ENDBRANCH   1  17
TORSDOF 9
ENDMDL
MODEL 6
REMARK VINA RESULT:    -6.005      3.309      7.660
REMARK INTER + INTRA:          -9.310
REMARK INTER:                  -8.181
REMARK INTRA:                  -1.129
REMARK UNBOUND:                -1.023
REMARK SMILES O=C([O-])[C@@H]1O[C@@H](Oc2cc3oc(-c4ccccc4)cc(=O)c3c(O)c2O)[C@H](O)[C@@H](O)[C@H]1O
REMARK SMILES IDX 7 1 6 2 4 3 31 4 5 5 29 6 27 7 2 8 1 9 3 10 32 11 30 13
REMARK SMILES IDX 28 15 8 17 25 18 9 19 23 20 10 21 22 22 11 23 20 24 12 25
REMARK SMILES IDX 19 26 21 27 26 28 24 30 13 32 14 33 18 34 15 35 17 36 16 37
REMARK H PARENT 32 12 30 14 28 16 26 29 24 31
REMARK Flexibility Score: inf
ROOT
ATOM      1  O   UNL     1       7.939 -56.326 195.182  1.00  0.00    -0.458 OA
ENDROOT
BRANCH   1   2
ATOM      2  C   UNL     1       6.903 -56.128 194.220  1.00  0.00     0.339 C 
ATOM      3  C   UNL     1       6.187 -56.827 192.050  1.00  0.00     0.199 C 
ATOM      4  C   UNL     1       6.105 -55.367 191.553  1.00  0.00     0.180 C 
ATOM      5  O   UNL     1       7.116 -57.003 193.118  1.00  0.00    -0.328 OA
ATOM      6  C   UNL     1       5.862 -54.407 192.725  1.00  0.00     0.181 C 
ATOM      7  C   UNL     1       6.917 -54.650 193.809  1.00  0.00     0.214 C 
BRANCH   3   8
ATOM      8  C   UNL     1       4.828 -57.432 192.322  1.00  0.00     0.073 C 
ATOM      9  O   UNL     1       4.745 -58.474 193.023  1.00  0.00    -0.547 OA
ATOM     10  O   UNL     1       3.663 -56.890 191.800  1.00  0.00    -0.547 OA
ENDBRANCH   3   8
BRANCH   4  11
ATOM     11  O   UNL     1       7.314 -55.036 190.914  1.00  0.00    -0.387 OA
ATOM     12  H   UNL     1       7.208 -54.126 190.533  1.00  0.00     0.211 HD
ENDBRANCH   4  11
BRANCH   6  13
ATOM     13  O   UNL     1       5.938 -53.078 192.280  1.00  0.00    -0.387 OA
ATOM     14  H   UNL     1       5.303 -52.990 191.524  1.00  0.00     0.211 HD
ENDBRANCH   6  13
BRANCH   7  15
ATOM     15  O   UNL     1       6.625 -53.863 194.937  1.00  0.00    -0.384 OA
ATOM     16  H   UNL     1       7.461 -53.388 195.191  1.00  0.00     0.211 HD
ENDBRANCH   7  15
ENDBRANCH   1   2
BRANCH   1  17
ATOM     17  C   UNL     1       7.698 -56.710 196.505  1.00  0.00     0.172 A 
ATOM     18  C   UNL     1       7.964 -55.856 197.588  1.00  0.00     0.201 A 
ATOM     19  C   UNL     1       7.142 -57.965 196.735  1.00  0.00     0.098 A 
ATOM     20  C   UNL     1       7.705 -56.276 198.907  1.00  0.00     0.176 A 
ATOM     21  C   UNL     1       6.843 -58.389 198.029  1.00  0.00     0.146 A 
ATOM     22  C   UNL     1       7.101 -57.547 199.140  1.00  0.00     0.111 A 
ATOM     23  O   UNL     1       6.301 -59.593 198.194  1.00  0.00    -0.456 OA
ATOM     24  C   UNL     1       6.702 -58.031 200.408  1.00  0.00     0.197 A 
ATOM     25  C   UNL     1       5.954 -60.088 199.377  1.00  0.00     0.138 A 
ATOM     26  C   UNL     1       6.153 -59.309 200.526  1.00  0.00     0.100 A 
ATOM     27  O   UNL     1       6.802 -57.334 201.449  1.00  0.00    -0.289 OA
BRANCH  18  28
ATOM     28  O   UNL     1       8.474 -54.583 197.343  1.00  0.00    -0.502 OA
ATOM     29  H   UNL     1       8.245 -54.046 196.515  1.00  0.00     0.293 HD
ENDBRANCH  18  28
BRANCH  20  30
ATOM     30  O   UNL     1       8.087 -55.408 199.937  1.00  0.00    -0.504 OA
ATOM     31  H   UNL     1       8.915 -54.828 199.930  1.00  0.00     0.293 HD
ENDBRANCH  20  30
BRANCH  25  32
ATOM     32  C   UNL     1       5.377 -61.457 199.437  1.00  0.00     0.017 A 
ATOM     33  C   UNL     1       6.031 -62.521 200.095  1.00  0.00     0.012 A 
ATOM     34  C   UNL     1       4.129 -61.705 198.836  1.00  0.00     0.012 A 
ATOM     35  C   UNL     1       5.469 -63.800 200.112  1.00  0.00     0.001 A 
ATOM     36  C   UNL     1       3.566 -62.983 198.865  1.00  0.00     0.001 A 
ATOM     37  C   UNL     1       4.239 -64.032 199.495  1.00  0.00     0.000 A 
ENDBRANCH  25  32
ENDBRANCH   1  17
TORSDOF 9
ENDMDL
MODEL 7
REMARK VINA RESULT:    -5.915      1.698      3.005
REMARK INTER + INTRA:          -9.186
REMARK INTER:                  -8.255
REMARK INTRA:                  -0.931
REMARK UNBOUND:                -1.023
REMARK SMILES O=C([O-])[C@@H]1O[C@@H](Oc2cc3oc(-c4ccccc4)cc(=O)c3c(O)c2O)[C@H](O)[C@@H](O)[C@H]1O
REMARK SMILES IDX 7 1 6 2 4 3 31 4 5 5 29 6 27 7 2 8 1 9 3 10 32 11 30 13
REMARK SMILES IDX 28 15 8 17 25 18 9 19 23 20 10 21 22 22 11 23 20 24 12 25
REMARK SMILES IDX 19 26 21 27 26 28 24 30 13 32 14 33 18 34 15 35 17 36 16 37
REMARK H PARENT 32 12 30 14 28 16 26 29 24 31
REMARK Flexibility Score: inf
ROOT
ATOM      1  O   UNL     1       6.290 -54.867 192.826  1.00  0.00    -0.458 OA
ENDROOT
BRANCH   1   2
ATOM      2  C   UNL     1       7.151 -54.944 193.962  1.00  0.00     0.339 C 
ATOM      3  C   UNL     1       8.951 -56.218 194.881  1.00  0.00     0.199 C 
ATOM      4  C   UNL     1       8.181 -56.448 196.200  1.00  0.00     0.180 C 
ATOM      5  O   UNL     1       8.094 -55.991 193.764  1.00  0.00    -0.328 OA
ATOM      6  C   UNL     1       7.167 -55.322 196.439  1.00  0.00     0.181 C 
ATOM      7  C   UNL     1       6.276 -55.166 195.203  1.00  0.00     0.214 C 
BRANCH   3   8
ATOM      8  C   UNL     1      10.056 -55.193 195.017  1.00  0.00     0.073 C 
ATOM      9  O   UNL     1      10.534 -54.660 193.982  1.00  0.00    -0.547 OA
ATOM     10  O   UNL     1      10.582 -54.837 196.250  1.00  0.00    -0.547 OA
ENDBRANCH   3   8
BRANCH   4  11
ATOM     11  O   UNL     1       7.508 -57.681 196.123  1.00  0.00    -0.387 OA
ATOM     12  H   UNL     1       7.627 -58.139 196.995  1.00  0.00     0.211 HD
ENDBRANCH   4  11
BRANCH   6  13
ATOM     13  O   UNL     1       6.375 -55.621 197.558  1.00  0.00    -0.387 OA
ATOM     14  H   UNL     1       5.431 -55.477 197.291  1.00  0.00     0.211 HD
ENDBRANCH   6  13
BRANCH   7  15
ATOM     15  O   UNL     1       5.430 -54.055 195.366  1.00  0.00    -0.384 OA
ATOM     16  H   UNL     1       6.010 -53.249 195.431  1.00  0.00     0.211 HD
ENDBRANCH   7  15
ENDBRANCH   1   2
BRANCH   1  17
ATOM     17  C   UNL     1       5.456 -55.913 192.420  1.00  0.00     0.172 A 
ATOM     18  C   UNL     1       4.059 -55.840 192.541  1.00  0.00     0.201 A 
ATOM     19  C   UNL     1       6.042 -57.039 191.847  1.00  0.00     0.098 A 
ATOM     20  C   UNL     1       3.249 -56.912 192.118  1.00  0.00     0.176 A 
ATOM     21  C   UNL     1       5.260 -58.097 191.388  1.00  0.00     0.146 A 
ATOM     22  C   UNL     1       3.847 -58.049 191.498  1.00  0.00     0.111 A 
ATOM     23  O   UNL     1       5.869 -59.144 190.838  1.00  0.00    -0.456 OA
ATOM     24  C   UNL     1       3.132 -59.136 190.944  1.00  0.00     0.197 A 
ATOM     25  C   UNL     1       5.223 -60.196 190.346  1.00  0.00     0.138 A 
ATOM     26  C   UNL     1       3.821 -60.217 190.393  1.00  0.00     0.100 A 
ATOM     27  O   UNL     1       1.875 -59.157 190.906  1.00  0.00    -0.289 OA
BRANCH  18  28
ATOM     28  O   UNL     1       3.480 -54.688 193.070  1.00  0.00    -0.502 OA
ATOM     29  H   UNL     1       2.504 -54.452 192.940  1.00  0.00     0.293 HD
ENDBRANCH  18  28
BRANCH  20  30
ATOM     30  O   UNL     1       1.875 -56.805 192.361  1.00  0.00    -0.504 OA
ATOM     31  H   UNL     1       1.221 -56.296 191.781  1.00  0.00     0.293 HD
ENDBRANCH  20  30
BRANCH  25  32
ATOM     32  C   UNL     1       6.015 -61.318 189.775  1.00  0.00     0.017 A 
ATOM     33  C   UNL     1       7.317 -61.624 190.224  1.00  0.00     0.012 A 
ATOM     34  C   UNL     1       5.448 -62.116 188.765  1.00  0.00     0.012 A 
ATOM     35  C   UNL     1       8.040 -62.672 189.648  1.00  0.00     0.001 A 
ATOM     36  C   UNL     1       6.171 -63.170 188.200  1.00  0.00     0.001 A 
ATOM     37  C   UNL     1       7.469 -63.441 188.635  1.00  0.00     0.000 A 
ENDBRANCH  25  32
ENDBRANCH   1  17
TORSDOF 9
ENDMDL
MODEL 8
REMARK VINA RESULT:    -5.855      1.769      2.674
REMARK INTER + INTRA:          -9.103
REMARK INTER:                  -8.505
REMARK INTRA:                  -0.598
REMARK UNBOUND:                -1.023
REMARK SMILES O=C([O-])[C@@H]1O[C@@H](Oc2cc3oc(-c4ccccc4)cc(=O)c3c(O)c2O)[C@H](O)[C@@H](O)[C@H]1O
REMARK SMILES IDX 7 1 6 2 4 3 31 4 5 5 29 6 27 7 2 8 1 9 3 10 32 11 30 13
REMARK SMILES IDX 28 15 8 17 25 18 9 19 23 20 10 21 22 22 11 23 20 24 12 25
REMARK SMILES IDX 19 26 21 27 26 28 24 30 13 32 14 33 18 34 15 35 17 36 16 37
REMARK H PARENT 32 12 30 14 28 16 26 29 24 31
REMARK Flexibility Score: inf
ROOT
ATOM      1  O   UNL     1       6.343 -57.363 195.514  1.00  0.00    -0.458 OA
ENDROOT
BRANCH   1   2
ATOM      2  C   UNL     1       7.195 -56.230 195.677  1.00  0.00     0.339 C 
ATOM      3  C   UNL     1       7.147 -53.851 195.897  1.00  0.00     0.199 C 
ATOM      4  C   UNL     1       8.136 -53.673 194.724  1.00  0.00     0.180 C 
ATOM      5  O   UNL     1       6.395 -55.061 195.817  1.00  0.00    -0.328 OA
ATOM      6  C   UNL     1       9.017 -54.918 194.565  1.00  0.00     0.181 C 
ATOM      7  C   UNL     1       8.129 -56.162 194.462  1.00  0.00     0.214 C 
BRANCH   3   8
ATOM      8  C   UNL     1       7.789 -53.623 197.248  1.00  0.00     0.073 C 
ATOM      9  O   UNL     1       7.223 -54.062 198.282  1.00  0.00    -0.547 OA
ATOM     10  O   UNL     1       8.976 -52.919 197.389  1.00  0.00    -0.547 OA
ENDBRANCH   3   8
BRANCH   4  11
ATOM     11  O   UNL     1       7.405 -53.457 193.542  1.00  0.00    -0.387 OA
ATOM     12  H   UNL     1       6.649 -52.855 193.767  1.00  0.00     0.211 HD
ENDBRANCH   4  11
BRANCH   6  13
ATOM     13  O   UNL     1       9.805 -54.803 193.409  1.00  0.00    -0.387 OA
ATOM     14  H   UNL     1      10.738 -55.004 193.674  1.00  0.00     0.211 HD
ENDBRANCH   6  13
BRANCH   7  15
ATOM     15  O   UNL     1       8.931 -57.316 194.443  1.00  0.00    -0.384 OA
ATOM     16  H   UNL     1       8.930 -57.693 195.364  1.00  0.00     0.211 HD
ENDBRANCH   7  15
ENDBRANCH   1   2
BRANCH   1  17
ATOM     17  C   UNL     1       5.681 -57.663 194.319  1.00  0.00     0.172 A 
ATOM     18  C   UNL     1       4.573 -56.923 193.876  1.00  0.00     0.201 A 
ATOM     19  C   UNL     1       6.173 -58.706 193.538  1.00  0.00     0.098 A 
ATOM     20  C   UNL     1       3.934 -57.252 192.664  1.00  0.00     0.176 A 
ATOM     21  C   UNL     1       5.580 -59.027 192.318  1.00  0.00     0.146 A 
ATOM     22  C   UNL     1       4.460 -58.296 191.848  1.00  0.00     0.111 A 
ATOM     23  O   UNL     1       6.095 -60.025 191.605  1.00  0.00    -0.456 OA
ATOM     24  C   UNL     1       3.967 -58.647 190.568  1.00  0.00     0.197 A 
ATOM     25  C   UNL     1       5.627 -60.400 190.419  1.00  0.00     0.138 A 
ATOM     26  C   UNL     1       4.535 -59.713 189.870  1.00  0.00     0.100 A 
ATOM     27  O   UNL     1       3.035 -58.009 190.015  1.00  0.00    -0.289 OA
BRANCH  18  28
ATOM     28  O   UNL     1       4.120 -55.850 194.641  1.00  0.00    -0.502 OA
ATOM     29  H   UNL     1       4.566 -55.559 195.502  1.00  0.00     0.293 HD
ENDBRANCH  18  28
BRANCH  20  30
ATOM     30  O   UNL     1       2.778 -56.532 192.340  1.00  0.00    -0.504 OA
ATOM     31  H   UNL     1       2.323 -56.541 191.437  1.00  0.00     0.293 HD
ENDBRANCH  20  30
BRANCH  25  32
ATOM     32  C   UNL     1       6.274 -61.546 189.726  1.00  0.00     0.017 A 
ATOM     33  C   UNL     1       7.609 -61.925 189.986  1.00  0.00     0.012 A 
ATOM     34  C   UNL     1       5.534 -62.292 188.792  1.00  0.00     0.012 A 
ATOM     35  C   UNL     1       8.191 -62.993 189.299  1.00  0.00     0.001 A 
ATOM     36  C   UNL     1       6.117 -63.367 188.115  1.00  0.00     0.001 A 
ATOM     37  C   UNL     1       7.448 -63.711 188.363  1.00  0.00     0.000 A 
ENDBRANCH  25  32
ENDBRANCH   1  17
TORSDOF 9
ENDMDL
MODEL 9
REMARK VINA RESULT:    -5.681      5.441      8.556
REMARK INTER + INTRA:          -8.862
REMARK INTER:                  -7.877
REMARK INTRA:                  -0.986
REMARK UNBOUND:                -1.023
REMARK SMILES O=C([O-])[C@@H]1O[C@@H](Oc2cc3oc(-c4ccccc4)cc(=O)c3c(O)c2O)[C@H](O)[C@@H](O)[C@H]1O
REMARK SMILES IDX 7 1 6 2 4 3 31 4 5 5 29 6 27 7 2 8 1 9 3 10 32 11 30 13
REMARK SMILES IDX 28 15 8 17 25 18 9 19 23 20 10 21 22 22 11 23 20 24 12 25
REMARK SMILES IDX 19 26 21 27 26 28 24 30 13 32 14 33 18 34 15 35 17 36 16 37
REMARK H PARENT 32 12 30 14 28 16 26 29 24 31
REMARK Flexibility Score: inf
ROOT
ATOM      1  O   UNL     1       6.693 -59.532 199.929  1.00  0.00    -0.458 OA
ENDROOT
BRANCH   1   2
ATOM      2  C   UNL     1       5.544 -59.851 199.143  1.00  0.00     0.339 C 
ATOM      3  C   UNL     1       3.347 -59.074 198.616  1.00  0.00     0.199 C 
ATOM      4  C   UNL     1       2.721 -60.434 198.996  1.00  0.00     0.180 C 
ATOM      5  O   UNL     1       4.578 -58.816 199.289  1.00  0.00    -0.328 OA
ATOM      6  C   UNL     1       3.744 -61.566 198.833  1.00  0.00     0.181 C 
ATOM      7  C   UNL     1       5.019 -61.216 199.606  1.00  0.00     0.214 C 
BRANCH   3   8
ATOM      8  C   UNL     1       3.416 -58.856 197.120  1.00  0.00     0.073 C 
ATOM      9  O   UNL     1       2.699 -59.559 196.361  1.00  0.00    -0.547 OA
ATOM     10  O   UNL     1       4.267 -57.921 196.551  1.00  0.00    -0.547 OA
ENDBRANCH   3   8
BRANCH   4  11
ATOM     11  O   UNL     1       2.289 -60.377 200.334  1.00  0.00    -0.387 OA
ATOM     12  H   UNL     1       2.716 -59.584 200.749  1.00  0.00     0.211 HD
ENDBRANCH   4  11
BRANCH   6  13
ATOM     13  O   UNL     1       3.209 -62.768 199.322  1.00  0.00    -0.387 OA
ATOM     14  H   UNL     1       2.740 -63.204 198.566  1.00  0.00     0.211 HD
ENDBRANCH   6  13
BRANCH   7  15
ATOM     15  O   UNL     1       6.005 -62.188 199.358  1.00  0.00    -0.384 OA
ATOM     16  H   UNL     1       5.697 -62.730 198.584  1.00  0.00     0.211 HD
ENDBRANCH   7  15
ENDBRANCH   1   2
BRANCH   1  17
ATOM     17  C   UNL     1       7.379 -58.318 199.832  1.00  0.00     0.172 A 
ATOM     18  C   UNL     1       7.108 -57.240 200.690  1.00  0.00     0.201 A 
ATOM     19  C   UNL     1       8.384 -58.204 198.875  1.00  0.00     0.098 A 
ATOM     20  C   UNL     1       7.823 -56.032 200.565  1.00  0.00     0.176 A 
ATOM     21  C   UNL     1       9.129 -57.032 198.756  1.00  0.00     0.146 A 
ATOM     22  C   UNL     1       8.876 -55.929 199.609  1.00  0.00     0.111 A 
ATOM     23  O   UNL     1      10.085 -56.979 197.833  1.00  0.00    -0.456 OA
ATOM     24  C   UNL     1       9.727 -54.807 199.463  1.00  0.00     0.197 A 
ATOM     25  C   UNL     1      10.872 -55.924 197.648  1.00  0.00     0.138 A 
ATOM     26  C   UNL     1      10.704 -54.798 198.467  1.00  0.00     0.100 A 
ATOM     27  O   UNL     1       9.651 -53.810 200.225  1.00  0.00    -0.289 OA
BRANCH  18  28
ATOM     28  O   UNL     1       6.135 -57.382 201.677  1.00  0.00    -0.502 OA
ATOM     29  H   UNL     1       5.142 -57.354 201.481  1.00  0.00     0.293 HD
ENDBRANCH  18  28
BRANCH  20  30
ATOM     30  O   UNL     1       7.429 -54.973 201.391  1.00  0.00    -0.504 OA
ATOM     31  H   UNL     1       6.890 -55.069 202.241  1.00  0.00     0.293 HD
ENDBRANCH  20  30
BRANCH  25  32
ATOM     32  C   UNL     1      11.893 -55.974 196.568  1.00  0.00     0.017 A 
ATOM     33  C   UNL     1      11.626 -56.551 195.307  1.00  0.00     0.012 A 
ATOM     34  C   UNL     1      13.164 -55.416 196.796  1.00  0.00     0.012 A 
ATOM     35  C   UNL     1      12.618 -56.600 194.324  1.00  0.00     0.001 A 
ATOM     36  C   UNL     1      14.149 -55.458 195.806  1.00  0.00     0.001 A 
ATOM     37  C   UNL     1      13.878 -56.058 194.574  1.00  0.00     0.000 A 
ENDBRANCH  25  32
ENDBRANCH   1  17
TORSDOF 9
ENDMDL
