MODEL 1
REMARK VINA RESULT:    -3.820      0.000      0.000
REMARK INTER + INTRA:          -3.622
REMARK INTER:                  -4.713
REMARK INTRA:                   1.091
REMARK UNBOUND:                 1.091
REMARK SMILES CC1=CC=CC(C)(C)CC1=O
REMARK SMILES IDX 1 1 2 2 3 3 10 4 11 5 9 6 4 8 5 9 6 10 7 11 8 12
REMARK H PARENT
REMARK Flexibility Score: 80.00
ROOT
ATOM      1  C   UNL     1     -23.961  14.993 -30.643  1.00  0.00     0.048 C 
ATOM      2  C   UNL     1     -24.837  13.860 -30.159  1.00  0.00    -0.008 C 
ATOM      3  C   UNL     1     -24.231  12.732 -29.731  1.00  0.00     0.007 C 
ENDROOT
BRANCH   2   4
ATOM      4  C   UNL     1     -26.308  14.069 -30.247  1.00  0.00     0.159 C 
ATOM      5  O   UNL     1     -26.738  15.073 -30.879  1.00  0.00    -0.295 OA
BRANCH   4   6
ATOM      6  C   UNL     1     -27.326  13.136 -29.662  1.00  0.00     0.091 CG0
ATOM      7  G   UNL     1     -27.171  11.669 -30.124  1.00  0.00     0.000 G0
ENDBRANCH   4   6
ENDBRANCH   2   4
BRANCH   3   8
ATOM      8  C   UNL     1     -24.822  11.484 -29.199  1.00  0.00    -0.003 C 
ATOM      9  C   UNL     1     -26.076  11.032 -29.327  1.00  0.00    -0.020 C 
BRANCH   9  10
ATOM     10  C   UNL     1     -27.179  11.684 -30.126  1.00  0.00    -0.010 CG0
ATOM     11  C   UNL     1     -28.491  10.878 -29.985  1.00  0.00     0.016 C 
ATOM     12  C   UNL     1     -26.771  11.670 -31.616  1.00  0.00     0.016 C 
ATOM     13  G   UNL     1     -27.334  13.157 -29.683  1.00  0.00     0.000 G0
ENDBRANCH   9  10
ENDBRANCH   3   8
TORSDOF 0
ENDMDL
MODEL 2
REMARK VINA RESULT:    -3.792     11.519     13.185
REMARK INTER + INTRA:          -3.587
REMARK INTER:                  -4.441
REMARK INTRA:                   0.854
REMARK UNBOUND:                 1.091
REMARK SMILES CC1=CC=CC(C)(C)CC1=O
REMARK SMILES IDX 1 1 2 2 3 3 10 4 11 5 9 6 4 8 5 9 6 10 7 11 8 12
REMARK H PARENT
REMARK Flexibility Score: 80.00
ROOT
ATOM      1  C   UNL     1     -11.110  14.258 -33.651  1.00  0.00     0.048 C 
ATOM      2  C   UNL     1     -12.149  14.505 -32.582  1.00  0.00    -0.008 C 
ATOM      3  C   UNL     1     -12.761  15.708 -32.563  1.00  0.00     0.007 C 
ENDROOT
BRANCH   2   4
ATOM      4  C   UNL     1     -12.372  13.408 -31.601  1.00  0.00     0.159 C 
ATOM      5  O   UNL     1     -11.747  12.323 -31.757  1.00  0.00    -0.295 OA
BRANCH   4   6
ATOM      6  C   UNL     1     -13.270  13.520 -30.405  1.00  0.00     0.091 CG0
ATOM      7  G   UNL     1     -14.690  14.033 -30.732  1.00  0.00     0.000 G0
ENDBRANCH   4   6
ENDBRANCH   2   4
BRANCH   3   8
ATOM      8  C   UNL     1     -13.810  16.222 -31.654  1.00  0.00    -0.003 C 
ATOM      9  C   UNL     1     -14.662  15.532 -30.886  1.00  0.00    -0.020 C 
BRANCH   9  10
ATOM     10  C   UNL     1     -14.695  14.031 -30.721  1.00  0.00    -0.010 CG0
ATOM     11  C   UNL     1     -15.312  13.367 -31.973  1.00  0.00     0.016 C 
ATOM     12  C   UNL     1     -15.599  13.697 -29.513  1.00  0.00     0.016 C 
ATOM     13  G   UNL     1     -13.271  13.516 -30.412  1.00  0.00     0.000 G0
ENDBRANCH   9  10
ENDBRANCH   3   8
TORSDOF 0
ENDMDL
MODEL 3
REMARK VINA RESULT:    -3.603     10.145     11.486
REMARK INTER + INTRA:          -3.354
REMARK INTER:                  -4.185
REMARK INTRA:                   0.831
REMARK UNBOUND:                 1.091
REMARK SMILES CC1=CC=CC(C)(C)CC1=O
REMARK SMILES IDX 1 1 2 2 3 3 10 4 11 5 9 6 4 8 5 9 6 10 7 11 8 12
REMARK H PARENT
REMARK Flexibility Score: 80.00
ROOT
ATOM      1  C   UNL     1     -13.727  16.493 -32.388  1.00  0.00     0.048 C 
ATOM      2  C   UNL     1     -14.022  15.255 -31.575  1.00  0.00    -0.008 C 
ATOM      3  C   UNL     1     -13.246  15.009 -30.497  1.00  0.00     0.007 C 
ENDROOT
BRANCH   2   4
ATOM      4  C   UNL     1     -15.118  14.376 -32.067  1.00  0.00     0.159 C 
ATOM      5  O   UNL     1     -15.783  14.748 -33.072  1.00  0.00    -0.295 OA
BRANCH   4   6
ATOM      6  C   UNL     1     -15.463  13.047 -31.466  1.00  0.00     0.091 CG0
ATOM      7  G   UNL     1     -15.665  13.083 -29.934  1.00  0.00     0.000 G0
ENDBRANCH   4   6
ENDBRANCH   2   4
BRANCH   3   8
ATOM      8  C   UNL     1     -13.305  13.896 -29.522  1.00  0.00    -0.003 C 
ATOM      9  C   UNL     1     -14.331  13.082 -29.245  1.00  0.00    -0.020 C 
BRANCH   9  10
ATOM     10  C   UNL     1     -15.674  13.075 -29.937  1.00  0.00    -0.010 CG0
ATOM     11  C   UNL     1     -16.531  14.267 -29.456  1.00  0.00     0.016 C 
ATOM     12  C   UNL     1     -16.410  11.773 -29.549  1.00  0.00     0.016 C 
ATOM     13  G   UNL     1     -15.463  13.070 -31.468  1.00  0.00     0.000 G0
ENDBRANCH   9  10
ENDBRANCH   3   8
TORSDOF 0
ENDMDL
MODEL 4
REMARK VINA RESULT:    -3.455     11.350     13.180
REMARK INTER + INTRA:          -3.172
REMARK INTER:                  -4.015
REMARK INTRA:                   0.843
REMARK UNBOUND:                 1.091
REMARK SMILES CC1=CC=CC(C)(C)CC1=O
REMARK SMILES IDX 1 1 2 2 3 3 10 4 11 5 9 6 4 8 5 9 6 10 7 11 8 12
REMARK H PARENT
REMARK Flexibility Score: 80.00
ROOT
ATOM      1  C   UNL     1     -16.859  13.132 -30.555  1.00  0.00     0.048 C 
ATOM      2  C   UNL     1     -15.479  13.718 -30.745  1.00  0.00    -0.008 C 
ATOM      3  C   UNL     1     -15.364  15.063 -30.788  1.00  0.00     0.007 C 
ENDROOT
BRANCH   2   4
ATOM      4  C   UNL     1     -14.361  12.751 -30.922  1.00  0.00     0.159 C 
ATOM      5  O   UNL     1     -14.610  11.518 -30.829  1.00  0.00    -0.295 OA
BRANCH   4   6
ATOM      6  C   UNL     1     -12.952  13.146 -31.247  1.00  0.00     0.091 CG0
ATOM      7  G   UNL     1     -12.371  14.229 -30.310  1.00  0.00     0.000 G0
ENDBRANCH   4   6
ENDBRANCH   2   4
BRANCH   3   8
ATOM      8  C   UNL     1     -14.158  15.905 -30.950  1.00  0.00    -0.003 C 
ATOM      9  C   UNL     1     -12.878  15.584 -30.725  1.00  0.00    -0.020 C 
BRANCH   9  10
ATOM     10  C   UNL     1     -12.361  14.227 -30.309  1.00  0.00    -0.010 CG0
ATOM     11  C   UNL     1     -12.660  13.975 -28.814  1.00  0.00     0.016 C 
ATOM     12  C   UNL     1     -10.827  14.216 -30.496  1.00  0.00     0.016 C 
ATOM     13  G   UNL     1     -12.964  13.142 -31.230  1.00  0.00     0.000 G0
ENDBRANCH   9  10
ENDBRANCH   3   8
TORSDOF 0
ENDMDL
MODEL 5
REMARK VINA RESULT:    -3.453     10.688     12.565
REMARK INTER + INTRA:          -3.169
REMARK INTER:                  -4.016
REMARK INTRA:                   0.847
REMARK UNBOUND:                 1.091
REMARK SMILES CC1=CC=CC(C)(C)CC1=O
REMARK SMILES IDX 1 1 2 2 3 3 10 4 11 5 9 6 4 8 5 9 6 10 7 11 8 12
REMARK H PARENT
REMARK Flexibility Score: 80.00
ROOT
ATOM      1  C   UNL     1     -17.195  13.352 -29.508  1.00  0.00     0.048 C 
ATOM      2  C   UNL     1     -16.028  13.643 -30.423  1.00  0.00    -0.008 C 
ATOM      3  C   UNL     1     -16.300  14.026 -31.689  1.00  0.00     0.007 C 
ENDROOT
BRANCH   2   4
ATOM      4  C   UNL     1     -14.667  13.430 -29.859  1.00  0.00     0.159 C 
ATOM      5  O   UNL     1     -14.561  13.111 -28.643  1.00  0.00    -0.295 OA
BRANCH   4   6
ATOM      6  C   UNL     1     -13.402  13.532 -30.658  1.00  0.00     0.091 CG0
ATOM      7  G   UNL     1     -13.259  14.856 -31.441  1.00  0.00     0.000 G0
ENDBRANCH   4   6
ENDBRANCH   2   4
BRANCH   3   8
ATOM      8  C   UNL     1     -15.376  14.382 -32.789  1.00  0.00    -0.003 C 
ATOM      9  C   UNL     1     -14.096  14.769 -32.713  1.00  0.00    -0.020 C 
BRANCH   9  10
ATOM     10  C   UNL     1     -13.268  14.863 -31.453  1.00  0.00    -0.010 CG0
ATOM     11  C   UNL     1     -13.677  16.109 -30.636  1.00  0.00     0.016 C 
ATOM     12  C   UNL     1     -11.787  15.026 -31.860  1.00  0.00     0.016 C 
ATOM     13  G   UNL     1     -13.404  13.550 -30.649  1.00  0.00     0.000 G0
ENDBRANCH   9  10
ENDBRANCH   3   8
TORSDOF 0
ENDMDL
MODEL 6
REMARK VINA RESULT:    -3.449      9.968     11.390
REMARK INTER + INTRA:          -3.165
REMARK INTER:                  -4.007
REMARK INTRA:                   0.842
REMARK UNBOUND:                 1.091
REMARK SMILES CC1=CC=CC(C)(C)CC1=O
REMARK SMILES IDX 1 1 2 2 3 3 10 4 11 5 9 6 4 8 5 9 6 10 7 11 8 12
REMARK H PARENT
REMARK Flexibility Score: 80.00
ROOT
ATOM      1  C   UNL     1     -12.147  15.473 -30.024  1.00  0.00     0.048 C 
ATOM      2  C   UNL     1     -13.309  14.557 -30.330  1.00  0.00    -0.008 C 
ATOM      3  C   UNL     1     -13.191  13.254 -29.993  1.00  0.00     0.007 C 
ENDROOT
BRANCH   2   4
ATOM      4  C   UNL     1     -14.473  15.165 -31.032  1.00  0.00     0.159 C 
ATOM      5  O   UNL     1     -14.462  16.407 -31.252  1.00  0.00    -0.295 OA
BRANCH   4   6
ATOM      6  C   UNL     1     -15.652  14.386 -31.534  1.00  0.00     0.091 CG0
ATOM      7  G   UNL     1     -16.300  13.472 -30.469  1.00  0.00     0.000 G0
ENDBRANCH   4   6
ENDBRANCH   2   4
BRANCH   3   8
ATOM      8  C   UNL     1     -14.156  12.143 -30.157  1.00  0.00    -0.003 C 
ATOM      9  C   UNL     1     -15.482  12.207 -30.330  1.00  0.00    -0.020 C 
BRANCH   9  10
ATOM     10  C   UNL     1     -16.302  13.467 -30.468  1.00  0.00    -0.010 CG0
ATOM     11  C   UNL     1     -16.470  14.150 -29.091  1.00  0.00     0.016 C 
ATOM     12  C   UNL     1     -17.707  13.076 -30.979  1.00  0.00     0.016 C 
ATOM     13  G   UNL     1     -15.650  14.394 -31.518  1.00  0.00     0.000 G0
ENDBRANCH   9  10
ENDBRANCH   3   8
TORSDOF 0
ENDMDL
MODEL 7
REMARK VINA RESULT:    -3.377      9.169     10.775
REMARK INTER + INTRA:          -3.076
REMARK INTER:                  -3.928
REMARK INTRA:                   0.852
REMARK UNBOUND:                 1.091
REMARK SMILES CC1=CC=CC(C)(C)CC1=O
REMARK SMILES IDX 1 1 2 2 3 3 10 4 11 5 9 6 4 8 5 9 6 10 7 11 8 12
REMARK H PARENT
REMARK Flexibility Score: 80.00
ROOT
ATOM      1  C   UNL     1     -16.317  11.102 -26.769  1.00  0.00     0.048 C 
ATOM      2  C   UNL     1     -16.469  11.643 -28.172  1.00  0.00    -0.008 C 
ATOM      3  C   UNL     1     -17.718  11.902 -28.615  1.00  0.00     0.007 C 
ENDROOT
BRANCH   2   4
ATOM      4  C   UNL     1     -15.222  11.794 -28.969  1.00  0.00     0.159 C 
ATOM      5  O   UNL     1     -14.114  11.589 -28.401  1.00  0.00    -0.295 OA
BRANCH   4   6
ATOM      6  C   UNL     1     -15.194  12.141 -30.428  1.00  0.00     0.091 CG0
ATOM      7  G   UNL     1     -15.983  13.421 -30.784  1.00  0.00     0.000 G0
ENDBRANCH   4   6
ENDBRANCH   2   4
BRANCH   3   8
ATOM      8  C   UNL     1     -18.167  12.440 -29.920  1.00  0.00    -0.003 C 
ATOM      9  C   UNL     1     -17.458  13.115 -30.833  1.00  0.00    -0.020 C 
BRANCH   9  10
ATOM     10  C   UNL     1     -15.982  13.427 -30.762  1.00  0.00    -0.010 CG0
ATOM     11  C   UNL     1     -15.724  14.570 -29.755  1.00  0.00     0.016 C 
ATOM     12  C   UNL     1     -15.523  13.909 -32.157  1.00  0.00     0.016 C 
ATOM     13  G   UNL     1     -15.200  12.139 -30.417  1.00  0.00     0.000 G0
ENDBRANCH   9  10
ENDBRANCH   3   8
TORSDOF 0
ENDMDL
MODEL 8
REMARK VINA RESULT:    -3.233     11.013     12.670
REMARK INTER + INTRA:          -2.898
REMARK INTER:                  -3.748
REMARK INTRA:                   0.850
REMARK UNBOUND:                 1.091
REMARK SMILES CC1=CC=CC(C)(C)CC1=O
REMARK SMILES IDX 1 1 2 2 3 3 10 4 11 5 9 6 4 8 5 9 6 10 7 11 8 12
REMARK H PARENT
REMARK Flexibility Score: 80.00
ROOT
ATOM      1  C   UNL     1     -11.404  15.439 -33.242  1.00  0.00     0.048 C 
ATOM      2  C   UNL     1     -12.770  15.200 -32.642  1.00  0.00    -0.008 C 
ATOM      3  C   UNL     1     -13.800  14.980 -33.486  1.00  0.00     0.007 C 
ENDROOT
BRANCH   2   4
ATOM      4  C   UNL     1     -12.872  15.281 -31.159  1.00  0.00     0.159 C 
ATOM      5  O   UNL     1     -11.817  15.464 -30.492  1.00  0.00    -0.295 OA
BRANCH   4   6
ATOM      6  C   UNL     1     -14.162  15.199 -30.400  1.00  0.00     0.091 CG0
ATOM      7  G   UNL     1     -15.036  13.981 -30.777  1.00  0.00     0.000 G0
ENDBRANCH   4   6
ENDBRANCH   2   4
BRANCH   3   8
ATOM      8  C   UNL     1     -15.225  14.709 -33.190  1.00  0.00    -0.003 C 
ATOM      9  C   UNL     1     -15.771  14.255 -32.055  1.00  0.00    -0.020 C 
BRANCH   9  10
ATOM     10  C   UNL     1     -15.038  13.976 -30.764  1.00  0.00    -0.010 CG0
ATOM     11  C   UNL     1     -14.228  12.665 -30.881  1.00  0.00     0.016 C 
ATOM     12  C   UNL     1     -16.086  13.790 -29.644  1.00  0.00     0.016 C 
ATOM     13  G   UNL     1     -14.157  15.192 -30.400  1.00  0.00     0.000 G0
ENDBRANCH   9  10
ENDBRANCH   3   8
TORSDOF 0
ENDMDL
MODEL 9
REMARK VINA RESULT:    -3.204     12.374     14.151
REMARK INTER + INTRA:          -2.862
REMARK INTER:                  -3.733
REMARK INTRA:                   0.870
REMARK UNBOUND:                 1.091
REMARK SMILES CC1=CC=CC(C)(C)CC1=O
REMARK SMILES IDX 1 1 2 2 3 3 10 4 11 5 9 6 4 8 5 9 6 10 7 11 8 12
REMARK H PARENT
REMARK Flexibility Score: 80.00
ROOT
ATOM      1  C   UNL     1     -15.656  13.104 -31.144  1.00  0.00     0.048 C 
ATOM      2  C   UNL     1     -14.316  13.802 -31.123  1.00  0.00    -0.008 C 
ATOM      3  C   UNL     1     -13.724  13.995 -29.925  1.00  0.00     0.007 C 
ENDROOT
BRANCH   2   4
ATOM      4  C   UNL     1     -13.784  14.267 -32.433  1.00  0.00     0.159 C 
ATOM      5  O   UNL     1     -14.424  13.977 -33.481  1.00  0.00    -0.295 OA
BRANCH   4   6
ATOM      6  C   UNL     1     -12.547  15.100 -32.590  1.00  0.00     0.091 CG0
ATOM      7  G   UNL     1     -11.306  14.521 -31.873  1.00  0.00     0.000 G0
ENDBRANCH   4   6
ENDBRANCH   2   4
BRANCH   3   8
ATOM      8  C   UNL     1     -12.425  14.628 -29.602  1.00  0.00    -0.003 C 
ATOM      9  C   UNL     1     -11.373  14.833 -30.404  1.00  0.00    -0.020 C 
BRANCH   9  10
ATOM     10  C   UNL     1     -11.303  14.516 -31.879  1.00  0.00    -0.010 CG0
ATOM     11  C   UNL     1     -11.160  12.992 -32.093  1.00  0.00     0.016 C 
ATOM     12  C   UNL     1     -10.045  15.198 -32.461  1.00  0.00     0.016 C 
ATOM     13  G   UNL     1     -12.542  15.105 -32.591  1.00  0.00     0.000 G0
ENDBRANCH   9  10
ENDBRANCH   3   8
TORSDOF 0
ENDMDL
