MODEL 1
REMARK VINA RESULT:    -4.572      0.000      0.000
REMARK INTER + INTRA:          -7.043
REMARK INTER:                  -6.978
REMARK INTRA:                  -0.065
REMARK UNBOUND:                -0.065
REMARK SMILES CC1=CCC[C@H](C)C(=O)C[C@@H](C(C)C)C(=O)C1
REMARK SMILES IDX 8 1 9 2 6 3 7 4 5 5 4 6 3 7 2 8 1 9 10 11 11 12 15 13 16 14
REMARK SMILES IDX 17 15 12 17 13 18 14 19
REMARK H PARENT
REMARK Flexibility Score: 70.00
ROOT
ATOM      1  C   UNL     1     -17.383 -51.757  29.936  1.00  0.00     0.136 C 
ATOM      2  O   UNL     1     -16.511 -50.943  29.663  1.00  0.00    -0.299 OA
ENDROOT
BRANCH   1   3
ATOM      3  C   UNL     1     -17.296 -52.537  31.234  1.00  0.00     0.053 C 
ATOM      4  C   UNL     1     -16.892 -51.611  32.390  1.00  0.00     0.016 C 
BRANCH   3   5
ATOM      5  C   UNL     1     -18.639 -53.240  31.535  1.00  0.00     0.015 C 
BRANCH   5   6
ATOM      6  C   UNL     1     -19.405 -52.539  32.674  1.00  0.00     0.028 C 
BRANCH   6   7
ATOM      7  C   UNL     1     -20.894 -52.485  32.444  1.00  0.00    -0.028 C 
ATOM      8  C   UNL     1     -21.529 -51.638  31.595  1.00  0.00    -0.070 CG0
ATOM      9  C   UNL     1     -23.019 -51.802  31.427  1.00  0.00     0.039 C 
ATOM     10  G   UNL     1     -20.828 -50.513  30.845  1.00  0.00     0.000 G0
ENDBRANCH   6   7
ENDBRANCH   5   6
ENDBRANCH   3   5
ENDBRANCH   1   3
BRANCH   1  11
ATOM     11  C   UNL     1     -18.516 -51.973  28.958  1.00  0.00     0.087 C 
BRANCH  11  12
ATOM     12  C   UNL     1     -19.316 -50.669  28.688  1.00  0.00     0.066 C 
BRANCH  12  13
ATOM     13  C   UNL     1     -20.691 -50.721  29.338  1.00  0.00     0.140 C 
ATOM     14  O   UNL     1     -21.692 -50.894  28.657  1.00  0.00    -0.299 OA
BRANCH  13  15
ATOM     15  C   UNL     1     -20.832 -50.499  30.825  1.00  0.00     0.106 CG0
ATOM     16  G   UNL     1     -21.516 -51.645  31.560  1.00  0.00     0.000 G0
ENDBRANCH  13  15
ENDBRANCH  12  13
BRANCH  12  17
ATOM     17  C   UNL     1     -19.402 -50.296  27.172  1.00  0.00    -0.006 C 
ATOM     18  C   UNL     1     -19.403 -48.772  26.965  1.00  0.00     0.008 C 
ATOM     19  C   UNL     1     -18.299 -50.937  26.308  1.00  0.00     0.008 C 
ENDBRANCH  12  17
ENDBRANCH  11  12
ENDBRANCH   1  11
TORSDOF 1
ENDMDL
MODEL 2
REMARK VINA RESULT:    -4.562      5.957      8.092
REMARK INTER + INTRA:          -7.028
REMARK INTER:                  -6.734
REMARK INTRA:                  -0.294
REMARK UNBOUND:                -0.065
REMARK SMILES CC1=CCC[C@H](C)C(=O)C[C@@H](C(C)C)C(=O)C1
REMARK SMILES IDX 8 1 9 2 6 3 7 4 5 5 4 6 3 7 2 8 1 9 10 11 11 12 15 13 16 14
REMARK SMILES IDX 17 15 12 17 13 18 14 19
REMARK H PARENT
REMARK Flexibility Score: 70.00
ROOT
ATOM      1  C   UNL     1     -25.605 -53.053  24.782  1.00  0.00     0.136 C 
ATOM      2  O   UNL     1     -24.981 -53.153  23.733  1.00  0.00    -0.299 OA
ENDROOT
BRANCH   1   3
ATOM      3  C   UNL     1     -27.118 -53.157  24.764  1.00  0.00     0.053 C 
ATOM      4  C   UNL     1     -27.555 -54.627  24.843  1.00  0.00     0.016 C 
BRANCH   3   5
ATOM      5  C   UNL     1     -27.732 -52.335  25.920  1.00  0.00     0.015 C 
BRANCH   5   6
ATOM      6  C   UNL     1     -28.184 -53.240  27.082  1.00  0.00     0.028 C 
BRANCH   6   7
ATOM      7  C   UNL     1     -27.898 -52.651  28.441  1.00  0.00    -0.028 C 
ATOM      8  C   UNL     1     -26.899 -53.038  29.272  1.00  0.00    -0.070 CG0
ATOM      9  C   UNL     1     -26.711 -52.259  30.551  1.00  0.00     0.039 C 
ATOM     10  G   UNL     1     -25.995 -54.235  29.005  1.00  0.00     0.000 G0
ENDBRANCH   6   7
ENDBRANCH   5   6
ENDBRANCH   3   5
ENDBRANCH   1   3
BRANCH   1  11
ATOM     11  C   UNL     1     -24.844 -52.810  26.066  1.00  0.00     0.087 C 
BRANCH  11  12
ATOM     12  C   UNL     1     -24.546 -54.128  26.831  1.00  0.00     0.066 C 
BRANCH  12  13
ATOM     13  C   UNL     1     -24.684 -53.937  28.334  1.00  0.00     0.140 C 
ATOM     14  O   UNL     1     -23.728 -53.570  29.003  1.00  0.00    -0.299 OA
BRANCH  13  15
ATOM     15  C   UNL     1     -25.991 -54.259  29.019  1.00  0.00     0.106 CG0
ATOM     16  G   UNL     1     -26.880 -53.046  29.259  1.00  0.00     0.000 G0
ENDBRANCH  13  15
ENDBRANCH  12  13
BRANCH  12  17
ATOM     17  C   UNL     1     -23.171 -54.770  26.449  1.00  0.00    -0.006 C 
ATOM     18  C   UNL     1     -23.313 -55.745  25.268  1.00  0.00     0.008 C 
ATOM     19  C   UNL     1     -22.066 -53.741  26.145  1.00  0.00     0.008 C 
ENDBRANCH  12  17
ENDBRANCH  11  12
ENDBRANCH   1  11
TORSDOF 1
ENDMDL
MODEL 3
REMARK VINA RESULT:    -4.402      5.072      7.544
REMARK INTER + INTRA:          -6.782
REMARK INTER:                  -6.436
REMARK INTRA:                  -0.347
REMARK UNBOUND:                -0.065
REMARK SMILES CC1=CCC[C@H](C)C(=O)C[C@@H](C(C)C)C(=O)C1
REMARK SMILES IDX 8 1 9 2 6 3 7 4 5 5 4 6 3 7 2 8 1 9 10 11 11 12 15 13 16 14
REMARK SMILES IDX 17 15 12 17 13 18 14 19
REMARK H PARENT
REMARK Flexibility Score: 70.00
ROOT
ATOM      1  C   UNL     1     -25.197 -54.417  27.100  1.00  0.00     0.136 C 
ATOM      2  O   UNL     1     -26.156 -54.648  27.824  1.00  0.00    -0.299 OA
ENDROOT
BRANCH   1   3
ATOM      3  C   UNL     1     -25.134 -55.043  25.720  1.00  0.00     0.053 C 
ATOM      4  C   UNL     1     -25.740 -54.096  24.674  1.00  0.00     0.016 C 
BRANCH   3   5
ATOM      5  C   UNL     1     -23.678 -55.409  25.355  1.00  0.00     0.015 C 
BRANCH   5   6
ATOM      6  C   UNL     1     -23.158 -54.564  24.176  1.00  0.00     0.028 C 
BRANCH   6   7
ATOM      7  C   UNL     1     -21.846 -53.879  24.467  1.00  0.00    -0.028 C 
ATOM      8  C   UNL     1     -21.706 -52.631  24.977  1.00  0.00    -0.070 CG0
ATOM      9  C   UNL     1     -20.309 -52.156  25.293  1.00  0.00     0.039 C 
ATOM     10  G   UNL     1     -22.872 -51.676  25.202  1.00  0.00     0.000 G0
ENDBRANCH   6   7
ENDBRANCH   5   6
ENDBRANCH   3   5
ENDBRANCH   1   3
BRANCH   1  11
ATOM     11  C   UNL     1     -24.090 -53.523  27.613  1.00  0.00     0.087 C 
BRANCH  11  12
ATOM     12  C   UNL     1     -24.364 -52.022  27.323  1.00  0.00     0.066 C 
BRANCH  12  13
ATOM     13  C   UNL     1     -23.170 -51.366  26.645  1.00  0.00     0.140 C 
ATOM     14  O   UNL     1     -22.482 -50.556  27.250  1.00  0.00    -0.299 OA
BRANCH  13  15
ATOM     15  C   UNL     1     -22.864 -51.667  25.197  1.00  0.00     0.106 CG0
ATOM     16  G   UNL     1     -21.714 -52.645  24.997  1.00  0.00     0.000 G0
ENDBRANCH  13  15
ENDBRANCH  12  13
BRANCH  12  17
ATOM     17  C   UNL     1     -24.833 -51.221  28.581  1.00  0.00    -0.006 C 
ATOM     18  C   UNL     1     -26.366 -51.195  28.694  1.00  0.00     0.008 C 
ATOM     19  C   UNL     1     -24.222 -51.724  29.903  1.00  0.00     0.008 C 
ENDBRANCH  12  17
ENDBRANCH  11  12
ENDBRANCH   1  11
TORSDOF 1
ENDMDL
MODEL 4
REMARK VINA RESULT:    -4.400      5.334      7.530
REMARK INTER + INTRA:          -6.781
REMARK INTER:                  -6.676
REMARK INTRA:                  -0.105
REMARK UNBOUND:                -0.065
REMARK SMILES CC1=CCC[C@H](C)C(=O)C[C@@H](C(C)C)C(=O)C1
REMARK SMILES IDX 8 1 9 2 6 3 7 4 5 5 4 6 3 7 2 8 1 9 10 11 11 12 15 13 16 14
REMARK SMILES IDX 17 15 12 17 13 18 14 19
REMARK H PARENT
REMARK Flexibility Score: 70.00
ROOT
ATOM      1  C   UNL     1     -24.896 -54.806  25.697  1.00  0.00     0.136 C 
ATOM      2  O   UNL     1     -25.726 -55.379  25.004  1.00  0.00    -0.299 OA
ENDROOT
BRANCH   1   3
ATOM      3  C   UNL     1     -23.439 -54.809  25.272  1.00  0.00     0.053 C 
ATOM      4  C   UNL     1     -22.968 -56.242  24.988  1.00  0.00     0.016 C 
BRANCH   3   5
ATOM      5  C   UNL     1     -23.232 -53.904  24.037  1.00  0.00     0.015 C 
BRANCH   5   6
ATOM      6  C   UNL     1     -22.319 -52.705  24.357  1.00  0.00     0.028 C 
BRANCH   6   7
ATOM      7  C   UNL     1     -21.657 -52.806  25.709  1.00  0.00    -0.028 C 
ATOM      8  C   UNL     1     -22.100 -52.217  26.847  1.00  0.00    -0.070 CG0
ATOM      9  C   UNL     1     -21.356 -52.516  28.125  1.00  0.00     0.039 C 
ATOM     10  G   UNL     1     -23.271 -51.244  26.893  1.00  0.00     0.000 G0
ENDBRANCH   6   7
ENDBRANCH   5   6
ENDBRANCH   3   5
ENDBRANCH   1   3
BRANCH   1  11
ATOM     11  C   UNL     1     -25.348 -54.122  26.968  1.00  0.00     0.087 C 
BRANCH  11  12
ATOM     12  C   UNL     1     -25.530 -52.592  26.779  1.00  0.00     0.066 C 
BRANCH  12  13
ATOM     13  C   UNL     1     -24.495 -51.811  27.578  1.00  0.00     0.140 C 
ATOM     14  O   UNL     1     -24.670 -51.589  28.768  1.00  0.00    -0.299 OA
BRANCH  13  15
ATOM     15  C   UNL     1     -23.273 -51.253  26.888  1.00  0.00     0.106 CG0
ATOM     16  G   UNL     1     -22.096 -52.219  26.837  1.00  0.00     0.000 G0
ENDBRANCH  13  15
ENDBRANCH  12  13
BRANCH  12  17
ATOM     17  C   UNL     1     -26.985 -52.098  27.071  1.00  0.00    -0.006 C 
ATOM     18  C   UNL     1     -27.851 -52.114  25.801  1.00  0.00     0.008 C 
ATOM     19  C   UNL     1     -27.694 -52.879  28.194  1.00  0.00     0.008 C 
ENDBRANCH  12  17
ENDBRANCH  11  12
ENDBRANCH   1  11
TORSDOF 1
ENDMDL
MODEL 5
REMARK VINA RESULT:    -4.319      2.102      4.424
REMARK INTER + INTRA:          -6.657
REMARK INTER:                  -6.405
REMARK INTRA:                  -0.252
REMARK UNBOUND:                -0.065
REMARK SMILES CC1=CCC[C@H](C)C(=O)C[C@@H](C(C)C)C(=O)C1
REMARK SMILES IDX 8 1 9 2 6 3 7 4 5 5 4 6 3 7 2 8 1 9 10 11 11 12 15 13 16 14
REMARK SMILES IDX 17 15 12 17 13 18 14 19
REMARK H PARENT
REMARK Flexibility Score: 70.00
ROOT
ATOM      1  C   UNL     1     -18.850 -50.040  29.081  1.00  0.00     0.136 C 
ATOM      2  O   UNL     1     -17.729 -49.568  29.216  1.00  0.00    -0.299 OA
ENDROOT
BRANCH   1   3
ATOM      3  C   UNL     1     -19.391 -50.293  27.687  1.00  0.00     0.053 C 
ATOM      4  C   UNL     1     -19.348 -49.005  26.853  1.00  0.00     0.016 C 
BRANCH   3   5
ATOM      5  C   UNL     1     -18.598 -51.425  26.995  1.00  0.00     0.015 C 
BRANCH   5   6
ATOM      6  C   UNL     1     -19.439 -52.710  26.864  1.00  0.00     0.028 C 
BRANCH   6   7
ATOM      7  C   UNL     1     -20.922 -52.447  26.799  1.00  0.00    -0.028 C 
ATOM      8  C   UNL     1     -21.802 -52.651  27.810  1.00  0.00    -0.070 CG0
ATOM      9  C   UNL     1     -23.235 -52.233  27.586  1.00  0.00     0.039 C 
ATOM     10  G   UNL     1     -21.432 -53.314  29.131  1.00  0.00     0.000 G0
ENDBRANCH   6   7
ENDBRANCH   5   6
ENDBRANCH   3   5
ENDBRANCH   1   3
BRANCH   1  11
ATOM     11  C   UNL     1     -19.672 -50.341  30.315  1.00  0.00     0.087 C 
BRANCH  11  12
ATOM     12  C   UNL     1     -19.797 -51.867  30.579  1.00  0.00     0.066 C 
BRANCH  12  13
ATOM     13  C   UNL     1     -21.205 -52.363  30.280  1.00  0.00     0.140 C 
ATOM     14  O   UNL     1     -22.142 -52.035  30.993  1.00  0.00    -0.299 OA
BRANCH  13  15
ATOM     15  C   UNL     1     -21.441 -53.317  29.132  1.00  0.00     0.106 CG0
ATOM     16  G   UNL     1     -21.799 -52.630  27.821  1.00  0.00     0.000 G0
ENDBRANCH  13  15
ENDBRANCH  12  13
BRANCH  12  17
ATOM     17  C   UNL     1     -19.321 -52.292  32.007  1.00  0.00    -0.006 C 
ATOM     18  C   UNL     1     -19.432 -53.812  32.209  1.00  0.00     0.008 C 
ATOM     19  C   UNL     1     -17.894 -51.824  32.352  1.00  0.00     0.008 C 
ENDBRANCH  12  17
ENDBRANCH  11  12
ENDBRANCH   1  11
TORSDOF 1
ENDMDL
MODEL 6
REMARK VINA RESULT:    -4.301      4.444      6.130
REMARK INTER + INTRA:          -6.630
REMARK INTER:                  -6.491
REMARK INTRA:                  -0.139
REMARK UNBOUND:                -0.065
REMARK SMILES CC1=CCC[C@H](C)C(=O)C[C@@H](C(C)C)C(=O)C1
REMARK SMILES IDX 8 1 9 2 6 3 7 4 5 5 4 6 3 7 2 8 1 9 10 11 11 12 15 13 16 14
REMARK SMILES IDX 17 15 12 17 13 18 14 19
REMARK H PARENT
REMARK Flexibility Score: 70.00
ROOT
ATOM      1  C   UNL     1     -20.891 -53.540  24.334  1.00  0.00     0.136 C 
ATOM      2  O   UNL     1     -21.222 -53.909  23.215  1.00  0.00    -0.299 OA
ENDROOT
BRANCH   1   3
ATOM      3  C   UNL     1     -20.066 -52.276  24.489  1.00  0.00     0.053 C 
ATOM      4  C   UNL     1     -19.510 -51.828  23.130  1.00  0.00     0.016 C 
BRANCH   3   5
ATOM      5  C   UNL     1     -20.909 -51.155  25.137  1.00  0.00     0.015 C 
BRANCH   5   6
ATOM      6  C   UNL     1     -20.402 -50.807  26.550  1.00  0.00     0.028 C 
BRANCH   6   7
ATOM      7  C   UNL     1     -21.514 -50.590  27.545  1.00  0.00    -0.028 C 
ATOM      8  C   UNL     1     -22.129 -51.564  28.261  1.00  0.00    -0.070 CG0
ATOM      9  C   UNL     1     -23.154 -51.139  29.284  1.00  0.00     0.039 C 
ATOM     10  G   UNL     1     -21.873 -53.052  28.056  1.00  0.00     0.000 G0
ENDBRANCH   6   7
ENDBRANCH   5   6
ENDBRANCH   3   5
ENDBRANCH   1   3
BRANCH   1  11
ATOM     11  C   UNL     1     -21.302 -54.368  25.530  1.00  0.00     0.087 C 
BRANCH  11  12
ATOM     12  C   UNL     1     -22.808 -54.203  25.870  1.00  0.00     0.066 C 
BRANCH  12  13
ATOM     13  C   UNL     1     -23.003 -53.781  27.320  1.00  0.00     0.140 C 
ATOM     14  O   UNL     1     -24.070 -53.975  27.884  1.00  0.00    -0.299 OA
BRANCH  13  15
ATOM     15  C   UNL     1     -21.894 -53.063  28.052  1.00  0.00     0.106 CG0
ATOM     16  G   UNL     1     -22.147 -51.575  28.253  1.00  0.00     0.000 G0
ENDBRANCH  13  15
ENDBRANCH  12  13
BRANCH  12  17
ATOM     17  C   UNL     1     -23.669 -55.457  25.508  1.00  0.00    -0.006 C 
ATOM     18  C   UNL     1     -24.881 -55.079  24.641  1.00  0.00     0.008 C 
ATOM     19  C   UNL     1     -22.871 -56.584  24.824  1.00  0.00     0.008 C 
ENDBRANCH  12  17
ENDBRANCH  11  12
ENDBRANCH   1  11
TORSDOF 1
ENDMDL
MODEL 7
REMARK VINA RESULT:    -4.270      2.447      4.304
REMARK INTER + INTRA:          -6.582
REMARK INTER:                  -6.480
REMARK INTRA:                  -0.102
REMARK UNBOUND:                -0.065
REMARK SMILES CC1=CCC[C@H](C)C(=O)C[C@@H](C(C)C)C(=O)C1
REMARK SMILES IDX 8 1 9 2 6 3 7 4 5 5 4 6 3 7 2 8 1 9 10 11 11 12 15 13 16 14
REMARK SMILES IDX 17 15 12 17 13 18 14 19
REMARK H PARENT
REMARK Flexibility Score: 70.00
ROOT
ATOM      1  C   UNL     1     -19.231 -50.803  26.168  1.00  0.00     0.136 C 
ATOM      2  O   UNL     1     -18.487 -50.666  25.206  1.00  0.00    -0.299 OA
ENDROOT
BRANCH   1   3
ATOM      3  C   UNL     1     -20.557 -51.518  25.992  1.00  0.00     0.053 C 
ATOM      4  C   UNL     1     -21.409 -50.813  24.928  1.00  0.00     0.016 C 
BRANCH   3   5
ATOM      5  C   UNL     1     -20.328 -53.001  25.620  1.00  0.00     0.015 C 
BRANCH   5   6
ATOM      6  C   UNL     1     -20.421 -53.917  26.856  1.00  0.00     0.028 C 
BRANCH   6   7
ATOM      7  C   UNL     1     -21.591 -53.592  27.751  1.00  0.00    -0.028 C 
ATOM      8  C   UNL     1     -21.504 -53.087  29.006  1.00  0.00    -0.070 CG0
ATOM      9  C   UNL     1     -22.792 -52.733  29.709  1.00  0.00     0.039 C 
ATOM     10  G   UNL     1     -20.189 -52.902  29.753  1.00  0.00     0.000 G0
ENDBRANCH   6   7
ENDBRANCH   5   6
ENDBRANCH   3   5
ENDBRANCH   1   3
BRANCH   1  11
ATOM     11  C   UNL     1     -18.810 -50.236  27.506  1.00  0.00     0.087 C 
BRANCH  11  12
ATOM     12  C   UNL     1     -18.445 -51.349  28.526  1.00  0.00     0.066 C 
BRANCH  12  13
ATOM     13  C   UNL     1     -19.548 -51.534  29.558  1.00  0.00     0.140 C 
ATOM     14  O   UNL     1     -19.894 -50.601  30.270  1.00  0.00    -0.299 OA
BRANCH  13  15
ATOM     15  C   UNL     1     -20.182 -52.891  29.751  1.00  0.00     0.106 CG0
ATOM     16  G   UNL     1     -21.496 -53.072  29.000  1.00  0.00     0.000 G0
ENDBRANCH  13  15
ENDBRANCH  12  13
BRANCH  12  17
ATOM     17  C   UNL     1     -17.048 -51.141  29.198  1.00  0.00    -0.006 C 
ATOM     18  C   UNL     1     -16.789 -49.659  29.515  1.00  0.00     0.008 C 
ATOM     19  C   UNL     1     -16.834 -51.989  30.466  1.00  0.00     0.008 C 
ENDBRANCH  12  17
ENDBRANCH  11  12
ENDBRANCH   1  11
TORSDOF 1
ENDMDL
MODEL 8
REMARK VINA RESULT:    -4.211      4.850      6.507
REMARK INTER + INTRA:          -6.492
REMARK INTER:                  -6.304
REMARK INTRA:                  -0.189
REMARK UNBOUND:                -0.065
REMARK SMILES CC1=CCC[C@H](C)C(=O)C[C@@H](C(C)C)C(=O)C1
REMARK SMILES IDX 8 1 9 2 6 3 7 4 5 5 4 6 3 7 2 8 1 9 10 11 11 12 15 13 16 14
REMARK SMILES IDX 17 15 12 17 13 18 14 19
REMARK H PARENT
REMARK Flexibility Score: 70.00
ROOT
ATOM      1  C   UNL     1     -22.618 -52.856  24.776  1.00  0.00     0.136 C 
ATOM      2  O   UNL     1     -21.435 -52.761  24.479  1.00  0.00    -0.299 OA
ENDROOT
BRANCH   1   3
ATOM      3  C   UNL     1     -23.436 -54.010  24.226  1.00  0.00     0.053 C 
ATOM      4  C   UNL     1     -22.842 -55.351  24.679  1.00  0.00     0.016 C 
BRANCH   3   5
ATOM      5  C   UNL     1     -24.913 -53.884  24.664  1.00  0.00     0.015 C 
BRANCH   5   6
ATOM      6  C   UNL     1     -25.297 -54.973  25.685  1.00  0.00     0.028 C 
BRANCH   6   7
ATOM      7  C   UNL     1     -26.243 -54.481  26.752  1.00  0.00    -0.028 C 
ATOM      8  C   UNL     1     -25.882 -53.819  27.879  1.00  0.00    -0.070 CG0
ATOM      9  C   UNL     1     -26.984 -53.319  28.780  1.00  0.00     0.039 C 
ATOM     10  G   UNL     1     -24.435 -53.597  28.300  1.00  0.00     0.000 G0
ENDBRANCH   6   7
ENDBRANCH   5   6
ENDBRANCH   3   5
ENDBRANCH   1   3
BRANCH   1  11
ATOM     11  C   UNL     1     -23.235 -51.806  25.673  1.00  0.00     0.087 C 
BRANCH  11  12
ATOM     12  C   UNL     1     -22.758 -51.936  27.145  1.00  0.00     0.066 C 
BRANCH  12  13
ATOM     13  C   UNL     1     -23.930 -52.182  28.084  1.00  0.00     0.140 C 
ATOM     14  O   UNL     1     -24.441 -51.254  28.694  1.00  0.00    -0.299 OA
BRANCH  13  15
ATOM     15  C   UNL     1     -24.430 -53.589  28.316  1.00  0.00     0.106 CG0
ATOM     16  G   UNL     1     -25.868 -53.816  27.868  1.00  0.00     0.000 G0
ENDBRANCH  13  15
ENDBRANCH  12  13
BRANCH  12  17
ATOM     17  C   UNL     1     -21.872 -50.738  27.619  1.00  0.00    -0.006 C 
ATOM     18  C   UNL     1     -20.676 -51.218  28.458  1.00  0.00     0.008 C 
ATOM     19  C   UNL     1     -21.376 -49.838  26.472  1.00  0.00     0.008 C 
ENDBRANCH  12  17
ENDBRANCH  11  12
ENDBRANCH   1  11
TORSDOF 1
ENDMDL
MODEL 9
REMARK VINA RESULT:    -4.130      1.821      4.414
REMARK INTER + INTRA:          -6.369
REMARK INTER:                  -6.073
REMARK INTRA:                  -0.296
REMARK UNBOUND:                -0.065
REMARK SMILES CC1=CCC[C@H](C)C(=O)C[C@@H](C(C)C)C(=O)C1
REMARK SMILES IDX 8 1 9 2 6 3 7 4 5 5 4 6 3 7 2 8 1 9 10 11 11 12 15 13 16 14
REMARK SMILES IDX 17 15 12 17 13 18 14 19
REMARK H PARENT
REMARK Flexibility Score: 70.00
ROOT
ATOM      1  C   UNL     1     -20.589 -51.405  27.745  1.00  0.00     0.136 C 
ATOM      2  O   UNL     1     -21.630 -51.203  27.135  1.00  0.00    -0.299 OA
ENDROOT
BRANCH   1   3
ATOM      3  C   UNL     1     -19.282 -50.872  27.188  1.00  0.00     0.053 C 
ATOM      4  C   UNL     1     -19.126 -49.382  27.522  1.00  0.00     0.016 C 
BRANCH   3   5
ATOM      5  C   UNL     1     -18.088 -51.688  27.734  1.00  0.00     0.015 C 
BRANCH   5   6
ATOM      6  C   UNL     1     -17.245 -50.866  28.729  1.00  0.00     0.028 C 
BRANCH   6   7
ATOM      7  C   UNL     1     -16.965 -51.597  30.017  1.00  0.00    -0.028 C 
ATOM      8  C   UNL     1     -17.735 -51.551  31.132  1.00  0.00    -0.070 CG0
ATOM      9  C   UNL     1     -17.342 -52.432  32.292  1.00  0.00     0.039 C 
ATOM     10  G   UNL     1     -18.939 -50.630  31.288  1.00  0.00     0.000 G0
ENDBRANCH   6   7
ENDBRANCH   5   6
ENDBRANCH   3   5
ENDBRANCH   1   3
BRANCH   1  11
ATOM     11  C   UNL     1     -20.635 -52.199  29.031  1.00  0.00     0.087 C 
BRANCH  11  12
ATOM     12  C   UNL     1     -21.220 -51.374  30.210  1.00  0.00     0.066 C 
BRANCH  12  13
ATOM     13  C   UNL     1     -20.268 -51.358  31.397  1.00  0.00     0.140 C 
ATOM     14  O   UNL     1     -20.586 -51.886  32.453  1.00  0.00    -0.299 OA
BRANCH  13  15
ATOM     15  C   UNL     1     -18.946 -50.635  31.295  1.00  0.00     0.106 CG0
ATOM     16  G   UNL     1     -17.746 -51.560  31.136  1.00  0.00     0.000 G0
ENDBRANCH  13  15
ENDBRANCH  12  13
BRANCH  12  17
ATOM     17  C   UNL     1     -22.661 -51.818  30.625  1.00  0.00    -0.006 C 
ATOM     18  C   UNL     1     -23.735 -50.939  29.961  1.00  0.00     0.008 C 
ATOM     19  C   UNL     1     -22.960 -53.303  30.346  1.00  0.00     0.008 C 
ENDBRANCH  12  17
ENDBRANCH  11  12
ENDBRANCH   1  11
TORSDOF 1
ENDMDL
