MODEL 1
REMARK VINA RESULT:    -3.624      0.000      0.000
REMARK INTER + INTRA:          -9.073
REMARK INTER:                  -7.861
REMARK INTRA:                  -1.212
REMARK UNBOUND:                -1.212
REMARK SMILES CCCCCCCCCCCCCCCCCCCCCC(=O)[O-]
REMARK SMILES IDX 12 1 11 2 10 3 9 4 8 5 7 6 6 7 5 8 4 9 3 10 2 11 1 12 13 13
REMARK SMILES IDX 14 14 15 15 16 16 17 17 18 18 19 19 20 20 21 21 22 22 23 23
REMARK SMILES IDX 24 24
REMARK H PARENT
REMARK Flexibility Score: inf
ROOT
ATOM      1  C   UNL     1      -2.838   4.339  -2.499  1.00  0.00     0.000 C 
ENDROOT
BRANCH   1   2
ATOM      2  C   UNL     1      -2.931   5.374  -1.367  1.00  0.00     0.000 C 
BRANCH   2   3
ATOM      3  C   UNL     1      -3.019   4.681   0.001  1.00  0.00     0.000 C 
BRANCH   3   4
ATOM      4  C   UNL     1      -3.011   3.150  -0.109  1.00  0.00    -0.000 C 
BRANCH   4   5
ATOM      5  C   UNL     1      -4.114   2.486   0.737  1.00  0.00    -0.000 C 
BRANCH   5   6
ATOM      6  C   UNL     1      -4.355   1.015   0.342  1.00  0.00    -0.000 C 
BRANCH   6   7
ATOM      7  C   UNL     1      -3.437   0.506  -0.788  1.00  0.00    -0.000 C 
BRANCH   7   8
ATOM      8  C   UNL     1      -3.383  -1.030  -0.915  1.00  0.00    -0.000 C 
BRANCH   8   9
ATOM      9  C   UNL     1      -4.171  -1.548  -2.128  1.00  0.00    -0.000 C 
BRANCH   9  10
ATOM     10  C   UNL     1      -4.090  -3.077  -2.227  1.00  0.00    -0.000 C 
BRANCH  10  11
ATOM     11  C   UNL     1      -3.437  -3.715  -0.990  1.00  0.00    -0.003 C 
ATOM     12  C   UNL     1      -4.462  -4.238   0.017  1.00  0.00     0.004 C 
ENDBRANCH  10  11
ENDBRANCH   9  10
ENDBRANCH   8   9
ENDBRANCH   7   8
ENDBRANCH   6   7
ENDBRANCH   5   6
ENDBRANCH   4   5
ENDBRANCH   3   4
ENDBRANCH   2   3
ENDBRANCH   1   2
BRANCH   1  13
ATOM     13  C   UNL     1      -3.625   4.756  -3.752  1.00  0.00     0.000 C 
BRANCH  13  14
ATOM     14  C   UNL     1      -4.952   5.455  -3.409  1.00  0.00     0.000 C 
BRANCH  14  15
ATOM     15  C   UNL     1      -5.451   6.357  -4.551  1.00  0.00     0.000 C 
BRANCH  15  16
ATOM     16  C   UNL     1      -6.697   5.789  -5.254  1.00  0.00     0.000 C 
BRANCH  16  17
ATOM     17  C   UNL     1      -7.242   6.725  -6.344  1.00  0.00     0.000 C 
BRANCH  17  18
ATOM     18  C   UNL     1      -7.585   5.978  -7.643  1.00  0.00     0.000 C 
BRANCH  18  19
ATOM     19  C   UNL     1      -8.552   6.761  -8.551  1.00  0.00     0.000 C 
BRANCH  19  20
ATOM     20  C   UNL     1      -8.394   8.292  -8.507  1.00  0.00     0.006 C 
BRANCH  20  21
ATOM     21  C   UNL     1      -7.485   8.834  -9.618  1.00  0.00     0.053 C 
BRANCH  21  22
ATOM     22  C   UNL     1      -6.147   9.212  -9.064  1.00  0.00     0.041 C 
ATOM     23  O   UNL     1      -6.040   9.581  -7.865  1.00  0.00    -0.550 OA
ATOM     24  O   UNL     1      -5.027   9.203  -9.886  1.00  0.00    -0.550 OA
ENDBRANCH  21  22
ENDBRANCH  20  21
ENDBRANCH  19  20
ENDBRANCH  18  19
ENDBRANCH  17  18
ENDBRANCH  16  17
ENDBRANCH  15  16
ENDBRANCH  14  15
ENDBRANCH  13  14
ENDBRANCH   1  13
TORSDOF 20
ENDMDL
MODEL 2
REMARK VINA RESULT:    -3.576      1.071      2.036
REMARK INTER + INTRA:          -8.968
REMARK INTER:                  -7.614
REMARK INTRA:                  -1.355
REMARK UNBOUND:                -1.212
REMARK SMILES CCCCCCCCCCCCCCCCCCCCCC(=O)[O-]
REMARK SMILES IDX 12 1 11 2 10 3 9 4 8 5 7 6 6 7 5 8 4 9 3 10 2 11 1 12 13 13
REMARK SMILES IDX 14 14 15 15 16 16 17 17 18 18 19 19 20 20 21 21 22 22 23 23
REMARK SMILES IDX 24 24
REMARK H PARENT
REMARK Flexibility Score: inf
ROOT
ATOM      1  C   UNL     1      -2.981   5.438  -0.013  1.00  0.00     0.000 C 
ENDROOT
BRANCH   1   2
ATOM      2  C   UNL     1      -2.706   3.967   0.340  1.00  0.00     0.000 C 
BRANCH   2   3
ATOM      3  C   UNL     1      -4.004   3.248   0.733  1.00  0.00     0.000 C 
BRANCH   3   4
ATOM      4  C   UNL     1      -3.950   1.737   0.463  1.00  0.00    -0.000 C 
BRANCH   4   5
ATOM      5  C   UNL     1      -2.638   1.299  -0.216  1.00  0.00    -0.000 C 
BRANCH   5   6
ATOM      6  C   UNL     1      -2.718  -0.131  -0.786  1.00  0.00    -0.000 C 
BRANCH   6   7
ATOM      7  C   UNL     1      -4.151  -0.604  -1.106  1.00  0.00    -0.000 C 
BRANCH   7   8
ATOM      8  C   UNL     1      -4.292  -1.320  -2.464  1.00  0.00    -0.000 C 
BRANCH   8   9
ATOM      9  C   UNL     1      -3.314  -2.496  -2.614  1.00  0.00    -0.000 C 
BRANCH   9  10
ATOM     10  C   UNL     1      -3.876  -3.767  -1.962  1.00  0.00    -0.000 C 
BRANCH  10  11
ATOM     11  C   UNL     1      -3.461  -3.909  -0.490  1.00  0.00    -0.003 C 
ATOM     12  C   UNL     1      -4.617  -4.344   0.412  1.00  0.00     0.004 C 
ENDBRANCH  10  11
ENDBRANCH   9  10
ENDBRANCH   8   9
ENDBRANCH   7   8
ENDBRANCH   6   7
ENDBRANCH   5   6
ENDBRANCH   4   5
ENDBRANCH   3   4
ENDBRANCH   2   3
ENDBRANCH   1   2
BRANCH   1  13
ATOM     13  C   UNL     1      -3.725   5.600  -1.348  1.00  0.00     0.000 C 
BRANCH  13  14
ATOM     14  C   UNL     1      -3.201   4.645  -2.436  1.00  0.00     0.000 C 
BRANCH  14  15
ATOM     15  C   UNL     1      -3.824   4.928  -3.813  1.00  0.00     0.000 C 
BRANCH  15  16
ATOM     16  C   UNL     1      -5.207   5.595  -3.712  1.00  0.00     0.000 C 
BRANCH  16  17
ATOM     17  C   UNL     1      -5.576   6.391  -4.974  1.00  0.00     0.000 C 
BRANCH  17  18
ATOM     18  C   UNL     1      -6.875   5.890  -5.627  1.00  0.00     0.000 C 
BRANCH  18  19
ATOM     19  C   UNL     1      -6.793   5.833  -7.163  1.00  0.00     0.000 C 
BRANCH  19  20
ATOM     20  C   UNL     1      -7.840   6.685  -7.905  1.00  0.00     0.006 C 
BRANCH  20  21
ATOM     21  C   UNL     1      -7.245   7.950  -8.538  1.00  0.00     0.053 C 
BRANCH  21  22
ATOM     22  C   UNL     1      -7.506   9.142  -7.672  1.00  0.00     0.041 C 
ATOM     23  O   UNL     1      -8.686   9.527  -7.463  1.00  0.00    -0.550 OA
ATOM     24  O   UNL     1      -6.442   9.856  -7.135  1.00  0.00    -0.550 OA
ENDBRANCH  21  22
ENDBRANCH  20  21
ENDBRANCH  19  20
ENDBRANCH  18  19
ENDBRANCH  17  18
ENDBRANCH  16  17
ENDBRANCH  15  16
ENDBRANCH  14  15
ENDBRANCH  13  14
ENDBRANCH   1  13
TORSDOF 20
ENDMDL
MODEL 3
REMARK VINA RESULT:    -3.311      0.637      2.019
REMARK INTER + INTRA:          -8.395
REMARK INTER:                  -7.081
REMARK INTRA:                  -1.314
REMARK UNBOUND:                -1.212
REMARK SMILES CCCCCCCCCCCCCCCCCCCCCC(=O)[O-]
REMARK SMILES IDX 12 1 11 2 10 3 9 4 8 5 7 6 6 7 5 8 4 9 3 10 2 11 1 12 13 13
REMARK SMILES IDX 14 14 15 15 16 16 17 17 18 18 19 19 20 20 21 21 22 22 23 23
REMARK SMILES IDX 24 24
REMARK H PARENT
REMARK Flexibility Score: inf
ROOT
ATOM      1  C   UNL     1      -4.989   5.533  -3.421  1.00  0.00     0.000 C 
ENDROOT
BRANCH   1   2
ATOM      2  C   UNL     1      -3.820   4.542  -3.302  1.00  0.00     0.000 C 
BRANCH   2   3
ATOM      3  C   UNL     1      -2.828   4.995  -2.222  1.00  0.00     0.000 C 
BRANCH   3   4
ATOM      4  C   UNL     1      -3.345   4.744  -0.798  1.00  0.00    -0.000 C 
BRANCH   4   5
ATOM      5  C   UNL     1      -2.891   3.385  -0.230  1.00  0.00    -0.000 C 
BRANCH   5   6
ATOM      6  C   UNL     1      -4.026   2.647   0.507  1.00  0.00    -0.000 C 
BRANCH   6   7
ATOM      7  C   UNL     1      -3.935   1.109   0.430  1.00  0.00    -0.000 C 
BRANCH   7   8
ATOM      8  C   UNL     1      -3.628   0.563  -0.979  1.00  0.00    -0.000 C 
BRANCH   8   9
ATOM      9  C   UNL     1      -3.542  -0.970  -1.009  1.00  0.00    -0.000 C 
BRANCH   9  10
ATOM     10  C   UNL     1      -3.958  -1.520  -2.381  1.00  0.00    -0.000 C 
BRANCH  10  11
ATOM     11  C   UNL     1      -3.981  -3.056  -2.419  1.00  0.00    -0.003 C 
ATOM     12  C   UNL     1      -3.764  -3.685  -1.042  1.00  0.00     0.004 C 
ENDBRANCH  10  11
ENDBRANCH   9  10
ENDBRANCH   8   9
ENDBRANCH   7   8
ENDBRANCH   6   7
ENDBRANCH   5   6
ENDBRANCH   4   5
ENDBRANCH   3   4
ENDBRANCH   2   3
ENDBRANCH   1   2
BRANCH   1  13
ATOM     13  C   UNL     1      -5.237   5.990  -4.867  1.00  0.00     0.000 C 
BRANCH  13  14
ATOM     14  C   UNL     1      -6.731   6.011  -5.233  1.00  0.00     0.000 C 
BRANCH  14  15
ATOM     15  C   UNL     1      -7.045   7.008  -6.362  1.00  0.00     0.000 C 
BRANCH  15  16
ATOM     16  C   UNL     1      -7.253   6.316  -7.721  1.00  0.00     0.000 C 
BRANCH  16  17
ATOM     17  C   UNL     1      -8.693   6.450  -8.241  1.00  0.00     0.000 C 
BRANCH  17  18
ATOM     18  C   UNL     1      -8.834   7.551  -9.305  1.00  0.00     0.000 C 
BRANCH  18  19
ATOM     19  C   UNL     1      -9.165   8.930  -8.705  1.00  0.00     0.000 C 
BRANCH  19  20
ATOM     20  C   UNL     1      -8.044   9.980  -8.823  1.00  0.00     0.006 C 
BRANCH  20  21
ATOM     21  C   UNL     1      -6.982   9.610  -9.867  1.00  0.00     0.053 C 
BRANCH  21  22
ATOM     22  C   UNL     1      -5.651   9.409  -9.213  1.00  0.00     0.041 C 
ATOM     23  O   UNL     1      -4.744   8.769  -9.807  1.00  0.00    -0.550 OA
ATOM     24  O   UNL     1      -5.429   9.889  -7.928  1.00  0.00    -0.550 OA
ENDBRANCH  21  22
ENDBRANCH  20  21
ENDBRANCH  19  20
ENDBRANCH  18  19
ENDBRANCH  17  18
ENDBRANCH  16  17
ENDBRANCH  15  16
ENDBRANCH  14  15
ENDBRANCH  13  14
ENDBRANCH   1  13
TORSDOF 20
ENDMDL
MODEL 4
REMARK VINA RESULT:    -3.202      4.360     10.690
REMARK INTER + INTRA:          -8.157
REMARK INTER:                  -6.786
REMARK INTRA:                  -1.371
REMARK UNBOUND:                -1.212
REMARK SMILES CCCCCCCCCCCCCCCCCCCCCC(=O)[O-]
REMARK SMILES IDX 12 1 11 2 10 3 9 4 8 5 7 6 6 7 5 8 4 9 3 10 2 11 1 12 13 13
REMARK SMILES IDX 14 14 15 15 16 16 17 17 18 18 19 19 20 20 21 21 22 22 23 23
REMARK SMILES IDX 24 24
REMARK H PARENT
REMARK Flexibility Score: inf
ROOT
ATOM      1  C   UNL     1      -3.009   4.656  -2.391  1.00  0.00     0.000 C 
ENDROOT
BRANCH   1   2
ATOM      2  C   UNL     1      -3.791   5.003  -3.669  1.00  0.00     0.000 C 
BRANCH   2   3
ATOM      3  C   UNL     1      -5.186   5.544  -3.325  1.00  0.00     0.000 C 
BRANCH   3   4
ATOM      4  C   UNL     1      -5.727   6.509  -4.390  1.00  0.00    -0.000 C 
BRANCH   4   5
ATOM      5  C   UNL     1      -6.033   5.809  -5.728  1.00  0.00    -0.000 C 
BRANCH   5   6
ATOM      6  C   UNL     1      -7.333   6.324  -6.377  1.00  0.00    -0.000 C 
BRANCH   6   7
ATOM      7  C   UNL     1      -7.259   6.473  -7.910  1.00  0.00    -0.000 C 
BRANCH   7   8
ATOM      8  C   UNL     1      -7.829   7.802  -8.445  1.00  0.00    -0.000 C 
BRANCH   8   9
ATOM      9  C   UNL     1      -7.658   8.959  -7.448  1.00  0.00    -0.000 C 
BRANCH   9  10
ATOM     10  C   UNL     1      -6.205   9.455  -7.423  1.00  0.00    -0.000 C 
BRANCH  10  11
ATOM     11  C   UNL     1      -5.755  10.032  -8.775  1.00  0.00    -0.003 C 
ATOM     12  C   UNL     1      -4.701   9.166  -9.466  1.00  0.00     0.004 C 
ENDBRANCH  10  11
ENDBRANCH   9  10
ENDBRANCH   8   9
ENDBRANCH   7   8
ENDBRANCH   6   7
ENDBRANCH   5   6
ENDBRANCH   4   5
ENDBRANCH   3   4
ENDBRANCH   2   3
ENDBRANCH   1   2
BRANCH   1  13
ATOM     13  C   UNL     1      -3.359   5.576  -1.211  1.00  0.00     0.000 C 
BRANCH  13  14
ATOM     14  C   UNL     1      -2.643   5.169   0.089  1.00  0.00     0.000 C 
BRANCH  14  15
ATOM     15  C   UNL     1      -2.730   3.656   0.356  1.00  0.00     0.000 C 
BRANCH  15  16
ATOM     16  C   UNL     1      -4.107   3.229   0.895  1.00  0.00     0.000 C 
BRANCH  16  17
ATOM     17  C   UNL     1      -4.341   1.713   0.786  1.00  0.00     0.000 C 
BRANCH  17  18
ATOM     18  C   UNL     1      -3.680   1.104  -0.462  1.00  0.00     0.000 C 
BRANCH  18  19
ATOM     19  C   UNL     1      -3.861  -0.422  -0.554  1.00  0.00     0.000 C 
BRANCH  19  20
ATOM     20  C   UNL     1      -3.273  -1.075  -1.819  1.00  0.00     0.006 C 
BRANCH  20  21
ATOM     21  C   UNL     1      -4.295  -1.922  -2.589  1.00  0.00     0.053 C 
BRANCH  21  22
ATOM     22  C   UNL     1      -3.916  -3.369  -2.545  1.00  0.00     0.041 C 
ATOM     23  O   UNL     1      -3.758  -4.015  -3.614  1.00  0.00    -0.550 OA
ATOM     24  O   UNL     1      -3.785  -4.015  -1.321  1.00  0.00    -0.550 OA
ENDBRANCH  21  22
ENDBRANCH  20  21
ENDBRANCH  19  20
ENDBRANCH  18  19
ENDBRANCH  17  18
ENDBRANCH  16  17
ENDBRANCH  15  16
ENDBRANCH  14  15
ENDBRANCH  13  14
ENDBRANCH   1  13
TORSDOF 20
ENDMDL
MODEL 5
REMARK VINA RESULT:    -3.096      4.256     11.059
REMARK INTER + INTRA:          -7.928
REMARK INTER:                  -6.325
REMARK INTRA:                  -1.603
REMARK UNBOUND:                -1.212
REMARK SMILES CCCCCCCCCCCCCCCCCCCCCC(=O)[O-]
REMARK SMILES IDX 12 1 11 2 10 3 9 4 8 5 7 6 6 7 5 8 4 9 3 10 2 11 1 12 13 13
REMARK SMILES IDX 14 14 15 15 16 16 17 17 18 18 19 19 20 20 21 21 22 22 23 23
REMARK SMILES IDX 24 24
REMARK H PARENT
REMARK Flexibility Score: inf
ROOT
ATOM      1  C   UNL     1      -4.794   5.327  -3.443  1.00  0.00     0.000 C 
ENDROOT
BRANCH   1   2
ATOM      2  C   UNL     1      -5.302   6.336  -4.487  1.00  0.00     0.000 C 
BRANCH   2   3
ATOM      3  C   UNL     1      -6.702   5.950  -4.984  1.00  0.00     0.000 C 
BRANCH   3   4
ATOM      4  C   UNL     1      -7.112   6.711  -6.253  1.00  0.00    -0.000 C 
BRANCH   4   5
ATOM      5  C   UNL     1      -7.206   5.798  -7.490  1.00  0.00    -0.000 C 
BRANCH   5   6
ATOM      6  C   UNL     1      -8.085   6.404  -8.603  1.00  0.00    -0.000 C 
BRANCH   6   7
ATOM      7  C   UNL     1      -8.690   7.779  -8.253  1.00  0.00    -0.000 C 
BRANCH   7   8
ATOM      8  C   UNL     1      -8.887   8.710  -9.466  1.00  0.00    -0.000 C 
BRANCH   8   9
ATOM      9  C   UNL     1      -7.706   9.673  -9.666  1.00  0.00    -0.000 C 
BRANCH   9  10
ATOM     10  C   UNL     1      -7.128  10.124  -8.318  1.00  0.00    -0.000 C 
BRANCH  10  11
ATOM     11  C   UNL     1      -5.615   9.877  -8.212  1.00  0.00    -0.003 C 
ATOM     12  C   UNL     1      -5.070   9.039  -9.370  1.00  0.00     0.004 C 
ENDBRANCH  10  11
ENDBRANCH   9  10
ENDBRANCH   8   9
ENDBRANCH   7   8
ENDBRANCH   6   7
ENDBRANCH   5   6
ENDBRANCH   4   5
ENDBRANCH   3   4
ENDBRANCH   2   3
ENDBRANCH   1   2
BRANCH   1  13
ATOM     13  C   UNL     1      -3.354   4.865  -3.715  1.00  0.00     0.000 C 
BRANCH  13  14
ATOM     14  C   UNL     1      -2.647   4.357  -2.445  1.00  0.00     0.000 C 
BRANCH  14  15
ATOM     15  C   UNL     1      -3.287   4.907  -1.159  1.00  0.00     0.000 C 
BRANCH  15  16
ATOM     16  C   UNL     1      -3.042   3.999   0.059  1.00  0.00     0.000 C 
BRANCH  16  17
ATOM     17  C   UNL     1      -2.506   2.613  -0.332  1.00  0.00     0.000 C 
BRANCH  17  18
ATOM     18  C   UNL     1      -3.330   1.469   0.283  1.00  0.00     0.000 C 
BRANCH  18  19
ATOM     19  C   UNL     1      -4.085   0.637  -0.770  1.00  0.00     0.000 C 
BRANCH  19  20
ATOM     20  C   UNL     1      -3.527  -0.779  -1.006  1.00  0.00     0.006 C 
BRANCH  20  21
ATOM     21  C   UNL     1      -4.110  -1.453  -2.255  1.00  0.00     0.053 C 
BRANCH  21  22
ATOM     22  C   UNL     1      -3.748  -2.905  -2.285  1.00  0.00     0.041 C 
ATOM     23  O   UNL     1      -3.447  -3.461  -3.374  1.00  0.00    -0.550 OA
ATOM     24  O   UNL     1      -3.790  -3.655  -1.116  1.00  0.00    -0.550 OA
ENDBRANCH  21  22
ENDBRANCH  20  21
ENDBRANCH  19  20
ENDBRANCH  18  19
ENDBRANCH  17  18
ENDBRANCH  16  17
ENDBRANCH  15  16
ENDBRANCH  14  15
ENDBRANCH  13  14
ENDBRANCH   1  13
TORSDOF 20
ENDMDL
MODEL 6
REMARK VINA RESULT:    -2.895      4.385     10.501
REMARK INTER + INTRA:          -7.492
REMARK INTER:                  -6.033
REMARK INTRA:                  -1.459
REMARK UNBOUND:                -1.212
REMARK SMILES CCCCCCCCCCCCCCCCCCCCCC(=O)[O-]
REMARK SMILES IDX 12 1 11 2 10 3 9 4 8 5 7 6 6 7 5 8 4 9 3 10 2 11 1 12 13 13
REMARK SMILES IDX 14 14 15 15 16 16 17 17 18 18 19 19 20 20 21 21 22 22 23 23
REMARK SMILES IDX 24 24
REMARK H PARENT
REMARK Flexibility Score: inf
ROOT
ATOM      1  C   UNL     1      -3.769   5.595  -1.459  1.00  0.00     0.000 C 
ENDROOT
BRANCH   1   2
ATOM      2  C   UNL     1      -3.193   4.680  -2.552  1.00  0.00     0.000 C 
BRANCH   2   3
ATOM      3  C   UNL     1      -3.921   4.900  -3.887  1.00  0.00     0.000 C 
BRANCH   3   4
ATOM      4  C   UNL     1      -5.259   5.634  -3.719  1.00  0.00    -0.000 C 
BRANCH   4   5
ATOM      5  C   UNL     1      -5.664   6.429  -4.975  1.00  0.00    -0.000 C 
BRANCH   5   6
ATOM      6  C   UNL     1      -6.828   5.769  -5.740  1.00  0.00    -0.000 C 
BRANCH   6   7
ATOM      7  C   UNL     1      -6.782   5.978  -7.267  1.00  0.00    -0.000 C 
BRANCH   7   8
ATOM      8  C   UNL     1      -8.053   6.621  -7.856  1.00  0.00    -0.000 C 
BRANCH   8   9
ATOM      9  C   UNL     1      -7.779   7.995  -8.487  1.00  0.00    -0.000 C 
BRANCH   9  10
ATOM     10  C   UNL     1      -7.036   8.914  -7.507  1.00  0.00    -0.000 C 
BRANCH  10  11
ATOM     11  C   UNL     1      -6.011   9.820  -8.208  1.00  0.00    -0.003 C 
ATOM     12  C   UNL     1      -5.162   9.067  -9.234  1.00  0.00     0.004 C 
ENDBRANCH  10  11
ENDBRANCH   9  10
ENDBRANCH   8   9
ENDBRANCH   7   8
ENDBRANCH   6   7
ENDBRANCH   5   6
ENDBRANCH   4   5
ENDBRANCH   3   4
ENDBRANCH   2   3
ENDBRANCH   1   2
BRANCH   1  13
ATOM     13  C   UNL     1      -3.010   5.480  -0.127  1.00  0.00     0.000 C 
BRANCH  13  14
ATOM     14  C   UNL     1      -2.748   4.018   0.279  1.00  0.00     0.000 C 
BRANCH  14  15
ATOM     15  C   UNL     1      -4.040   3.274   0.655  1.00  0.00     0.000 C 
BRANCH  15  16
ATOM     16  C   UNL     1      -3.902   1.746   0.527  1.00  0.00     0.000 C 
BRANCH  16  17
ATOM     17  C   UNL     1      -2.718   1.330  -0.361  1.00  0.00     0.000 C 
BRANCH  17  18
ATOM     18  C   UNL     1      -2.746  -0.166  -0.715  1.00  0.00     0.000 C 
BRANCH  18  19
ATOM     19  C   UNL     1      -4.159  -0.678  -1.052  1.00  0.00     0.000 C 
BRANCH  19  20
ATOM     20  C   UNL     1      -4.351  -1.161  -2.502  1.00  0.00     0.006 C 
BRANCH  20  21
ATOM     21  C   UNL     1      -3.187  -2.026  -3.005  1.00  0.00     0.053 C 
BRANCH  21  22
ATOM     22  C   UNL     1      -3.502  -3.479  -2.836  1.00  0.00     0.041 C 
ATOM     23  O   UNL     1      -3.483  -4.251  -3.830  1.00  0.00    -0.550 OA
ATOM     24  O   UNL     1      -3.862  -3.971  -1.587  1.00  0.00    -0.550 OA
ENDBRANCH  21  22
ENDBRANCH  20  21
ENDBRANCH  19  20
ENDBRANCH  18  19
ENDBRANCH  17  18
ENDBRANCH  16  17
ENDBRANCH  15  16
ENDBRANCH  14  15
ENDBRANCH  13  14
ENDBRANCH   1  13
TORSDOF 20
ENDMDL
MODEL 7
REMARK VINA RESULT:    -2.840      4.719     10.808
REMARK INTER + INTRA:          -7.373
REMARK INTER:                  -6.013
REMARK INTRA:                  -1.360
REMARK UNBOUND:                -1.212
REMARK SMILES CCCCCCCCCCCCCCCCCCCCCC(=O)[O-]
REMARK SMILES IDX 12 1 11 2 10 3 9 4 8 5 7 6 6 7 5 8 4 9 3 10 2 11 1 12 13 13
REMARK SMILES IDX 14 14 15 15 16 16 17 17 18 18 19 19 20 20 21 21 22 22 23 23
REMARK SMILES IDX 24 24
REMARK H PARENT
REMARK Flexibility Score: inf
ROOT
ATOM      1  C   UNL     1      -3.364   4.927  -1.058  1.00  0.00     0.000 C 
ENDROOT
BRANCH   1   2
ATOM      2  C   UNL     1      -2.738   4.501  -2.395  1.00  0.00     0.000 C 
BRANCH   2   3
ATOM      3  C   UNL     1      -3.771   4.571  -3.529  1.00  0.00     0.000 C 
BRANCH   3   4
ATOM      4  C   UNL     1      -4.623   5.847  -3.478  1.00  0.00    -0.000 C 
BRANCH   4   5
ATOM      5  C   UNL     1      -6.008   5.665  -4.127  1.00  0.00    -0.000 C 
BRANCH   5   6
ATOM      6  C   UNL     1      -6.103   6.341  -5.510  1.00  0.00    -0.000 C 
BRANCH   6   7
ATOM      7  C   UNL     1      -7.366   5.965  -6.311  1.00  0.00    -0.000 C 
BRANCH   7   8
ATOM      8  C   UNL     1      -7.221   6.135  -7.837  1.00  0.00    -0.000 C 
BRANCH   8   9
ATOM      9  C   UNL     1      -8.394   6.910  -8.457  1.00  0.00    -0.000 C 
BRANCH   9  10
ATOM     10  C   UNL     1      -7.967   8.329  -8.857  1.00  0.00    -0.000 C 
BRANCH  10  11
ATOM     11  C   UNL     1      -6.464   8.573  -8.653  1.00  0.00    -0.003 C 
ATOM     12  C   UNL     1      -6.174   9.558  -7.519  1.00  0.00     0.004 C 
ENDBRANCH  10  11
ENDBRANCH   9  10
ENDBRANCH   8   9
ENDBRANCH   7   8
ENDBRANCH   6   7
ENDBRANCH   5   6
ENDBRANCH   4   5
ENDBRANCH   3   4
ENDBRANCH   2   3
ENDBRANCH   1   2
BRANCH   1  13
ATOM     13  C   UNL     1      -2.897   4.059   0.121  1.00  0.00     0.000 C 
BRANCH  13  14
ATOM     14  C   UNL     1      -4.047   3.257   0.757  1.00  0.00     0.000 C 
BRANCH  14  15
ATOM     15  C   UNL     1      -4.023   1.774   0.349  1.00  0.00     0.000 C 
BRANCH  15  16
ATOM     16  C   UNL     1      -2.711   1.373  -0.348  1.00  0.00     0.000 C 
BRANCH  16  17
ATOM     17  C   UNL     1      -2.672  -0.116  -0.729  1.00  0.00     0.000 C 
BRANCH  17  18
ATOM     18  C   UNL     1      -4.066  -0.672  -1.066  1.00  0.00     0.000 C 
BRANCH  18  19
ATOM     19  C   UNL     1      -4.114  -1.388  -2.429  1.00  0.00     0.000 C 
BRANCH  19  20
ATOM     20  C   UNL     1      -3.329  -2.711  -2.500  1.00  0.00     0.006 C 
BRANCH  20  21
ATOM     21  C   UNL     1      -4.118  -3.908  -1.951  1.00  0.00     0.053 C 
BRANCH  21  22
ATOM     22  C   UNL     1      -3.874  -4.067  -0.483  1.00  0.00     0.041 C 
ATOM     23  O   UNL     1      -2.772  -3.722   0.018  1.00  0.00    -0.550 OA
ATOM     24  O   UNL     1      -4.849  -4.642   0.324  1.00  0.00    -0.550 OA
ENDBRANCH  21  22
ENDBRANCH  20  21
ENDBRANCH  19  20
ENDBRANCH  18  19
ENDBRANCH  17  18
ENDBRANCH  16  17
ENDBRANCH  15  16
ENDBRANCH  14  15
ENDBRANCH  13  14
ENDBRANCH   1  13
TORSDOF 20
ENDMDL
MODEL 8
REMARK VINA RESULT:    -2.604      1.500      2.658
REMARK INTER + INTRA:          -6.860
REMARK INTER:                  -6.199
REMARK INTRA:                  -0.661
REMARK UNBOUND:                -1.212
REMARK SMILES CCCCCCCCCCCCCCCCCCCCCC(=O)[O-]
REMARK SMILES IDX 12 1 11 2 10 3 9 4 8 5 7 6 6 7 5 8 4 9 3 10 2 11 1 12 13 13
REMARK SMILES IDX 14 14 15 15 16 16 17 17 18 18 19 19 20 20 21 21 22 22 23 23
REMARK SMILES IDX 24 24
REMARK H PARENT
REMARK Flexibility Score: inf
ROOT
ATOM      1  C   UNL     1      -2.720   5.213   0.418  1.00  0.00     0.000 C 
ENDROOT
BRANCH   1   2
ATOM      2  C   UNL     1      -2.742   3.688   0.608  1.00  0.00     0.000 C 
BRANCH   2   3
ATOM      3  C   UNL     1      -4.130   3.214   1.062  1.00  0.00     0.000 C 
BRANCH   3   4
ATOM      4  C   UNL     1      -4.376   1.728   0.764  1.00  0.00    -0.000 C 
BRANCH   4   5
ATOM      5  C   UNL     1      -3.131   1.020   0.196  1.00  0.00    -0.000 C 
BRANCH   5   6
ATOM      6  C   UNL     1      -3.371   0.453  -1.218  1.00  0.00    -0.000 C 
BRANCH   6   7
ATOM      7  C   UNL     1      -3.783  -1.032  -1.243  1.00  0.00    -0.000 C 
BRANCH   7   8
ATOM      8  C   UNL     1      -3.971  -1.614  -2.658  1.00  0.00    -0.000 C 
BRANCH   8   9
ATOM      9  C   UNL     1      -3.366  -3.019  -2.802  1.00  0.00    -0.000 C 
BRANCH   9  10
ATOM     10  C   UNL     1      -4.095  -4.028  -1.903  1.00  0.00    -0.000 C 
BRANCH  10  11
ATOM     11  C   UNL     1      -3.610  -3.977  -0.446  1.00  0.00    -0.003 C 
ATOM     12  C   UNL     1      -4.636  -4.541   0.539  1.00  0.00     0.004 C 
ENDBRANCH  10  11
ENDBRANCH   9  10
ENDBRANCH   8   9
ENDBRANCH   7   8
ENDBRANCH   6   7
ENDBRANCH   5   6
ENDBRANCH   4   5
ENDBRANCH   3   4
ENDBRANCH   2   3
ENDBRANCH   1   2
BRANCH   1  13
ATOM     13  C   UNL     1      -3.238   5.649  -0.961  1.00  0.00     0.000 C 
BRANCH  13  14
ATOM     14  C   UNL     1      -3.314   4.480  -1.960  1.00  0.00     0.000 C 
BRANCH  14  15
ATOM     15  C   UNL     1      -2.991   4.917  -3.399  1.00  0.00     0.000 C 
BRANCH  15  16
ATOM     16  C   UNL     1      -4.230   4.906  -4.313  1.00  0.00     0.000 C 
BRANCH  16  17
ATOM     17  C   UNL     1      -5.281   5.950  -3.900  1.00  0.00     0.000 C 
BRANCH  17  18
ATOM     18  C   UNL     1      -6.502   5.955  -4.835  1.00  0.00     0.000 C 
BRANCH  18  19
ATOM     19  C   UNL     1      -6.120   6.059  -6.324  1.00  0.00     0.000 C 
BRANCH  19  20
ATOM     20  C   UNL     1      -6.981   7.029  -7.154  1.00  0.00     0.006 C 
BRANCH  20  21
ATOM     21  C   UNL     1      -8.073   6.319  -7.964  1.00  0.00     0.053 C 
BRANCH  21  22
ATOM     22  C   UNL     1      -8.921   7.316  -8.689  1.00  0.00     0.041 C 
ATOM     23  O   UNL     1      -8.978   8.509  -8.289  1.00  0.00    -0.550 OA
ATOM     24  O   UNL     1      -9.685   6.917  -9.779  1.00  0.00    -0.550 OA
ENDBRANCH  21  22
ENDBRANCH  20  21
ENDBRANCH  19  20
ENDBRANCH  18  19
ENDBRANCH  17  18
ENDBRANCH  16  17
ENDBRANCH  15  16
ENDBRANCH  14  15
ENDBRANCH  13  14
ENDBRANCH   1  13
TORSDOF 20
ENDMDL
MODEL 9
REMARK VINA RESULT:    -2.411      4.923     10.777
REMARK INTER + INTRA:          -6.442
REMARK INTER:                  -5.144
REMARK INTRA:                  -1.297
REMARK UNBOUND:                -1.212
REMARK SMILES CCCCCCCCCCCCCCCCCCCCCC(=O)[O-]
REMARK SMILES IDX 12 1 11 2 10 3 9 4 8 5 7 6 6 7 5 8 4 9 3 10 2 11 1 12 13 13
REMARK SMILES IDX 14 14 15 15 16 16 17 17 18 18 19 19 20 20 21 21 22 22 23 23
REMARK SMILES IDX 24 24
REMARK H PARENT
REMARK Flexibility Score: inf
ROOT
ATOM      1  C   UNL     1      -2.630   4.162   0.449  1.00  0.00     0.000 C 
ENDROOT
BRANCH   1   2
ATOM      2  C   UNL     1      -2.822   5.597  -0.067  1.00  0.00     0.000 C 
BRANCH   2   3
ATOM      3  C   UNL     1      -3.632   5.605  -1.371  1.00  0.00     0.000 C 
BRANCH   3   4
ATOM      4  C   UNL     1      -3.079   4.628  -2.419  1.00  0.00    -0.000 C 
BRANCH   4   5
ATOM      5  C   UNL     1      -3.696   4.839  -3.815  1.00  0.00    -0.000 C 
BRANCH   5   6
ATOM      6  C   UNL     1      -5.033   5.605  -3.758  1.00  0.00    -0.000 C 
BRANCH   6   7
ATOM      7  C   UNL     1      -5.543   6.088  -5.130  1.00  0.00    -0.000 C 
BRANCH   7   8
ATOM      8  C   UNL     1      -7.058   5.894  -5.346  1.00  0.00    -0.000 C 
BRANCH   8   9
ATOM      9  C   UNL     1      -7.481   6.150  -6.801  1.00  0.00    -0.000 C 
BRANCH   9  10
ATOM     10  C   UNL     1      -7.049   7.548  -7.264  1.00  0.00    -0.000 C 
BRANCH  10  11
ATOM     11  C   UNL     1      -7.629   7.921  -8.637  1.00  0.00    -0.003 C 
ATOM     12  C   UNL     1      -8.646   9.061  -8.560  1.00  0.00     0.004 C 
ENDBRANCH  10  11
ENDBRANCH   9  10
ENDBRANCH   8   9
ENDBRANCH   7   8
ENDBRANCH   6   7
ENDBRANCH   5   6
ENDBRANCH   4   5
ENDBRANCH   3   4
ENDBRANCH   2   3
ENDBRANCH   1   2
BRANCH   1  13
ATOM     13  C   UNL     1      -3.961   3.459   0.760  1.00  0.00     0.000 C 
BRANCH  13  14
ATOM     14  C   UNL     1      -3.923   1.954   0.438  1.00  0.00     0.000 C 
BRANCH  14  15
ATOM     15  C   UNL     1      -2.487   1.406   0.364  1.00  0.00     0.000 C 
BRANCH  15  16
ATOM     16  C   UNL     1      -2.295   0.404  -0.788  1.00  0.00     0.000 C 
BRANCH  16  17
ATOM     17  C   UNL     1      -3.600   0.111  -1.544  1.00  0.00     0.000 C 
BRANCH  17  18
ATOM     18  C   UNL     1      -4.171  -1.279  -1.214  1.00  0.00     0.000 C 
BRANCH  18  19
ATOM     19  C   UNL     1      -4.001  -2.288  -2.365  1.00  0.00     0.000 C 
BRANCH  19  20
ATOM     20  C   UNL     1      -3.869  -3.759  -1.930  1.00  0.00     0.006 C 
BRANCH  20  21
ATOM     21  C   UNL     1      -3.488  -3.916  -0.451  1.00  0.00     0.053 C 
BRANCH  21  22
ATOM     22  C   UNL     1      -4.603  -4.559   0.312  1.00  0.00     0.041 C 
ATOM     23  O   UNL     1      -5.007  -5.709  -0.005  1.00  0.00    -0.550 OA
ATOM     24  O   UNL     1      -5.228  -3.868   1.343  1.00  0.00    -0.550 OA
ENDBRANCH  21  22
ENDBRANCH  20  21
ENDBRANCH  19  20
ENDBRANCH  18  19
ENDBRANCH  17  18
ENDBRANCH  16  17
ENDBRANCH  15  16
ENDBRANCH  14  15
ENDBRANCH  13  14
ENDBRANCH   1  13
TORSDOF 20
ENDMDL
