MODEL 1
REMARK VINA RESULT:    -3.176      0.000      0.000
REMARK INTER + INTRA:          -3.644
REMARK INTER:                  -3.547
REMARK INTRA:                  -0.097
REMARK UNBOUND:                -0.097
REMARK SMILES CCc1ccc(O)cc1O
REMARK SMILES IDX 3 1 9 2 8 3 6 4 5 5 4 6 2 7 1 8 10 9 7 11
REMARK H PARENT 10 10 7 12
REMARK Flexibility Score: inf
ROOT
ATOM      1  C   UNL     1      79.467   3.141  65.402  1.00  0.00    -0.006 A 
ATOM      2  C   UNL     1      80.276   2.977  66.544  1.00  0.00     0.122 A 
ATOM      3  C   UNL     1      79.686   2.680  67.782  1.00  0.00     0.092 A 
ATOM      4  C   UNL     1      78.300   2.533  67.887  1.00  0.00     0.119 A 
ATOM      5  C   UNL     1      77.497   2.680  66.751  1.00  0.00     0.047 A 
ATOM      6  C   UNL     1      78.076   2.977  65.514  1.00  0.00     0.011 A 
ENDROOT
BRANCH   1   7
ATOM      7  C   UNL     1      80.078   3.431  64.053  1.00  0.00     0.036 C 
ATOM      8  C   UNL     1      79.678   4.821  63.568  1.00  0.00     0.009 C 
ENDBRANCH   1   7
BRANCH   2   9
ATOM      9  O   UNL     1      81.662   3.109  66.447  1.00  0.00    -0.508 OA
ATOM     10  H   UNL     1      82.275   2.841  67.209  1.00  0.00     0.293 HD
ENDBRANCH   2   9
BRANCH   4  11
ATOM     11  O   UNL     1      77.732   2.237  69.125  1.00  0.00    -0.508 OA
ATOM     12  H   UNL     1      77.464   2.968  69.773  1.00  0.00     0.293 HD
ENDBRANCH   4  11
TORSDOF 3
ENDMDL
MODEL 2
REMARK VINA RESULT:    -3.113     18.706     19.977
REMARK INTER + INTRA:          -3.574
REMARK INTER:                  -3.471
REMARK INTRA:                  -0.103
REMARK UNBOUND:                -0.097
REMARK SMILES CCc1ccc(O)cc1O
REMARK SMILES IDX 3 1 9 2 8 3 6 4 5 5 4 6 2 7 1 8 10 9 7 11
REMARK H PARENT 10 10 7 12
REMARK Flexibility Score: inf
ROOT
ATOM      1  C   UNL     1      66.792   6.191  52.408  1.00  0.00    -0.006 A 
ATOM      2  C   UNL     1      65.385   6.185  52.489  1.00  0.00     0.122 A 
ATOM      3  C   UNL     1      64.640   5.344  51.648  1.00  0.00     0.092 A 
ATOM      4  C   UNL     1      65.286   4.502  50.737  1.00  0.00     0.119 A 
ATOM      5  C   UNL     1      66.683   4.497  50.666  1.00  0.00     0.047 A 
ATOM      6  C   UNL     1      67.434   5.332  51.499  1.00  0.00     0.011 A 
ENDROOT
BRANCH   1   7
ATOM      7  C   UNL     1      67.619   7.063  53.319  1.00  0.00     0.036 C 
ATOM      8  C   UNL     1      68.139   8.287  52.571  1.00  0.00     0.009 C 
ENDBRANCH   1   7
BRANCH   2   9
ATOM      9  O   UNL     1      64.732   7.010  53.404  1.00  0.00    -0.508 OA
ATOM     10  H   UNL     1      63.752   7.247  53.300  1.00  0.00     0.293 HD
ENDBRANCH   2   9
BRANCH   4  11
ATOM     11  O   UNL     1      64.529   3.674  49.911  1.00  0.00    -0.508 OA
ATOM     12  H   UNL     1      64.484   3.823  48.910  1.00  0.00     0.293 HD
ENDBRANCH   4  11
TORSDOF 3
ENDMDL
MODEL 3
REMARK VINA RESULT:    -3.099      2.097      2.941
REMARK INTER + INTRA:          -3.558
REMARK INTER:                  -3.457
REMARK INTRA:                  -0.102
REMARK UNBOUND:                -0.097
REMARK SMILES CCc1ccc(O)cc1O
REMARK SMILES IDX 3 1 9 2 8 3 6 4 5 5 4 6 2 7 1 8 10 9 7 11
REMARK H PARENT 10 10 7 12
REMARK Flexibility Score: inf
ROOT
ATOM      1  C   UNL     1      78.248   4.809  64.070  1.00  0.00    -0.006 A 
ATOM      2  C   UNL     1      79.605   4.441  63.971  1.00  0.00     0.122 A 
ATOM      3  C   UNL     1      80.105   3.394  64.760  1.00  0.00     0.092 A 
ATOM      4  C   UNL     1      79.262   2.704  65.636  1.00  0.00     0.119 A 
ATOM      5  C   UNL     1      77.912   3.058  65.725  1.00  0.00     0.047 A 
ATOM      6  C   UNL     1      77.405   4.101  64.944  1.00  0.00     0.011 A 
ENDROOT
BRANCH   1   7
ATOM      7  C   UNL     1      77.678   5.911  63.213  1.00  0.00     0.036 C 
ATOM      8  C   UNL     1      77.446   7.172  64.038  1.00  0.00     0.009 C 
ENDBRANCH   1   7
BRANCH   2   9
ATOM      9  O   UNL     1      80.452   5.113  63.089  1.00  0.00    -0.508 OA
ATOM     10  H   UNL     1      80.195   6.006  62.683  1.00  0.00     0.293 HD
ENDBRANCH   2   9
BRANCH   4  11
ATOM     11  O   UNL     1      79.777   1.667  66.411  1.00  0.00    -0.508 OA
ATOM     12  H   UNL     1      79.896   1.762  67.413  1.00  0.00     0.293 HD
ENDBRANCH   4  11
TORSDOF 3
ENDMDL
MODEL 4
REMARK VINA RESULT:    -3.096     20.198     20.715
REMARK INTER + INTRA:          -3.555
REMARK INTER:                  -3.453
REMARK INTRA:                  -0.102
REMARK UNBOUND:                -0.097
REMARK SMILES CCc1ccc(O)cc1O
REMARK SMILES IDX 3 1 9 2 8 3 6 4 5 5 4 6 2 7 1 8 10 9 7 11
REMARK H PARENT 10 10 7 12
REMARK Flexibility Score: inf
ROOT
ATOM      1  C   UNL     1      69.208  -8.926  53.493  1.00  0.00    -0.006 A 
ATOM      2  C   UNL     1      69.973 -10.097  53.670  1.00  0.00     0.122 A 
ATOM      3  C   UNL     1      71.149 -10.283  52.929  1.00  0.00     0.092 A 
ATOM      4  C   UNL     1      71.576  -9.307  52.022  1.00  0.00     0.119 A 
ATOM      5  C   UNL     1      70.826  -8.138  51.856  1.00  0.00     0.047 A 
ATOM      6  C   UNL     1      69.652  -7.945  52.590  1.00  0.00     0.011 A 
ENDROOT
BRANCH   1   7
ATOM      7  C   UNL     1      67.956  -8.687  54.298  1.00  0.00     0.036 C 
ATOM      8  C   UNL     1      66.713  -8.884  53.435  1.00  0.00     0.009 C 
ENDBRANCH   1   7
BRANCH   2   9
ATOM      9  O   UNL     1      69.563 -11.070  54.582  1.00  0.00    -0.508 OA
ATOM     10  H   UNL     1      69.440 -12.038  54.306  1.00  0.00     0.293 HD
ENDBRANCH   2   9
BRANCH   4  11
ATOM     11  O   UNL     1      72.748  -9.510  51.296  1.00  0.00    -0.508 OA
ATOM     12  H   UNL     1      72.858  -9.146  50.357  1.00  0.00     0.293 HD
ENDBRANCH   4  11
TORSDOF 3
ENDMDL
MODEL 5
REMARK VINA RESULT:    -3.081     14.920     16.173
REMARK INTER + INTRA:          -3.538
REMARK INTER:                  -3.448
REMARK INTRA:                  -0.090
REMARK UNBOUND:                -0.097
REMARK SMILES CCc1ccc(O)cc1O
REMARK SMILES IDX 3 1 9 2 8 3 6 4 5 5 4 6 2 7 1 8 10 9 7 11
REMARK H PARENT 10 10 7 12
REMARK Flexibility Score: inf
ROOT
ATOM      1  C   UNL     1      80.594   0.068  51.009  1.00  0.00    -0.006 A 
ATOM      2  C   UNL     1      81.306   1.138  51.588  1.00  0.00     0.122 A 
ATOM      3  C   UNL     1      81.298   2.398  50.972  1.00  0.00     0.092 A 
ATOM      4  C   UNL     1      80.576   2.604  49.792  1.00  0.00     0.119 A 
ATOM      5  C   UNL     1      79.856   1.547  49.224  1.00  0.00     0.047 A 
ATOM      6  C   UNL     1      79.860   0.288  49.830  1.00  0.00     0.011 A 
ENDROOT
BRANCH   1   7
ATOM      7  C   UNL     1      80.561  -1.289  51.665  1.00  0.00     0.036 C 
ATOM      8  C   UNL     1      81.736  -2.143  51.199  1.00  0.00     0.009 C 
ENDBRANCH   1   7
BRANCH   2   9
ATOM      9  O   UNL     1      82.018   0.947  52.772  1.00  0.00    -0.508 OA
ATOM     10  H   UNL     1      81.778   0.207  53.423  1.00  0.00     0.293 HD
ENDBRANCH   2   9
BRANCH   4  11
ATOM     11  O   UNL     1      80.579   3.863  49.195  1.00  0.00    -0.508 OA
ATOM     12  H   UNL     1      79.724   4.391  49.067  1.00  0.00     0.293 HD
ENDBRANCH   4  11
TORSDOF 3
ENDMDL
MODEL 6
REMARK VINA RESULT:    -3.072     18.588     19.744
REMARK INTER + INTRA:          -3.528
REMARK INTER:                  -3.430
REMARK INTRA:                  -0.098
REMARK UNBOUND:                -0.097
REMARK SMILES CCc1ccc(O)cc1O
REMARK SMILES IDX 3 1 9 2 8 3 6 4 5 5 4 6 2 7 1 8 10 9 7 11
REMARK H PARENT 10 10 7 12
REMARK Flexibility Score: inf
ROOT
ATOM      1  C   UNL     1      67.184   6.129  52.205  1.00  0.00    -0.006 A 
ATOM      2  C   UNL     1      67.279   5.233  51.121  1.00  0.00     0.122 A 
ATOM      3  C   UNL     1      66.129   4.583  50.648  1.00  0.00     0.092 A 
ATOM      4  C   UNL     1      64.885   4.828  51.238  1.00  0.00     0.119 A 
ATOM      5  C   UNL     1      64.787   5.729  52.304  1.00  0.00     0.047 A 
ATOM      6  C   UNL     1      65.928   6.380  52.783  1.00  0.00     0.011 A 
ENDROOT
BRANCH   1   7
ATOM      7  C   UNL     1      68.399   6.863  52.714  1.00  0.00     0.036 C 
ATOM      8  C   UNL     1      68.208   8.372  52.594  1.00  0.00     0.009 C 
ENDBRANCH   1   7
BRANCH   2   9
ATOM      9  O   UNL     1      68.513   4.992  50.517  1.00  0.00    -0.508 OA
ATOM     10  H   UNL     1      68.993   4.106  50.625  1.00  0.00     0.293 HD
ENDBRANCH   2   9
BRANCH   4  11
ATOM     11  O   UNL     1      63.754   4.174  50.754  1.00  0.00    -0.508 OA
ATOM     12  H   UNL     1      63.061   4.657  50.196  1.00  0.00     0.293 HD
ENDBRANCH   4  11
TORSDOF 3
ENDMDL
MODEL 7
REMARK VINA RESULT:    -3.060     20.316     20.676
REMARK INTER + INTRA:          -3.515
REMARK INTER:                  -3.413
REMARK INTRA:                  -0.102
REMARK UNBOUND:                -0.097
REMARK SMILES CCc1ccc(O)cc1O
REMARK SMILES IDX 3 1 9 2 8 3 6 4 5 5 4 6 2 7 1 8 10 9 7 11
REMARK H PARENT 10 10 7 12
REMARK Flexibility Score: inf
ROOT
ATOM      1  C   UNL     1      69.094  -8.576  53.315  1.00  0.00    -0.006 A 
ATOM      2  C   UNL     1      69.833  -8.028  52.248  1.00  0.00     0.122 A 
ATOM      3  C   UNL     1      71.024  -8.644  51.834  1.00  0.00     0.092 A 
ATOM      4  C   UNL     1      71.476  -9.807  52.465  1.00  0.00     0.119 A 
ATOM      5  C   UNL     1      70.735 -10.361  53.515  1.00  0.00     0.047 A 
ATOM      6  C   UNL     1      69.548  -9.753  53.935  1.00  0.00     0.011 A 
ENDROOT
BRANCH   1   7
ATOM      7  C   UNL     1      67.796  -7.951  53.762  1.00  0.00     0.036 C 
ATOM      8  C   UNL     1      66.616  -8.856  53.421  1.00  0.00     0.009 C 
ENDBRANCH   1   7
BRANCH   2   9
ATOM      9  O   UNL     1      69.385  -6.876  51.602  1.00  0.00    -0.508 OA
ATOM     10  H   UNL     1      68.418  -6.577  51.660  1.00  0.00     0.293 HD
ENDBRANCH   2   9
BRANCH   4  11
ATOM     11  O   UNL     1      72.660 -10.406  52.039  1.00  0.00    -0.508 OA
ATOM     12  H   UNL     1      73.371 -10.699  52.697  1.00  0.00     0.293 HD
ENDBRANCH   4  11
TORSDOF 3
ENDMDL
MODEL 8
REMARK VINA RESULT:    -3.059     12.724     13.919
REMARK INTER + INTRA:          -3.514
REMARK INTER:                  -3.420
REMARK INTRA:                  -0.093
REMARK UNBOUND:                -0.097
REMARK SMILES CCc1ccc(O)cc1O
REMARK SMILES IDX 3 1 9 2 8 3 6 4 5 5 4 6 2 7 1 8 10 9 7 11
REMARK H PARENT 10 10 7 12
REMARK Flexibility Score: inf
ROOT
ATOM      1  C   UNL     1      72.874  -8.153  66.593  1.00  0.00    -0.006 A 
ATOM      2  C   UNL     1      72.162  -9.239  66.046  1.00  0.00     0.122 A 
ATOM      3  C   UNL     1      70.922  -9.607  66.590  1.00  0.00     0.092 A 
ATOM      4  C   UNL     1      70.381  -8.894  67.665  1.00  0.00     0.119 A 
ATOM      5  C   UNL     1      71.081  -7.806  68.199  1.00  0.00     0.047 A 
ATOM      6  C   UNL     1      72.317  -7.433  67.664  1.00  0.00     0.011 A 
ENDROOT
BRANCH   1   7
ATOM      7  C   UNL     1      74.195  -7.718  66.009  1.00  0.00     0.036 C 
ATOM      8  C   UNL     1      75.350  -8.461  66.673  1.00  0.00     0.009 C 
ENDBRANCH   1   7
BRANCH   2   9
ATOM      9  O   UNL     1      72.685  -9.948  64.965  1.00  0.00    -0.508 OA
ATOM     10  H   UNL     1      73.274  -9.502  64.271  1.00  0.00     0.293 HD
ENDBRANCH   2   9
BRANCH   4  11
ATOM     11  O   UNL     1      69.148  -9.273  68.191  1.00  0.00    -0.508 OA
ATOM     12  H   UNL     1      69.026  -9.449  69.181  1.00  0.00     0.293 HD
ENDBRANCH   4  11
TORSDOF 3
ENDMDL
MODEL 9
REMARK VINA RESULT:    -3.040     15.597     16.645
REMARK INTER + INTRA:          -3.492
REMARK INTER:                  -3.390
REMARK INTRA:                  -0.102
REMARK UNBOUND:                -0.097
REMARK SMILES CCc1ccc(O)cc1O
REMARK SMILES IDX 3 1 9 2 8 3 6 4 5 5 4 6 2 7 1 8 10 9 7 11
REMARK H PARENT 10 10 7 12
REMARK Flexibility Score: inf
ROOT
ATOM      1  C   UNL     1      80.372  -0.150  50.833  1.00  0.00    -0.006 A 
ATOM      2  C   UNL     1      79.744   0.291  49.651  1.00  0.00     0.122 A 
ATOM      3  C   UNL     1      79.865   1.631  49.253  1.00  0.00     0.092 A 
ATOM      4  C   UNL     1      80.617   2.530  50.016  1.00  0.00     0.119 A 
ATOM      5  C   UNL     1      81.254   2.090  51.182  1.00  0.00     0.047 A 
ATOM      6  C   UNL     1      81.137   0.757  51.586  1.00  0.00     0.011 A 
ENDROOT
BRANCH   1   7
ATOM      7  C   UNL     1      80.283  -1.592  51.268  1.00  0.00     0.036 C 
ATOM      8  C   UNL     1      81.640  -2.277  51.148  1.00  0.00     0.009 C 
ENDBRANCH   1   7
BRANCH   2   9
ATOM      9  O   UNL     1      79.003  -0.600  48.875  1.00  0.00    -0.508 OA
ATOM     10  H   UNL     1      78.876  -0.460  47.879  1.00  0.00     0.293 HD
ENDBRANCH   2   9
BRANCH   4  11
ATOM     11  O   UNL     1      80.727   3.857  49.605  1.00  0.00    -0.508 OA
ATOM     12  H   UNL     1      80.009   4.299  49.044  1.00  0.00     0.293 HD
ENDBRANCH   4  11
TORSDOF 3
ENDMDL
