MODEL 1
REMARK VINA RESULT:    -5.574      0.000      0.000
REMARK INTER + INTRA:          -6.863
REMARK INTER:                  -6.552
REMARK INTRA:                  -0.311
REMARK UNBOUND:                -0.311
REMARK SMILES O=c1c(O)c(-c2ccc(O)c(O)c2)oc2cc(O)ccc12
REMARK SMILES IDX 5 1 3 2 2 3 1 4 21 5 15 6 14 7 16 8 17 9 19 10 20 11 6 12
REMARK SMILES IDX 7 13 8 14 9 15 13 16 11 17 10 18 12 20 4 22 18 24
REMARK H PARENT 10 19 12 21 4 23 18 25
REMARK Flexibility Score: inf
ROOT
ATOM      1  C   UNL     1      -8.538  24.609  -9.578  1.00  0.00     0.180 A 
ATOM      2  C   UNL     1      -9.039  23.454 -10.214  1.00  0.00     0.208 A 
ATOM      3  C   UNL     1      -9.609  22.442  -9.426  1.00  0.00     0.235 A 
ATOM      4  O   UNL     1     -10.054  21.394  -9.971  1.00  0.00    -0.285 OA
ATOM      5  C   UNL     1      -9.685  22.609  -8.035  1.00  0.00     0.069 A 
ATOM      6  C   UNL     1      -9.183  23.805  -7.477  1.00  0.00     0.142 A 
ATOM      7  O   UNL     1      -8.643  24.735  -8.256  1.00  0.00    -0.452 OA
ATOM      8  C   UNL     1      -9.249  24.014  -6.094  1.00  0.00     0.094 A 
ATOM      9  C   UNL     1      -9.812  23.039  -5.260  1.00  0.00     0.119 A 
ATOM     10  C   UNL     1     -10.309  21.853  -5.810  1.00  0.00     0.047 A 
ATOM     11  C   UNL     1     -10.248  21.635  -7.190  1.00  0.00     0.020 A 
ENDROOT
BRANCH   1  12
ATOM     12  C   UNL     1      -7.907  25.713 -10.336  1.00  0.00     0.025 A 
ATOM     13  C   UNL     1      -6.512  25.798 -10.480  1.00  0.00     0.016 A 
ATOM     14  C   UNL     1      -5.937  26.862 -11.180  1.00  0.00     0.051 A 
ATOM     15  C   UNL     1      -6.743  27.863 -11.732  1.00  0.00     0.157 A 
ATOM     16  C   UNL     1      -8.712  26.731 -10.874  1.00  0.00     0.062 A 
ATOM     17  C   UNL     1      -8.137  27.800 -11.577  1.00  0.00     0.158 A 
BRANCH  15  18
ATOM     18  O   UNL     1      -6.140  28.912 -12.427  1.00  0.00    -0.504 OA
ATOM     19  H   UNL     1      -5.347  29.418 -12.054  1.00  0.00     0.293 HD
ENDBRANCH  15  18
BRANCH  17  20
ATOM     20  O   UNL     1      -8.946  28.797 -12.119  1.00  0.00    -0.504 OA
ATOM     21  H   UNL     1      -8.607  29.743 -12.248  1.00  0.00     0.293 HD
ENDBRANCH  17  20
ENDBRANCH   1  12
BRANCH   2  22
ATOM     22  O   UNL     1      -8.994  23.337 -11.605  1.00  0.00    -0.502 OA
ATOM     23  H   UNL     1      -9.465  23.990 -12.219  1.00  0.00     0.293 HD
ENDBRANCH   2  22
BRANCH   9  24
ATOM     24  O   UNL     1      -9.881  23.239  -3.883  1.00  0.00    -0.508 OA
ATOM     25  H   UNL     1     -10.617  22.824  -3.324  1.00  0.00     0.293 HD
ENDBRANCH   9  24
TORSDOF 5
ENDMDL
MODEL 2
REMARK VINA RESULT:    -5.399      3.285      6.532
REMARK INTER + INTRA:          -6.658
REMARK INTER:                  -6.555
REMARK INTRA:                  -0.103
REMARK UNBOUND:                -0.311
REMARK SMILES O=c1c(O)c(-c2ccc(O)c(O)c2)oc2cc(O)ccc12
REMARK SMILES IDX 5 1 3 2 2 3 1 4 21 5 15 6 14 7 16 8 17 9 19 10 20 11 6 12
REMARK SMILES IDX 7 13 8 14 9 15 13 16 11 17 10 18 12 20 4 22 18 24
REMARK H PARENT 10 19 12 21 4 23 18 25
REMARK Flexibility Score: inf
ROOT
ATOM      1  C   UNL     1      -7.357  23.248  -9.396  1.00  0.00     0.180 A 
ATOM      2  C   UNL     1      -8.661  23.375  -8.871  1.00  0.00     0.208 A 
ATOM      3  C   UNL     1      -9.358  24.575  -9.076  1.00  0.00     0.235 A 
ATOM      4  O   UNL     1     -10.522  24.715  -8.607  1.00  0.00    -0.285 OA
ATOM      5  C   UNL     1      -8.756  25.608  -9.810  1.00  0.00     0.069 A 
ATOM      6  C   UNL     1      -7.458  25.394 -10.322  1.00  0.00     0.142 A 
ATOM      7  O   UNL     1      -6.827  24.248 -10.099  1.00  0.00    -0.452 OA
ATOM      8  C   UNL     1      -6.826  26.397 -11.068  1.00  0.00     0.094 A 
ATOM      9  C   UNL     1      -7.478  27.614 -11.307  1.00  0.00     0.119 A 
ATOM     10  C   UNL     1      -8.764  27.828 -10.799  1.00  0.00     0.047 A 
ATOM     11  C   UNL     1      -9.403  26.833 -10.054  1.00  0.00     0.020 A 
ENDROOT
BRANCH   1  12
ATOM     12  C   UNL     1      -6.550  22.022  -9.208  1.00  0.00     0.025 A 
ATOM     13  C   UNL     1      -6.996  20.773  -9.673  1.00  0.00     0.016 A 
ATOM     14  C   UNL     1      -6.229  19.624  -9.462  1.00  0.00     0.051 A 
ATOM     15  C   UNL     1      -5.014  19.702  -8.774  1.00  0.00     0.157 A 
ATOM     16  C   UNL     1      -5.339  22.093  -8.498  1.00  0.00     0.062 A 
ATOM     17  C   UNL     1      -4.567  20.942  -8.287  1.00  0.00     0.158 A 
BRANCH  15  18
ATOM     18  O   UNL     1      -4.268  18.539  -8.582  1.00  0.00    -0.504 OA
ATOM     19  H   UNL     1      -4.537  17.834  -7.908  1.00  0.00     0.293 HD
ENDBRANCH  15  18
BRANCH  17  20
ATOM     20  O   UNL     1      -3.360  21.025  -7.595  1.00  0.00    -0.504 OA
ATOM     21  H   UNL     1      -3.332  21.168  -6.592  1.00  0.00     0.293 HD
ENDBRANCH  17  20
ENDBRANCH   1  12
BRANCH   2  22
ATOM     22  O   UNL     1      -9.253  22.311  -8.187  1.00  0.00    -0.502 OA
ATOM     23  H   UNL     1      -8.907  21.362  -8.257  1.00  0.00     0.293 HD
ENDBRANCH   2  22
BRANCH   9  24
ATOM     24  O   UNL     1      -6.857  28.617 -12.048  1.00  0.00    -0.508 OA
ATOM     25  H   UNL     1      -6.454  28.431 -12.959  1.00  0.00     0.293 HD
ENDBRANCH   9  24
TORSDOF 5
ENDMDL
MODEL 3
REMARK VINA RESULT:    -5.296      3.022      6.524
REMARK INTER + INTRA:          -6.536
REMARK INTER:                  -6.423
REMARK INTRA:                  -0.113
REMARK UNBOUND:                -0.311
REMARK SMILES O=c1c(O)c(-c2ccc(O)c(O)c2)oc2cc(O)ccc12
REMARK SMILES IDX 5 1 3 2 2 3 1 4 21 5 15 6 14 7 16 8 17 9 19 10 20 11 6 12
REMARK SMILES IDX 7 13 8 14 9 15 13 16 11 17 10 18 12 20 4 22 18 24
REMARK H PARENT 10 19 12 21 4 23 18 25
REMARK Flexibility Score: inf
ROOT
ATOM      1  C   UNL     1      -7.345  23.472  -9.387  1.00  0.00     0.180 A 
ATOM      2  C   UNL     1      -8.661  23.647  -8.908  1.00  0.00     0.208 A 
ATOM      3  C   UNL     1      -9.319  24.858  -9.168  1.00  0.00     0.235 A 
ATOM      4  O   UNL     1     -10.493  25.042  -8.742  1.00  0.00    -0.285 OA
ATOM      5  C   UNL     1      -8.667  25.854  -9.911  1.00  0.00     0.069 A 
ATOM      6  C   UNL     1      -7.359  25.593 -10.375  1.00  0.00     0.142 A 
ATOM      7  O   UNL     1      -6.766  24.437 -10.100  1.00  0.00    -0.452 OA
ATOM      8  C   UNL     1      -6.678  26.558 -11.127  1.00  0.00     0.094 A 
ATOM      9  C   UNL     1      -7.289  27.784 -11.420  1.00  0.00     0.119 A 
ATOM     10  C   UNL     1      -8.584  28.045 -10.961  1.00  0.00     0.047 A 
ATOM     11  C   UNL     1      -9.273  27.088 -10.209  1.00  0.00     0.020 A 
ENDROOT
BRANCH   1  12
ATOM     12  C   UNL     1      -6.576  22.231  -9.139  1.00  0.00     0.025 A 
ATOM     13  C   UNL     1      -5.359  22.252  -8.437  1.00  0.00     0.016 A 
ATOM     14  C   UNL     1      -4.638  21.072  -8.237  1.00  0.00     0.051 A 
ATOM     15  C   UNL     1      -5.113  19.859  -8.745  1.00  0.00     0.157 A 
ATOM     16  C   UNL     1      -7.039  21.015  -9.667  1.00  0.00     0.062 A 
ATOM     17  C   UNL     1      -6.318  19.829  -9.466  1.00  0.00     0.158 A 
BRANCH  15  18
ATOM     18  O   UNL     1      -4.373  18.696  -8.527  1.00  0.00    -0.504 OA
ATOM     19  H   UNL     1      -4.033  18.440  -7.609  1.00  0.00     0.293 HD
ENDBRANCH  15  18
BRANCH  17  20
ATOM     20  O   UNL     1      -6.794  18.624  -9.981  1.00  0.00    -0.504 OA
ATOM     21  H   UNL     1      -6.539  18.306 -10.908  1.00  0.00     0.293 HD
ENDBRANCH  17  20
ENDBRANCH   1  12
BRANCH   2  22
ATOM     22  O   UNL     1      -9.303  22.619  -8.215  1.00  0.00    -0.502 OA
ATOM     23  H   UNL     1      -9.912  22.796  -7.425  1.00  0.00     0.293 HD
ENDBRANCH   2  22
BRANCH   9  24
ATOM     24  O   UNL     1      -6.618  28.749 -12.168  1.00  0.00    -0.508 OA
ATOM     25  H   UNL     1      -6.166  28.520 -13.045  1.00  0.00     0.293 HD
ENDBRANCH   9  24
TORSDOF 5
ENDMDL
MODEL 4
REMARK VINA RESULT:    -5.262      4.652      6.874
REMARK INTER + INTRA:          -6.496
REMARK INTER:                  -6.177
REMARK INTRA:                  -0.319
REMARK UNBOUND:                -0.311
REMARK SMILES O=c1c(O)c(-c2ccc(O)c(O)c2)oc2cc(O)ccc12
REMARK SMILES IDX 5 1 3 2 2 3 1 4 21 5 15 6 14 7 16 8 17 9 19 10 20 11 6 12
REMARK SMILES IDX 7 13 8 14 9 15 13 16 11 17 10 18 12 20 4 22 18 24
REMARK H PARENT 10 19 12 21 4 23 18 25
REMARK Flexibility Score: inf
ROOT
ATOM      1  C   UNL     1      -6.201  22.057  -6.636  1.00  0.00     0.180 A 
ATOM      2  C   UNL     1      -7.269  21.811  -5.748  1.00  0.00     0.208 A 
ATOM      3  C   UNL     1      -8.579  21.806  -6.251  1.00  0.00     0.235 A 
ATOM      4  O   UNL     1      -9.552  21.599  -5.474  1.00  0.00    -0.285 OA
ATOM      5  C   UNL     1      -8.794  22.022  -7.621  1.00  0.00     0.069 A 
ATOM      6  C   UNL     1      -7.671  22.236  -8.448  1.00  0.00     0.142 A 
ATOM      7  O   UNL     1      -6.447  22.244  -7.932  1.00  0.00    -0.452 OA
ATOM      8  C   UNL     1      -7.842  22.447  -9.822  1.00  0.00     0.094 A 
ATOM      9  C   UNL     1      -9.128  22.447 -10.379  1.00  0.00     0.119 A 
ATOM     10  C   UNL     1     -10.243  22.236  -9.561  1.00  0.00     0.047 A 
ATOM     11  C   UNL     1     -10.081  22.025  -8.188  1.00  0.00     0.020 A 
ENDROOT
BRANCH   1  12
ATOM     12  C   UNL     1      -4.793  22.097  -6.181  1.00  0.00     0.025 A 
ATOM     13  C   UNL     1      -4.174  23.306  -5.820  1.00  0.00     0.016 A 
ATOM     14  C   UNL     1      -2.836  23.323  -5.417  1.00  0.00     0.051 A 
ATOM     15  C   UNL     1      -2.094  22.139  -5.381  1.00  0.00     0.157 A 
ATOM     16  C   UNL     1      -4.038  20.912  -6.164  1.00  0.00     0.062 A 
ATOM     17  C   UNL     1      -2.695  20.927  -5.758  1.00  0.00     0.158 A 
BRANCH  15  18
ATOM     18  O   UNL     1      -0.761  22.186  -4.971  1.00  0.00    -0.504 OA
ATOM     19  H   UNL     1      -0.099  22.839  -5.371  1.00  0.00     0.293 HD
ENDBRANCH  15  18
BRANCH  17  20
ATOM     20  O   UNL     1      -1.959  19.744  -5.731  1.00  0.00    -0.504 OA
ATOM     21  H   UNL     1      -1.362  19.509  -4.947  1.00  0.00     0.293 HD
ENDBRANCH  17  20
ENDBRANCH   1  12
BRANCH   2  22
ATOM     22  O   UNL     1      -7.021  21.550  -4.399  1.00  0.00    -0.502 OA
ATOM     23  H   UNL     1      -6.102  21.661  -3.986  1.00  0.00     0.293 HD
ENDBRANCH   2  22
BRANCH   9  24
ATOM     24  O   UNL     1      -9.308  22.656 -11.745  1.00  0.00    -0.508 OA
ATOM     25  H   UNL     1      -9.888  23.410 -12.093  1.00  0.00     0.293 HD
ENDBRANCH   9  24
TORSDOF 5
ENDMDL
MODEL 5
REMARK VINA RESULT:    -5.221      2.968      4.033
REMARK INTER + INTRA:          -6.447
REMARK INTER:                  -6.301
REMARK INTRA:                  -0.146
REMARK UNBOUND:                -0.311
REMARK SMILES O=c1c(O)c(-c2ccc(O)c(O)c2)oc2cc(O)ccc12
REMARK SMILES IDX 5 1 3 2 2 3 1 4 21 5 15 6 14 7 16 8 17 9 19 10 20 11 6 12
REMARK SMILES IDX 7 13 8 14 9 15 13 16 11 17 10 18 12 20 4 22 18 24
REMARK H PARENT 10 19 12 21 4 23 18 25
REMARK Flexibility Score: inf
ROOT
ATOM      1  C   UNL     1      -8.072  24.067  -9.514  1.00  0.00     0.180 A 
ATOM      2  C   UNL     1      -8.787  22.851  -9.502  1.00  0.00     0.208 A 
ATOM      3  C   UNL     1      -8.081  21.654  -9.310  1.00  0.00     0.235 A 
ATOM      4  O   UNL     1      -8.697  20.552  -9.306  1.00  0.00    -0.285 OA
ATOM      5  C   UNL     1      -6.692  21.694  -9.116  1.00  0.00     0.069 A 
ATOM      6  C   UNL     1      -6.053  22.953  -9.117  1.00  0.00     0.142 A 
ATOM      7  O   UNL     1      -6.756  24.063  -9.311  1.00  0.00    -0.452 OA
ATOM      8  C   UNL     1      -4.670  23.036  -8.917  1.00  0.00     0.094 A 
ATOM      9  C   UNL     1      -3.916  21.872  -8.716  1.00  0.00     0.119 A 
ATOM     10  C   UNL     1      -4.546  20.624  -8.715  1.00  0.00     0.047 A 
ATOM     11  C   UNL     1      -5.927  20.531  -8.914  1.00  0.00     0.020 A 
ENDROOT
BRANCH   1  12
ATOM     12  C   UNL     1      -8.741  25.370  -9.727  1.00  0.00     0.025 A 
ATOM     13  C   UNL     1      -9.694  25.862  -8.819  1.00  0.00     0.016 A 
ATOM     14  C   UNL     1     -10.331  27.083  -9.054  1.00  0.00     0.051 A 
ATOM     15  C   UNL     1     -10.038  27.823 -10.203  1.00  0.00     0.157 A 
ATOM     16  C   UNL     1      -8.465  26.106 -10.892  1.00  0.00     0.062 A 
ATOM     17  C   UNL     1      -9.103  27.333 -11.129  1.00  0.00     0.158 A 
BRANCH  15  18
ATOM     18  O   UNL     1     -10.688  29.040 -10.409  1.00  0.00    -0.504 OA
ATOM     19  H   UNL     1     -11.694  29.102 -10.508  1.00  0.00     0.293 HD
ENDBRANCH  15  18
BRANCH  17  20
ATOM     20  O   UNL     1      -8.811  28.063 -12.280  1.00  0.00    -0.504 OA
ATOM     21  H   UNL     1      -7.874  28.094 -12.665  1.00  0.00     0.293 HD
ENDBRANCH  17  20
ENDBRANCH   1  12
BRANCH   2  22
ATOM     22  O   UNL     1     -10.176  22.846  -9.649  1.00  0.00    -0.502 OA
ATOM     23  H   UNL     1     -10.787  23.372  -9.036  1.00  0.00     0.293 HD
ENDBRANCH   2  22
BRANCH   9  24
ATOM     24  O   UNL     1      -2.539  21.946  -8.516  1.00  0.00    -0.508 OA
ATOM     25  H   UNL     1      -2.063  21.325  -7.873  1.00  0.00     0.293 HD
ENDBRANCH   9  24
TORSDOF 5
ENDMDL
MODEL 6
REMARK VINA RESULT:    -5.208      3.769      4.411
REMARK INTER + INTRA:          -6.432
REMARK INTER:                  -6.124
REMARK INTRA:                  -0.308
REMARK UNBOUND:                -0.311
REMARK SMILES O=c1c(O)c(-c2ccc(O)c(O)c2)oc2cc(O)ccc12
REMARK SMILES IDX 5 1 3 2 2 3 1 4 21 5 15 6 14 7 16 8 17 9 19 10 20 11 6 12
REMARK SMILES IDX 7 13 8 14 9 15 13 16 11 17 10 18 12 20 4 22 18 24
REMARK H PARENT 10 19 12 21 4 23 18 25
REMARK Flexibility Score: inf
ROOT
ATOM      1  C   UNL     1      -7.333  23.025  -9.001  1.00  0.00     0.180 A 
ATOM      2  C   UNL     1      -7.690  21.760  -9.513  1.00  0.00     0.208 A 
ATOM      3  C   UNL     1      -6.836  20.671  -9.279  1.00  0.00     0.235 A 
ATOM      4  O   UNL     1      -7.129  19.531  -9.736  1.00  0.00    -0.285 OA
ATOM      5  C   UNL     1      -5.666  20.859  -8.529  1.00  0.00     0.069 A 
ATOM      6  C   UNL     1      -5.392  22.151  -8.031  1.00  0.00     0.142 A 
ATOM      7  O   UNL     1      -6.220  23.158  -8.282  1.00  0.00    -0.452 OA
ATOM      8  C   UNL     1      -4.238  22.378  -7.270  1.00  0.00     0.094 A 
ATOM      9  C   UNL     1      -3.353  21.326  -7.002  1.00  0.00     0.119 A 
ATOM     10  C   UNL     1      -3.621  20.045  -7.495  1.00  0.00     0.047 A 
ATOM     11  C   UNL     1      -4.771  19.808  -8.255  1.00  0.00     0.020 A 
ENDROOT
BRANCH   1  12
ATOM     12  C   UNL     1      -8.171  24.226  -9.219  1.00  0.00     0.025 A 
ATOM     13  C   UNL     1      -9.138  24.624  -8.281  1.00  0.00     0.016 A 
ATOM     14  C   UNL     1      -9.935  25.747  -8.520  1.00  0.00     0.051 A 
ATOM     15  C   UNL     1      -9.788  26.480  -9.702  1.00  0.00     0.157 A 
ATOM     16  C   UNL     1      -8.041  24.951 -10.415  1.00  0.00     0.062 A 
ATOM     17  C   UNL     1      -8.838  26.079 -10.657  1.00  0.00     0.158 A 
BRANCH  15  18
ATOM     18  O   UNL     1     -10.595  27.598  -9.912  1.00  0.00    -0.504 OA
ATOM     19  H   UNL     1     -11.571  27.614  -9.645  1.00  0.00     0.293 HD
ENDBRANCH  15  18
BRANCH  17  20
ATOM     20  O   UNL     1      -8.691  26.801 -11.840  1.00  0.00    -0.504 OA
ATOM     21  H   UNL     1      -8.140  27.650 -11.879  1.00  0.00     0.293 HD
ENDBRANCH  17  20
ENDBRANCH   1  12
BRANCH   2  22
ATOM     22  O   UNL     1      -8.886  21.593 -10.214  1.00  0.00    -0.502 OA
ATOM     23  H   UNL     1      -8.985  20.918 -10.963  1.00  0.00     0.293 HD
ENDBRANCH   2  22
BRANCH   9  24
ATOM     24  O   UNL     1      -2.203  21.543  -6.246  1.00  0.00    -0.508 OA
ATOM     25  H   UNL     1      -1.896  22.478  -6.005  1.00  0.00     0.293 HD
ENDBRANCH   9  24
TORSDOF 5
ENDMDL
MODEL 7
REMARK VINA RESULT:    -5.122      3.994      6.691
REMARK INTER + INTRA:          -6.331
REMARK INTER:                  -6.247
REMARK INTRA:                  -0.084
REMARK UNBOUND:                -0.311
REMARK SMILES O=c1c(O)c(-c2ccc(O)c(O)c2)oc2cc(O)ccc12
REMARK SMILES IDX 5 1 3 2 2 3 1 4 21 5 15 6 14 7 16 8 17 9 19 10 20 11 6 12
REMARK SMILES IDX 7 13 8 14 9 15 13 16 11 17 10 18 12 20 4 22 18 24
REMARK H PARENT 10 19 12 21 4 23 18 25
REMARK Flexibility Score: inf
ROOT
ATOM      1  C   UNL     1      -5.976  23.335  -9.170  1.00  0.00     0.180 A 
ATOM      2  C   UNL     1      -5.119  24.376  -9.584  1.00  0.00     0.208 A 
ATOM      3  C   UNL     1      -5.671  25.635  -9.866  1.00  0.00     0.235 A 
ATOM      4  O   UNL     1      -4.925  26.579 -10.248  1.00  0.00    -0.285 OA
ATOM      5  C   UNL     1      -7.051  25.835  -9.710  1.00  0.00     0.069 A 
ATOM      6  C   UNL     1      -7.838  24.750  -9.268  1.00  0.00     0.142 A 
ATOM      7  O   UNL     1      -7.279  23.571  -9.021  1.00  0.00    -0.452 OA
ATOM      8  C   UNL     1      -9.217  24.911  -9.092  1.00  0.00     0.094 A 
ATOM      9  C   UNL     1      -9.821  26.148  -9.353  1.00  0.00     0.119 A 
ATOM     10  C   UNL     1      -9.044  27.225  -9.792  1.00  0.00     0.047 A 
ATOM     11  C   UNL     1      -7.665  27.073  -9.971  1.00  0.00     0.020 A 
ENDROOT
BRANCH   1  12
ATOM     12  C   UNL     1      -5.474  21.975  -8.872  1.00  0.00     0.025 A 
ATOM     13  C   UNL     1      -5.966  20.848  -9.552  1.00  0.00     0.016 A 
ATOM     14  C   UNL     1      -5.495  19.570  -9.237  1.00  0.00     0.051 A 
ATOM     15  C   UNL     1      -4.540  19.398  -8.230  1.00  0.00     0.157 A 
ATOM     16  C   UNL     1      -4.531  21.796  -7.847  1.00  0.00     0.062 A 
ATOM     17  C   UNL     1      -4.056  20.515  -7.529  1.00  0.00     0.158 A 
BRANCH  15  18
ATOM     18  O   UNL     1      -4.087  18.111  -7.939  1.00  0.00    -0.504 OA
ATOM     19  H   UNL     1      -3.172  17.786  -8.223  1.00  0.00     0.293 HD
ENDBRANCH  15  18
BRANCH  17  20
ATOM     20  O   UNL     1      -3.109  20.349  -6.520  1.00  0.00    -0.504 OA
ATOM     21  H   UNL     1      -3.370  20.036  -5.593  1.00  0.00     0.293 HD
ENDBRANCH  17  20
ENDBRANCH   1  12
BRANCH   2  22
ATOM     22  O   UNL     1      -3.742  24.161  -9.683  1.00  0.00    -0.502 OA
ATOM     23  H   UNL     1      -3.094  24.902  -9.921  1.00  0.00     0.293 HD
ENDBRANCH   2  22
BRANCH   9  24
ATOM     24  O   UNL     1     -11.193  26.317  -9.180  1.00  0.00    -0.508 OA
ATOM     25  H   UNL     1     -11.629  26.215  -8.271  1.00  0.00     0.293 HD
ENDBRANCH   9  24
TORSDOF 5
ENDMDL
MODEL 8
REMARK VINA RESULT:    -5.076      4.045      6.803
REMARK INTER + INTRA:          -6.277
REMARK INTER:                  -6.268
REMARK INTRA:                  -0.009
REMARK UNBOUND:                -0.311
REMARK SMILES O=c1c(O)c(-c2ccc(O)c(O)c2)oc2cc(O)ccc12
REMARK SMILES IDX 5 1 3 2 2 3 1 4 21 5 15 6 14 7 16 8 17 9 19 10 20 11 6 12
REMARK SMILES IDX 7 13 8 14 9 15 13 16 11 17 10 18 12 20 4 22 18 24
REMARK H PARENT 10 19 12 21 4 23 18 25
REMARK Flexibility Score: inf
ROOT
ATOM      1  C   UNL     1      -6.260  23.031  -8.655  1.00  0.00     0.180 A 
ATOM      2  C   UNL     1      -7.632  22.704  -8.651  1.00  0.00     0.208 A 
ATOM      3  C   UNL     1      -8.532  23.555  -9.311  1.00  0.00     0.235 A 
ATOM      4  O   UNL     1      -9.765  23.289  -9.313  1.00  0.00    -0.285 OA
ATOM      5  C   UNL     1      -8.047  24.693  -9.974  1.00  0.00     0.069 A 
ATOM      6  C   UNL     1      -6.657  24.938  -9.952  1.00  0.00     0.142 A 
ATOM      7  O   UNL     1      -5.839  24.113  -9.308  1.00  0.00    -0.452 OA
ATOM      8  C   UNL     1      -6.133  26.058 -10.609  1.00  0.00     0.094 A 
ATOM      9  C   UNL     1      -6.985  26.939 -11.289  1.00  0.00     0.119 A 
ATOM     10  C   UNL     1      -8.362  26.699 -11.311  1.00  0.00     0.047 A 
ATOM     11  C   UNL     1      -8.895  25.583 -10.658  1.00  0.00     0.020 A 
ENDROOT
BRANCH   1  12
ATOM     12  C   UNL     1      -5.250  22.195  -7.967  1.00  0.00     0.025 A 
ATOM     13  C   UNL     1      -4.334  22.752  -7.060  1.00  0.00     0.016 A 
ATOM     14  C   UNL     1      -3.373  21.948  -6.440  1.00  0.00     0.051 A 
ATOM     15  C   UNL     1      -3.305  20.581  -6.728  1.00  0.00     0.157 A 
ATOM     16  C   UNL     1      -5.164  20.826  -8.270  1.00  0.00     0.062 A 
ATOM     17  C   UNL     1      -4.202  20.016  -7.649  1.00  0.00     0.158 A 
BRANCH  15  18
ATOM     18  O   UNL     1      -2.337  19.803  -6.092  1.00  0.00    -0.504 OA
ATOM     19  H   UNL     1      -2.464  18.812  -5.933  1.00  0.00     0.293 HD
ENDBRANCH  15  18
BRANCH  17  20
ATOM     20  O   UNL     1      -4.135  18.656  -7.945  1.00  0.00    -0.504 OA
ATOM     21  H   UNL     1      -4.609  17.965  -7.376  1.00  0.00     0.293 HD
ENDBRANCH  17  20
ENDBRANCH   1  12
BRANCH   2  22
ATOM     22  O   UNL     1      -8.079  21.538  -8.025  1.00  0.00    -0.502 OA
ATOM     23  H   UNL     1      -7.962  21.378  -7.032  1.00  0.00     0.293 HD
ENDBRANCH   2  22
BRANCH   9  24
ATOM     24  O   UNL     1      -6.472  28.056 -11.945  1.00  0.00    -0.508 OA
ATOM     25  H   UNL     1      -5.926  28.754 -11.454  1.00  0.00     0.293 HD
ENDBRANCH   9  24
TORSDOF 5
ENDMDL
MODEL 9
REMARK VINA RESULT:    -4.833      3.906      6.141
REMARK INTER + INTRA:          -5.991
REMARK INTER:                  -5.775
REMARK INTRA:                  -0.216
REMARK UNBOUND:                -0.311
REMARK SMILES O=c1c(O)c(-c2ccc(O)c(O)c2)oc2cc(O)ccc12
REMARK SMILES IDX 5 1 3 2 2 3 1 4 21 5 15 6 14 7 16 8 17 9 19 10 20 11 6 12
REMARK SMILES IDX 7 13 8 14 9 15 13 16 11 17 10 18 12 20 4 22 18 24
REMARK H PARENT 10 19 12 21 4 23 18 25
REMARK Flexibility Score: inf
ROOT
ATOM      1  C   UNL     1      -7.241  22.775  -7.900  1.00  0.00     0.180 A 
ATOM      2  C   UNL     1      -8.431  22.147  -8.325  1.00  0.00     0.208 A 
ATOM      3  C   UNL     1      -9.539  22.946  -8.644  1.00  0.00     0.235 A 
ATOM      4  O   UNL     1     -10.618  22.407  -9.016  1.00  0.00    -0.285 OA
ATOM      5  C   UNL     1      -9.434  24.342  -8.555  1.00  0.00     0.069 A 
ATOM      6  C   UNL     1      -8.201  24.894  -8.146  1.00  0.00     0.142 A 
ATOM      7  O   UNL     1      -7.178  24.104  -7.843  1.00  0.00    -0.452 OA
ATOM      8  C   UNL     1      -8.052  26.284  -8.053  1.00  0.00     0.094 A 
ATOM      9  C   UNL     1      -9.125  27.130  -8.365  1.00  0.00     0.119 A 
ATOM     10  C   UNL     1     -10.348  26.585  -8.770  1.00  0.00     0.047 A 
ATOM     11  C   UNL     1     -10.506  25.198  -8.866  1.00  0.00     0.020 A 
ENDROOT
BRANCH   1  12
ATOM     12  C   UNL     1      -6.034  22.002  -7.528  1.00  0.00     0.025 A 
ATOM     13  C   UNL     1      -4.901  21.969  -8.360  1.00  0.00     0.016 A 
ATOM     14  C   UNL     1      -3.782  21.213  -8.000  1.00  0.00     0.051 A 
ATOM     15  C   UNL     1      -3.783  20.469  -6.816  1.00  0.00     0.157 A 
ATOM     16  C   UNL     1      -6.039  21.237  -6.351  1.00  0.00     0.062 A 
ATOM     17  C   UNL     1      -4.917  20.478  -5.988  1.00  0.00     0.158 A 
BRANCH  15  18
ATOM     18  O   UNL     1      -2.650  19.725  -6.482  1.00  0.00    -0.504 OA
ATOM     19  H   UNL     1      -2.463  19.429  -5.533  1.00  0.00     0.293 HD
ENDBRANCH  15  18
BRANCH  17  20
ATOM     20  O   UNL     1      -4.926  19.734  -4.809  1.00  0.00    -0.504 OA
ATOM     21  H   UNL     1      -5.778  19.586  -4.282  1.00  0.00     0.293 HD
ENDBRANCH  17  20
ENDBRANCH   1  12
BRANCH   2  22
ATOM     22  O   UNL     1      -8.491  20.758  -8.451  1.00  0.00    -0.502 OA
ATOM     23  H   UNL     1      -8.649  20.301  -9.341  1.00  0.00     0.293 HD
ENDBRANCH   2  22
BRANCH   9  24
ATOM     24  O   UNL     1      -8.986  28.513  -8.276  1.00  0.00    -0.508 OA
ATOM     25  H   UNL     1      -8.489  28.946  -7.506  1.00  0.00     0.293 HD
ENDBRANCH   9  24
TORSDOF 5
ENDMDL
