MODEL 1
REMARK VINA RESULT:    -6.285      0.000      0.000
REMARK INTER + INTRA:          -6.653
REMARK INTER:                  -6.653
REMARK INTRA:                   0.000
REMARK UNBOUND:                 0.000
REMARK SMILES Cc1cc(O)c(C)c(C)c1O
REMARK SMILES IDX 1 1 2 2 3 3 4 4 6 5 8 6 10 7 9 8 7 9 11 10 5 12
REMARK H PARENT 11 11 5 13
REMARK Flexibility Score: inf
ROOT
ATOM      1  C   UNL     1     -37.091  12.787  58.498  1.00  0.00     0.048 C 
ATOM      2  C   UNL     1     -35.930  13.622  58.031  1.00  0.00    -0.005 A 
ATOM      3  C   UNL     1     -34.805  13.772  58.847  1.00  0.00     0.053 A 
ATOM      4  C   UNL     1     -33.733  14.569  58.450  1.00  0.00     0.119 A 
ATOM      5  C   UNL     1     -33.778  15.255  57.213  1.00  0.00    -0.003 A 
ATOM      6  C   UNL     1     -34.861  15.009  56.324  1.00  0.00    -0.002 A 
ATOM      7  C   UNL     1     -35.969  14.245  56.773  1.00  0.00     0.121 A 
ATOM      8  C   UNL     1     -34.853  15.559  54.915  1.00  0.00     0.049 C 
ATOM      9  C   UNL     1     -32.671  16.221  56.852  1.00  0.00     0.049 C 
ENDROOT
BRANCH   7  10
ATOM     10  O   UNL     1     -37.125  14.099  55.999  1.00  0.00    -0.507 OA
ATOM     11  H   UNL     1     -37.144  13.644  55.095  1.00  0.00     0.293 HD
ENDBRANCH   7  10
BRANCH   4  12
ATOM     12  O   UNL     1     -32.633  14.645  59.310  1.00  0.00    -0.508 OA
ATOM     13  H   UNL     1     -31.673  14.674  58.991  1.00  0.00     0.293 HD
ENDBRANCH   4  12
TORSDOF 2
ENDMDL
MODEL 2
REMARK VINA RESULT:    -6.274      0.916      3.161
REMARK INTER + INTRA:          -6.641
REMARK INTER:                  -6.641
REMARK INTRA:                   0.000
REMARK UNBOUND:                 0.000
REMARK SMILES Cc1cc(O)c(C)c(C)c1O
REMARK SMILES IDX 1 1 2 2 3 3 4 4 6 5 8 6 10 7 9 8 7 9 11 10 5 12
REMARK H PARENT 11 11 5 13
REMARK Flexibility Score: inf
ROOT
ATOM      1  C   UNL     1     -36.376  12.758  59.968  1.00  0.00     0.048 C 
ATOM      2  C   UNL     1     -35.922  13.448  58.711  1.00  0.00    -0.005 A 
ATOM      3  C   UNL     1     -36.697  13.365  57.551  1.00  0.00     0.053 A 
ATOM      4  C   UNL     1     -36.279  13.965  56.364  1.00  0.00     0.119 A 
ATOM      5  C   UNL     1     -35.046  14.659  56.316  1.00  0.00    -0.003 A 
ATOM      6  C   UNL     1     -34.314  14.855  57.520  1.00  0.00    -0.002 A 
ATOM      7  C   UNL     1     -34.725  14.182  58.700  1.00  0.00     0.121 A 
ATOM      8  C   UNL     1     -33.099  15.755  57.557  1.00  0.00     0.049 C 
ATOM      9  C   UNL     1     -34.538  15.192  54.995  1.00  0.00     0.049 C 
ENDROOT
BRANCH   7  10
ATOM     10  O   UNL     1     -33.960  14.215  59.871  1.00  0.00    -0.507 OA
ATOM     11  H   UNL     1     -34.355  14.207  60.803  1.00  0.00     0.293 HD
ENDBRANCH   7  10
BRANCH   4  12
ATOM     12  O   UNL     1     -37.124  13.861  55.255  1.00  0.00    -0.508 OA
ATOM     13  H   UNL     1     -36.902  13.317  54.431  1.00  0.00     0.293 HD
ENDBRANCH   4  12
TORSDOF 2
ENDMDL
MODEL 3
REMARK VINA RESULT:    -6.204      8.312      8.682
REMARK INTER + INTRA:          -6.567
REMARK INTER:                  -6.567
REMARK INTRA:                   0.000
REMARK UNBOUND:                 0.000
REMARK SMILES Cc1cc(O)c(C)c(C)c1O
REMARK SMILES IDX 1 1 2 2 3 3 4 4 6 5 8 6 10 7 9 8 7 9 11 10 5 12
REMARK H PARENT 11 11 5 13
REMARK Flexibility Score: inf
ROOT
ATOM      1  C   UNL     1     -28.882  19.915  53.624  1.00  0.00     0.048 C 
ATOM      2  C   UNL     1     -28.757  19.880  55.122  1.00  0.00    -0.005 A 
ATOM      3  C   UNL     1     -27.788  19.071  55.722  1.00  0.00     0.053 A 
ATOM      4  C   UNL     1     -27.677  18.995  57.110  1.00  0.00     0.119 A 
ATOM      5  C   UNL     1     -28.562  19.729  57.935  1.00  0.00    -0.003 A 
ATOM      6  C   UNL     1     -29.466  20.649  57.333  1.00  0.00    -0.002 A 
ATOM      7  C   UNL     1     -29.605  20.664  55.921  1.00  0.00     0.121 A 
ATOM      8  C   UNL     1     -30.288  21.599  58.176  1.00  0.00     0.049 C 
ATOM      9  C   UNL     1     -28.521  19.538  59.434  1.00  0.00     0.049 C 
ENDROOT
BRANCH   7  10
ATOM     10  O   UNL     1     -30.584  21.435  55.285  1.00  0.00    -0.507 OA
ATOM     11  H   UNL     1     -31.568  21.197  55.272  1.00  0.00     0.293 HD
ENDBRANCH   7  10
BRANCH   4  12
ATOM     12  O   UNL     1     -26.664  18.185  57.632  1.00  0.00    -0.508 OA
ATOM     13  H   UNL     1     -26.776  17.607  58.455  1.00  0.00     0.293 HD
ENDBRANCH   4  12
TORSDOF 2
ENDMDL
MODEL 4
REMARK VINA RESULT:    -6.174      8.238      8.932
REMARK INTER + INTRA:          -6.535
REMARK INTER:                  -6.535
REMARK INTRA:                   0.000
REMARK UNBOUND:                 0.000
REMARK SMILES Cc1cc(O)c(C)c(C)c1O
REMARK SMILES IDX 1 1 2 2 3 3 4 4 6 5 8 6 10 7 9 8 7 9 11 10 5 12
REMARK H PARENT 11 11 5 13
REMARK Flexibility Score: inf
ROOT
ATOM      1  C   UNL     1     -28.058  19.512  53.356  1.00  0.00     0.048 C 
ATOM      2  C   UNL     1     -28.232  19.433  54.848  1.00  0.00    -0.005 A 
ATOM      3  C   UNL     1     -29.122  20.296  55.494  1.00  0.00     0.053 A 
ATOM      4  C   UNL     1     -29.273  20.266  56.879  1.00  0.00     0.119 A 
ATOM      5  C   UNL     1     -28.508  19.364  57.657  1.00  0.00    -0.003 A 
ATOM      6  C   UNL     1     -27.695  18.399  56.999  1.00  0.00    -0.002 A 
ATOM      7  C   UNL     1     -27.508  18.489  55.595  1.00  0.00     0.121 A 
ATOM      8  C   UNL     1     -27.018  17.290  57.774  1.00  0.00     0.049 C 
ATOM      9  C   UNL     1     -28.580  19.429  59.166  1.00  0.00     0.049 C 
ENDROOT
BRANCH   7  10
ATOM     10  O   UNL     1     -26.603  17.665  54.918  1.00  0.00    -0.507 OA
ATOM     11  H   UNL     1     -26.677  16.657  54.883  1.00  0.00     0.293 HD
ENDBRANCH   7  10
BRANCH   4  12
ATOM     12  O   UNL     1     -30.204  21.141  57.446  1.00  0.00    -0.508 OA
ATOM     13  H   UNL     1     -31.089  20.843  57.836  1.00  0.00     0.293 HD
ENDBRANCH   4  12
TORSDOF 2
ENDMDL
MODEL 5
REMARK VINA RESULT:    -6.095      8.191      8.847
REMARK INTER + INTRA:          -6.452
REMARK INTER:                  -6.452
REMARK INTRA:                   0.000
REMARK UNBOUND:                 0.000
REMARK SMILES Cc1cc(O)c(C)c(C)c1O
REMARK SMILES IDX 1 1 2 2 3 3 4 4 6 5 8 6 10 7 9 8 7 9 11 10 5 12
REMARK H PARENT 11 11 5 13
REMARK Flexibility Score: inf
ROOT
ATOM      1  C   UNL     1     -26.293  17.990  59.112  1.00  0.00     0.048 C 
ATOM      2  C   UNL     1     -27.168  18.542  58.020  1.00  0.00    -0.005 A 
ATOM      3  C   UNL     1     -26.975  18.132  56.698  1.00  0.00     0.053 A 
ATOM      4  C   UNL     1     -27.750  18.656  55.664  1.00  0.00     0.119 A 
ATOM      5  C   UNL     1     -28.739  19.629  55.942  1.00  0.00    -0.003 A 
ATOM      6  C   UNL     1     -29.027  19.957  57.297  1.00  0.00    -0.002 A 
ATOM      7  C   UNL     1     -28.185  19.461  58.326  1.00  0.00     0.121 A 
ATOM      8  C   UNL     1     -30.205  20.837  57.653  1.00  0.00     0.049 C 
ATOM      9  C   UNL     1     -29.483  20.288  54.802  1.00  0.00     0.049 C 
ENDROOT
BRANCH   7  10
ATOM     10  O   UNL     1     -28.327  19.871  59.655  1.00  0.00    -0.507 OA
ATOM     11  H   UNL     1     -28.548  19.244  60.418  1.00  0.00     0.293 HD
ENDBRANCH   7  10
BRANCH   4  12
ATOM     12  O   UNL     1     -27.514  18.174  54.373  1.00  0.00    -0.508 OA
ATOM     13  H   UNL     1     -26.595  18.126  53.952  1.00  0.00     0.293 HD
ENDBRANCH   4  12
TORSDOF 2
ENDMDL
MODEL 6
REMARK VINA RESULT:    -6.094      8.181      8.603
REMARK INTER + INTRA:          -6.451
REMARK INTER:                  -6.451
REMARK INTRA:                   0.000
REMARK UNBOUND:                 0.000
REMARK SMILES Cc1cc(O)c(C)c(C)c1O
REMARK SMILES IDX 1 1 2 2 3 3 4 4 6 5 8 6 10 7 9 8 7 9 11 10 5 12
REMARK H PARENT 11 11 5 13
REMARK Flexibility Score: inf
ROOT
ATOM      1  C   UNL     1     -26.437  17.128  57.821  1.00  0.00     0.048 C 
ATOM      2  C   UNL     1     -27.346  18.163  57.216  1.00  0.00    -0.005 A 
ATOM      3  C   UNL     1     -28.148  18.955  58.042  1.00  0.00     0.053 A 
ATOM      4  C   UNL     1     -29.025  19.895  57.502  1.00  0.00     0.119 A 
ATOM      5  C   UNL     1     -29.125  20.049  56.099  1.00  0.00    -0.003 A 
ATOM      6  C   UNL     1     -28.224  19.337  55.258  1.00  0.00    -0.002 A 
ATOM      7  C   UNL     1     -27.386  18.341  55.823  1.00  0.00     0.121 A 
ATOM      8  C   UNL     1     -28.157  19.616  53.773  1.00  0.00     0.049 C 
ATOM      9  C   UNL     1     -30.172  20.974  55.519  1.00  0.00     0.049 C 
ENDROOT
BRANCH   7  10
ATOM     10  O   UNL     1     -26.593  17.507  55.028  1.00  0.00    -0.507 OA
ATOM     11  H   UNL     1     -25.657  17.215  55.277  1.00  0.00     0.293 HD
ENDBRANCH   7  10
BRANCH   4  12
ATOM     12  O   UNL     1     -29.772  20.668  58.396  1.00  0.00    -0.508 OA
ATOM     13  H   UNL     1     -29.411  21.015  59.275  1.00  0.00     0.293 HD
ENDBRANCH   4  12
TORSDOF 2
ENDMDL
MODEL 7
REMARK VINA RESULT:    -6.058      8.371      8.895
REMARK INTER + INTRA:          -6.412
REMARK INTER:                  -6.412
REMARK INTRA:                   0.000
REMARK UNBOUND:                 0.000
REMARK SMILES Cc1cc(O)c(C)c(C)c1O
REMARK SMILES IDX 1 1 2 2 3 3 4 4 6 5 8 6 10 7 9 8 7 9 11 10 5 12
REMARK H PARENT 11 11 5 13
REMARK Flexibility Score: inf
ROOT
ATOM      1  C   UNL     1     -30.219  21.311  59.227  1.00  0.00     0.048 C 
ATOM      2  C   UNL     1     -29.341  20.483  58.330  1.00  0.00    -0.005 A 
ATOM      3  C   UNL     1     -29.381  20.673  56.946  1.00  0.00     0.053 A 
ATOM      4  C   UNL     1     -28.603  19.893  56.092  1.00  0.00     0.119 A 
ATOM      5  C   UNL     1     -27.767  18.880  56.621  1.00  0.00    -0.003 A 
ATOM      6  C   UNL     1     -27.625  18.766  58.032  1.00  0.00    -0.002 A 
ATOM      7  C   UNL     1     -28.473  19.526  58.879  1.00  0.00     0.121 A 
ATOM      8  C   UNL     1     -26.597  17.838  58.640  1.00  0.00     0.049 C 
ATOM      9  C   UNL     1     -27.029  17.952  55.682  1.00  0.00     0.049 C 
ENDROOT
BRANCH   7  10
ATOM     10  O   UNL     1     -28.484  19.342  60.266  1.00  0.00    -0.507 OA
ATOM     11  H   UNL     1     -27.766  18.842  60.774  1.00  0.00     0.293 HD
ENDBRANCH   7  10
BRANCH   4  12
ATOM     12  O   UNL     1     -28.679  20.162  54.722  1.00  0.00    -0.508 OA
ATOM     13  H   UNL     1     -28.475  21.066  54.317  1.00  0.00     0.293 HD
ENDBRANCH   4  12
TORSDOF 2
ENDMDL
MODEL 8
REMARK VINA RESULT:    -5.947      8.151      8.311
REMARK INTER + INTRA:          -6.295
REMARK INTER:                  -6.295
REMARK INTRA:                   0.000
REMARK UNBOUND:                 0.000
REMARK SMILES Cc1cc(O)c(C)c(C)c1O
REMARK SMILES IDX 1 1 2 2 3 3 4 4 6 5 8 6 10 7 9 8 7 9 11 10 5 12
REMARK H PARENT 11 11 5 13
REMARK Flexibility Score: inf
ROOT
ATOM      1  C   UNL     1     -30.389  21.980  58.260  1.00  0.00     0.048 C 
ATOM      2  C   UNL     1     -29.627  20.868  57.592  1.00  0.00    -0.005 A 
ATOM      3  C   UNL     1     -28.968  19.910  58.367  1.00  0.00     0.053 A 
ATOM      4  C   UNL     1     -28.225  18.892  57.772  1.00  0.00     0.119 A 
ATOM      5  C   UNL     1     -28.116  18.825  56.362  1.00  0.00    -0.003 A 
ATOM      6  C   UNL     1     -28.885  19.719  55.565  1.00  0.00    -0.002 A 
ATOM      7  C   UNL     1     -29.582  20.785  56.191  1.00  0.00     0.121 A 
ATOM      8  C   UNL     1     -28.958  19.558  54.062  1.00  0.00     0.049 C 
ATOM      9  C   UNL     1     -27.203  17.799  55.729  1.00  0.00     0.049 C 
ENDROOT
BRANCH   7  10
ATOM     10  O   UNL     1     -30.226  21.780  55.449  1.00  0.00    -0.507 OA
ATOM     11  H   UNL     1     -30.476  21.682  54.473  1.00  0.00     0.293 HD
ENDBRANCH   7  10
BRANCH   4  12
ATOM     12  O   UNL     1     -27.619  17.957  58.615  1.00  0.00    -0.508 OA
ATOM     13  H   UNL     1     -26.710  18.090  59.038  1.00  0.00     0.293 HD
ENDBRANCH   4  12
TORSDOF 2
ENDMDL
MODEL 9
REMARK VINA RESULT:    -5.941      1.450      4.018
REMARK INTER + INTRA:          -6.288
REMARK INTER:                  -6.288
REMARK INTRA:                   0.000
REMARK UNBOUND:                 0.000
REMARK SMILES Cc1cc(O)c(C)c(C)c1O
REMARK SMILES IDX 1 1 2 2 3 3 4 4 6 5 8 6 10 7 9 8 7 9 11 10 5 12
REMARK H PARENT 11 11 5 13
REMARK Flexibility Score: inf
ROOT
ATOM      1  C   UNL     1     -34.878  16.079  54.558  1.00  0.00     0.048 C 
ATOM      2  C   UNL     1     -35.073  15.188  55.754  1.00  0.00    -0.005 A 
ATOM      3  C   UNL     1     -35.989  14.134  55.696  1.00  0.00     0.053 A 
ATOM      4  C   UNL     1     -36.214  13.317  56.803  1.00  0.00     0.119 A 
ATOM      5  C   UNL     1     -35.523  13.559  58.015  1.00  0.00    -0.003 A 
ATOM      6  C   UNL     1     -34.500  14.548  58.043  1.00  0.00    -0.002 A 
ATOM      7  C   UNL     1     -34.333  15.407  56.927  1.00  0.00     0.121 A 
ATOM      8  C   UNL     1     -33.601  14.705  59.250  1.00  0.00     0.049 C 
ATOM      9  C   UNL     1     -35.869  12.754  59.248  1.00  0.00     0.049 C 
ENDROOT
BRANCH   7  10
ATOM     10  O   UNL     1     -33.451  16.492  56.958  1.00  0.00    -0.507 OA
ATOM     11  H   UNL     1     -33.095  16.953  56.130  1.00  0.00     0.293 HD
ENDBRANCH   7  10
BRANCH   4  12
ATOM     12  O   UNL     1     -37.124  12.267  56.656  1.00  0.00    -0.508 OA
ATOM     13  H   UNL     1     -36.883  11.367  56.262  1.00  0.00     0.293 HD
ENDBRANCH   4  12
TORSDOF 2
ENDMDL
