MODEL 1
REMARK VINA RESULT:    -3.730      0.000      0.000
REMARK INTER + INTRA:          -4.717
REMARK INTER:                  -4.603
REMARK INTRA:                  -0.114
REMARK UNBOUND:                -0.114
REMARK SMILES CCCCCC(=O)[O-]
REMARK SMILES IDX 4 1 5 2 6 3 7 4 8 5 3 6 2 7 1 8
REMARK H PARENT
REMARK Flexibility Score: inf
ROOT
ATOM      1  C   UNL     1      20.621  15.564  20.189  1.00  0.00     0.006 C 
ENDROOT
BRANCH   1   2
ATOM      2  C   UNL     1      21.748  15.128  21.133  1.00  0.00     0.053 C 
BRANCH   2   3
ATOM      3  C   UNL     1      22.953  15.993  20.943  1.00  0.00     0.041 C 
ATOM      4  O   UNL     1      23.752  16.187  21.897  1.00  0.00    -0.550 OA
ATOM      5  O   UNL     1      23.169  16.628  19.726  1.00  0.00    -0.550 OA
ENDBRANCH   2   3
ENDBRANCH   1   2
BRANCH   1   6
ATOM      6  C   UNL     1      19.747  16.687  20.777  1.00  0.00     0.000 C 
BRANCH   6   7
ATOM      7  C   UNL     1      18.489  17.024  19.955  1.00  0.00    -0.003 C 
ATOM      8  C   UNL     1      18.392  16.224  18.657  1.00  0.00     0.004 C 
ENDBRANCH   6   7
ENDBRANCH   1   6
TORSDOF 4
ENDMDL
MODEL 2
REMARK VINA RESULT:    -3.672      2.573      4.244
REMARK INTER + INTRA:          -4.644
REMARK INTER:                  -4.476
REMARK INTRA:                  -0.169
REMARK UNBOUND:                -0.114
REMARK SMILES CCCCCC(=O)[O-]
REMARK SMILES IDX 4 1 5 2 6 3 7 4 8 5 3 6 2 7 1 8
REMARK H PARENT
REMARK Flexibility Score: inf
ROOT
ATOM      1  C   UNL     1      21.050  14.762  19.930  1.00  0.00     0.006 C 
ENDROOT
BRANCH   1   2
ATOM      2  C   UNL     1      20.644  16.036  19.178  1.00  0.00     0.053 C 
BRANCH   2   3
ATOM      3  C   UNL     1      19.190  16.324  19.383  1.00  0.00     0.041 C 
ATOM      4  O   UNL     1      18.801  16.905  20.431  1.00  0.00    -0.550 OA
ATOM      5  O   UNL     1      18.259  15.905  18.441  1.00  0.00    -0.550 OA
ENDBRANCH   2   3
ENDBRANCH   1   2
BRANCH   1   6
ATOM      6  C   UNL     1      21.864  15.052  21.204  1.00  0.00     0.000 C 
BRANCH   6   7
ATOM      7  C   UNL     1      22.624  16.391  21.194  1.00  0.00    -0.003 C 
ATOM      8  C   UNL     1      24.115  16.235  21.489  1.00  0.00     0.004 C 
ENDBRANCH   6   7
ENDBRANCH   1   6
TORSDOF 4
ENDMDL
MODEL 3
REMARK VINA RESULT:    -3.636     15.635     16.636
REMARK INTER + INTRA:          -4.600
REMARK INTER:                  -4.495
REMARK INTRA:                  -0.105
REMARK UNBOUND:                -0.114
REMARK SMILES CCCCCC(=O)[O-]
REMARK SMILES IDX 4 1 5 2 6 3 7 4 8 5 3 6 2 7 1 8
REMARK H PARENT
REMARK Flexibility Score: inf
ROOT
ATOM      1  C   UNL     1      11.310   7.504  11.659  1.00  0.00     0.006 C 
ENDROOT
BRANCH   1   2
ATOM      2  C   UNL     1      11.925   6.698  10.508  1.00  0.00     0.053 C 
BRANCH   2   3
ATOM      3  C   UNL     1      11.254   5.367  10.384  1.00  0.00     0.041 C 
ATOM      4  O   UNL     1      10.033   5.244  10.669  1.00  0.00    -0.550 OA
ATOM      5  O   UNL     1      11.987   4.251  10.001  1.00  0.00    -0.550 OA
ENDBRANCH   2   3
ENDBRANCH   1   2
BRANCH   1   6
ATOM      6  C   UNL     1      11.518   9.022  11.507  1.00  0.00     0.000 C 
BRANCH   6   7
ATOM      7  C   UNL     1      12.102   9.460  10.151  1.00  0.00    -0.003 C 
ATOM      8  C   UNL     1      12.577  10.913  10.148  1.00  0.00     0.004 C 
ENDBRANCH   6   7
ENDBRANCH   1   6
TORSDOF 4
ENDMDL
MODEL 4
REMARK VINA RESULT:    -3.631     14.296     15.454
REMARK INTER + INTRA:          -4.594
REMARK INTER:                  -4.490
REMARK INTRA:                  -0.104
REMARK UNBOUND:                -0.114
REMARK SMILES CCCCCC(=O)[O-]
REMARK SMILES IDX 4 1 5 2 6 3 7 4 8 5 3 6 2 7 1 8
REMARK H PARENT
REMARK Flexibility Score: inf
ROOT
ATOM      1  C   UNL     1      11.540   8.730  11.575  1.00  0.00     0.006 C 
ENDROOT
BRANCH   1   2
ATOM      2  C   UNL     1      12.050   9.275  10.235  1.00  0.00     0.053 C 
BRANCH   2   3
ATOM      3  C   UNL     1      12.447  10.710  10.371  1.00  0.00     0.041 C 
ATOM      4  O   UNL     1      12.336  11.297  11.480  1.00  0.00    -0.550 OA
ATOM      5  O   UNL     1      12.894  11.416   9.261  1.00  0.00    -0.550 OA
ENDBRANCH   2   3
ENDBRANCH   1   2
BRANCH   1   6
ATOM      6  C   UNL     1      11.341   7.204  11.566  1.00  0.00     0.000 C 
BRANCH   6   7
ATOM      7  C   UNL     1      12.016   6.472  10.390  1.00  0.00    -0.003 C 
ATOM      8  C   UNL     1      12.742   5.197  10.818  1.00  0.00     0.004 C 
ENDBRANCH   6   7
ENDBRANCH   1   6
TORSDOF 4
ENDMDL
MODEL 5
REMARK VINA RESULT:    -3.595     15.070     16.273
REMARK INTER + INTRA:          -4.550
REMARK INTER:                  -4.456
REMARK INTRA:                  -0.094
REMARK UNBOUND:                -0.114
REMARK SMILES CCCCCC(=O)[O-]
REMARK SMILES IDX 4 1 5 2 6 3 7 4 8 5 3 6 2 7 1 8
REMARK H PARENT
REMARK Flexibility Score: inf
ROOT
ATOM      1  C   UNL     1      11.337   7.274  11.582  1.00  0.00     0.006 C 
ENDROOT
BRANCH   1   2
ATOM      2  C   UNL     1      11.983   6.537  10.402  1.00  0.00     0.053 C 
BRANCH   2   3
ATOM      3  C   UNL     1      12.352   5.142  10.796  1.00  0.00     0.041 C 
ATOM      4  O   UNL     1      13.538   4.866  11.116  1.00  0.00    -0.550 OA
ATOM      5  O   UNL     1      11.396   4.134  10.763  1.00  0.00    -0.550 OA
ENDBRANCH   2   3
ENDBRANCH   1   2
BRANCH   1   6
ATOM      6  C   UNL     1      11.458   8.805  11.472  1.00  0.00     0.000 C 
BRANCH   6   7
ATOM      7  C   UNL     1      12.108   9.309  10.169  1.00  0.00    -0.003 C 
ATOM      8  C   UNL     1      12.523  10.778  10.238  1.00  0.00     0.004 C 
ENDBRANCH   6   7
ENDBRANCH   1   6
TORSDOF 4
ENDMDL
MODEL 6
REMARK VINA RESULT:    -3.499     16.362     17.297
REMARK INTER + INTRA:          -4.431
REMARK INTER:                  -4.322
REMARK INTRA:                  -0.109
REMARK UNBOUND:                -0.114
REMARK SMILES CCCCCC(=O)[O-]
REMARK SMILES IDX 4 1 5 2 6 3 7 4 8 5 3 6 2 7 1 8
REMARK H PARENT
REMARK Flexibility Score: inf
ROOT
ATOM      1  C   UNL     1      12.080   6.704  10.341  1.00  0.00     0.006 C 
ENDROOT
BRANCH   1   2
ATOM      2  C   UNL     1      12.427   5.234  10.605  1.00  0.00     0.053 C 
BRANCH   2   3
ATOM      3  C   UNL     1      11.574   4.337   9.765  1.00  0.00     0.041 C 
ATOM      4  O   UNL     1      11.971   3.178   9.470  1.00  0.00    -0.550 OA
ATOM      5  O   UNL     1      10.363   4.798   9.264  1.00  0.00    -0.550 OA
ENDBRANCH   2   3
ENDBRANCH   1   2
BRANCH   1   6
ATOM      6  C   UNL     1      11.420   7.392  11.550  1.00  0.00     0.000 C 
BRANCH   6   7
ATOM      7  C   UNL     1      11.433   8.931  11.505  1.00  0.00    -0.003 C 
ATOM      8  C   UNL     1      12.103   9.486  10.248  1.00  0.00     0.004 C 
ENDBRANCH   6   7
ENDBRANCH   1   6
TORSDOF 4
ENDMDL
MODEL 7
REMARK VINA RESULT:    -3.413     14.403     15.449
REMARK INTER + INTRA:          -4.325
REMARK INTER:                  -4.255
REMARK INTRA:                  -0.070
REMARK UNBOUND:                -0.114
REMARK SMILES CCCCCC(=O)[O-]
REMARK SMILES IDX 4 1 5 2 6 3 7 4 8 5 3 6 2 7 1 8
REMARK H PARENT
REMARK Flexibility Score: inf
ROOT
ATOM      1  C   UNL     1      11.547   8.270  11.506  1.00  0.00     0.006 C 
ENDROOT
BRANCH   1   2
ATOM      2  C   UNL     1      12.037   8.984  10.240  1.00  0.00     0.053 C 
BRANCH   2   3
ATOM      3  C   UNL     1      12.309  10.427  10.527  1.00  0.00     0.041 C 
ATOM      4  O   UNL     1      12.845  11.157   9.652  1.00  0.00    -0.550 OA
ATOM      5  O   UNL     1      12.016  10.955  11.778  1.00  0.00    -0.550 OA
ENDBRANCH   2   3
ENDBRANCH   1   2
BRANCH   1   6
ATOM      6  C   UNL     1      11.446   6.744  11.331  1.00  0.00     0.000 C 
BRANCH   6   7
ATOM      7  C   UNL     1      10.447   6.050  12.276  1.00  0.00    -0.003 C 
ATOM      8  C   UNL     1      10.378   6.703  13.656  1.00  0.00     0.004 C 
ENDBRANCH   6   7
ENDBRANCH   1   6
TORSDOF 4
ENDMDL
MODEL 8
REMARK VINA RESULT:    -3.281     16.738     17.466
REMARK INTER + INTRA:          -4.162
REMARK INTER:                  -4.015
REMARK INTRA:                  -0.147
REMARK UNBOUND:                -0.114
REMARK SMILES CCCCCC(=O)[O-]
REMARK SMILES IDX 4 1 5 2 6 3 7 4 8 5 3 6 2 7 1 8
REMARK H PARENT
REMARK Flexibility Score: inf
ROOT
ATOM      1  C   UNL     1      11.791   6.711  10.601  1.00  0.00     0.006 C 
ENDROOT
BRANCH   1   2
ATOM      2  C   UNL     1      12.441   5.323  10.672  1.00  0.00     0.053 C 
BRANCH   2   3
ATOM      3  C   UNL     1      11.655   4.337   9.867  1.00  0.00     0.041 C 
ATOM      4  O   UNL     1      12.101   3.174   9.677  1.00  0.00    -0.550 OA
ATOM      5  O   UNL     1      10.452   4.716   9.285  1.00  0.00    -0.550 OA
ENDBRANCH   2   3
ENDBRANCH   1   2
BRANCH   1   6
ATOM      6  C   UNL     1      11.350   7.237  11.980  1.00  0.00     0.000 C 
BRANCH   6   7
ATOM      7  C   UNL     1      10.385   6.313  12.745  1.00  0.00    -0.003 C 
ATOM      8  C   UNL     1      10.210   6.713  14.209  1.00  0.00     0.004 C 
ENDBRANCH   6   7
ENDBRANCH   1   6
TORSDOF 4
ENDMDL
MODEL 9
REMARK VINA RESULT:    -3.249     14.735     15.367
REMARK INTER + INTRA:          -4.123
REMARK INTER:                  -4.059
REMARK INTRA:                  -0.063
REMARK UNBOUND:                -0.114
REMARK SMILES CCCCCC(=O)[O-]
REMARK SMILES IDX 4 1 5 2 6 3 7 4 8 5 3 6 2 7 1 8
REMARK H PARENT
REMARK Flexibility Score: inf
ROOT
ATOM      1  C   UNL     1      12.376  10.045  10.211  1.00  0.00     0.006 C 
ENDROOT
BRANCH   1   2
ATOM      2  C   UNL     1      11.612   9.194  11.234  1.00  0.00     0.053 C 
BRANCH   2   3
ATOM      3  C   UNL     1      11.714   7.743  10.885  1.00  0.00     0.041 C 
ATOM      4  O   UNL     1      12.372   7.378   9.875  1.00  0.00    -0.550 OA
ATOM      5  O   UNL     1      11.041   6.795  11.647  1.00  0.00    -0.550 OA
ENDBRANCH   2   3
ENDBRANCH   1   2
BRANCH   1   6
ATOM      6  C   UNL     1      12.420  11.537  10.588  1.00  0.00     0.000 C 
BRANCH   6   7
ATOM      7  C   UNL     1      12.372  12.507   9.393  1.00  0.00    -0.003 C 
ATOM      8  C   UNL     1      13.480  12.252   8.372  1.00  0.00     0.004 C 
ENDBRANCH   6   7
ENDBRANCH   1   6
TORSDOF 4
ENDMDL
