MODEL 1
REMARK VINA RESULT:    -4.517      0.000      0.000
REMARK INTER + INTRA:         -17.395
REMARK INTER:                 -11.382
REMARK INTRA:                  -6.013
REMARK UNBOUND:                -6.013
REMARK SMILES CCCCCCCCCCCCCCCCCCCCCCCCCCCC(=O)[O-]
REMARK SMILES IDX 15 1 16 2 17 3 18 4 19 5 20 6 21 7 22 8 23 9 24 10 25 11
REMARK SMILES IDX 26 12 27 13 28 14 29 15 30 16 14 17 13 18 12 19 11 20 10 21
REMARK SMILES IDX 9 22 8 23 7 24 6 25 5 26 4 27 3 28 2 29 1 30
REMARK H PARENT
REMARK Flexibility Score: inf
ROOT
ATOM      1  C   UNL     1      19.572  -5.111  22.947  1.00  0.00     0.000 C 
ENDROOT
BRANCH   1   2
ATOM      2  C   UNL     1      19.073  -4.678  21.554  1.00  0.00     0.000 C 
BRANCH   2   3
ATOM      3  C   UNL     1      18.883  -3.154  21.398  1.00  0.00     0.000 C 
BRANCH   3   4
ATOM      4  C   UNL     1      17.441  -2.766  21.022  1.00  0.00     0.000 C 
BRANCH   4   5
ATOM      5  C   UNL     1      16.391  -3.515  21.858  1.00  0.00     0.000 C 
BRANCH   5   6
ATOM      6  C   UNL     1      15.720  -2.615  22.913  1.00  0.00     0.000 C 
BRANCH   6   7
ATOM      7  C   UNL     1      16.097  -3.004  24.351  1.00  0.00     0.000 C 
BRANCH   7   8
ATOM      8  C   UNL     1      16.946  -1.960  25.105  1.00  0.00     0.000 C 
BRANCH   8   9
ATOM      9  C   UNL     1      17.174  -0.653  24.318  1.00  0.00     0.000 C 
BRANCH   9  10
ATOM     10  C   UNL     1      18.662  -0.361  24.074  1.00  0.00     0.000 C 
BRANCH  10  11
ATOM     11  C   UNL     1      18.838   0.811  23.097  1.00  0.00     0.000 C 
BRANCH  11  12
ATOM     12  C   UNL     1      19.374   0.364  21.724  1.00  0.00     0.006 C 
BRANCH  12  13
ATOM     13  C   UNL     1      19.039   1.330  20.575  1.00  0.00     0.053 C 
BRANCH  13  14
ATOM     14  C   UNL     1      18.482   0.612  19.380  1.00  0.00     0.041 C 
ATOM     15  O   UNL     1      17.437   1.035  18.815  1.00  0.00    -0.550 OA
ATOM     16  O   UNL     1      19.110  -0.534  18.904  1.00  0.00    -0.550 OA
ENDBRANCH  13  14
ENDBRANCH  12  13
ENDBRANCH  11  12
ENDBRANCH  10  11
ENDBRANCH   9  10
ENDBRANCH   8   9
ENDBRANCH   7   8
ENDBRANCH   6   7
ENDBRANCH   5   6
ENDBRANCH   4   5
ENDBRANCH   3   4
ENDBRANCH   2   3
ENDBRANCH   1   2
BRANCH   1  17
ATOM     17  C   UNL     1      19.752  -3.971  23.963  1.00  0.00     0.000 C 
BRANCH  17  18
ATOM     18  C   UNL     1      21.230  -3.610  24.192  1.00  0.00     0.000 C 
BRANCH  18  19
ATOM     19  C   UNL     1      21.592  -2.219  23.653  1.00  0.00     0.000 C 
BRANCH  19  20
ATOM     20  C   UNL     1      22.362  -2.280  22.321  1.00  0.00     0.000 C 
BRANCH  20  21
ATOM     21  C   UNL     1      22.809  -3.707  21.963  1.00  0.00     0.000 C 
BRANCH  21  22
ATOM     22  C   UNL     1      22.660  -4.012  20.463  1.00  0.00    -0.000 C 
BRANCH  22  23
ATOM     23  C   UNL     1      22.404  -2.750  19.624  1.00  0.00    -0.000 C 
BRANCH  23  24
ATOM     24  C   UNL     1      21.518  -3.030  18.396  1.00  0.00    -0.000 C 
BRANCH  24  25
ATOM     25  C   UNL     1      21.518  -4.512  17.988  1.00  0.00    -0.000 C 
BRANCH  25  26
ATOM     26  C   UNL     1      20.127  -5.008  17.560  1.00  0.00    -0.000 C 
BRANCH  26  27
ATOM     27  C   UNL     1      19.093  -3.872  17.492  1.00  0.00    -0.000 C 
BRANCH  27  28
ATOM     28  C   UNL     1      17.704  -4.308  17.988  1.00  0.00    -0.000 C 
BRANCH  28  29
ATOM     29  C   UNL     1      17.640  -5.830  18.170  1.00  0.00    -0.003 C 
ATOM     30  C   UNL     1      16.537  -6.223  19.150  1.00  0.00     0.004 C 
ENDBRANCH  28  29
ENDBRANCH  27  28
ENDBRANCH  26  27
ENDBRANCH  25  26
ENDBRANCH  24  25
ENDBRANCH  23  24
ENDBRANCH  22  23
ENDBRANCH  21  22
ENDBRANCH  20  21
ENDBRANCH  19  20
ENDBRANCH  18  19
ENDBRANCH  17  18
ENDBRANCH   1  17
TORSDOF 26
ENDMDL
MODEL 2
REMARK VINA RESULT:    -4.503      1.925      5.300
REMARK INTER + INTRA:         -17.360
REMARK INTER:                 -11.705
REMARK INTRA:                  -5.655
REMARK UNBOUND:                -6.013
REMARK SMILES CCCCCCCCCCCCCCCCCCCCCCCCCCCC(=O)[O-]
REMARK SMILES IDX 15 1 16 2 17 3 18 4 19 5 20 6 21 7 22 8 23 9 24 10 25 11
REMARK SMILES IDX 26 12 27 13 28 14 29 15 30 16 14 17 13 18 12 19 11 20 10 21
REMARK SMILES IDX 9 22 8 23 7 24 6 25 5 26 4 27 3 28 2 29 1 30
REMARK H PARENT
REMARK Flexibility Score: inf
ROOT
ATOM      1  C   UNL     1      18.920  -0.857  20.123  1.00  0.00     0.000 C 
ENDROOT
BRANCH   1   2
ATOM      2  C   UNL     1      19.589  -1.174  18.770  1.00  0.00     0.000 C 
BRANCH   2   3
ATOM      3  C   UNL     1      19.853  -2.676  18.534  1.00  0.00     0.000 C 
BRANCH   3   4
ATOM      4  C   UNL     1      21.269  -2.957  17.997  1.00  0.00     0.000 C 
BRANCH   4   5
ATOM      5  C   UNL     1      21.685  -4.427  18.168  1.00  0.00     0.000 C 
BRANCH   5   6
ATOM      6  C   UNL     1      22.756  -4.618  19.258  1.00  0.00     0.000 C 
BRANCH   6   7
ATOM      7  C   UNL     1      23.064  -3.320  20.022  1.00  0.00     0.000 C 
BRANCH   7   8
ATOM      8  C   UNL     1      22.513  -3.267  21.462  1.00  0.00     0.000 C 
BRANCH   8   9
ATOM      9  C   UNL     1      21.976  -1.880  21.875  1.00  0.00     0.000 C 
BRANCH   9  10
ATOM     10  C   UNL     1      22.795  -1.241  23.006  1.00  0.00     0.000 C 
BRANCH  10  11
ATOM     11  C   UNL     1      21.950  -0.226  23.789  1.00  0.00     0.000 C 
BRANCH  11  12
ATOM     12  C   UNL     1      20.444  -0.358  23.498  1.00  0.00     0.006 C 
BRANCH  12  13
ATOM     13  C   UNL     1      19.555   0.553  24.363  1.00  0.00     0.053 C 
BRANCH  13  14
ATOM     14  C   UNL     1      18.127   0.091  24.383  1.00  0.00     0.041 C 
ATOM     15  O   UNL     1      17.426   0.151  23.336  1.00  0.00    -0.550 OA
ATOM     16  O   UNL     1      17.569  -0.389  25.562  1.00  0.00    -0.550 OA
ENDBRANCH  13  14
ENDBRANCH  12  13
ENDBRANCH  11  12
ENDBRANCH  10  11
ENDBRANCH   9  10
ENDBRANCH   8   9
ENDBRANCH   7   8
ENDBRANCH   6   7
ENDBRANCH   5   6
ENDBRANCH   4   5
ENDBRANCH   3   4
ENDBRANCH   2   3
ENDBRANCH   1   2
BRANCH   1  17
ATOM     17  C   UNL     1      18.426  -2.082  20.912  1.00  0.00     0.000 C 
BRANCH  17  18
ATOM     18  C   UNL     1      16.901  -2.268  20.821  1.00  0.00     0.000 C 
BRANCH  18  19
ATOM     19  C   UNL     1      16.379  -3.356  21.770  1.00  0.00     0.000 C 
BRANCH  19  20
ATOM     20  C   UNL     1      15.547  -2.781  22.931  1.00  0.00     0.000 C 
BRANCH  20  21
ATOM     21  C   UNL     1      16.110  -3.167  24.308  1.00  0.00     0.000 C 
BRANCH  21  22
ATOM     22  C   UNL     1      17.146  -4.302  24.224  1.00  0.00    -0.000 C 
BRANCH  22  23
ATOM     23  C   UNL     1      18.545  -3.862  24.683  1.00  0.00    -0.000 C 
BRANCH  23  24
ATOM     24  C   UNL     1      19.630  -4.160  23.631  1.00  0.00    -0.000 C 
BRANCH  24  25
ATOM     25  C   UNL     1      19.379  -5.474  22.874  1.00  0.00    -0.000 C 
BRANCH  25  26
ATOM     26  C   UNL     1      19.393  -5.291  21.348  1.00  0.00    -0.000 C 
BRANCH  26  27
ATOM     27  C   UNL     1      19.504  -6.629  20.596  1.00  0.00    -0.000 C 
BRANCH  27  28
ATOM     28  C   UNL     1      18.847  -6.580  19.207  1.00  0.00    -0.000 C 
BRANCH  28  29
ATOM     29  C   UNL     1      17.800  -5.462  19.135  1.00  0.00    -0.003 C 
ATOM     30  C   UNL     1      16.383  -6.027  19.212  1.00  0.00     0.004 C 
ENDBRANCH  28  29
ENDBRANCH  27  28
ENDBRANCH  26  27
ENDBRANCH  25  26
ENDBRANCH  24  25
ENDBRANCH  23  24
ENDBRANCH  22  23
ENDBRANCH  21  22
ENDBRANCH  20  21
ENDBRANCH  19  20
ENDBRANCH  18  19
ENDBRANCH  17  18
ENDBRANCH   1  17
TORSDOF 26
ENDMDL
MODEL 3
REMARK VINA RESULT:    -4.501      1.667      3.661
REMARK INTER + INTRA:         -17.355
REMARK INTER:                 -10.953
REMARK INTRA:                  -6.402
REMARK UNBOUND:                -6.013
REMARK SMILES CCCCCCCCCCCCCCCCCCCCCCCCCCCC(=O)[O-]
REMARK SMILES IDX 15 1 16 2 17 3 18 4 19 5 20 6 21 7 22 8 23 9 24 10 25 11
REMARK SMILES IDX 26 12 27 13 28 14 29 15 30 16 14 17 13 18 12 19 11 20 10 21
REMARK SMILES IDX 9 22 8 23 7 24 6 25 5 26 4 27 3 28 2 29 1 30
REMARK H PARENT
REMARK Flexibility Score: inf
ROOT
ATOM      1  C   UNL     1      17.905  -4.410  22.869  1.00  0.00     0.000 C 
ENDROOT
BRANCH   1   2
ATOM      2  C   UNL     1      19.348  -4.941  22.976  1.00  0.00     0.000 C 
BRANCH   2   3
ATOM      3  C   UNL     1      20.113  -4.442  24.220  1.00  0.00     0.000 C 
BRANCH   3   4
ATOM      4  C   UNL     1      21.566  -4.039  23.906  1.00  0.00     0.000 C 
BRANCH   4   5
ATOM      5  C   UNL     1      21.836  -3.926  22.398  1.00  0.00     0.000 C 
BRANCH   5   6
ATOM      6  C   UNL     1      22.141  -2.483  21.955  1.00  0.00     0.000 C 
BRANCH   6   7
ATOM      7  C   UNL     1      22.397  -1.540  23.141  1.00  0.00     0.000 C 
BRANCH   7   8
ATOM      8  C   UNL     1      21.369  -0.400  23.299  1.00  0.00     0.000 C 
BRANCH   8   9
ATOM      9  C   UNL     1      19.993  -0.709  22.674  1.00  0.00     0.000 C 
BRANCH   9  10
ATOM     10  C   UNL     1      18.903  -0.949  23.730  1.00  0.00     0.000 C 
BRANCH  10  11
ATOM     11  C   UNL     1      17.573  -0.315  23.299  1.00  0.00     0.000 C 
BRANCH  11  12
ATOM     12  C   UNL     1      17.688   0.463  21.975  1.00  0.00     0.006 C 
BRANCH  12  13
ATOM     13  C   UNL     1      16.575   0.146  20.961  1.00  0.00     0.053 C 
BRANCH  13  14
ATOM     14  C   UNL     1      16.008   1.390  20.340  1.00  0.00     0.041 C 
ATOM     15  O   UNL     1      16.020   2.479  20.976  1.00  0.00    -0.550 OA
ATOM     16  O   UNL     1      15.454   1.339  19.066  1.00  0.00    -0.550 OA
ENDBRANCH  13  14
ENDBRANCH  12  13
ENDBRANCH  11  12
ENDBRANCH  10  11
ENDBRANCH   9  10
ENDBRANCH   8   9
ENDBRANCH   7   8
ENDBRANCH   6   7
ENDBRANCH   5   6
ENDBRANCH   4   5
ENDBRANCH   3   4
ENDBRANCH   2   3
ENDBRANCH   1   2
BRANCH   1  17
ATOM     17  C   UNL     1      17.568  -3.687  21.554  1.00  0.00     0.000 C 
BRANCH  17  18
ATOM     18  C   UNL     1      18.824  -3.275  20.767  1.00  0.00     0.000 C 
BRANCH  18  19
ATOM     19  C   UNL     1      18.496  -2.442  19.520  1.00  0.00     0.000 C 
BRANCH  19  20
ATOM     20  C   UNL     1      19.755  -1.884  18.830  1.00  0.00     0.000 C 
BRANCH  20  21
ATOM     21  C   UNL     1      20.272  -2.803  17.712  1.00  0.00     0.000 C 
BRANCH  21  22
ATOM     22  C   UNL     1      21.767  -3.135  17.864  1.00  0.00    -0.000 C 
BRANCH  22  23
ATOM     23  C   UNL     1      22.006  -4.557  18.393  1.00  0.00    -0.000 C 
BRANCH  23  24
ATOM     24  C   UNL     1      20.719  -5.403  18.412  1.00  0.00    -0.000 C 
BRANCH  24  25
ATOM     25  C   UNL     1      20.561  -6.215  19.708  1.00  0.00    -0.000 C 
BRANCH  25  26
ATOM     26  C   UNL     1      19.177  -6.875  19.828  1.00  0.00    -0.000 C 
BRANCH  26  27
ATOM     27  C   UNL     1      18.277  -6.577  18.617  1.00  0.00    -0.000 C 
BRANCH  27  28
ATOM     28  C   UNL     1      16.807  -6.362  19.015  1.00  0.00    -0.000 C 
BRANCH  28  29
ATOM     29  C   UNL     1      16.251  -5.079  18.387  1.00  0.00    -0.003 C 
ATOM     30  C   UNL     1      16.999  -4.724  17.103  1.00  0.00     0.004 C 
ENDBRANCH  28  29
ENDBRANCH  27  28
ENDBRANCH  26  27
ENDBRANCH  25  26
ENDBRANCH  24  25
ENDBRANCH  23  24
ENDBRANCH  22  23
ENDBRANCH  21  22
ENDBRANCH  20  21
ENDBRANCH  19  20
ENDBRANCH  18  19
ENDBRANCH  17  18
ENDBRANCH   1  17
TORSDOF 26
ENDMDL
MODEL 4
REMARK VINA RESULT:    -4.495     10.772     13.798
REMARK INTER + INTRA:         -17.339
REMARK INTER:                 -12.122
REMARK INTRA:                  -5.218
REMARK UNBOUND:                -6.013
REMARK SMILES CCCCCCCCCCCCCCCCCCCCCCCCCCCC(=O)[O-]
REMARK SMILES IDX 15 1 16 2 17 3 18 4 19 5 20 6 21 7 22 8 23 9 24 10 25 11
REMARK SMILES IDX 26 12 27 13 28 14 29 15 30 16 14 17 13 18 12 19 11 20 10 21
REMARK SMILES IDX 9 22 8 23 7 24 6 25 5 26 4 27 3 28 2 29 1 30
REMARK H PARENT
REMARK Flexibility Score: inf
ROOT
ATOM      1  C   UNL     1      11.818  -1.490  16.145  1.00  0.00     0.000 C 
ENDROOT
BRANCH   1   2
ATOM      2  C   UNL     1      11.841  -0.414  15.041  1.00  0.00     0.000 C 
BRANCH   2   3
ATOM      3  C   UNL     1      10.441   0.024  14.560  1.00  0.00     0.000 C 
BRANCH   3   4
ATOM      4  C   UNL     1      10.497   1.106  13.464  1.00  0.00     0.000 C 
BRANCH   4   5
ATOM      5  C   UNL     1       9.299   2.066  13.521  1.00  0.00     0.000 C 
BRANCH   5   6
ATOM      6  C   UNL     1       8.379   1.797  14.727  1.00  0.00     0.000 C 
BRANCH   6   7
ATOM      7  C   UNL     1       7.027   2.522  14.615  1.00  0.00     0.000 C 
BRANCH   7   8
ATOM      8  C   UNL     1       5.878   1.881  15.419  1.00  0.00     0.000 C 
BRANCH   8   9
ATOM      9  C   UNL     1       4.927   1.014  14.568  1.00  0.00     0.000 C 
BRANCH   9  10
ATOM     10  C   UNL     1       4.928  -0.462  14.997  1.00  0.00     0.000 C 
BRANCH  10  11
ATOM     11  C   UNL     1       5.372  -1.368  13.840  1.00  0.00     0.000 C 
BRANCH  11  12
ATOM     12  C   UNL     1       6.356  -0.670  12.883  1.00  0.00     0.006 C 
BRANCH  12  13
ATOM     13  C   UNL     1       7.620  -1.491  12.573  1.00  0.00     0.053 C 
BRANCH  13  14
ATOM     14  C   UNL     1       7.581  -2.086  11.196  1.00  0.00     0.041 C 
ATOM     15  O   UNL     1       8.616  -2.607  10.699  1.00  0.00    -0.550 OA
ATOM     16  O   UNL     1       6.403  -2.048  10.456  1.00  0.00    -0.550 OA
ENDBRANCH  13  14
ENDBRANCH  12  13
ENDBRANCH  11  12
ENDBRANCH  10  11
ENDBRANCH   9  10
ENDBRANCH   8   9
ENDBRANCH   7   8
ENDBRANCH   6   7
ENDBRANCH   5   6
ENDBRANCH   4   5
ENDBRANCH   3   4
ENDBRANCH   2   3
ENDBRANCH   1   2
BRANCH   1  17
ATOM     17  C   UNL     1      12.855  -2.615  15.986  1.00  0.00     0.000 C 
BRANCH  17  18
ATOM     18  C   UNL     1      12.208  -4.010  15.916  1.00  0.00     0.000 C 
BRANCH  18  19
ATOM     19  C   UNL     1      10.720  -3.955  15.541  1.00  0.00     0.000 C 
BRANCH  19  20
ATOM     20  C   UNL     1       9.811  -4.557  16.629  1.00  0.00     0.000 C 
BRANCH  20  21
ATOM     21  C   UNL     1       8.888  -3.510  17.272  1.00  0.00     0.000 C 
BRANCH  21  22
ATOM     22  C   UNL     1       8.191  -2.619  16.229  1.00  0.00    -0.000 C 
BRANCH  22  23
ATOM     23  C   UNL     1       7.881  -1.213  16.765  1.00  0.00    -0.000 C 
BRANCH  23  24
ATOM     24  C   UNL     1       8.767  -0.833  17.967  1.00  0.00    -0.000 C 
BRANCH  24  25
ATOM     25  C   UNL     1       8.612   0.641  18.377  1.00  0.00    -0.000 C 
BRANCH  25  26
ATOM     26  C   UNL     1       7.152   1.024  18.669  1.00  0.00    -0.000 C 
BRANCH  26  27
ATOM     27  C   UNL     1       6.989   2.522  18.980  1.00  0.00    -0.000 C 
BRANCH  27  28
ATOM     28  C   UNL     1       7.993   3.396  18.211  1.00  0.00    -0.000 C 
BRANCH  28  29
ATOM     29  C   UNL     1       7.678   4.885  18.396  1.00  0.00    -0.003 C 
ATOM     30  C   UNL     1       6.186   5.160  18.225  1.00  0.00     0.004 C 
ENDBRANCH  28  29
ENDBRANCH  27  28
ENDBRANCH  26  27
ENDBRANCH  25  26
ENDBRANCH  24  25
ENDBRANCH  23  24
ENDBRANCH  22  23
ENDBRANCH  21  22
ENDBRANCH  20  21
ENDBRANCH  19  20
ENDBRANCH  18  19
ENDBRANCH  17  18
ENDBRANCH   1  17
TORSDOF 26
ENDMDL
MODEL 5
REMARK VINA RESULT:    -4.421     11.881     15.943
REMARK INTER + INTRA:         -17.154
REMARK INTER:                 -14.040
REMARK INTRA:                  -3.114
REMARK UNBOUND:                -6.013
REMARK SMILES CCCCCCCCCCCCCCCCCCCCCCCCCCCC(=O)[O-]
REMARK SMILES IDX 15 1 16 2 17 3 18 4 19 5 20 6 21 7 22 8 23 9 24 10 25 11
REMARK SMILES IDX 26 12 27 13 28 14 29 15 30 16 14 17 13 18 12 19 11 20 10 21
REMARK SMILES IDX 9 22 8 23 7 24 6 25 5 26 4 27 3 28 2 29 1 30
REMARK H PARENT
REMARK Flexibility Score: inf
ROOT
ATOM      1  C   UNL     1      14.353   1.141   7.405  1.00  0.00     0.000 C 
ENDROOT
BRANCH   1   2
ATOM      2  C   UNL     1      14.064   0.522   8.787  1.00  0.00     0.000 C 
BRANCH   2   3
ATOM      3  C   UNL     1      15.185  -0.400   9.311  1.00  0.00     0.000 C 
BRANCH   3   4
ATOM      4  C   UNL     1      15.675  -1.407   8.253  1.00  0.00     0.000 C 
BRANCH   4   5
ATOM      5  C   UNL     1      15.104  -2.817   8.472  1.00  0.00     0.000 C 
BRANCH   5   6
ATOM      6  C   UNL     1      14.648  -3.484   7.160  1.00  0.00     0.000 C 
BRANCH   6   7
ATOM      7  C   UNL     1      13.476  -2.744   6.495  1.00  0.00     0.000 C 
BRANCH   7   8
ATOM      8  C   UNL     1      12.298  -2.414   7.435  1.00  0.00     0.000 C 
BRANCH   8   9
ATOM      9  C   UNL     1      11.145  -3.438   7.375  1.00  0.00     0.000 C 
BRANCH   9  10
ATOM     10  C   UNL     1      10.118  -3.239   8.499  1.00  0.00     0.000 C 
BRANCH  10  11
ATOM     11  C   UNL     1       9.607  -1.791   8.524  1.00  0.00     0.000 C 
BRANCH  11  12
ATOM     12  C   UNL     1       8.957  -1.414   9.868  1.00  0.00     0.006 C 
BRANCH  12  13
ATOM     13  C   UNL     1       8.560  -2.622  10.735  1.00  0.00     0.053 C 
BRANCH  13  14
ATOM     14  C   UNL     1       7.085  -2.894  10.678  1.00  0.00     0.041 C 
ATOM     15  O   UNL     1       6.660  -4.006  10.260  1.00  0.00    -0.550 OA
ATOM     16  O   UNL     1       6.182  -1.912  11.071  1.00  0.00    -0.550 OA
ENDBRANCH  13  14
ENDBRANCH  12  13
ENDBRANCH  11  12
ENDBRANCH  10  11
ENDBRANCH   9  10
ENDBRANCH   8   9
ENDBRANCH   7   8
ENDBRANCH   6   7
ENDBRANCH   5   6
ENDBRANCH   4   5
ENDBRANCH   3   4
ENDBRANCH   2   3
ENDBRANCH   1   2
BRANCH   1  17
ATOM     17  C   UNL     1      14.639   2.653   7.411  1.00  0.00     0.000 C 
BRANCH  17  18
ATOM     18  C   UNL     1      14.612   3.265   5.999  1.00  0.00     0.000 C 
BRANCH  18  19
ATOM     19  C   UNL     1      13.763   4.542   5.923  1.00  0.00     0.000 C 
BRANCH  19  20
ATOM     20  C   UNL     1      13.110   4.903   7.270  1.00  0.00     0.000 C 
BRANCH  20  21
ATOM     21  C   UNL     1      11.620   4.529   7.321  1.00  0.00     0.000 C 
BRANCH  21  22
ATOM     22  C   UNL     1      11.218   3.890   8.662  1.00  0.00    -0.000 C 
BRANCH  22  23
ATOM     23  C   UNL     1      11.027   4.929   9.778  1.00  0.00    -0.000 C 
BRANCH  23  24
ATOM     24  C   UNL     1      12.061   4.774  10.909  1.00  0.00    -0.000 C 
BRANCH  24  25
ATOM     25  C   UNL     1      13.132   3.717  10.595  1.00  0.00    -0.000 C 
BRANCH  25  26
ATOM     26  C   UNL     1      14.344   3.802  11.537  1.00  0.00    -0.000 C 
BRANCH  26  27
ATOM     27  C   UNL     1      15.489   2.869  11.108  1.00  0.00    -0.000 C 
BRANCH  27  28
ATOM     28  C   UNL     1      16.562   2.714  12.198  1.00  0.00    -0.000 C 
BRANCH  28  29
ATOM     29  C   UNL     1      16.522   3.892  13.179  1.00  0.00    -0.003 C 
ATOM     30  C   UNL     1      17.897   4.542  13.318  1.00  0.00     0.004 C 
ENDBRANCH  28  29
ENDBRANCH  27  28
ENDBRANCH  26  27
ENDBRANCH  25  26
ENDBRANCH  24  25
ENDBRANCH  23  24
ENDBRANCH  22  23
ENDBRANCH  21  22
ENDBRANCH  20  21
ENDBRANCH  19  20
ENDBRANCH  18  19
ENDBRANCH  17  18
ENDBRANCH   1  17
TORSDOF 26
ENDMDL
MODEL 6
REMARK VINA RESULT:    -4.367      3.516      6.631
REMARK INTER + INTRA:         -17.019
REMARK INTER:                 -11.738
REMARK INTRA:                  -5.281
REMARK UNBOUND:                -6.013
REMARK SMILES CCCCCCCCCCCCCCCCCCCCCCCCCCCC(=O)[O-]
REMARK SMILES IDX 15 1 16 2 17 3 18 4 19 5 20 6 21 7 22 8 23 9 24 10 25 11
REMARK SMILES IDX 26 12 27 13 28 14 29 15 30 16 14 17 13 18 12 19 11 20 10 21
REMARK SMILES IDX 9 22 8 23 7 24 6 25 5 26 4 27 3 28 2 29 1 30
REMARK H PARENT
REMARK Flexibility Score: inf
ROOT
ATOM      1  C   UNL     1      21.239  -0.034  23.655  1.00  0.00     0.000 C 
ENDROOT
BRANCH   1   2
ATOM      2  C   UNL     1      20.972   0.646  25.013  1.00  0.00     0.000 C 
BRANCH   2   3
ATOM      3  C   UNL     1      20.301   2.032  24.903  1.00  0.00     0.000 C 
BRANCH   3   4
ATOM      4  C   UNL     1      20.417   2.642  23.493  1.00  0.00     0.000 C 
BRANCH   4   5
ATOM      5  C   UNL     1      21.232   3.945  23.478  1.00  0.00     0.000 C 
BRANCH   5   6
ATOM      6  C   UNL     1      21.000   4.804  24.735  1.00  0.00     0.000 C 
BRANCH   6   7
ATOM      7  C   UNL     1      21.288   6.295  24.495  1.00  0.00     0.000 C 
BRANCH   7   8
ATOM      8  C   UNL     1      21.034   6.782  23.054  1.00  0.00     0.000 C 
BRANCH   8   9
ATOM      9  C   UNL     1      19.750   7.624  22.895  1.00  0.00     0.000 C 
BRANCH   9  10
ATOM     10  C   UNL     1      18.520   6.768  22.555  1.00  0.00     0.000 C 
BRANCH  10  11
ATOM     11  C   UNL     1      17.733   6.412  23.824  1.00  0.00     0.000 C 
BRANCH  11  12
ATOM     12  C   UNL     1      17.271   4.943  23.845  1.00  0.00     0.006 C 
BRANCH  12  13
ATOM     13  C   UNL     1      17.283   4.262  22.465  1.00  0.00     0.053 C 
BRANCH  13  14
ATOM     14  C   UNL     1      15.903   3.883  22.013  1.00  0.00     0.041 C 
ATOM     15  O   UNL     1      14.891   4.396  22.563  1.00  0.00    -0.550 OA
ATOM     16  O   UNL     1      15.738   2.951  20.994  1.00  0.00    -0.550 OA
ENDBRANCH  13  14
ENDBRANCH  12  13
ENDBRANCH  11  12
ENDBRANCH  10  11
ENDBRANCH   9  10
ENDBRANCH   8   9
ENDBRANCH   7   8
ENDBRANCH   6   7
ENDBRANCH   5   6
ENDBRANCH   4   5
ENDBRANCH   3   4
ENDBRANCH   2   3
ENDBRANCH   1   2
BRANCH   1  17
ATOM     17  C   UNL     1      21.558  -1.537  23.726  1.00  0.00     0.000 C 
BRANCH  17  18
ATOM     18  C   UNL     1      21.710  -2.176  22.335  1.00  0.00     0.000 C 
BRANCH  18  19
ATOM     19  C   UNL     1      21.631  -3.709  22.374  1.00  0.00     0.000 C 
BRANCH  19  20
ATOM     20  C   UNL     1      20.480  -4.222  23.258  1.00  0.00     0.000 C 
BRANCH  20  21
ATOM     21  C   UNL     1      19.160  -4.365  22.484  1.00  0.00     0.000 C 
BRANCH  21  22
ATOM     22  C   UNL     1      17.934  -3.987  23.334  1.00  0.00    -0.000 C 
BRANCH  22  23
ATOM     23  C   UNL     1      18.307  -3.609  24.776  1.00  0.00    -0.000 C 
BRANCH  23  24
ATOM     24  C   UNL     1      17.636  -2.301  25.233  1.00  0.00    -0.000 C 
BRANCH  24  25
ATOM     25  C   UNL     1      16.934  -1.559  24.084  1.00  0.00    -0.000 C 
BRANCH  25  26
ATOM     26  C   UNL     1      17.489  -0.142  23.866  1.00  0.00    -0.000 C 
BRANCH  26  27
ATOM     27  C   UNL     1      17.541   0.246  22.379  1.00  0.00    -0.000 C 
BRANCH  27  28
ATOM     28  C   UNL     1      18.285  -0.793  21.524  1.00  0.00    -0.000 C 
BRANCH  28  29
ATOM     29  C   UNL     1      19.126  -0.109  20.440  1.00  0.00    -0.003 C 
ATOM     30  C   UNL     1      18.937   1.406  20.467  1.00  0.00     0.004 C 
ENDBRANCH  28  29
ENDBRANCH  27  28
ENDBRANCH  26  27
ENDBRANCH  25  26
ENDBRANCH  24  25
ENDBRANCH  23  24
ENDBRANCH  22  23
ENDBRANCH  21  22
ENDBRANCH  20  21
ENDBRANCH  19  20
ENDBRANCH  18  19
ENDBRANCH  17  18
ENDBRANCH   1  17
TORSDOF 26
ENDMDL
MODEL 7
REMARK VINA RESULT:    -4.367     12.165     15.446
REMARK INTER + INTRA:         -17.017
REMARK INTER:                 -12.018
REMARK INTRA:                  -4.999
REMARK UNBOUND:                -6.013
REMARK SMILES CCCCCCCCCCCCCCCCCCCCCCCCCCCC(=O)[O-]
REMARK SMILES IDX 15 1 16 2 17 3 18 4 19 5 20 6 21 7 22 8 23 9 24 10 25 11
REMARK SMILES IDX 26 12 27 13 28 14 29 15 30 16 14 17 13 18 12 19 11 20 10 21
REMARK SMILES IDX 9 22 8 23 7 24 6 25 5 26 4 27 3 28 2 29 1 30
REMARK H PARENT
REMARK Flexibility Score: inf
ROOT
ATOM      1  C   UNL     1       3.619   1.146  15.813  1.00  0.00     0.000 C 
ENDROOT
BRANCH   1   2
ATOM      2  C   UNL     1       4.403   0.900  17.118  1.00  0.00     0.000 C 
BRANCH   2   3
ATOM      3  C   UNL     1       5.792   0.261  16.907  1.00  0.00     0.000 C 
BRANCH   3   4
ATOM      4  C   UNL     1       6.607   0.159  18.210  1.00  0.00     0.000 C 
BRANCH   4   5
ATOM      5  C   UNL     1       7.777  -0.832  18.099  1.00  0.00     0.000 C 
BRANCH   5   6
ATOM      6  C   UNL     1       9.151  -0.136  18.132  1.00  0.00     0.000 C 
BRANCH   6   7
ATOM      7  C   UNL     1       9.801  -0.043  16.742  1.00  0.00     0.000 C 
BRANCH   7   8
ATOM      8  C   UNL     1      10.383  -1.367  16.206  1.00  0.00     0.000 C 
BRANCH   8   9
ATOM      9  C   UNL     1       9.486  -2.067  15.164  1.00  0.00     0.000 C 
BRANCH   9  10
ATOM     10  C   UNL     1       8.938  -1.096  14.107  1.00  0.00     0.000 C 
BRANCH  10  11
ATOM     11  C   UNL     1       7.403  -1.092  14.110  1.00  0.00     0.000 C 
BRANCH  11  12
ATOM     12  C   UNL     1       6.805  -1.494  12.749  1.00  0.00     0.006 C 
BRANCH  12  13
ATOM     13  C   UNL     1       7.718  -1.193  11.549  1.00  0.00     0.053 C 
BRANCH  13  14
ATOM     14  C   UNL     1       7.345  -2.003  10.341  1.00  0.00     0.041 C 
ATOM     15  O   UNL     1       7.668  -1.609   9.187  1.00  0.00    -0.550 OA
ATOM     16  O   UNL     1       6.625  -3.183  10.492  1.00  0.00    -0.550 OA
ENDBRANCH  13  14
ENDBRANCH  12  13
ENDBRANCH  11  12
ENDBRANCH  10  11
ENDBRANCH   9  10
ENDBRANCH   8   9
ENDBRANCH   7   8
ENDBRANCH   6   7
ENDBRANCH   5   6
ENDBRANCH   4   5
ENDBRANCH   3   4
ENDBRANCH   2   3
ENDBRANCH   1   2
BRANCH   1  17
ATOM     17  C   UNL     1       3.414  -0.096  14.928  1.00  0.00     0.000 C 
BRANCH  17  18
ATOM     18  C   UNL     1       3.494   0.229  13.426  1.00  0.00     0.000 C 
BRANCH  18  19
ATOM     19  C   UNL     1       4.015   1.648  13.153  1.00  0.00     0.000 C 
BRANCH  19  20
ATOM     20  C   UNL     1       5.278   1.658  12.273  1.00  0.00     0.000 C 
BRANCH  20  21
ATOM     21  C   UNL     1       6.358   2.615  12.803  1.00  0.00     0.000 C 
BRANCH  21  22
ATOM     22  C   UNL     1       6.515   2.538  14.331  1.00  0.00    -0.000 C 
BRANCH  22  23
ATOM     23  C   UNL     1       7.953   2.822  14.794  1.00  0.00    -0.000 C 
BRANCH  23  24
ATOM     24  C   UNL     1       8.052   4.091  15.661  1.00  0.00    -0.000 C 
BRANCH  24  25
ATOM     25  C   UNL     1       8.062   3.782  17.167  1.00  0.00    -0.000 C 
BRANCH  25  26
ATOM     26  C   UNL     1       6.653   3.780  17.781  1.00  0.00    -0.000 C 
BRANCH  26  27
ATOM     27  C   UNL     1       6.681   3.757  19.319  1.00  0.00    -0.000 C 
BRANCH  27  28
ATOM     28  C   UNL     1       7.938   3.068  19.874  1.00  0.00    -0.000 C 
BRANCH  28  29
ATOM     29  C   UNL     1       8.505   3.842  21.070  1.00  0.00    -0.003 C 
ATOM     30  C   UNL     1       8.221   5.338  20.945  1.00  0.00     0.004 C 
ENDBRANCH  28  29
ENDBRANCH  27  28
ENDBRANCH  26  27
ENDBRANCH  25  26
ENDBRANCH  24  25
ENDBRANCH  23  24
ENDBRANCH  22  23
ENDBRANCH  21  22
ENDBRANCH  20  21
ENDBRANCH  19  20
ENDBRANCH  18  19
ENDBRANCH  17  18
ENDBRANCH   1  17
TORSDOF 26
ENDMDL
MODEL 8
REMARK VINA RESULT:    -4.354      1.860      5.892
REMARK INTER + INTRA:         -16.984
REMARK INTER:                 -10.850
REMARK INTRA:                  -6.134
REMARK UNBOUND:                -6.013
REMARK SMILES CCCCCCCCCCCCCCCCCCCCCCCCCCCC(=O)[O-]
REMARK SMILES IDX 15 1 16 2 17 3 18 4 19 5 20 6 21 7 22 8 23 9 24 10 25 11
REMARK SMILES IDX 26 12 27 13 28 14 29 15 30 16 14 17 13 18 12 19 11 20 10 21
REMARK SMILES IDX 9 22 8 23 7 24 6 25 5 26 4 27 3 28 2 29 1 30
REMARK H PARENT
REMARK Flexibility Score: inf
ROOT
ATOM      1  C   UNL     1      17.583   0.265  23.241  1.00  0.00     0.000 C 
ENDROOT
BRANCH   1   2
ATOM      2  C   UNL     1      19.095   0.529  23.095  1.00  0.00     0.000 C 
BRANCH   2   3
ATOM      3  C   UNL     1      19.919   0.191  24.355  1.00  0.00     0.000 C 
BRANCH   3   4
ATOM      4  C   UNL     1      21.316  -0.369  24.025  1.00  0.00     0.000 C 
BRANCH   4   5
ATOM      5  C   UNL     1      21.350  -1.115  22.682  1.00  0.00     0.000 C 
BRANCH   5   6
ATOM      6  C   UNL     1      22.375  -2.266  22.668  1.00  0.00     0.000 C 
BRANCH   6   7
ATOM      7  C   UNL     1      22.254  -3.152  21.418  1.00  0.00     0.000 C 
BRANCH   7   8
ATOM      8  C   UNL     1      21.626  -2.461  20.190  1.00  0.00     0.000 C 
BRANCH   8   9
ATOM      9  C   UNL     1      22.214  -2.928  18.841  1.00  0.00     0.000 C 
BRANCH   9  10
ATOM     10  C   UNL     1      21.424  -4.090  18.222  1.00  0.00     0.000 C 
BRANCH  10  11
ATOM     11  C   UNL     1      20.090  -3.599  17.641  1.00  0.00     0.000 C 
BRANCH  11  12
ATOM     12  C   UNL     1      18.888  -4.429  18.129  1.00  0.00     0.006 C 
BRANCH  12  13
ATOM     13  C   UNL     1      17.587  -4.168  17.350  1.00  0.00     0.053 C 
BRANCH  13  14
ATOM     14  C   UNL     1      16.384  -4.702  18.070  1.00  0.00     0.041 C 
ATOM     15  O   UNL     1      15.230  -4.290  17.772  1.00  0.00    -0.550 OA
ATOM     16  O   UNL     1      16.541  -5.644  19.081  1.00  0.00    -0.550 OA
ENDBRANCH  13  14
ENDBRANCH  12  13
ENDBRANCH  11  12
ENDBRANCH  10  11
ENDBRANCH   9  10
ENDBRANCH   8   9
ENDBRANCH   7   8
ENDBRANCH   6   7
ENDBRANCH   5   6
ENDBRANCH   4   5
ENDBRANCH   3   4
ENDBRANCH   2   3
ENDBRANCH   1   2
BRANCH   1  17
ATOM     17  C   UNL     1      17.137  -0.241  24.624  1.00  0.00     0.000 C 
BRANCH  17  18
ATOM     18  C   UNL     1      16.616  -1.688  24.584  1.00  0.00     0.000 C 
BRANCH  18  19
ATOM     19  C   UNL     1      17.164  -2.549  25.731  1.00  0.00     0.000 C 
BRANCH  19  20
ATOM     20  C   UNL     1      17.884  -3.815  25.232  1.00  0.00     0.000 C 
BRANCH  20  21
ATOM     21  C   UNL     1      18.990  -3.501  24.211  1.00  0.00     0.000 C 
BRANCH  21  22
ATOM     22  C   UNL     1      19.197  -4.641  23.197  1.00  0.00    -0.000 C 
BRANCH  22  23
ATOM     23  C   UNL     1      18.500  -4.373  21.855  1.00  0.00    -0.000 C 
BRANCH  23  24
ATOM     24  C   UNL     1      18.381  -2.869  21.544  1.00  0.00    -0.000 C 
BRANCH  24  25
ATOM     25  C   UNL     1      17.045  -2.504  20.875  1.00  0.00    -0.000 C 
BRANCH  25  26
ATOM     26  C   UNL     1      17.190  -1.377  19.840  1.00  0.00    -0.000 C 
BRANCH  26  27
ATOM     27  C   UNL     1      18.627  -0.836  19.756  1.00  0.00    -0.000 C 
BRANCH  27  28
ATOM     28  C   UNL     1      18.680   0.628  19.290  1.00  0.00    -0.000 C 
BRANCH  28  29
ATOM     29  C   UNL     1      17.278   1.249  19.274  1.00  0.00    -0.003 C 
ATOM     30  C   UNL     1      17.189   2.436  20.231  1.00  0.00     0.004 C 
ENDBRANCH  28  29
ENDBRANCH  27  28
ENDBRANCH  26  27
ENDBRANCH  25  26
ENDBRANCH  24  25
ENDBRANCH  23  24
ENDBRANCH  22  23
ENDBRANCH  21  22
ENDBRANCH  20  21
ENDBRANCH  19  20
ENDBRANCH  18  19
ENDBRANCH  17  18
ENDBRANCH   1  17
TORSDOF 26
ENDMDL
MODEL 9
REMARK VINA RESULT:    -4.245      3.412      6.659
REMARK INTER + INTRA:         -16.710
REMARK INTER:                 -12.016
REMARK INTRA:                  -4.694
REMARK UNBOUND:                -6.013
REMARK SMILES CCCCCCCCCCCCCCCCCCCCCCCCCCCC(=O)[O-]
REMARK SMILES IDX 15 1 16 2 17 3 18 4 19 5 20 6 21 7 22 8 23 9 24 10 25 11
REMARK SMILES IDX 26 12 27 13 28 14 29 15 30 16 14 17 13 18 12 19 11 20 10 21
REMARK SMILES IDX 9 22 8 23 7 24 6 25 5 26 4 27 3 28 2 29 1 30
REMARK H PARENT
REMARK Flexibility Score: inf
ROOT
ATOM      1  C   UNL     1      20.757   1.416  23.864  1.00  0.00     0.000 C 
ENDROOT
BRANCH   1   2
ATOM      2  C   UNL     1      20.875   2.371  25.069  1.00  0.00     0.000 C 
BRANCH   2   3
ATOM      3  C   UNL     1      20.922   3.865  24.687  1.00  0.00     0.000 C 
BRANCH   3   4
ATOM      4  C   UNL     1      21.151   4.090  23.181  1.00  0.00     0.000 C 
BRANCH   4   5
ATOM      5  C   UNL     1      21.262   5.579  22.816  1.00  0.00     0.000 C 
BRANCH   5   6
ATOM      6  C   UNL     1      20.801   6.506  23.957  1.00  0.00     0.000 C 
BRANCH   6   7
ATOM      7  C   UNL     1      19.638   7.423  23.543  1.00  0.00     0.000 C 
BRANCH   7   8
ATOM      8  C   UNL     1      18.248   6.971  24.033  1.00  0.00     0.000 C 
BRANCH   8   9
ATOM      9  C   UNL     1      18.254   6.352  25.447  1.00  0.00     0.000 C 
BRANCH   9  10
ATOM     10  C   UNL     1      17.705   4.917  25.468  1.00  0.00     0.000 C 
BRANCH  10  11
ATOM     11  C   UNL     1      16.572   4.750  24.444  1.00  0.00     0.000 C 
BRANCH  11  12
ATOM     12  C   UNL     1      16.701   3.454  23.623  1.00  0.00     0.006 C 
BRANCH  12  13
ATOM     13  C   UNL     1      17.673   3.558  22.435  1.00  0.00     0.053 C 
BRANCH  13  14
ATOM     14  C   UNL     1      17.816   2.252  21.709  1.00  0.00     0.041 C 
ATOM     15  O   UNL     1      18.176   2.233  20.500  1.00  0.00    -0.550 OA
ATOM     16  O   UNL     1      17.535   1.058  22.365  1.00  0.00    -0.550 OA
ENDBRANCH  13  14
ENDBRANCH  12  13
ENDBRANCH  11  12
ENDBRANCH  10  11
ENDBRANCH   9  10
ENDBRANCH   8   9
ENDBRANCH   7   8
ENDBRANCH   6   7
ENDBRANCH   5   6
ENDBRANCH   4   5
ENDBRANCH   3   4
ENDBRANCH   2   3
ENDBRANCH   1   2
BRANCH   1  17
ATOM     17  C   UNL     1      20.628  -0.075  24.219  1.00  0.00     0.000 C 
BRANCH  17  18
ATOM     18  C   UNL     1      21.993  -0.751  24.437  1.00  0.00     0.000 C 
BRANCH  18  19
ATOM     19  C   UNL     1      22.677  -1.145  23.120  1.00  0.00     0.000 C 
BRANCH  19  20
ATOM     20  C   UNL     1      21.767  -1.989  22.208  1.00  0.00     0.000 C 
BRANCH  20  21
ATOM     21  C   UNL     1      22.298  -3.417  22.004  1.00  0.00     0.000 C 
BRANCH  21  22
ATOM     22  C   UNL     1      21.348  -4.486  22.573  1.00  0.00    -0.000 C 
BRANCH  22  23
ATOM     23  C   UNL     1      21.246  -4.432  24.105  1.00  0.00    -0.000 C 
BRANCH  23  24
ATOM     24  C   UNL     1      19.797  -4.241  24.592  1.00  0.00    -0.000 C 
BRANCH  24  25
ATOM     25  C   UNL     1      18.822  -3.925  23.447  1.00  0.00    -0.000 C 
BRANCH  25  26
ATOM     26  C   UNL     1      18.056  -2.611  23.666  1.00  0.00    -0.000 C 
BRANCH  26  27
ATOM     27  C   UNL     1      17.083  -2.689  24.855  1.00  0.00    -0.000 C 
BRANCH  27  28
ATOM     28  C   UNL     1      17.375  -1.625  25.926  1.00  0.00    -0.000 C 
BRANCH  28  29
ATOM     29  C   UNL     1      16.735  -0.282  25.553  1.00  0.00    -0.003 C 
ATOM     30  C   UNL     1      17.535   0.888  26.123  1.00  0.00     0.004 C 
ENDBRANCH  28  29
ENDBRANCH  27  28
ENDBRANCH  26  27
ENDBRANCH  25  26
ENDBRANCH  24  25
ENDBRANCH  23  24
ENDBRANCH  22  23
ENDBRANCH  21  22
ENDBRANCH  20  21
ENDBRANCH  19  20
ENDBRANCH  18  19
ENDBRANCH  17  18
ENDBRANCH   1  17
TORSDOF 26
ENDMDL
