MODEL 1
REMARK VINA RESULT:    -7.955      0.000      0.000
REMARK INTER + INTRA:          -9.568
REMARK INTER:                  -9.582
REMARK INTRA:                   0.014
REMARK UNBOUND:                 0.014
REMARK SMILES O=c1c(O)c(-c2ccc(O)c(O)c2)oc2cc(O)cc(O)c12
REMARK SMILES IDX 5 1 3 2 2 3 1 4 22 5 20 6 19 7 17 8 16 9 15 10 14 11 6 12
REMARK SMILES IDX 7 13 8 14 9 15 13 16 11 17 10 18 12 20 4 22 21 24 18 26
REMARK H PARENT 10 19 12 21 4 23 21 25 18 27
REMARK Flexibility Score: inf
ROOT
ATOM      1  C   UNL     1      23.174  24.430  34.521  1.00  0.00     0.180 A 
ATOM      2  C   UNL     1      24.365  23.912  33.987  1.00  0.00     0.208 A 
ATOM      3  C   UNL     1      24.770  22.618  34.355  1.00  0.00     0.238 A 
ATOM      4  O   UNL     1      25.866  22.180  33.917  1.00  0.00    -0.285 OA
ATOM      5  C   UNL     1      23.971  21.854  35.238  1.00  0.00     0.111 A 
ATOM      6  C   UNL     1      24.264  20.517  35.646  1.00  0.00     0.134 A 
ATOM      7  C   UNL     1      23.471  19.905  36.626  1.00  0.00     0.093 A 
ATOM      8  C   UNL     1      22.358  20.557  37.162  1.00  0.00     0.123 A 
ATOM      9  C   UNL     1      22.029  21.838  36.727  1.00  0.00     0.094 A 
ATOM     10  C   UNL     1      22.822  22.489  35.778  1.00  0.00     0.146 A 
ATOM     11  O   UNL     1      22.479  23.714  35.398  1.00  0.00    -0.452 OA
ENDROOT
BRANCH   1  12
ATOM     12  C   UNL     1      22.668  25.775  34.161  1.00  0.00     0.025 A 
ATOM     13  C   UNL     1      21.341  25.969  33.739  1.00  0.00     0.016 A 
ATOM     14  C   UNL     1      20.879  27.251  33.429  1.00  0.00     0.051 A 
ATOM     15  C   UNL     1      21.730  28.357  33.547  1.00  0.00     0.157 A 
ATOM     16  C   UNL     1      23.510  26.890  34.300  1.00  0.00     0.062 A 
ATOM     17  C   UNL     1      23.052  28.175  33.989  1.00  0.00     0.158 A 
BRANCH  15  18
ATOM     18  O   UNL     1      21.267  29.634  33.235  1.00  0.00    -0.504 OA
ATOM     19  H   UNL     1      21.395  30.034  32.311  1.00  0.00     0.293 HD
ENDBRANCH  15  18
BRANCH  17  20
ATOM     20  O   UNL     1      23.922  29.256  34.124  1.00  0.00    -0.504 OA
ATOM     21  H   UNL     1      23.909  29.858  34.940  1.00  0.00     0.293 HD
ENDBRANCH  17  20
ENDBRANCH   1  12
BRANCH   2  22
ATOM     22  O   UNL     1      25.152  24.691  33.134  1.00  0.00    -0.502 OA
ATOM     23  H   UNL     1      25.965  25.201  33.458  1.00  0.00     0.293 HD
ENDBRANCH   2  22
BRANCH   6  24
ATOM     24  O   UNL     1      25.296  19.745  35.106  1.00  0.00    -0.507 OA
ATOM     25  H   UNL     1      25.968  19.223  35.649  1.00  0.00     0.293 HD
ENDBRANCH   6  24
BRANCH   8  26
ATOM     26  O   UNL     1      21.566  19.935  38.125  1.00  0.00    -0.508 OA
ATOM     27  H   UNL     1      21.287  18.965  38.035  1.00  0.00     0.293 HD
ENDBRANCH   8  26
TORSDOF 6
ENDMDL
MODEL 2
REMARK VINA RESULT:    -7.672      0.624      1.469
REMARK INTER + INTRA:          -9.228
REMARK INTER:                  -9.292
REMARK INTRA:                   0.065
REMARK UNBOUND:                 0.014
REMARK SMILES O=c1c(O)c(-c2ccc(O)c(O)c2)oc2cc(O)cc(O)c12
REMARK SMILES IDX 5 1 3 2 2 3 1 4 22 5 20 6 19 7 17 8 16 9 15 10 14 11 6 12
REMARK SMILES IDX 7 13 8 14 9 15 13 16 11 17 10 18 12 20 4 22 21 24 18 26
REMARK H PARENT 10 19 12 21 4 23 21 25 18 27
REMARK Flexibility Score: inf
ROOT
ATOM      1  C   UNL     1      23.228  24.434  34.639  1.00  0.00     0.180 A 
ATOM      2  C   UNL     1      24.424  23.934  34.098  1.00  0.00     0.208 A 
ATOM      3  C   UNL     1      24.834  22.634  34.435  1.00  0.00     0.238 A 
ATOM      4  O   UNL     1      25.934  22.212  33.992  1.00  0.00    -0.285 OA
ATOM      5  C   UNL     1      24.035  21.844  35.295  1.00  0.00     0.111 A 
ATOM      6  C   UNL     1      24.332  20.500  35.672  1.00  0.00     0.134 A 
ATOM      7  C   UNL     1      23.538  19.860  36.633  1.00  0.00     0.093 A 
ATOM      8  C   UNL     1      22.420  20.493  37.180  1.00  0.00     0.123 A 
ATOM      9  C   UNL     1      22.086  21.782  36.775  1.00  0.00     0.094 A 
ATOM     10  C   UNL     1      22.880  22.460  35.846  1.00  0.00     0.146 A 
ATOM     11  O   UNL     1      22.533  23.693  35.495  1.00  0.00    -0.452 OA
ENDROOT
BRANCH   1  12
ATOM     12  C   UNL     1      22.718  25.785  34.310  1.00  0.00     0.025 A 
ATOM     13  C   UNL     1      23.561  26.910  34.331  1.00  0.00     0.016 A 
ATOM     14  C   UNL     1      23.064  28.171  33.994  1.00  0.00     0.051 A 
ATOM     15  C   UNL     1      21.723  28.326  33.620  1.00  0.00     0.157 A 
ATOM     16  C   UNL     1      21.381  25.942  33.913  1.00  0.00     0.062 A 
ATOM     17  C   UNL     1      20.878  27.203  33.576  1.00  0.00     0.158 A 
BRANCH  15  18
ATOM     18  O   UNL     1      21.229  29.586  33.286  1.00  0.00    -0.504 OA
ATOM     19  H   UNL     1      21.744  30.432  33.503  1.00  0.00     0.293 HD
ENDBRANCH  15  18
BRANCH  17  20
ATOM     20  O   UNL     1      19.540  27.323  33.201  1.00  0.00    -0.504 OA
ATOM     21  H   UNL     1      18.845  26.632  33.460  1.00  0.00     0.293 HD
ENDBRANCH  17  20
ENDBRANCH   1  12
BRANCH   2  22
ATOM     22  O   UNL     1      25.211  24.738  33.268  1.00  0.00    -0.502 OA
ATOM     23  H   UNL     1      25.126  24.726  32.259  1.00  0.00     0.293 HD
ENDBRANCH   2  22
BRANCH   6  24
ATOM     24  O   UNL     1      25.371  19.746  35.118  1.00  0.00    -0.507 OA
ATOM     25  H   UNL     1      26.280  20.110  34.878  1.00  0.00     0.293 HD
ENDBRANCH   6  24
BRANCH   8  26
ATOM     26  O   UNL     1      21.626  19.843  38.124  1.00  0.00    -0.508 OA
ATOM     27  H   UNL     1      21.115  18.999  37.895  1.00  0.00     0.293 HD
ENDBRANCH   8  26
TORSDOF 6
ENDMDL
MODEL 3
REMARK VINA RESULT:    -7.553      1.240      2.900
REMARK INTER + INTRA:          -9.084
REMARK INTER:                  -8.999
REMARK INTRA:                  -0.085
REMARK UNBOUND:                 0.014
REMARK SMILES O=c1c(O)c(-c2ccc(O)c(O)c2)oc2cc(O)cc(O)c12
REMARK SMILES IDX 5 1 3 2 2 3 1 4 22 5 20 6 19 7 17 8 16 9 15 10 14 11 6 12
REMARK SMILES IDX 7 13 8 14 9 15 13 16 11 17 10 18 12 20 4 22 21 24 18 26
REMARK H PARENT 10 19 12 21 4 23 21 25 18 27
REMARK Flexibility Score: inf
ROOT
ATOM      1  C   UNL     1      22.939  24.482  34.758  1.00  0.00     0.180 A 
ATOM      2  C   UNL     1      22.410  23.833  35.886  1.00  0.00     0.208 A 
ATOM      3  C   UNL     1      22.891  22.559  36.227  1.00  0.00     0.238 A 
ATOM      4  O   UNL     1      22.373  21.960  37.206  1.00  0.00    -0.285 OA
ATOM      5  C   UNL     1      23.905  21.956  35.446  1.00  0.00     0.111 A 
ATOM      6  C   UNL     1      24.494  20.685  35.723  1.00  0.00     0.134 A 
ATOM      7  C   UNL     1      25.397  20.129  34.807  1.00  0.00     0.093 A 
ATOM      8  C   UNL     1      25.781  20.827  33.660  1.00  0.00     0.123 A 
ATOM      9  C   UNL     1      25.257  22.093  33.411  1.00  0.00     0.094 A 
ATOM     10  C   UNL     1      24.326  22.658  34.286  1.00  0.00     0.146 A 
ATOM     11  O   UNL     1      23.843  23.863  34.007  1.00  0.00    -0.452 OA
ENDROOT
BRANCH   1  12
ATOM     12  C   UNL     1      22.501  25.837  34.349  1.00  0.00     0.025 A 
ATOM     13  C   UNL     1      21.154  26.114  34.060  1.00  0.00     0.016 A 
ATOM     14  C   UNL     1      20.760  27.405  33.699  1.00  0.00     0.051 A 
ATOM     15  C   UNL     1      21.701  28.440  33.636  1.00  0.00     0.157 A 
ATOM     16  C   UNL     1      23.437  26.882  34.306  1.00  0.00     0.062 A 
ATOM     17  C   UNL     1      23.047  28.177  33.945  1.00  0.00     0.158 A 
BRANCH  15  18
ATOM     18  O   UNL     1      21.306  29.726  33.275  1.00  0.00    -0.504 OA
ATOM     19  H   UNL     1      20.358  30.053  33.429  1.00  0.00     0.293 HD
ENDBRANCH  15  18
BRANCH  17  20
ATOM     20  O   UNL     1      24.008  29.186  33.899  1.00  0.00    -0.504 OA
ATOM     21  H   UNL     1      23.769  30.147  33.680  1.00  0.00     0.293 HD
ENDBRANCH  17  20
ENDBRANCH   1  12
BRANCH   2  22
ATOM     22  O   UNL     1      21.393  24.437  36.631  1.00  0.00    -0.502 OA
ATOM     23  H   UNL     1      20.422  24.414  36.345  1.00  0.00     0.293 HD
ENDBRANCH   2  22
BRANCH   6  24
ATOM     24  O   UNL     1      24.249  19.948  36.885  1.00  0.00    -0.507 OA
ATOM     25  H   UNL     1      23.773  19.059  36.911  1.00  0.00     0.293 HD
ENDBRANCH   6  24
BRANCH   8  26
ATOM     26  O   UNL     1      26.692  20.272  32.762  1.00  0.00    -0.508 OA
ATOM     27  H   UNL     1      26.540  19.360  32.350  1.00  0.00     0.293 HD
ENDBRANCH   8  26
TORSDOF 6
ENDMDL
MODEL 4
REMARK VINA RESULT:    -7.384      1.522      6.829
REMARK INTER + INTRA:          -8.880
REMARK INTER:                  -8.646
REMARK INTRA:                  -0.234
REMARK UNBOUND:                 0.014
REMARK SMILES O=c1c(O)c(-c2ccc(O)c(O)c2)oc2cc(O)cc(O)c12
REMARK SMILES IDX 5 1 3 2 2 3 1 4 22 5 20 6 19 7 17 8 16 9 15 10 14 11 6 12
REMARK SMILES IDX 7 13 8 14 9 15 13 16 11 17 10 18 12 20 4 22 21 24 18 26
REMARK H PARENT 10 19 12 21 4 23 21 25 18 27
REMARK Flexibility Score: inf
ROOT
ATOM      1  C   UNL     1      23.150  25.124  34.580  1.00  0.00     0.180 A 
ATOM      2  C   UNL     1      24.026  26.202  34.367  1.00  0.00     0.208 A 
ATOM      3  C   UNL     1      23.491  27.482  34.147  1.00  0.00     0.238 A 
ATOM      4  O   UNL     1      24.279  28.432  33.902  1.00  0.00    -0.285 OA
ATOM      5  C   UNL     1      22.089  27.671  34.158  1.00  0.00     0.111 A 
ATOM      6  C   UNL     1      21.439  28.930  33.986  1.00  0.00     0.134 A 
ATOM      7  C   UNL     1      20.043  28.979  33.884  1.00  0.00     0.093 A 
ATOM      8  C   UNL     1      19.271  27.822  34.015  1.00  0.00     0.123 A 
ATOM      9  C   UNL     1      19.892  26.597  34.243  1.00  0.00     0.094 A 
ATOM     10  C   UNL     1      21.284  26.511  34.312  1.00  0.00     0.146 A 
ATOM     11  O   UNL     1      21.838  25.321  34.520  1.00  0.00    -0.452 OA
ENDROOT
BRANCH   1  12
ATOM     12  C   UNL     1      23.638  23.751  34.844  1.00  0.00     0.025 A 
ATOM     13  C   UNL     1      24.225  22.976  33.829  1.00  0.00     0.016 A 
ATOM     14  C   UNL     1      24.701  21.692  34.106  1.00  0.00     0.051 A 
ATOM     15  C   UNL     1      24.609  21.169  35.402  1.00  0.00     0.157 A 
ATOM     16  C   UNL     1      23.569  23.231  36.146  1.00  0.00     0.062 A 
ATOM     17  C   UNL     1      24.043  21.945  36.428  1.00  0.00     0.158 A 
BRANCH  15  18
ATOM     18  O   UNL     1      25.082  19.886  35.676  1.00  0.00    -0.504 OA
ATOM     19  H   UNL     1      25.523  19.319  34.960  1.00  0.00     0.293 HD
ENDBRANCH  15  18
BRANCH  17  20
ATOM     20  O   UNL     1      23.944  21.456  37.730  1.00  0.00    -0.504 OA
ATOM     21  H   UNL     1      24.691  21.567  38.405  1.00  0.00     0.293 HD
ENDBRANCH  17  20
ENDBRANCH   1  12
BRANCH   2  22
ATOM     22  O   UNL     1      25.407  25.990  34.338  1.00  0.00    -0.502 OA
ATOM     23  H   UNL     1      25.928  25.682  35.150  1.00  0.00     0.293 HD
ENDBRANCH   2  22
BRANCH   6  24
ATOM     24  O   UNL     1      22.112  30.154  33.936  1.00  0.00    -0.507 OA
ATOM     25  H   UNL     1      21.730  31.033  34.252  1.00  0.00     0.293 HD
ENDBRANCH   6  24
BRANCH   8  26
ATOM     26  O   UNL     1      17.881  27.881  33.929  1.00  0.00    -0.508 OA
ATOM     27  H   UNL     1      17.383  27.494  33.136  1.00  0.00     0.293 HD
ENDBRANCH   8  26
TORSDOF 6
ENDMDL
MODEL 5
REMARK VINA RESULT:    -7.268      1.375      3.318
REMARK INTER + INTRA:          -8.741
REMARK INTER:                  -8.656
REMARK INTRA:                  -0.085
REMARK UNBOUND:                 0.014
REMARK SMILES O=c1c(O)c(-c2ccc(O)c(O)c2)oc2cc(O)cc(O)c12
REMARK SMILES IDX 5 1 3 2 2 3 1 4 22 5 20 6 19 7 17 8 16 9 15 10 14 11 6 12
REMARK SMILES IDX 7 13 8 14 9 15 13 16 11 17 10 18 12 20 4 22 21 24 18 26
REMARK H PARENT 10 19 12 21 4 23 21 25 18 27
REMARK Flexibility Score: inf
ROOT
ATOM      1  C   UNL     1      23.225  24.428  34.764  1.00  0.00     0.180 A 
ATOM      2  C   UNL     1      22.696  23.699  35.842  1.00  0.00     0.208 A 
ATOM      3  C   UNL     1      23.222  22.428  36.129  1.00  0.00     0.238 A 
ATOM      4  O   UNL     1      22.707  21.757  37.061  1.00  0.00    -0.285 OA
ATOM      5  C   UNL     1      24.279  21.910  35.344  1.00  0.00     0.111 A 
ATOM      6  C   UNL     1      24.914  20.651  35.569  1.00  0.00     0.134 A 
ATOM      7  C   UNL     1      25.862  20.181  34.650  1.00  0.00     0.093 A 
ATOM      8  C   UNL     1      26.243  20.955  33.551  1.00  0.00     0.123 A 
ATOM      9  C   UNL     1      25.673  22.210  33.356  1.00  0.00     0.094 A 
ATOM     10  C   UNL     1      24.699  22.689  34.234  1.00  0.00     0.146 A 
ATOM     11  O   UNL     1      24.172  23.887  34.005  1.00  0.00    -0.452 OA
ENDROOT
BRANCH   1  12
ATOM     12  C   UNL     1      22.741  25.783  34.415  1.00  0.00     0.025 A 
ATOM     13  C   UNL     1      23.615  26.884  34.375  1.00  0.00     0.016 A 
ATOM     14  C   UNL     1      23.141  28.150  34.021  1.00  0.00     0.051 A 
ATOM     15  C   UNL     1      21.792  28.332  33.688  1.00  0.00     0.157 A 
ATOM     16  C   UNL     1      21.396  25.967  34.059  1.00  0.00     0.062 A 
ATOM     17  C   UNL     1      20.916  27.233  33.704  1.00  0.00     0.158 A 
BRANCH  15  18
ATOM     18  O   UNL     1      21.322  29.596  33.336  1.00  0.00    -0.504 OA
ATOM     19  H   UNL     1      21.261  29.888  32.366  1.00  0.00     0.293 HD
ENDBRANCH  15  18
BRANCH  17  20
ATOM     20  O   UNL     1      19.570  27.380  33.371  1.00  0.00    -0.504 OA
ATOM     21  H   UNL     1      18.836  27.339  34.068  1.00  0.00     0.293 HD
ENDBRANCH  17  20
ENDBRANCH   1  12
BRANCH   2  22
ATOM     22  O   UNL     1      21.637  24.220  36.591  1.00  0.00    -0.502 OA
ATOM     23  H   UNL     1      21.426  23.901  37.529  1.00  0.00     0.293 HD
ENDBRANCH   2  22
BRANCH   6  24
ATOM     24  O   UNL     1      24.672  19.844  36.684  1.00  0.00    -0.507 OA
ATOM     25  H   UNL     1      25.380  19.324  37.181  1.00  0.00     0.293 HD
ENDBRANCH   6  24
BRANCH   8  26
ATOM     26  O   UNL     1      27.198  20.487  32.650  1.00  0.00    -0.508 OA
ATOM     27  H   UNL     1      27.323  19.496  32.478  1.00  0.00     0.293 HD
ENDBRANCH   8  26
TORSDOF 6
ENDMDL
MODEL 6
REMARK VINA RESULT:    -7.218      1.747      3.692
REMARK INTER + INTRA:          -8.680
REMARK INTER:                  -8.528
REMARK INTRA:                  -0.152
REMARK UNBOUND:                 0.014
REMARK SMILES O=c1c(O)c(-c2ccc(O)c(O)c2)oc2cc(O)cc(O)c12
REMARK SMILES IDX 5 1 3 2 2 3 1 4 22 5 20 6 19 7 17 8 16 9 15 10 14 11 6 12
REMARK SMILES IDX 7 13 8 14 9 15 13 16 11 17 10 18 12 20 4 22 21 24 18 26
REMARK H PARENT 10 19 12 21 4 23 21 25 18 27
REMARK Flexibility Score: inf
ROOT
ATOM      1  C   UNL     1      23.667  24.017  34.304  1.00  0.00     0.180 A 
ATOM      2  C   UNL     1      23.173  23.046  35.190  1.00  0.00     0.208 A 
ATOM      3  C   UNL     1      23.886  21.847  35.353  1.00  0.00     0.238 A 
ATOM      4  O   UNL     1      23.410  20.958  36.106  1.00  0.00    -0.285 OA
ATOM      5  C   UNL     1      25.091  21.641  34.639  1.00  0.00     0.111 A 
ATOM      6  C   UNL     1      25.915  20.481  34.757  1.00  0.00     0.134 A 
ATOM      7  C   UNL     1      27.016  20.327  33.904  1.00  0.00     0.093 A 
ATOM      8  C   UNL     1      27.360  21.321  32.986  1.00  0.00     0.123 A 
ATOM      9  C   UNL     1      26.597  22.483  32.905  1.00  0.00     0.094 A 
ATOM     10  C   UNL     1      25.472  22.649  33.715  1.00  0.00     0.146 A 
ATOM     11  O   UNL     1      24.765  23.768  33.599  1.00  0.00    -0.452 OA
ENDROOT
BRANCH   1  12
ATOM     12  C   UNL     1      22.986  25.316  34.098  1.00  0.00     0.025 A 
ATOM     13  C   UNL     1      23.610  26.531  34.435  1.00  0.00     0.016 A 
ATOM     14  C   UNL     1      22.958  27.746  34.210  1.00  0.00     0.051 A 
ATOM     15  C   UNL     1      21.681  27.767  33.634  1.00  0.00     0.157 A 
ATOM     16  C   UNL     1      21.716  25.345  33.501  1.00  0.00     0.062 A 
ATOM     17  C   UNL     1      21.059  26.559  33.274  1.00  0.00     0.158 A 
BRANCH  15  18
ATOM     18  O   UNL     1      21.033  28.981  33.412  1.00  0.00    -0.504 OA
ATOM     19  H   UNL     1      20.480  29.142  32.577  1.00  0.00     0.293 HD
ENDBRANCH  15  18
BRANCH  17  20
ATOM     20  O   UNL     1      19.792  26.547  32.693  1.00  0.00    -0.504 OA
ATOM     21  H   UNL     1      19.587  26.005  31.861  1.00  0.00     0.293 HD
ENDBRANCH  17  20
ENDBRANCH   1  12
BRANCH   2  22
ATOM     22  O   UNL     1      21.971  23.260  35.869  1.00  0.00    -0.502 OA
ATOM     23  H   UNL     1      21.221  23.822  35.484  1.00  0.00     0.293 HD
ENDBRANCH   2  22
BRANCH   6  24
ATOM     24  O   UNL     1      25.712  19.473  35.703  1.00  0.00    -0.507 OA
ATOM     25  H   UNL     1      24.854  19.329  36.215  1.00  0.00     0.293 HD
ENDBRANCH   6  24
BRANCH   8  26
ATOM     26  O   UNL     1      28.466  21.167  32.153  1.00  0.00    -0.508 OA
ATOM     27  H   UNL     1      28.918  21.964  31.719  1.00  0.00     0.293 HD
ENDBRANCH   8  26
TORSDOF 6
ENDMDL
MODEL 7
REMARK VINA RESULT:    -7.075      3.945      7.034
REMARK INTER + INTRA:          -8.508
REMARK INTER:                  -9.033
REMARK INTRA:                   0.524
REMARK UNBOUND:                 0.014
REMARK SMILES O=c1c(O)c(-c2ccc(O)c(O)c2)oc2cc(O)cc(O)c12
REMARK SMILES IDX 5 1 3 2 2 3 1 4 22 5 20 6 19 7 17 8 16 9 15 10 14 11 6 12
REMARK SMILES IDX 7 13 8 14 9 15 13 16 11 17 10 18 12 20 4 22 21 24 18 26
REMARK H PARENT 10 19 12 21 4 23 21 25 18 27
REMARK Flexibility Score: inf
ROOT
ATOM      1  C   UNL     1      25.980  21.389  34.374  1.00  0.00     0.180 A 
ATOM      2  C   UNL     1      27.001  20.425  34.416  1.00  0.00     0.208 A 
ATOM      3  C   UNL     1      28.176  20.645  33.678  1.00  0.00     0.238 A 
ATOM      4  O   UNL     1      29.064  19.753  33.677  1.00  0.00    -0.285 OA
ATOM      5  C   UNL     1      28.321  21.831  32.920  1.00  0.00     0.111 A 
ATOM      6  C   UNL     1      29.484  22.175  32.167  1.00  0.00     0.134 A 
ATOM      7  C   UNL     1      29.465  23.312  31.349  1.00  0.00     0.093 A 
ATOM      8  C   UNL     1      28.350  24.153  31.310  1.00  0.00     0.123 A 
ATOM      9  C   UNL     1      27.233  23.858  32.087  1.00  0.00     0.094 A 
ATOM     10  C   UNL     1      27.207  22.711  32.884  1.00  0.00     0.146 A 
ATOM     11  O   UNL     1      26.117  22.461  33.601  1.00  0.00    -0.452 OA
ENDROOT
BRANCH   1  12
ATOM     12  C   UNL     1      24.723  21.241  35.144  1.00  0.00     0.025 A 
ATOM     13  C   UNL     1      23.621  22.084  34.915  1.00  0.00     0.016 A 
ATOM     14  C   UNL     1      22.438  21.911  35.636  1.00  0.00     0.051 A 
ATOM     15  C   UNL     1      22.332  20.886  36.586  1.00  0.00     0.157 A 
ATOM     16  C   UNL     1      24.604  20.202  36.080  1.00  0.00     0.062 A 
ATOM     17  C   UNL     1      23.421  20.025  36.806  1.00  0.00     0.158 A 
BRANCH  15  18
ATOM     18  O   UNL     1      21.150  20.717  37.306  1.00  0.00    -0.504 OA
ATOM     19  H   UNL     1      20.528  19.936  37.128  1.00  0.00     0.293 HD
ENDBRANCH  15  18
BRANCH  17  20
ATOM     20  O   UNL     1      23.345  18.991  37.738  1.00  0.00    -0.504 OA
ATOM     21  H   UNL     1      23.068  18.052  37.479  1.00  0.00     0.293 HD
ENDBRANCH  17  20
ENDBRANCH   1  12
BRANCH   2  22
ATOM     22  O   UNL     1      26.829  19.251  35.153  1.00  0.00    -0.502 OA
ATOM     23  H   UNL     1      27.293  18.383  34.911  1.00  0.00     0.293 HD
ENDBRANCH   2  22
BRANCH   6  24
ATOM     24  O   UNL     1      30.681  21.454  32.208  1.00  0.00    -0.507 OA
ATOM     25  H   UNL     1      31.379  21.460  31.480  1.00  0.00     0.293 HD
ENDBRANCH   6  24
BRANCH   8  26
ATOM     26  O   UNL     1      28.346  25.291  30.506  1.00  0.00    -0.508 OA
ATOM     27  H   UNL     1      28.205  25.231  29.504  1.00  0.00     0.293 HD
ENDBRANCH   8  26
TORSDOF 6
ENDMDL
MODEL 8
REMARK VINA RESULT:    -7.047      2.470      4.503
REMARK INTER + INTRA:          -8.475
REMARK INTER:                  -8.231
REMARK INTRA:                  -0.244
REMARK UNBOUND:                 0.014
REMARK SMILES O=c1c(O)c(-c2ccc(O)c(O)c2)oc2cc(O)cc(O)c12
REMARK SMILES IDX 5 1 3 2 2 3 1 4 22 5 20 6 19 7 17 8 16 9 15 10 14 11 6 12
REMARK SMILES IDX 7 13 8 14 9 15 13 16 11 17 10 18 12 20 4 22 21 24 18 26
REMARK H PARENT 10 19 12 21 4 23 21 25 18 27
REMARK Flexibility Score: inf
ROOT
ATOM      1  C   UNL     1      24.269  23.777  33.700  1.00  0.00     0.180 A 
ATOM      2  C   UNL     1      24.099  22.556  34.374  1.00  0.00     0.208 A 
ATOM      3  C   UNL     1      25.134  21.607  34.335  1.00  0.00     0.238 A 
ATOM      4  O   UNL     1      24.954  20.494  34.894  1.00  0.00    -0.285 OA
ATOM      5  C   UNL     1      26.329  21.897  33.636  1.00  0.00     0.111 A 
ATOM      6  C   UNL     1      27.458  21.025  33.564  1.00  0.00     0.134 A 
ATOM      7  C   UNL     1      28.537  21.360  32.735  1.00  0.00     0.093 A 
ATOM      8  C   UNL     1      28.556  22.565  32.029  1.00  0.00     0.123 A 
ATOM      9  C   UNL     1      27.486  23.449  32.139  1.00  0.00     0.094 A 
ATOM     10  C   UNL     1      26.380  23.127  32.928  1.00  0.00     0.146 A 
ATOM     11  O   UNL     1      25.375  23.994  32.998  1.00  0.00    -0.452 OA
ENDROOT
BRANCH   1  12
ATOM     12  C   UNL     1      23.234  24.837  33.716  1.00  0.00     0.025 A 
ATOM     13  C   UNL     1      23.417  26.026  34.444  1.00  0.00     0.016 A 
ATOM     14  C   UNL     1      22.438  27.023  34.426  1.00  0.00     0.051 A 
ATOM     15  C   UNL     1      21.271  26.854  33.671  1.00  0.00     0.157 A 
ATOM     16  C   UNL     1      22.073  24.682  32.944  1.00  0.00     0.062 A 
ATOM     17  C   UNL     1      21.089  25.678  32.923  1.00  0.00     0.158 A 
BRANCH  15  18
ATOM     18  O   UNL     1      20.295  27.849  33.656  1.00  0.00    -0.504 OA
ATOM     19  H   UNL     1      20.444  28.731  33.177  1.00  0.00     0.293 HD
ENDBRANCH  15  18
BRANCH  17  20
ATOM     20  O   UNL     1      19.942  25.482  32.156  1.00  0.00    -0.504 OA
ATOM     21  H   UNL     1      19.032  25.330  32.577  1.00  0.00     0.293 HD
ENDBRANCH  17  20
ENDBRANCH   1  12
BRANCH   2  22
ATOM     22  O   UNL     1      22.902  22.281  35.040  1.00  0.00    -0.502 OA
ATOM     23  H   UNL     1      22.866  21.736  35.893  1.00  0.00     0.293 HD
ENDBRANCH   2  22
BRANCH   6  24
ATOM     24  O   UNL     1      27.579  19.843  34.300  1.00  0.00    -0.507 OA
ATOM     25  H   UNL     1      26.814  19.368  34.753  1.00  0.00     0.293 HD
ENDBRANCH   6  24
BRANCH   8  26
ATOM     26  O   UNL     1      29.640  22.897  31.219  1.00  0.00    -0.508 OA
ATOM     27  H   UNL     1      29.523  23.099  30.233  1.00  0.00     0.293 HD
ENDBRANCH   8  26
TORSDOF 6
ENDMDL
MODEL 9
REMARK VINA RESULT:    -6.929      2.843      4.866
REMARK INTER + INTRA:          -8.332
REMARK INTER:                  -8.031
REMARK INTRA:                  -0.302
REMARK UNBOUND:                 0.014
REMARK SMILES O=c1c(O)c(-c2ccc(O)c(O)c2)oc2cc(O)cc(O)c12
REMARK SMILES IDX 5 1 3 2 2 3 1 4 22 5 20 6 19 7 17 8 16 9 15 10 14 11 6 12
REMARK SMILES IDX 7 13 8 14 9 15 13 16 11 17 10 18 12 20 4 22 21 24 18 26
REMARK H PARENT 10 19 12 21 4 23 21 25 18 27
REMARK Flexibility Score: inf
ROOT
ATOM      1  C   UNL     1      25.727  23.396  34.187  1.00  0.00     0.180 A 
ATOM      2  C   UNL     1      24.542  24.147  34.255  1.00  0.00     0.208 A 
ATOM      3  C   UNL     1      23.441  23.621  34.951  1.00  0.00     0.238 A 
ATOM      4  O   UNL     1      22.364  24.274  34.961  1.00  0.00    -0.285 OA
ATOM      5  C   UNL     1      23.544  22.359  35.582  1.00  0.00     0.111 A 
ATOM      6  C   UNL     1      22.505  21.748  36.347  1.00  0.00     0.134 A 
ATOM      7  C   UNL     1      22.672  20.438  36.817  1.00  0.00     0.093 A 
ATOM      8  C   UNL     1      23.866  19.745  36.606  1.00  0.00     0.123 A 
ATOM      9  C   UNL     1      24.908  20.355  35.912  1.00  0.00     0.094 A 
ATOM     10  C   UNL     1      24.757  21.645  35.399  1.00  0.00     0.146 A 
ATOM     11  O   UNL     1      25.772  22.186  34.734  1.00  0.00    -0.452 OA
ENDROOT
BRANCH   1  12
ATOM     12  C   UNL     1      26.937  23.894  33.494  1.00  0.00     0.025 A 
ATOM     13  C   UNL     1      27.231  23.516  32.172  1.00  0.00     0.016 A 
ATOM     14  C   UNL     1      28.366  24.017  31.530  1.00  0.00     0.051 A 
ATOM     15  C   UNL     1      29.216  24.911  32.192  1.00  0.00     0.157 A 
ATOM     16  C   UNL     1      27.781  24.807  34.146  1.00  0.00     0.062 A 
ATOM     17  C   UNL     1      28.919  25.311  33.506  1.00  0.00     0.158 A 
BRANCH  15  18
ATOM     18  O   UNL     1      30.349  25.408  31.549  1.00  0.00    -0.504 OA
ATOM     19  H   UNL     1      31.073  25.904  32.058  1.00  0.00     0.293 HD
ENDBRANCH  15  18
BRANCH  17  20
ATOM     20  O   UNL     1      29.742  26.205  34.191  1.00  0.00    -0.504 OA
ATOM     21  H   UNL     1      30.671  26.440  33.863  1.00  0.00     0.293 HD
ENDBRANCH  17  20
ENDBRANCH   1  12
BRANCH   2  22
ATOM     22  O   UNL     1      24.453  25.381  33.606  1.00  0.00    -0.502 OA
ATOM     23  H   UNL     1      23.811  25.549  32.840  1.00  0.00     0.293 HD
ENDBRANCH   2  22
BRANCH   6  24
ATOM     24  O   UNL     1      21.311  22.387  36.693  1.00  0.00    -0.507 OA
ATOM     25  H   UNL     1      20.550  21.953  37.193  1.00  0.00     0.293 HD
ENDBRANCH   6  24
BRANCH   8  26
ATOM     26  O   UNL     1      24.030  18.449  37.091  1.00  0.00    -0.508 OA
ATOM     27  H   UNL     1      24.036  17.648  36.470  1.00  0.00     0.293 HD
ENDBRANCH   8  26
TORSDOF 6
ENDMDL
