MODEL 1
REMARK VINA RESULT:     7.147      0.000      0.000
REMARK INTER + INTRA:          17.441
REMARK INTER:                  18.010
REMARK INTRA:                  -0.569
REMARK UNBOUND:                -0.569
REMARK SMILES CCCCCCCCCCCCCCCCCCCCCCCCCCCC(=O)[O-]
REMARK SMILES IDX 15 1 16 2 17 3 18 4 19 5 20 6 21 7 22 8 23 9 24 10 25 11
REMARK SMILES IDX 26 12 27 13 28 14 29 15 30 16 14 17 13 18 12 19 11 20 10 21
REMARK SMILES IDX 9 22 8 23 7 24 6 25 5 26 4 27 3 28 2 29 1 30
REMARK H PARENT
REMARK Flexibility Score: inf
ROOT
ATOM      1  C   UNL     1     -28.667 -23.064 -20.667  1.00  0.00     0.000 C 
ENDROOT
BRANCH   1   2
ATOM      2  C   UNL     1     -27.137 -23.102 -20.840  1.00  0.00     0.000 C 
BRANCH   2   3
ATOM      3  C   UNL     1     -26.637 -22.938 -22.286  1.00  0.00     0.000 C 
BRANCH   3   4
ATOM      4  C   UNL     1     -27.755 -23.087 -23.329  1.00  0.00     0.000 C 
BRANCH   4   5
ATOM      5  C   UNL     1     -28.281 -21.712 -23.768  1.00  0.00     0.000 C 
BRANCH   5   6
ATOM      6  C   UNL     1     -29.761 -21.497 -23.412  1.00  0.00     0.000 C 
BRANCH   6   7
ATOM      7  C   UNL     1     -30.698 -21.740 -24.609  1.00  0.00     0.000 C 
BRANCH   7   8
ATOM      8  C   UNL     1     -30.321 -20.906 -25.846  1.00  0.00     0.000 C 
BRANCH   8   9
ATOM      9  C   UNL     1     -31.028 -19.543 -25.967  1.00  0.00     0.000 C 
BRANCH   9  10
ATOM     10  C   UNL     1     -31.363 -18.918 -24.602  1.00  0.00     0.000 C 
BRANCH  10  11
ATOM     11  C   UNL     1     -32.821 -19.163 -24.171  1.00  0.00     0.000 C 
BRANCH  11  12
ATOM     12  C   UNL     1     -33.039 -19.343 -22.654  1.00  0.00     0.006 C 
BRANCH  12  13
ATOM     13  C   UNL     1     -33.069 -20.805 -22.182  1.00  0.00     0.053 C 
BRANCH  13  14
ATOM     14  C   UNL     1     -31.923 -21.124 -21.272  1.00  0.00     0.041 C 
ATOM     15  O   UNL     1     -31.101 -20.226 -20.948  1.00  0.00    -0.550 OA
ATOM     16  O   UNL     1     -31.781 -22.405 -20.754  1.00  0.00    -0.550 OA
ENDBRANCH  13  14
ENDBRANCH  12  13
ENDBRANCH  11  12
ENDBRANCH  10  11
ENDBRANCH   9  10
ENDBRANCH   8   9
ENDBRANCH   7   8
ENDBRANCH   6   7
ENDBRANCH   5   6
ENDBRANCH   4   5
ENDBRANCH   3   4
ENDBRANCH   2   3
ENDBRANCH   1   2
BRANCH   1  17
ATOM     17  C   UNL     1     -29.101 -23.023 -19.192  1.00  0.00     0.000 C 
BRANCH  17  18
ATOM     18  C   UNL     1     -27.915 -23.125 -18.217  1.00  0.00     0.000 C 
BRANCH  18  19
ATOM     19  C   UNL     1     -28.285 -23.103 -16.720  1.00  0.00     0.000 C 
BRANCH  19  20
ATOM     20  C   UNL     1     -27.112 -22.865 -15.752  1.00  0.00     0.000 C 
BRANCH  20  21
ATOM     21  C   UNL     1     -25.781 -22.609 -16.479  1.00  0.00     0.000 C 
BRANCH  21  22
ATOM     22  C   UNL     1     -24.735 -21.920 -15.584  1.00  0.00    -0.000 C 
BRANCH  22  23
ATOM     23  C   UNL     1     -24.732 -22.373 -14.110  1.00  0.00    -0.000 C 
BRANCH  23  24
ATOM     24  C   UNL     1     -23.640 -21.731 -13.233  1.00  0.00    -0.000 C 
BRANCH  24  25
ATOM     25  C   UNL     1     -22.250 -21.628 -13.892  1.00  0.00    -0.000 C 
BRANCH  25  26
ATOM     26  C   UNL     1     -21.233 -20.743 -13.148  1.00  0.00    -0.000 C 
BRANCH  26  27
ATOM     27  C   UNL     1     -21.871 -19.482 -12.541  1.00  0.00    -0.000 C 
BRANCH  27  28
ATOM     28  C   UNL     1     -21.092 -18.945 -11.326  1.00  0.00    -0.000 C 
BRANCH  28  29
ATOM     29  C   UNL     1     -21.222 -17.430 -11.084  1.00  0.00    -0.003 C 
ATOM     30  C   UNL     1     -22.384 -17.066 -10.161  1.00  0.00     0.004 C 
ENDBRANCH  28  29
ENDBRANCH  27  28
ENDBRANCH  26  27
ENDBRANCH  25  26
ENDBRANCH  24  25
ENDBRANCH  23  24
ENDBRANCH  22  23
ENDBRANCH  21  22
ENDBRANCH  20  21
ENDBRANCH  19  20
ENDBRANCH  18  19
ENDBRANCH  17  18
ENDBRANCH   1  17
TORSDOF 26
ENDMDL
MODEL 2
REMARK VINA RESULT:     7.496      4.035      5.085
REMARK INTER + INTRA:          18.321
REMARK INTER:                  18.854
REMARK INTRA:                  -0.533
REMARK UNBOUND:                -0.569
REMARK SMILES CCCCCCCCCCCCCCCCCCCCCCCCCCCC(=O)[O-]
REMARK SMILES IDX 15 1 16 2 17 3 18 4 19 5 20 6 21 7 22 8 23 9 24 10 25 11
REMARK SMILES IDX 26 12 27 13 28 14 29 15 30 16 14 17 13 18 12 19 11 20 10 21
REMARK SMILES IDX 9 22 8 23 7 24 6 25 5 26 4 27 3 28 2 29 1 30
REMARK H PARENT
REMARK Flexibility Score: inf
ROOT
ATOM      1  C   UNL     1     -28.885 -19.975 -19.562  1.00  0.00     0.000 C 
ENDROOT
BRANCH   1   2
ATOM      2  C   UNL     1     -29.478 -20.867 -20.668  1.00  0.00     0.000 C 
BRANCH   2   3
ATOM      3  C   UNL     1     -30.593 -21.825 -20.210  1.00  0.00     0.000 C 
BRANCH   3   4
ATOM      4  C   UNL     1     -30.777 -23.025 -21.150  1.00  0.00     0.000 C 
BRANCH   4   5
ATOM      5  C   UNL     1     -30.203 -22.724 -22.543  1.00  0.00     0.000 C 
BRANCH   5   6
ATOM      6  C   UNL     1     -28.666 -22.776 -22.579  1.00  0.00     0.000 C 
BRANCH   6   7
ATOM      7  C   UNL     1     -28.058 -21.649 -23.433  1.00  0.00     0.000 C 
BRANCH   7   8
ATOM      8  C   UNL     1     -29.091 -20.959 -24.342  1.00  0.00     0.000 C 
BRANCH   8   9
ATOM      9  C   UNL     1     -29.667 -21.832 -25.473  1.00  0.00     0.000 C 
BRANCH   9  10
ATOM     10  C   UNL     1     -30.520 -21.032 -26.473  1.00  0.00     0.000 C 
BRANCH  10  11
ATOM     11  C   UNL     1     -31.429 -19.993 -25.790  1.00  0.00     0.000 C 
BRANCH  11  12
ATOM     12  C   UNL     1     -31.978 -20.405 -24.408  1.00  0.00     0.006 C 
BRANCH  12  13
ATOM     13  C   UNL     1     -32.049 -19.264 -23.382  1.00  0.00     0.053 C 
BRANCH  13  14
ATOM     14  C   UNL     1     -32.799 -19.664 -22.149  1.00  0.00     0.041 C 
ATOM     15  O   UNL     1     -33.394 -20.773 -22.101  1.00  0.00    -0.550 OA
ATOM     16  O   UNL     1     -32.814 -18.827 -21.041  1.00  0.00    -0.550 OA
ENDBRANCH  13  14
ENDBRANCH  12  13
ENDBRANCH  11  12
ENDBRANCH  10  11
ENDBRANCH   9  10
ENDBRANCH   8   9
ENDBRANCH   7   8
ENDBRANCH   6   7
ENDBRANCH   5   6
ENDBRANCH   4   5
ENDBRANCH   3   4
ENDBRANCH   2   3
ENDBRANCH   1   2
BRANCH   1  17
ATOM     17  C   UNL     1     -27.660 -20.605 -18.878  1.00  0.00     0.000 C 
BRANCH  17  18
ATOM     18  C   UNL     1     -27.618 -22.136 -19.021  1.00  0.00     0.000 C 
BRANCH  18  19
ATOM     19  C   UNL     1     -27.875 -22.930 -17.723  1.00  0.00     0.000 C 
BRANCH  19  20
ATOM     20  C   UNL     1     -29.356 -23.123 -17.350  1.00  0.00     0.000 C 
BRANCH  20  21
ATOM     21  C   UNL     1     -29.594 -23.125 -15.831  1.00  0.00     0.000 C 
BRANCH  21  22
ATOM     22  C   UNL     1     -31.021 -22.693 -15.449  1.00  0.00    -0.000 C 
BRANCH  22  23
ATOM     23  C   UNL     1     -31.155 -21.242 -14.946  1.00  0.00    -0.000 C 
BRANCH  23  24
ATOM     24  C   UNL     1     -31.622 -21.098 -13.485  1.00  0.00    -0.000 C 
BRANCH  24  25
ATOM     25  C   UNL     1     -31.281 -19.749 -12.821  1.00  0.00    -0.000 C 
BRANCH  25  26
ATOM     26  C   UNL     1     -29.836 -19.259 -13.030  1.00  0.00    -0.000 C 
BRANCH  26  27
ATOM     27  C   UNL     1     -29.220 -18.653 -11.757  1.00  0.00    -0.000 C 
BRANCH  27  28
ATOM     28  C   UNL     1     -29.353 -17.120 -11.701  1.00  0.00    -0.000 C 
BRANCH  28  29
ATOM     29  C   UNL     1     -30.542 -16.538 -12.486  1.00  0.00    -0.003 C 
ATOM     30  C   UNL     1     -30.994 -15.173 -11.967  1.00  0.00     0.004 C 
ENDBRANCH  28  29
ENDBRANCH  27  28
ENDBRANCH  26  27
ENDBRANCH  25  26
ENDBRANCH  24  25
ENDBRANCH  23  24
ENDBRANCH  22  23
ENDBRANCH  21  22
ENDBRANCH  20  21
ENDBRANCH  19  20
ENDBRANCH  18  19
ENDBRANCH  17  18
ENDBRANCH   1  17
TORSDOF 26
ENDMDL
MODEL 3
REMARK VINA RESULT:     7.561      4.364     10.556
REMARK INTER + INTRA:          18.485
REMARK INTER:                  18.775
REMARK INTRA:                  -0.290
REMARK UNBOUND:                -0.569
REMARK SMILES CCCCCCCCCCCCCCCCCCCCCCCCCCCC(=O)[O-]
REMARK SMILES IDX 15 1 16 2 17 3 18 4 19 5 20 6 21 7 22 8 23 9 24 10 25 11
REMARK SMILES IDX 26 12 27 13 28 14 29 15 30 16 14 17 13 18 12 19 11 20 10 21
REMARK SMILES IDX 9 22 8 23 7 24 6 25 5 26 4 27 3 28 2 29 1 30
REMARK H PARENT
REMARK Flexibility Score: inf
ROOT
ATOM      1  C   UNL     1     -28.420 -20.530 -19.105  1.00  0.00     0.000 C 
ENDROOT
BRANCH   1   2
ATOM      2  C   UNL     1     -27.268 -21.339 -18.480  1.00  0.00     0.000 C 
BRANCH   2   3
ATOM      3  C   UNL     1     -27.681 -22.673 -17.832  1.00  0.00     0.000 C 
BRANCH   3   4
ATOM      4  C   UNL     1     -27.569 -22.657 -16.301  1.00  0.00     0.000 C 
BRANCH   4   5
ATOM      5  C   UNL     1     -28.881 -23.121 -15.651  1.00  0.00     0.000 C 
BRANCH   5   6
ATOM      6  C   UNL     1     -30.065 -23.124 -16.632  1.00  0.00     0.000 C 
BRANCH   6   7
ATOM      7  C   UNL     1     -31.408 -22.841 -15.936  1.00  0.00     0.000 C 
BRANCH   7   8
ATOM      8  C   UNL     1     -31.242 -22.325 -14.495  1.00  0.00     0.000 C 
BRANCH   8   9
ATOM      9  C   UNL     1     -32.095 -21.097 -14.128  1.00  0.00     0.000 C 
BRANCH   9  10
ATOM     10  C   UNL     1     -31.252 -19.900 -13.654  1.00  0.00     0.000 C 
BRANCH  10  11
ATOM     11  C   UNL     1     -29.782 -20.271 -13.385  1.00  0.00     0.000 C 
BRANCH  11  12
ATOM     12  C   UNL     1     -29.000 -19.270 -12.508  1.00  0.00     0.006 C 
BRANCH  12  13
ATOM     13  C   UNL     1     -29.879 -18.346 -11.652  1.00  0.00     0.053 C 
BRANCH  13  14
ATOM     14  C   UNL     1     -29.766 -16.914 -12.074  1.00  0.00     0.041 C 
ATOM     15  O   UNL     1     -28.750 -16.239 -11.761  1.00  0.00    -0.550 OA
ATOM     16  O   UNL     1     -30.767 -16.334 -12.843  1.00  0.00    -0.550 OA
ENDBRANCH  13  14
ENDBRANCH  12  13
ENDBRANCH  11  12
ENDBRANCH  10  11
ENDBRANCH   9  10
ENDBRANCH   8   9
ENDBRANCH   7   8
ENDBRANCH   6   7
ENDBRANCH   5   6
ENDBRANCH   4   5
ENDBRANCH   3   4
ENDBRANCH   2   3
ENDBRANCH   1   2
BRANCH   1  17
ATOM     17  C   UNL     1     -28.711 -20.931 -20.561  1.00  0.00     0.000 C 
BRANCH  17  18
ATOM     18  C   UNL     1     -28.689 -22.455 -20.777  1.00  0.00     0.000 C 
BRANCH  18  19
ATOM     19  C   UNL     1     -27.484 -22.993 -21.576  1.00  0.00     0.000 C 
BRANCH  19  20
ATOM     20  C   UNL     1     -27.443 -22.588 -23.061  1.00  0.00     0.000 C 
BRANCH  20  21
ATOM     21  C   UNL     1     -28.239 -21.305 -23.352  1.00  0.00     0.000 C 
BRANCH  21  22
ATOM     22  C   UNL     1     -29.509 -21.565 -24.183  1.00  0.00    -0.000 C 
BRANCH  22  23
ATOM     23  C   UNL     1     -29.652 -20.699 -25.451  1.00  0.00    -0.000 C 
BRANCH  23  24
ATOM     24  C   UNL     1     -30.945 -19.862 -25.527  1.00  0.00    -0.000 C 
BRANCH  24  25
ATOM     25  C   UNL     1     -32.099 -20.363 -24.635  1.00  0.00    -0.000 C 
BRANCH  25  26
ATOM     26  C   UNL     1     -32.657 -19.329 -23.640  1.00  0.00    -0.000 C 
BRANCH  26  27
ATOM     27  C   UNL     1     -32.990 -19.940 -22.268  1.00  0.00    -0.000 C 
BRANCH  27  28
ATOM     28  C   UNL     1     -31.744 -20.143 -21.386  1.00  0.00    -0.000 C 
BRANCH  28  29
ATOM     29  C   UNL     1     -31.481 -21.596 -20.950  1.00  0.00    -0.003 C 
ATOM     30  C   UNL     1     -31.716 -22.610 -22.069  1.00  0.00     0.004 C 
ENDBRANCH  28  29
ENDBRANCH  27  28
ENDBRANCH  26  27
ENDBRANCH  25  26
ENDBRANCH  24  25
ENDBRANCH  23  24
ENDBRANCH  22  23
ENDBRANCH  21  22
ENDBRANCH  20  21
ENDBRANCH  19  20
ENDBRANCH  18  19
ENDBRANCH  17  18
ENDBRANCH   1  17
TORSDOF 26
ENDMDL
MODEL 4
REMARK VINA RESULT:     7.713      4.526     10.509
REMARK INTER + INTRA:          18.868
REMARK INTER:                  16.732
REMARK INTRA:                   2.136
REMARK UNBOUND:                -0.569
REMARK SMILES CCCCCCCCCCCCCCCCCCCCCCCCCCCC(=O)[O-]
REMARK SMILES IDX 15 1 16 2 17 3 18 4 19 5 20 6 21 7 22 8 23 9 24 10 25 11
REMARK SMILES IDX 26 12 27 13 28 14 29 15 30 16 14 17 13 18 12 19 11 20 10 21
REMARK SMILES IDX 9 22 8 23 7 24 6 25 5 26 4 27 3 28 2 29 1 30
REMARK H PARENT
REMARK Flexibility Score: inf
ROOT
ATOM      1  C   UNL     1     -31.144 -20.143 -20.546  1.00  0.00     0.000 C 
ENDROOT
BRANCH   1   2
ATOM      2  C   UNL     1     -29.816 -20.886 -20.784  1.00  0.00     0.000 C 
BRANCH   2   3
ATOM      3  C   UNL     1     -29.870 -22.409 -20.571  1.00  0.00     0.000 C 
BRANCH   3   4
ATOM      4  C   UNL     1     -29.224 -22.854 -19.250  1.00  0.00     0.000 C 
BRANCH   4   5
ATOM      5  C   UNL     1     -27.798 -22.298 -19.124  1.00  0.00     0.000 C 
BRANCH   5   6
ATOM      6  C   UNL     1     -27.382 -22.046 -17.665  1.00  0.00     0.000 C 
BRANCH   6   7
ATOM      7  C   UNL     1     -27.914 -23.125 -16.705  1.00  0.00     0.000 C 
BRANCH   7   8
ATOM      8  C   UNL     1     -29.403 -22.942 -16.360  1.00  0.00     0.000 C 
BRANCH   8   9
ATOM      9  C   UNL     1     -29.695 -22.073 -15.123  1.00  0.00     0.000 C 
BRANCH   9  10
ATOM     10  C   UNL     1     -31.148 -22.198 -14.632  1.00  0.00     0.000 C 
BRANCH  10  11
ATOM     11  C   UNL     1     -31.764 -20.845 -14.229  1.00  0.00     0.000 C 
BRANCH  11  12
ATOM     12  C   UNL     1     -30.752 -19.762 -13.800  1.00  0.00     0.006 C 
BRANCH  12  13
ATOM     13  C   UNL     1     -30.737 -19.461 -12.294  1.00  0.00     0.053 C 
BRANCH  13  14
ATOM     14  C   UNL     1     -29.480 -18.763 -11.874  1.00  0.00     0.041 C 
ATOM     15  O   UNL     1     -29.078 -17.748 -12.500  1.00  0.00    -0.550 OA
ATOM     16  O   UNL     1     -28.769 -19.216 -10.770  1.00  0.00    -0.550 OA
ENDBRANCH  13  14
ENDBRANCH  12  13
ENDBRANCH  11  12
ENDBRANCH  10  11
ENDBRANCH   9  10
ENDBRANCH   8   9
ENDBRANCH   7   8
ENDBRANCH   6   7
ENDBRANCH   5   6
ENDBRANCH   4   5
ENDBRANCH   3   4
ENDBRANCH   2   3
ENDBRANCH   1   2
BRANCH   1  17
ATOM     17  C   UNL     1     -32.372 -20.958 -20.986  1.00  0.00     0.000 C 
BRANCH  17  18
ATOM     18  C   UNL     1     -33.051 -20.384 -22.242  1.00  0.00     0.000 C 
BRANCH  18  19
ATOM     19  C   UNL     1     -32.716 -18.913 -22.563  1.00  0.00     0.000 C 
BRANCH  19  20
ATOM     20  C   UNL     1     -32.538 -18.586 -24.056  1.00  0.00     0.000 C 
BRANCH  20  21
ATOM     21  C   UNL     1     -31.952 -19.760 -24.859  1.00  0.00     0.000 C 
BRANCH  21  22
ATOM     22  C   UNL     1     -31.101 -19.299 -26.056  1.00  0.00    -0.000 C 
BRANCH  22  23
ATOM     23  C   UNL     1     -30.244 -20.400 -26.714  1.00  0.00    -0.000 C 
BRANCH  23  24
ATOM     24  C   UNL     1     -30.756 -21.838 -26.501  1.00  0.00    -0.000 C 
BRANCH  24  25
ATOM     25  C   UNL     1     -31.751 -22.011 -25.336  1.00  0.00    -0.000 C 
BRANCH  25  26
ATOM     26  C   UNL     1     -31.112 -22.193 -23.947  1.00  0.00    -0.000 C 
BRANCH  26  27
ATOM     27  C   UNL     1     -29.684 -21.628 -23.869  1.00  0.00    -0.000 C 
BRANCH  27  28
ATOM     28  C   UNL     1     -28.633 -22.703 -23.534  1.00  0.00    -0.000 C 
BRANCH  28  29
ATOM     29  C   UNL     1     -27.259 -22.162 -23.100  1.00  0.00    -0.003 C 
ATOM     30  C   UNL     1     -26.604 -22.999 -22.002  1.00  0.00     0.004 C 
ENDBRANCH  28  29
ENDBRANCH  27  28
ENDBRANCH  26  27
ENDBRANCH  25  26
ENDBRANCH  24  25
ENDBRANCH  23  24
ENDBRANCH  22  23
ENDBRANCH  21  22
ENDBRANCH  20  21
ENDBRANCH  19  20
ENDBRANCH  18  19
ENDBRANCH  17  18
ENDBRANCH   1  17
TORSDOF 26
ENDMDL
MODEL 5
REMARK VINA RESULT:     7.746      4.638     10.679
REMARK INTER + INTRA:          18.951
REMARK INTER:                  18.796
REMARK INTRA:                   0.155
REMARK UNBOUND:                -0.569
REMARK SMILES CCCCCCCCCCCCCCCCCCCCCCCCCCCC(=O)[O-]
REMARK SMILES IDX 15 1 16 2 17 3 18 4 19 5 20 6 21 7 22 8 23 9 24 10 25 11
REMARK SMILES IDX 26 12 27 13 28 14 29 15 30 16 14 17 13 18 12 19 11 20 10 21
REMARK SMILES IDX 9 22 8 23 7 24 6 25 5 26 4 27 3 28 2 29 1 30
REMARK H PARENT
REMARK Flexibility Score: inf
ROOT
ATOM      1  C   UNL     1     -30.218 -19.675 -19.625  1.00  0.00     0.000 C 
ENDROOT
BRANCH   1   2
ATOM      2  C   UNL     1     -28.732 -20.012 -19.402  1.00  0.00     0.000 C 
BRANCH   2   3
ATOM      3  C   UNL     1     -28.437 -21.485 -19.068  1.00  0.00     0.000 C 
BRANCH   3   4
ATOM      4  C   UNL     1     -27.092 -21.682 -18.355  1.00  0.00     0.000 C 
BRANCH   4   5
ATOM      5  C   UNL     1     -27.271 -22.489 -17.060  1.00  0.00     0.000 C 
BRANCH   5   6
ATOM      6  C   UNL     1     -28.673 -23.108 -16.931  1.00  0.00     0.000 C 
BRANCH   6   7
ATOM      7  C   UNL     1     -29.452 -22.556 -15.724  1.00  0.00     0.000 C 
BRANCH   7   8
ATOM      8  C   UNL     1     -30.880 -23.123 -15.621  1.00  0.00     0.000 C 
BRANCH   8   9
ATOM      9  C   UNL     1     -31.600 -22.865 -14.284  1.00  0.00     0.000 C 
BRANCH   9  10
ATOM     10  C   UNL     1     -32.360 -21.527 -14.261  1.00  0.00     0.000 C 
BRANCH  10  11
ATOM     11  C   UNL     1     -31.426 -20.305 -14.329  1.00  0.00     0.000 C 
BRANCH  11  12
ATOM     12  C   UNL     1     -30.398 -20.196 -13.184  1.00  0.00     0.006 C 
BRANCH  12  13
ATOM     13  C   UNL     1     -29.556 -18.912 -13.199  1.00  0.00     0.053 C 
BRANCH  13  14
ATOM     14  C   UNL     1     -29.469 -18.281 -11.844  1.00  0.00     0.041 C 
ATOM     15  O   UNL     1     -29.533 -17.029 -11.722  1.00  0.00    -0.550 OA
ATOM     16  O   UNL     1     -29.352 -19.077 -10.712  1.00  0.00    -0.550 OA
ENDBRANCH  13  14
ENDBRANCH  12  13
ENDBRANCH  11  12
ENDBRANCH  10  11
ENDBRANCH   9  10
ENDBRANCH   8   9
ENDBRANCH   7   8
ENDBRANCH   6   7
ENDBRANCH   5   6
ENDBRANCH   4   5
ENDBRANCH   3   4
ENDBRANCH   2   3
ENDBRANCH   1   2
BRANCH   1  17
ATOM     17  C   UNL     1     -30.853 -20.494 -20.761  1.00  0.00     0.000 C 
BRANCH  17  18
ATOM     18  C   UNL     1     -30.783 -22.012 -20.515  1.00  0.00     0.000 C 
BRANCH  18  19
ATOM     19  C   UNL     1     -30.407 -22.866 -21.743  1.00  0.00     0.000 C 
BRANCH  19  20
ATOM     20  C   UNL     1     -28.901 -23.121 -21.934  1.00  0.00     0.000 C 
BRANCH  20  21
ATOM     21  C   UNL     1     -28.214 -22.039 -22.783  1.00  0.00     0.000 C 
BRANCH  21  22
ATOM     22  C   UNL     1     -28.966 -21.740 -24.093  1.00  0.00    -0.000 C 
BRANCH  22  23
ATOM     23  C   UNL     1     -28.939 -20.265 -24.543  1.00  0.00    -0.000 C 
BRANCH  23  24
ATOM     24  C   UNL     1     -30.109 -19.839 -25.452  1.00  0.00    -0.000 C 
BRANCH  24  25
ATOM     25  C   UNL     1     -30.395 -20.787 -26.634  1.00  0.00    -0.000 C 
BRANCH  25  26
ATOM     26  C   UNL     1     -31.566 -21.764 -26.425  1.00  0.00    -0.000 C 
BRANCH  26  27
ATOM     27  C   UNL     1     -31.904 -21.981 -24.940  1.00  0.00    -0.000 C 
BRANCH  27  28
ATOM     28  C   UNL     1     -32.782 -20.858 -24.357  1.00  0.00    -0.000 C 
BRANCH  28  29
ATOM     29  C   UNL     1     -32.192 -20.137 -23.131  1.00  0.00    -0.003 C 
ATOM     30  C   UNL     1     -32.976 -18.886 -22.735  1.00  0.00     0.004 C 
ENDBRANCH  28  29
ENDBRANCH  27  28
ENDBRANCH  26  27
ENDBRANCH  25  26
ENDBRANCH  24  25
ENDBRANCH  23  24
ENDBRANCH  22  23
ENDBRANCH  21  22
ENDBRANCH  20  21
ENDBRANCH  19  20
ENDBRANCH  18  19
ENDBRANCH  17  18
ENDBRANCH   1  17
TORSDOF 26
ENDMDL
MODEL 6
REMARK VINA RESULT:     7.877      3.758      5.239
REMARK INTER + INTRA:          19.281
REMARK INTER:                  19.397
REMARK INTRA:                  -0.116
REMARK UNBOUND:                -0.569
REMARK SMILES CCCCCCCCCCCCCCCCCCCCCCCCCCCC(=O)[O-]
REMARK SMILES IDX 15 1 16 2 17 3 18 4 19 5 20 6 21 7 22 8 23 9 24 10 25 11
REMARK SMILES IDX 26 12 27 13 28 14 29 15 30 16 14 17 13 18 12 19 11 20 10 21
REMARK SMILES IDX 9 22 8 23 7 24 6 25 5 26 4 27 3 28 2 29 1 30
REMARK H PARENT
REMARK Flexibility Score: inf
ROOT
ATOM      1  C   UNL     1     -30.979 -23.091 -19.901  1.00  0.00     0.000 C 
ENDROOT
BRANCH   1   2
ATOM      2  C   UNL     1     -31.672 -23.105 -21.277  1.00  0.00     0.000 C 
BRANCH   2   3
ATOM      3  C   UNL     1     -31.689 -21.754 -22.015  1.00  0.00     0.000 C 
BRANCH   3   4
ATOM      4  C   UNL     1     -31.879 -20.557 -21.072  1.00  0.00     0.000 C 
BRANCH   4   5
ATOM      5  C   UNL     1     -32.795 -19.499 -21.707  1.00  0.00     0.000 C 
BRANCH   5   6
ATOM      6  C   UNL     1     -32.987 -19.707 -23.219  1.00  0.00     0.000 C 
BRANCH   6   7
ATOM      7  C   UNL     1     -31.652 -19.763 -23.981  1.00  0.00     0.000 C 
BRANCH   7   8
ATOM      8  C   UNL     1     -31.694 -19.009 -25.323  1.00  0.00     0.000 C 
BRANCH   8   9
ATOM      9  C   UNL     1     -31.071 -19.752 -26.520  1.00  0.00     0.000 C 
BRANCH   9  10
ATOM     10  C   UNL     1     -31.490 -21.230 -26.593  1.00  0.00     0.000 C 
BRANCH  10  11
ATOM     11  C   UNL     1     -30.441 -22.182 -25.987  1.00  0.00     0.000 C 
BRANCH  11  12
ATOM     12  C   UNL     1     -29.610 -21.594 -24.828  1.00  0.00     0.006 C 
BRANCH  12  13
ATOM     13  C   UNL     1     -29.191 -22.615 -23.759  1.00  0.00     0.053 C 
BRANCH  13  14
ATOM     14  C   UNL     1     -27.905 -22.234 -23.093  1.00  0.00     0.041 C 
ATOM     15  O   UNL     1     -27.130 -23.124 -22.654  1.00  0.00    -0.550 OA
ATOM     16  O   UNL     1     -27.546 -20.896 -22.987  1.00  0.00    -0.550 OA
ENDBRANCH  13  14
ENDBRANCH  12  13
ENDBRANCH  11  12
ENDBRANCH  10  11
ENDBRANCH   9  10
ENDBRANCH   8   9
ENDBRANCH   7   8
ENDBRANCH   6   7
ENDBRANCH   5   6
ENDBRANCH   4   5
ENDBRANCH   3   4
ENDBRANCH   2   3
ENDBRANCH   1   2
BRANCH   1  17
ATOM     17  C   UNL     1     -29.449 -22.978 -20.003  1.00  0.00     0.000 C 
BRANCH  17  18
ATOM     18  C   UNL     1     -28.947 -21.529 -19.879  1.00  0.00     0.000 C 
BRANCH  18  19
ATOM     19  C   UNL     1     -28.480 -21.108 -18.470  1.00  0.00     0.000 C 
BRANCH  19  20
ATOM     20  C   UNL     1     -27.497 -22.075 -17.784  1.00  0.00     0.000 C 
BRANCH  20  21
ATOM     21  C   UNL     1     -28.203 -23.115 -16.898  1.00  0.00     0.000 C 
BRANCH  21  22
ATOM     22  C   UNL     1     -28.945 -22.481 -15.708  1.00  0.00    -0.000 C 
BRANCH  22  23
ATOM     23  C   UNL     1     -30.304 -23.124 -15.365  1.00  0.00    -0.000 C 
BRANCH  23  24
ATOM     24  C   UNL     1     -31.310 -22.189 -14.666  1.00  0.00    -0.000 C 
BRANCH  24  25
ATOM     25  C   UNL     1     -30.844 -20.727 -14.514  1.00  0.00    -0.000 C 
BRANCH  25  26
ATOM     26  C   UNL     1     -30.899 -20.165 -13.081  1.00  0.00    -0.000 C 
BRANCH  26  27
ATOM     27  C   UNL     1     -30.298 -18.754 -12.970  1.00  0.00    -0.000 C 
BRANCH  27  28
ATOM     28  C   UNL     1     -29.876 -18.395 -11.533  1.00  0.00    -0.000 C 
BRANCH  28  29
ATOM     29  C   UNL     1     -28.454 -18.834 -11.141  1.00  0.00    -0.003 C 
ATOM     30  C   UNL     1     -28.045 -18.366  -9.744  1.00  0.00     0.004 C 
ENDBRANCH  28  29
ENDBRANCH  27  28
ENDBRANCH  26  27
ENDBRANCH  25  26
ENDBRANCH  24  25
ENDBRANCH  23  24
ENDBRANCH  22  23
ENDBRANCH  21  22
ENDBRANCH  20  21
ENDBRANCH  19  20
ENDBRANCH  18  19
ENDBRANCH  17  18
ENDBRANCH   1  17
TORSDOF 26
ENDMDL
MODEL 7
REMARK VINA RESULT:     8.093      1.527      2.974
REMARK INTER + INTRA:          19.825
REMARK INTER:                  19.478
REMARK INTRA:                   0.347
REMARK UNBOUND:                -0.569
REMARK SMILES CCCCCCCCCCCCCCCCCCCCCCCCCCCC(=O)[O-]
REMARK SMILES IDX 15 1 16 2 17 3 18 4 19 5 20 6 21 7 22 8 23 9 24 10 25 11
REMARK SMILES IDX 26 12 27 13 28 14 29 15 30 16 14 17 13 18 12 19 11 20 10 21
REMARK SMILES IDX 9 22 8 23 7 24 6 25 5 26 4 27 3 28 2 29 1 30
REMARK H PARENT
REMARK Flexibility Score: inf
ROOT
ATOM      1  C   UNL     1     -29.341 -22.644 -19.846  1.00  0.00     0.000 C 
ENDROOT
BRANCH   1   2
ATOM      2  C   UNL     1     -30.768 -23.125 -20.170  1.00  0.00     0.000 C 
BRANCH   2   3
ATOM      3  C   UNL     1     -31.328 -22.649 -21.522  1.00  0.00     0.000 C 
BRANCH   3   4
ATOM      4  C   UNL     1     -30.844 -21.245 -21.912  1.00  0.00     0.000 C 
BRANCH   4   5
ATOM      5  C   UNL     1     -31.675 -20.163 -21.206  1.00  0.00     0.000 C 
BRANCH   5   6
ATOM      6  C   UNL     1     -32.994 -19.854 -21.933  1.00  0.00     0.000 C 
BRANCH   6   7
ATOM      7  C   UNL     1     -32.804 -18.891 -23.118  1.00  0.00     0.000 C 
BRANCH   7   8
ATOM      8  C   UNL     1     -32.471 -19.617 -24.434  1.00  0.00     0.000 C 
BRANCH   8   9
ATOM      9  C   UNL     1     -31.227 -19.099 -25.181  1.00  0.00     0.000 C 
BRANCH   9  10
ATOM     10  C   UNL     1     -30.867 -19.950 -26.410  1.00  0.00     0.000 C 
BRANCH  10  11
ATOM     11  C   UNL     1     -31.018 -21.462 -26.159  1.00  0.00     0.000 C 
BRANCH  11  12
ATOM     12  C   UNL     1     -29.916 -22.099 -25.287  1.00  0.00     0.006 C 
BRANCH  12  13
ATOM     13  C   UNL     1     -28.993 -21.091 -24.585  1.00  0.00     0.053 C 
BRANCH  13  14
ATOM     14  C   UNL     1     -28.240 -21.715 -23.451  1.00  0.00     0.041 C 
ATOM     15  O   UNL     1     -27.384 -21.047 -22.813  1.00  0.00    -0.550 OA
ATOM     16  O   UNL     1     -28.506 -23.026 -23.078  1.00  0.00    -0.550 OA
ENDBRANCH  13  14
ENDBRANCH  12  13
ENDBRANCH  11  12
ENDBRANCH  10  11
ENDBRANCH   9  10
ENDBRANCH   8   9
ENDBRANCH   7   8
ENDBRANCH   6   7
ENDBRANCH   5   6
ENDBRANCH   4   5
ENDBRANCH   3   4
ENDBRANCH   2   3
ENDBRANCH   1   2
BRANCH   1  17
ATOM     17  C   UNL     1     -28.865 -23.081 -18.450  1.00  0.00     0.000 C 
BRANCH  17  18
ATOM     18  C   UNL     1     -27.701 -22.225 -17.920  1.00  0.00     0.000 C 
BRANCH  18  19
ATOM     19  C   UNL     1     -26.788 -22.916 -16.887  1.00  0.00     0.000 C 
BRANCH  19  20
ATOM     20  C   UNL     1     -26.199 -21.993 -15.805  1.00  0.00     0.000 C 
BRANCH  20  21
ATOM     21  C   UNL     1     -25.410 -22.760 -14.730  1.00  0.00     0.000 C 
BRANCH  21  22
ATOM     22  C   UNL     1     -23.909 -22.420 -14.734  1.00  0.00    -0.000 C 
BRANCH  22  23
ATOM     23  C   UNL     1     -23.472 -21.369 -13.694  1.00  0.00    -0.000 C 
BRANCH  23  24
ATOM     24  C   UNL     1     -22.212 -21.737 -12.885  1.00  0.00    -0.000 C 
BRANCH  24  25
ATOM     25  C   UNL     1     -21.258 -20.562 -12.592  1.00  0.00    -0.000 C 
BRANCH  25  26
ATOM     26  C   UNL     1     -21.925 -19.304 -12.007  1.00  0.00    -0.000 C 
BRANCH  26  27
ATOM     27  C   UNL     1     -21.048 -18.047 -12.137  1.00  0.00    -0.000 C 
BRANCH  27  28
ATOM     28  C   UNL     1     -21.373 -16.978 -11.077  1.00  0.00    -0.000 C 
BRANCH  28  29
ATOM     29  C   UNL     1     -22.362 -17.421  -9.984  1.00  0.00    -0.003 C 
ATOM     30  C   UNL     1     -21.947 -18.717  -9.288  1.00  0.00     0.004 C 
ENDBRANCH  28  29
ENDBRANCH  27  28
ENDBRANCH  26  27
ENDBRANCH  25  26
ENDBRANCH  24  25
ENDBRANCH  23  24
ENDBRANCH  22  23
ENDBRANCH  21  22
ENDBRANCH  20  21
ENDBRANCH  19  20
ENDBRANCH  18  19
ENDBRANCH  17  18
ENDBRANCH   1  17
TORSDOF 26
ENDMDL
