MODEL 1
REMARK VINA RESULT:    -2.661      0.000      0.000
REMARK INTER + INTRA:          -2.661
REMARK INTER:                  -2.661
REMARK INTRA:                   0.000
REMARK UNBOUND:                 0.000
REMARK SMILES CC(=O)[O-]
REMARK SMILES IDX 1 1 2 2 3 3 4 4
REMARK H PARENT
REMARK Flexibility Score: inf
ROOT
ATOM      1  C   UNL     1      12.235   4.407  48.877  1.00  0.00     0.063 C 
ATOM      2  C   UNL     1      12.723   4.836  50.219  1.00  0.00     0.038 C 
ATOM      3  O   UNL     1      12.363   5.943  50.698  1.00  0.00    -0.550 OA
ATOM      4  O   UNL     1      13.622   4.042  50.920  1.00  0.00    -0.550 OA
ENDROOT
TORSDOF 0
ENDMDL
MODEL 2
REMARK VINA RESULT:    -2.473      8.849      8.953
REMARK INTER + INTRA:          -2.473
REMARK INTER:                  -2.473
REMARK INTRA:                   0.000
REMARK UNBOUND:                 0.000
REMARK SMILES CC(=O)[O-]
REMARK SMILES IDX 1 1 2 2 3 3 4 4
REMARK H PARENT
REMARK Flexibility Score: inf
ROOT
ATOM      1  C   UNL     1      17.717   7.391  45.027  1.00  0.00     0.063 C 
ATOM      2  C   UNL     1      18.990   7.113  44.302  1.00  0.00     0.038 C 
ATOM      3  O   UNL     1      19.337   7.839  43.335  1.00  0.00    -0.550 OA
ATOM      4  O   UNL     1      19.768   6.018  44.656  1.00  0.00    -0.550 OA
ENDROOT
TORSDOF 0
ENDMDL
MODEL 3
REMARK VINA RESULT:    -2.468      8.875      9.087
REMARK INTER + INTRA:          -2.468
REMARK INTER:                  -2.468
REMARK INTRA:                   0.000
REMARK UNBOUND:                 0.000
REMARK SMILES CC(=O)[O-]
REMARK SMILES IDX 1 1 2 2 3 3 4 4
REMARK H PARENT
REMARK Flexibility Score: inf
ROOT
ATOM      1  C   UNL     1      17.715   7.391  45.042  1.00  0.00     0.063 C 
ATOM      2  C   UNL     1      18.985   7.113  44.313  1.00  0.00     0.038 C 
ATOM      3  O   UNL     1      19.786   6.245  44.748  1.00  0.00    -0.550 OA
ATOM      4  O   UNL     1      19.316   7.850  43.183  1.00  0.00    -0.550 OA
ENDROOT
TORSDOF 0
ENDMDL
MODEL 4
REMARK VINA RESULT:    -2.429     11.765     11.867
REMARK INTER + INTRA:          -2.429
REMARK INTER:                  -2.429
REMARK INTRA:                   0.000
REMARK UNBOUND:                 0.000
REMARK SMILES CC(=O)[O-]
REMARK SMILES IDX 1 1 2 2 3 3 4 4
REMARK H PARENT
REMARK Flexibility Score: inf
ROOT
ATOM      1  C   UNL     1      22.807   7.747  42.213  1.00  0.00     0.063 C 
ATOM      2  C   UNL     1      21.978   7.616  43.446  1.00  0.00     0.038 C 
ATOM      3  O   UNL     1      20.763   7.943  43.427  1.00  0.00    -0.550 OA
ATOM      4  O   UNL     1      22.557   7.186  44.632  1.00  0.00    -0.550 OA
ENDROOT
TORSDOF 0
ENDMDL
MODEL 5
REMARK VINA RESULT:    -2.341     12.050     12.230
REMARK INTER + INTRA:          -2.341
REMARK INTER:                  -2.341
REMARK INTRA:                   0.000
REMARK UNBOUND:                 0.000
REMARK SMILES CC(=O)[O-]
REMARK SMILES IDX 1 1 2 2 3 3 4 4
REMARK H PARENT
REMARK Flexibility Score: inf
ROOT
ATOM      1  C   UNL     1      22.667   8.130  41.706  1.00  0.00     0.063 C 
ATOM      2  C   UNL     1      21.928   7.888  42.978  1.00  0.00     0.038 C 
ATOM      3  O   UNL     1      22.522   7.389  43.968  1.00  0.00    -0.550 OA
ATOM      4  O   UNL     1      20.568   8.160  43.055  1.00  0.00    -0.550 OA
ENDROOT
TORSDOF 0
ENDMDL
MODEL 6
REMARK VINA RESULT:    -2.333     11.505     11.632
REMARK INTER + INTRA:          -2.333
REMARK INTER:                  -2.333
REMARK INTRA:                   0.000
REMARK UNBOUND:                 0.000
REMARK SMILES CC(=O)[O-]
REMARK SMILES IDX 1 1 2 2 3 3 4 4
REMARK H PARENT
REMARK Flexibility Score: inf
ROOT
ATOM      1  C   UNL     1      22.694   5.851  44.994  1.00  0.00     0.063 C 
ATOM      2  C   UNL     1      22.206   6.871  44.022  1.00  0.00     0.038 C 
ATOM      3  O   UNL     1      21.065   7.383  44.163  1.00  0.00    -0.550 OA
ATOM      4  O   UNL     1      22.986   7.218  42.927  1.00  0.00    -0.550 OA
ENDROOT
TORSDOF 0
ENDMDL
MODEL 7
REMARK VINA RESULT:    -2.332     13.031     13.104
REMARK INTER + INTRA:          -2.332
REMARK INTER:                  -2.332
REMARK INTRA:                   0.000
REMARK UNBOUND:                 0.000
REMARK SMILES CC(=O)[O-]
REMARK SMILES IDX 1 1 2 2 3 3 4 4
REMARK H PARENT
REMARK Flexibility Score: inf
ROOT
ATOM      1  C   UNL     1      22.824   8.173  41.601  1.00  0.00     0.063 C 
ATOM      2  C   UNL     1      21.759   9.182  41.866  1.00  0.00     0.038 C 
ATOM      3  O   UNL     1      22.029  10.410  41.827  1.00  0.00    -0.550 OA
ATOM      4  O   UNL     1      20.479   8.769  42.212  1.00  0.00    -0.550 OA
ENDROOT
TORSDOF 0
ENDMDL
MODEL 8
REMARK VINA RESULT:    -2.318     10.359     10.608
REMARK INTER + INTRA:          -2.318
REMARK INTER:                  -2.318
REMARK INTRA:                   0.000
REMARK UNBOUND:                 0.000
REMARK SMILES CC(=O)[O-]
REMARK SMILES IDX 1 1 2 2 3 3 4 4
REMARK H PARENT
REMARK Flexibility Score: inf
ROOT
ATOM      1  C   UNL     1      20.862   5.777  44.650  1.00  0.00     0.063 C 
ATOM      2  C   UNL     1      22.127   5.418  45.352  1.00  0.00     0.038 C 
ATOM      3  O   UNL     1      23.225   5.891  44.958  1.00  0.00    -0.550 OA
ATOM      4  O   UNL     1      22.105   4.518  46.410  1.00  0.00    -0.550 OA
ENDROOT
TORSDOF 0
ENDMDL
MODEL 9
REMARK VINA RESULT:    -2.309     11.036     11.273
REMARK INTER + INTRA:          -2.309
REMARK INTER:                  -2.309
REMARK INTRA:                   0.000
REMARK UNBOUND:                 0.000
REMARK SMILES CC(=O)[O-]
REMARK SMILES IDX 1 1 2 2 3 3 4 4
REMARK H PARENT
REMARK Flexibility Score: inf
ROOT
ATOM      1  C   UNL     1      22.227   4.971  45.840  1.00  0.00     0.063 C 
ATOM      2  C   UNL     1      22.275   5.831  44.623  1.00  0.00     0.038 C 
ATOM      3  O   UNL     1      22.152   5.317  43.481  1.00  0.00    -0.550 OA
ATOM      4  O   UNL     1      22.512   7.195  44.743  1.00  0.00    -0.550 OA
ENDROOT
TORSDOF 0
ENDMDL
