MODEL 1
REMARK VINA RESULT:    -5.747      0.000      0.000
REMARK INTER + INTRA:          -7.058
REMARK INTER:                  -6.923
REMARK INTRA:                  -0.135
REMARK UNBOUND:                -0.135
REMARK SMILES Oc1cc(O)c2cc(O)c(-c3ccc(O)c(O)c3)[o+]c2c1
REMARK SMILES IDX 10 1 19 2 20 3 21 4 2 5 3 6 4 7 6 8 7 9 8 10 11 11 12 12
REMARK SMILES IDX 13 13 14 14 18 15 16 16 15 17 17 19 9 21 1 23 5 25
REMARK H PARENT 15 18 17 20 9 22 1 24 5 26
REMARK Flexibility Score: inf
ROOT
ATOM      1  C   UNL     1      -4.647   9.207   5.141  1.00  0.00     0.402 A 
ATOM      2  O   UNL     1      -5.705   9.341   5.937  1.00  0.00    -0.202 OA
ATOM      3  C   UNL     1      -5.612   9.587   7.239  1.00  0.00     0.368 A 
ATOM      4  C   UNL     1      -6.782   9.708   7.994  1.00  0.00     0.162 A 
ATOM      5  C   UNL     1      -6.714   9.964   9.366  1.00  0.00     0.128 A 
ATOM      6  C   UNL     1      -5.470  10.096   9.987  1.00  0.00     0.093 A 
ATOM      7  C   UNL     1      -4.283   9.979   9.254  1.00  0.00     0.136 A 
ATOM      8  C   UNL     1      -4.347   9.723   7.860  1.00  0.00     0.125 A 
ATOM      9  C   UNL     1      -3.210   9.603   7.044  1.00  0.00     0.078 A 
ATOM     10  C   UNL     1      -3.353   9.353   5.675  1.00  0.00     0.223 A 
ENDROOT
BRANCH   1  11
ATOM     11  C   UNL     1      -4.880   8.924   3.706  1.00  0.00     0.087 A 
ATOM     12  C   UNL     1      -4.413   9.792   2.704  1.00  0.00     0.022 A 
ATOM     13  C   UNL     1      -4.625   9.492   1.356  1.00  0.00     0.051 A 
ATOM     14  C   UNL     1      -5.294   8.316   0.989  1.00  0.00     0.157 A 
ATOM     15  C   UNL     1      -5.531   7.737   3.333  1.00  0.00     0.068 A 
ATOM     16  C   UNL     1      -5.745   7.434   1.984  1.00  0.00     0.158 A 
BRANCH  14  17
ATOM     17  O   UNL     1      -5.505   8.021  -0.357  1.00  0.00    -0.504 OA
ATOM     18  H   UNL     1      -4.950   7.325  -0.841  1.00  0.00     0.293 HD
ENDBRANCH  14  17
BRANCH  16  19
ATOM     19  O   UNL     1      -6.408   6.252   1.652  1.00  0.00    -0.504 OA
ATOM     20  H   UNL     1      -6.021   5.585   0.995  1.00  0.00     0.293 HD
ENDBRANCH  16  19
ENDBRANCH   1  11
BRANCH  10  21
ATOM     21  O   UNL     1      -2.226   9.284   4.856  1.00  0.00    -0.500 OA
ATOM     22  H   UNL     1      -2.304   9.186   3.850  1.00  0.00     0.294 HD
ENDBRANCH  10  21
BRANCH   5  23
ATOM     23  O   UNL     1      -7.877  10.087  10.124  1.00  0.00    -0.507 OA
ATOM     24  H   UNL     1      -8.081   9.453  10.888  1.00  0.00     0.293 HD
ENDBRANCH   5  23
BRANCH   7  25
ATOM     25  O   UNL     1      -3.080  10.122   9.951  1.00  0.00    -0.507 OA
ATOM     26  H   UNL     1      -3.005  10.172  10.956  1.00  0.00     0.293 HD
ENDBRANCH   7  25
TORSDOF 6
ENDMDL
MODEL 2
REMARK VINA RESULT:    -5.735     15.371     17.097
REMARK INTER + INTRA:          -7.043
REMARK INTER:                  -6.755
REMARK INTRA:                  -0.288
REMARK UNBOUND:                -0.135
REMARK SMILES Oc1cc(O)c2cc(O)c(-c3ccc(O)c(O)c3)[o+]c2c1
REMARK SMILES IDX 10 1 19 2 20 3 21 4 2 5 3 6 4 7 6 8 7 9 8 10 11 11 12 12
REMARK SMILES IDX 13 13 14 14 18 15 16 16 15 17 17 19 9 21 1 23 5 25
REMARK H PARENT 15 18 17 20 9 22 1 24 5 26
REMARK Flexibility Score: inf
ROOT
ATOM      1  C   UNL     1      -4.113  -6.634   7.598  1.00  0.00     0.402 A 
ATOM      2  O   UNL     1      -3.755  -7.238   6.467  1.00  0.00    -0.202 OA
ATOM      3  C   UNL     1      -2.690  -8.025   6.366  1.00  0.00     0.368 A 
ATOM      4  C   UNL     1      -2.392  -8.612   5.134  1.00  0.00     0.162 A 
ATOM      5  C   UNL     1      -1.276  -9.443   4.999  1.00  0.00     0.128 A 
ATOM      6  C   UNL     1      -0.452  -9.685   6.100  1.00  0.00     0.093 A 
ATOM      7  C   UNL     1      -0.728  -9.109   7.346  1.00  0.00     0.136 A 
ATOM      8  C   UNL     1      -1.862  -8.268   7.490  1.00  0.00     0.125 A 
ATOM      9  C   UNL     1      -2.223  -7.658   8.703  1.00  0.00     0.078 A 
ATOM     10  C   UNL     1      -3.358  -6.844   8.767  1.00  0.00     0.223 A 
ENDROOT
BRANCH   1  11
ATOM     11  C   UNL     1      -5.317  -5.772   7.582  1.00  0.00     0.087 A 
ATOM     12  C   UNL     1      -6.611  -6.321   7.584  1.00  0.00     0.022 A 
ATOM     13  C   UNL     1      -7.732  -5.487   7.592  1.00  0.00     0.051 A 
ATOM     14  C   UNL     1      -7.577  -4.095   7.611  1.00  0.00     0.157 A 
ATOM     15  C   UNL     1      -5.168  -4.376   7.622  1.00  0.00     0.068 A 
ATOM     16  C   UNL     1      -6.288  -3.538   7.630  1.00  0.00     0.158 A 
BRANCH  14  17
ATOM     17  O   UNL     1      -8.698  -3.266   7.617  1.00  0.00    -0.504 OA
ATOM     18  H   UNL     1      -9.316  -3.202   6.817  1.00  0.00     0.293 HD
ENDBRANCH  14  17
BRANCH  16  19
ATOM     19  O   UNL     1      -6.100  -2.157   7.656  1.00  0.00    -0.504 OA
ATOM     20  H   UNL     1      -6.569  -1.538   7.006  1.00  0.00     0.293 HD
ENDBRANCH  16  19
ENDBRANCH   1  11
BRANCH  10  21
ATOM     21  O   UNL     1      -3.745  -6.279   9.982  1.00  0.00    -0.500 OA
ATOM     22  H   UNL     1      -3.581  -6.750  10.865  1.00  0.00     0.294 HD
ENDBRANCH  10  21
BRANCH   5  23
ATOM     23  O   UNL     1      -0.974 -10.032   3.773  1.00  0.00    -0.507 OA
ATOM     24  H   UNL     1      -0.685 -11.001   3.708  1.00  0.00     0.293 HD
ENDBRANCH   5  23
BRANCH   7  25
ATOM     25  O   UNL     1       0.146  -9.399   8.397  1.00  0.00    -0.507 OA
ATOM     26  H   UNL     1       1.124  -9.148   8.412  1.00  0.00     0.293 HD
ENDBRANCH   7  25
TORSDOF 6
ENDMDL
MODEL 3
REMARK VINA RESULT:    -5.113     13.346     17.175
REMARK INTER + INTRA:          -6.294
REMARK INTER:                  -6.053
REMARK INTRA:                  -0.241
REMARK UNBOUND:                -0.135
REMARK SMILES Oc1cc(O)c2cc(O)c(-c3ccc(O)c(O)c3)[o+]c2c1
REMARK SMILES IDX 10 1 19 2 20 3 21 4 2 5 3 6 4 7 6 8 7 9 8 10 11 11 12 12
REMARK SMILES IDX 13 13 14 14 18 15 16 16 15 17 17 19 9 21 1 23 5 25
REMARK H PARENT 15 18 17 20 9 22 1 24 5 26
REMARK Flexibility Score: inf
ROOT
ATOM      1  C   UNL     1       6.381   6.852  -5.085  1.00  0.00     0.402 A 
ATOM      2  O   UNL     1       5.847   5.646  -5.267  1.00  0.00    -0.202 OA
ATOM      3  C   UNL     1       5.945   4.970  -6.407  1.00  0.00     0.368 A 
ATOM      4  C   UNL     1       5.348   3.711  -6.504  1.00  0.00     0.162 A 
ATOM      5  C   UNL     1       5.433   2.978  -7.692  1.00  0.00     0.128 A 
ATOM      6  C   UNL     1       6.117   3.509  -8.788  1.00  0.00     0.093 A 
ATOM      7  C   UNL     1       6.724   4.769  -8.717  1.00  0.00     0.136 A 
ATOM      8  C   UNL     1       6.643   5.515  -7.512  1.00  0.00     0.125 A 
ATOM      9  C   UNL     1       7.232   6.780  -7.346  1.00  0.00     0.078 A 
ATOM     10  C   UNL     1       7.113   7.453  -6.126  1.00  0.00     0.223 A 
ENDROOT
BRANCH   1  11
ATOM     11  C   UNL     1       6.195   7.509  -3.771  1.00  0.00     0.087 A 
ATOM     12  C   UNL     1       5.445   8.691  -3.642  1.00  0.00     0.022 A 
ATOM     13  C   UNL     1       5.263   9.279  -2.388  1.00  0.00     0.051 A 
ATOM     14  C   UNL     1       5.816   8.690  -1.244  1.00  0.00     0.157 A 
ATOM     15  C   UNL     1       6.729   6.911  -2.618  1.00  0.00     0.068 A 
ATOM     16  C   UNL     1       6.550   7.498  -1.361  1.00  0.00     0.158 A 
BRANCH  14  17
ATOM     17  O   UNL     1       5.635   9.281   0.006  1.00  0.00    -0.504 OA
ATOM     18  H   UNL     1       6.310   9.164   0.751  1.00  0.00     0.293 HD
ENDBRANCH  14  17
BRANCH  16  19
ATOM     19  O   UNL     1       7.107   6.883  -0.240  1.00  0.00    -0.504 OA
ATOM     20  H   UNL     1       7.255   7.381   0.629  1.00  0.00     0.293 HD
ENDBRANCH  16  19
ENDBRANCH   1  11
BRANCH  10  21
ATOM     21  O   UNL     1       7.740   8.685  -5.944  1.00  0.00    -0.500 OA
ATOM     22  H   UNL     1       7.896   9.323  -6.716  1.00  0.00     0.294 HD
ENDBRANCH  10  21
BRANCH   5  23
ATOM     23  O   UNL     1       4.840   1.722  -7.795  1.00  0.00    -0.507 OA
ATOM     24  H   UNL     1       4.418   1.405  -8.659  1.00  0.00     0.293 HD
ENDBRANCH   5  23
BRANCH   7  25
ATOM     25  O   UNL     1       7.386   5.230  -9.858  1.00  0.00    -0.507 OA
ATOM     26  H   UNL     1       7.127   4.989 -10.804  1.00  0.00     0.293 HD
ENDBRANCH   7  25
TORSDOF 6
ENDMDL
MODEL 4
REMARK VINA RESULT:    -5.043     16.261     18.706
REMARK INTER + INTRA:          -6.210
REMARK INTER:                  -5.910
REMARK INTRA:                  -0.300
REMARK UNBOUND:                -0.135
REMARK SMILES Oc1cc(O)c2cc(O)c(-c3ccc(O)c(O)c3)[o+]c2c1
REMARK SMILES IDX 10 1 19 2 20 3 21 4 2 5 3 6 4 7 6 8 7 9 8 10 11 11 12 12
REMARK SMILES IDX 13 13 14 14 18 15 16 16 15 17 17 19 9 21 1 23 5 25
REMARK H PARENT 15 18 17 20 9 22 1 24 5 26
REMARK Flexibility Score: inf
ROOT
ATOM      1  C   UNL     1       5.869   2.617  -7.245  1.00  0.00     0.402 A 
ATOM      2  O   UNL     1       7.011   3.224  -7.558  1.00  0.00    -0.202 OA
ATOM      3  C   UNL     1       7.327   4.445  -7.139  1.00  0.00     0.368 A 
ATOM      4  C   UNL     1       8.550   5.001  -7.524  1.00  0.00     0.162 A 
ATOM      5  C   UNL     1       8.907   6.284  -7.100  1.00  0.00     0.128 A 
ATOM      6  C   UNL     1       8.036   7.015  -6.288  1.00  0.00     0.093 A 
ATOM      7  C   UNL     1       6.806   6.481  -5.888  1.00  0.00     0.136 A 
ATOM      8  C   UNL     1       6.440   5.177  -6.313  1.00  0.00     0.125 A 
ATOM      9  C   UNL     1       5.233   4.557  -5.951  1.00  0.00     0.078 A 
ATOM     10  C   UNL     1       4.943   3.267  -6.407  1.00  0.00     0.223 A 
ENDROOT
BRANCH   1  11
ATOM     11  C   UNL     1       5.627   1.258  -7.782  1.00  0.00     0.087 A 
ATOM     12  C   UNL     1       5.258   1.056  -9.124  1.00  0.00     0.022 A 
ATOM     13  C   UNL     1       5.059  -0.236  -9.614  1.00  0.00     0.051 A 
ATOM     14  C   UNL     1       5.237  -1.346  -8.777  1.00  0.00     0.157 A 
ATOM     15  C   UNL     1       5.825   0.142  -6.953  1.00  0.00     0.068 A 
ATOM     16  C   UNL     1       5.626  -1.154  -7.441  1.00  0.00     0.158 A 
BRANCH  14  17
ATOM     17  O   UNL     1       5.035  -2.634  -9.269  1.00  0.00    -0.504 OA
ATOM     18  H   UNL     1       5.664  -3.048  -9.947  1.00  0.00     0.293 HD
ENDBRANCH  14  17
BRANCH  16  19
ATOM     19  O   UNL     1       5.818  -2.237  -6.584  1.00  0.00    -0.504 OA
ATOM     20  H   UNL     1       6.660  -2.800  -6.609  1.00  0.00     0.293 HD
ENDBRANCH  16  19
ENDBRANCH   1  11
BRANCH  10  21
ATOM     21  O   UNL     1       3.769   2.631  -6.006  1.00  0.00    -0.500 OA
ATOM     22  H   UNL     1       3.339   2.821  -5.108  1.00  0.00     0.294 HD
ENDBRANCH  10  21
BRANCH   5  23
ATOM     23  O   UNL     1      10.125   6.844  -7.480  1.00  0.00    -0.507 OA
ATOM     24  H   UNL     1      10.494   6.724  -8.416  1.00  0.00     0.293 HD
ENDBRANCH   5  23
BRANCH   7  25
ATOM     25  O   UNL     1       5.991   7.277  -5.078  1.00  0.00    -0.507 OA
ATOM     26  H   UNL     1       5.242   7.860  -5.421  1.00  0.00     0.293 HD
ENDBRANCH   7  25
TORSDOF 6
ENDMDL
MODEL 5
REMARK VINA RESULT:    -5.031     15.489     16.790
REMARK INTER + INTRA:          -6.195
REMARK INTER:                  -5.875
REMARK INTRA:                  -0.320
REMARK UNBOUND:                -0.135
REMARK SMILES Oc1cc(O)c2cc(O)c(-c3ccc(O)c(O)c3)[o+]c2c1
REMARK SMILES IDX 10 1 19 2 20 3 21 4 2 5 3 6 4 7 6 8 7 9 8 10 11 11 12 12
REMARK SMILES IDX 13 13 14 14 18 15 16 16 15 17 17 19 9 21 1 23 5 25
REMARK H PARENT 15 18 17 20 9 22 1 24 5 26
REMARK Flexibility Score: inf
ROOT
ATOM      1  C   UNL     1      -4.257  -7.523   7.173  1.00  0.00     0.402 A 
ATOM      2  O   UNL     1      -4.342  -6.196   7.102  1.00  0.00    -0.202 OA
ATOM      3  C   UNL     1      -5.361  -5.503   7.599  1.00  0.00     0.368 A 
ATOM      4  C   UNL     1      -5.362  -4.112   7.473  1.00  0.00     0.162 A 
ATOM      5  C   UNL     1      -6.423  -3.358   7.983  1.00  0.00     0.128 A 
ATOM      6  C   UNL     1      -7.488  -3.998   8.621  1.00  0.00     0.093 A 
ATOM      7  C   UNL     1      -7.510  -5.391   8.760  1.00  0.00     0.136 A 
ATOM      8  C   UNL     1      -6.435  -6.161   8.246  1.00  0.00     0.125 A 
ATOM      9  C   UNL     1      -6.367  -7.560   8.352  1.00  0.00     0.078 A 
ATOM     10  C   UNL     1      -5.271  -8.250   7.824  1.00  0.00     0.223 A 
ENDROOT
BRANCH   1  11
ATOM     11  C   UNL     1      -3.075  -8.182   6.573  1.00  0.00     0.087 A 
ATOM     12  C   UNL     1      -1.988  -8.597   7.362  1.00  0.00     0.022 A 
ATOM     13  C   UNL     1      -0.895  -9.239   6.776  1.00  0.00     0.051 A 
ATOM     14  C   UNL     1      -0.875  -9.486   5.397  1.00  0.00     0.157 A 
ATOM     15  C   UNL     1      -3.060  -8.452   5.195  1.00  0.00     0.068 A 
ATOM     16  C   UNL     1      -1.966  -9.094   4.604  1.00  0.00     0.158 A 
BRANCH  14  17
ATOM     17  O   UNL     1       0.219 -10.125   4.815  1.00  0.00    -0.504 OA
ATOM     18  H   UNL     1       1.134  -9.691   4.788  1.00  0.00     0.293 HD
ENDBRANCH  14  17
BRANCH  16  19
ATOM     19  O   UNL     1      -1.981  -9.332   3.230  1.00  0.00    -0.504 OA
ATOM     20  H   UNL     1      -1.171  -9.164   2.646  1.00  0.00     0.293 HD
ENDBRANCH  16  19
ENDBRANCH   1  11
BRANCH  10  21
ATOM     21  O   UNL     1      -5.179  -9.634   7.973  1.00  0.00    -0.500 OA
ATOM     22  H   UNL     1      -5.799 -10.146   8.589  1.00  0.00     0.294 HD
ENDBRANCH  10  21
BRANCH   5  23
ATOM     23  O   UNL     1      -6.430  -1.969   7.861  1.00  0.00    -0.507 OA
ATOM     24  H   UNL     1      -6.099  -1.510   7.021  1.00  0.00     0.293 HD
ENDBRANCH   5  23
BRANCH   7  25
ATOM     25  O   UNL     1      -8.613  -5.955   9.408  1.00  0.00    -0.507 OA
ATOM     26  H   UNL     1      -9.556  -5.940   9.048  1.00  0.00     0.293 HD
ENDBRANCH   7  25
TORSDOF 6
ENDMDL
MODEL 6
REMARK VINA RESULT:    -4.952     16.557     19.172
REMARK INTER + INTRA:          -6.099
REMARK INTER:                  -5.770
REMARK INTRA:                  -0.329
REMARK UNBOUND:                -0.135
REMARK SMILES Oc1cc(O)c2cc(O)c(-c3ccc(O)c(O)c3)[o+]c2c1
REMARK SMILES IDX 10 1 19 2 20 3 21 4 2 5 3 6 4 7 6 8 7 9 8 10 11 11 12 12
REMARK SMILES IDX 13 13 14 14 18 15 16 16 15 17 17 19 9 21 1 23 5 25
REMARK H PARENT 15 18 17 20 9 22 1 24 5 26
REMARK Flexibility Score: inf
ROOT
ATOM      1  C   UNL     1       6.411   3.272  -7.569  1.00  0.00     0.402 A 
ATOM      2  O   UNL     1       6.782   2.287  -6.754  1.00  0.00    -0.202 OA
ATOM      3  C   UNL     1       6.436   1.017  -6.941  1.00  0.00     0.368 A 
ATOM      4  C   UNL     1       6.871   0.053  -6.028  1.00  0.00     0.162 A 
ATOM      5  C   UNL     1       6.520  -1.290  -6.199  1.00  0.00     0.128 A 
ATOM      6  C   UNL     1       5.728  -1.668  -7.285  1.00  0.00     0.093 A 
ATOM      7  C   UNL     1       5.279  -0.722  -8.214  1.00  0.00     0.136 A 
ATOM      8  C   UNL     1       5.635   0.642  -8.047  1.00  0.00     0.125 A 
ATOM      9  C   UNL     1       5.242   1.657  -8.935  1.00  0.00     0.078 A 
ATOM     10  C   UNL     1       5.636   2.979  -8.706  1.00  0.00     0.223 A 
ENDROOT
BRANCH   1  11
ATOM     11  C   UNL     1       6.853   4.649  -7.249  1.00  0.00     0.087 A 
ATOM     12  C   UNL     1       7.979   5.219  -7.866  1.00  0.00     0.022 A 
ATOM     13  C   UNL     1       8.362   6.528  -7.566  1.00  0.00     0.051 A 
ATOM     14  C   UNL     1       7.620   7.291  -6.654  1.00  0.00     0.157 A 
ATOM     15  C   UNL     1       6.100   5.425  -6.353  1.00  0.00     0.068 A 
ATOM     16  C   UNL     1       6.481   6.736  -6.049  1.00  0.00     0.158 A 
BRANCH  14  17
ATOM     17  O   UNL     1       8.007   8.597  -6.355  1.00  0.00    -0.504 OA
ATOM     18  H   UNL     1       8.770   8.791  -5.719  1.00  0.00     0.293 HD
ENDBRANCH  14  17
BRANCH  16  19
ATOM     19  O   UNL     1       5.717   7.471  -5.143  1.00  0.00    -0.504 OA
ATOM     20  H   UNL     1       5.849   8.466  -5.010  1.00  0.00     0.293 HD
ENDBRANCH  16  19
ENDBRANCH   1  11
BRANCH  10  21
ATOM     21  O   UNL     1       5.288   3.979  -9.614  1.00  0.00    -0.500 OA
ATOM     22  H   UNL     1       4.516   3.867 -10.261  1.00  0.00     0.294 HD
ENDBRANCH  10  21
BRANCH   5  23
ATOM     23  O   UNL     1       6.951  -2.257  -5.293  1.00  0.00    -0.507 OA
ATOM     24  H   UNL     1       6.736  -2.190  -4.305  1.00  0.00     0.293 HD
ENDBRANCH   5  23
BRANCH   7  25
ATOM     25  O   UNL     1       4.489  -1.182  -9.271  1.00  0.00    -0.507 OA
ATOM     26  H   UNL     1       4.740  -1.105 -10.246  1.00  0.00     0.293 HD
ENDBRANCH   7  25
TORSDOF 6
ENDMDL
MODEL 7
REMARK VINA RESULT:    -4.911     16.389     19.021
REMARK INTER + INTRA:          -6.050
REMARK INTER:                  -5.697
REMARK INTRA:                  -0.353
REMARK UNBOUND:                -0.135
REMARK SMILES Oc1cc(O)c2cc(O)c(-c3ccc(O)c(O)c3)[o+]c2c1
REMARK SMILES IDX 10 1 19 2 20 3 21 4 2 5 3 6 4 7 6 8 7 9 8 10 11 11 12 12
REMARK SMILES IDX 13 13 14 14 18 15 16 16 15 17 17 19 9 21 1 23 5 25
REMARK H PARENT 15 18 17 20 9 22 1 24 5 26
REMARK Flexibility Score: inf
ROOT
ATOM      1  C   UNL     1       6.177   3.675  -6.862  1.00  0.00     0.402 A 
ATOM      2  O   UNL     1       7.328   3.066  -7.138  1.00  0.00    -0.202 OA
ATOM      3  C   UNL     1       7.461   1.745  -7.188  1.00  0.00     0.368 A 
ATOM      4  C   UNL     1       8.712   1.198  -7.484  1.00  0.00     0.162 A 
ATOM      5  C   UNL     1       8.880  -0.189  -7.541  1.00  0.00     0.128 A 
ATOM      6  C   UNL     1       7.793  -1.032  -7.298  1.00  0.00     0.093 A 
ATOM      7  C   UNL     1       6.529  -0.508  -7.000  1.00  0.00     0.136 A 
ATOM      8  C   UNL     1       6.352   0.898  -6.945  1.00  0.00     0.125 A 
ATOM      9  C   UNL     1       5.119   1.511  -6.666  1.00  0.00     0.078 A 
ATOM     10  C   UNL     1       5.021   2.906  -6.632  1.00  0.00     0.223 A 
ENDROOT
BRANCH   1  11
ATOM     11  C   UNL     1       6.159   5.156  -6.826  1.00  0.00     0.087 A 
ATOM     12  C   UNL     1       6.373   5.862  -5.629  1.00  0.00     0.022 A 
ATOM     13  C   UNL     1       6.375   7.259  -5.625  1.00  0.00     0.051 A 
ATOM     14  C   UNL     1       6.176   7.970  -6.815  1.00  0.00     0.157 A 
ATOM     15  C   UNL     1       5.981   5.874  -8.019  1.00  0.00     0.068 A 
ATOM     16  C   UNL     1       5.982   7.273  -8.018  1.00  0.00     0.158 A 
BRANCH  14  17
ATOM     17  O   UNL     1       6.177   9.364  -6.806  1.00  0.00    -0.504 OA
ATOM     18  H   UNL     1       5.324   9.896  -6.935  1.00  0.00     0.293 HD
ENDBRANCH  14  17
BRANCH  16  19
ATOM     19  O   UNL     1       5.788   7.951  -9.221  1.00  0.00    -0.504 OA
ATOM     20  H   UNL     1       6.536   8.080  -9.893  1.00  0.00     0.293 HD
ENDBRANCH  16  19
ENDBRANCH   1  11
BRANCH  10  21
ATOM     21  O   UNL     1       3.787   3.515  -6.406  1.00  0.00    -0.500 OA
ATOM     22  H   UNL     1       3.562   4.424  -6.794  1.00  0.00     0.294 HD
ENDBRANCH  10  21
BRANCH   5  23
ATOM     23  O   UNL     1      10.125  -0.741  -7.835  1.00  0.00    -0.507 OA
ATOM     24  H   UNL     1      10.715  -0.358  -8.565  1.00  0.00     0.293 HD
ENDBRANCH   5  23
BRANCH   7  25
ATOM     25  O   UNL     1       5.494  -1.419  -6.768  1.00  0.00    -0.507 OA
ATOM     26  H   UNL     1       4.974  -1.483  -5.906  1.00  0.00     0.293 HD
ENDBRANCH   7  25
TORSDOF 6
ENDMDL
MODEL 8
REMARK VINA RESULT:    -4.799     15.607     16.988
REMARK INTER + INTRA:          -5.916
REMARK INTER:                  -5.591
REMARK INTRA:                  -0.324
REMARK UNBOUND:                -0.135
REMARK SMILES Oc1cc(O)c2cc(O)c(-c3ccc(O)c(O)c3)[o+]c2c1
REMARK SMILES IDX 10 1 19 2 20 3 21 4 2 5 3 6 4 7 6 8 7 9 8 10 11 11 12 12
REMARK SMILES IDX 13 13 14 14 18 15 16 16 15 17 17 19 9 21 1 23 5 25
REMARK H PARENT 15 18 17 20 9 22 1 24 5 26
REMARK Flexibility Score: inf
ROOT
ATOM      1  C   UNL     1      -4.310  -7.607   7.116  1.00  0.00     0.402 A 
ATOM      2  O   UNL     1      -4.326  -6.277   7.167  1.00  0.00    -0.202 OA
ATOM      3  C   UNL     1      -5.405  -5.572   7.490  1.00  0.00     0.368 A 
ATOM      4  C   UNL     1      -5.325  -4.177   7.514  1.00  0.00     0.162 A 
ATOM      5  C   UNL     1      -6.446  -3.411   7.847  1.00  0.00     0.128 A 
ATOM      6  C   UNL     1      -7.653  -4.042   8.155  1.00  0.00     0.093 A 
ATOM      7  C   UNL     1      -7.760  -5.438   8.138  1.00  0.00     0.136 A 
ATOM      8  C   UNL     1      -6.624  -6.221   7.804  1.00  0.00     0.125 A 
ATOM      9  C   UNL     1      -6.636  -7.625   7.774  1.00  0.00     0.078 A 
ATOM     10  C   UNL     1      -5.474  -8.328   7.439  1.00  0.00     0.223 A 
ENDROOT
BRANCH   1  11
ATOM     11  C   UNL     1      -3.047  -8.278   6.733  1.00  0.00     0.087 A 
ATOM     12  C   UNL     1      -2.858  -8.803   5.443  1.00  0.00     0.022 A 
ATOM     13  C   UNL     1      -1.648  -9.411   5.099  1.00  0.00     0.051 A 
ATOM     14  C   UNL     1      -0.606  -9.492   6.032  1.00  0.00     0.157 A 
ATOM     15  C   UNL     1      -1.992  -8.343   7.658  1.00  0.00     0.068 A 
ATOM     16  C   UNL     1      -0.780  -8.952   7.317  1.00  0.00     0.158 A 
BRANCH  14  17
ATOM     17  O   UNL     1       0.599 -10.101   5.686  1.00  0.00    -0.504 OA
ATOM     18  H   UNL     1       1.045  -9.926   4.793  1.00  0.00     0.293 HD
ENDBRANCH  14  17
BRANCH  16  19
ATOM     19  O   UNL     1       0.240  -9.010   8.267  1.00  0.00    -0.504 OA
ATOM     20  H   UNL     1       0.615  -8.177   8.704  1.00  0.00     0.293 HD
ENDBRANCH  16  19
ENDBRANCH   1  11
BRANCH  10  21
ATOM     21  O   UNL     1      -5.472  -9.723   7.459  1.00  0.00    -0.500 OA
ATOM     22  H   UNL     1      -4.662 -10.259   7.169  1.00  0.00     0.294 HD
ENDBRANCH  10  21
BRANCH   5  23
ATOM     23  O   UNL     1      -6.371  -2.019   7.873  1.00  0.00    -0.507 OA
ATOM     24  H   UNL     1      -6.161  -1.517   8.727  1.00  0.00     0.293 HD
ENDBRANCH   5  23
BRANCH   7  25
ATOM     25  O   UNL     1      -9.003  -5.992   8.456  1.00  0.00    -0.507 OA
ATOM     26  H   UNL     1      -9.753  -5.488   8.907  1.00  0.00     0.293 HD
ENDBRANCH   7  25
TORSDOF 6
ENDMDL
MODEL 9
REMARK VINA RESULT:    -4.494     12.792     15.124
REMARK INTER + INTRA:          -5.549
REMARK INTER:                  -5.302
REMARK INTRA:                  -0.247
REMARK UNBOUND:                -0.135
REMARK SMILES Oc1cc(O)c2cc(O)c(-c3ccc(O)c(O)c3)[o+]c2c1
REMARK SMILES IDX 10 1 19 2 20 3 21 4 2 5 3 6 4 7 6 8 7 9 8 10 11 11 12 12
REMARK SMILES IDX 13 13 14 14 18 15 16 16 15 17 17 19 9 21 1 23 5 25
REMARK H PARENT 15 18 17 20 9 22 1 24 5 26
REMARK Flexibility Score: inf
ROOT
ATOM      1  C   UNL     1       6.315   8.291  -4.038  1.00  0.00     0.402 A 
ATOM      2  O   UNL     1       7.330   7.962  -3.243  1.00  0.00    -0.202 OA
ATOM      3  C   UNL     1       7.389   8.298  -1.958  1.00  0.00     0.368 A 
ATOM      4  C   UNL     1       8.499   7.909  -1.204  1.00  0.00     0.162 A 
ATOM      5  C   UNL     1       8.588   8.252   0.149  1.00  0.00     0.128 A 
ATOM      6  C   UNL     1       7.564   8.988   0.748  1.00  0.00     0.093 A 
ATOM      7  C   UNL     1       6.441   9.389   0.015  1.00  0.00     0.136 A 
ATOM      8  C   UNL     1       6.344   9.042  -1.358  1.00  0.00     0.125 A 
ATOM      9  C   UNL     1       5.250   9.390  -2.167  1.00  0.00     0.078 A 
ATOM     10  C   UNL     1       5.224   9.008  -3.512  1.00  0.00     0.223 A 
ENDROOT
BRANCH   1  11
ATOM     11  C   UNL     1       6.369   7.866  -5.456  1.00  0.00     0.087 A 
ATOM     12  C   UNL     1       6.473   8.804  -6.498  1.00  0.00     0.022 A 
ATOM     13  C   UNL     1       6.547   8.378  -7.826  1.00  0.00     0.051 A 
ATOM     14  C   UNL     1       6.531   7.011  -8.132  1.00  0.00     0.157 A 
ATOM     15  C   UNL     1       6.376   6.497  -5.767  1.00  0.00     0.068 A 
ATOM     16  C   UNL     1       6.449   6.067  -7.096  1.00  0.00     0.158 A 
BRANCH  14  17
ATOM     17  O   UNL     1       6.603   6.589  -9.459  1.00  0.00    -0.504 OA
ATOM     18  H   UNL     1       5.825   6.126  -9.912  1.00  0.00     0.293 HD
ENDBRANCH  14  17
BRANCH  16  19
ATOM     19  O   UNL     1       6.438   4.699  -7.367  1.00  0.00    -0.504 OA
ATOM     20  H   UNL     1       7.025   4.046  -6.862  1.00  0.00     0.293 HD
ENDBRANCH  16  19
ENDBRANCH   1  11
BRANCH  10  21
ATOM     21  O   UNL     1       4.116   9.310  -4.303  1.00  0.00    -0.500 OA
ATOM     22  H   UNL     1       3.861  10.266  -4.521  1.00  0.00     0.294 HD
ENDBRANCH  10  21
BRANCH   5  23
ATOM     23  O   UNL     1       9.692   7.866   0.906  1.00  0.00    -0.507 OA
ATOM     24  H   UNL     1       9.594   7.556   1.866  1.00  0.00     0.293 HD
ENDBRANCH   5  23
BRANCH   7  25
ATOM     25  O   UNL     1       5.462  10.125   0.688  1.00  0.00    -0.507 OA
ATOM     26  H   UNL     1       4.712  10.625   0.234  1.00  0.00     0.293 HD
ENDBRANCH   7  25
TORSDOF 6
ENDMDL
