MODEL 1
REMARK VINA RESULT:    -2.246      0.000      0.000
REMARK INTER + INTRA:          -2.246
REMARK INTER:                  -2.246
REMARK INTRA:                   0.000
REMARK UNBOUND:                 0.000
REMARK SMILES CC(=O)[O-]
REMARK SMILES IDX 1 1 2 2 3 3 4 4
REMARK H PARENT
REMARK Flexibility Score: inf
ROOT
ATOM      1  C   UNL     1      23.554 -26.800  19.978  1.00  0.00     0.063 C 
ATOM      2  C   UNL     1      22.916 -25.474  19.739  1.00  0.00     0.038 C 
ATOM      3  O   UNL     1      21.678 -25.328  19.914  1.00  0.00    -0.550 OA
ATOM      4  O   UNL     1      23.695 -24.382  19.376  1.00  0.00    -0.550 OA
ENDROOT
TORSDOF 0
ENDMDL
MODEL 2
REMARK VINA RESULT:    -2.236      1.415      1.755
REMARK INTER + INTRA:          -2.236
REMARK INTER:                  -2.236
REMARK INTRA:                   0.000
REMARK UNBOUND:                 0.000
REMARK SMILES CC(=O)[O-]
REMARK SMILES IDX 1 1 2 2 3 3 4 4
REMARK H PARENT
REMARK Flexibility Score: inf
ROOT
ATOM      1  C   UNL     1      23.849 -24.251  19.685  1.00  0.00     0.063 C 
ATOM      2  C   UNL     1      23.005 -25.476  19.772  1.00  0.00     0.038 C 
ATOM      3  O   UNL     1      21.754 -25.375  19.882  1.00  0.00    -0.550 OA
ATOM      4  O   UNL     1      23.589 -26.733  19.678  1.00  0.00    -0.550 OA
ENDROOT
TORSDOF 0
ENDMDL
MODEL 3
REMARK VINA RESULT:    -2.177      1.394      1.668
REMARK INTER + INTRA:          -2.177
REMARK INTER:                  -2.177
REMARK INTRA:                   0.000
REMARK UNBOUND:                 0.000
REMARK SMILES CC(=O)[O-]
REMARK SMILES IDX 1 1 2 2 3 3 4 4
REMARK H PARENT
REMARK Flexibility Score: inf
ROOT
ATOM      1  C   UNL     1      21.684 -25.410  20.139  1.00  0.00     0.063 C 
ATOM      2  C   UNL     1      23.081 -25.481  19.624  1.00  0.00     0.038 C 
ATOM      3  O   UNL     1      23.608 -26.598  19.378  1.00  0.00    -0.550 OA
ATOM      4  O   UNL     1      23.787 -24.313  19.363  1.00  0.00    -0.550 OA
ENDROOT
TORSDOF 0
ENDMDL
MODEL 4
REMARK VINA RESULT:    -2.169     11.208     11.717
REMARK INTER + INTRA:          -2.169
REMARK INTER:                  -2.169
REMARK INTRA:                   0.000
REMARK UNBOUND:                 0.000
REMARK SMILES CC(=O)[O-]
REMARK SMILES IDX 1 1 2 2 3 3 4 4
REMARK H PARENT
REMARK Flexibility Score: inf
ROOT
ATOM      1  C   UNL     1      11.335 -28.494  23.367  1.00  0.00     0.063 C 
ATOM      2  C   UNL     1      12.662 -28.648  24.026  1.00  0.00     0.038 C 
ATOM      3  O   UNL     1      13.095 -29.796  24.313  1.00  0.00    -0.550 OA
ATOM      4  O   UNL     1      13.450 -27.533  24.277  1.00  0.00    -0.550 OA
ENDROOT
TORSDOF 0
ENDMDL
MODEL 5
REMARK VINA RESULT:    -2.152     12.064     12.285
REMARK INTER + INTRA:          -2.152
REMARK INTER:                  -2.152
REMARK INTRA:                   0.000
REMARK UNBOUND:                 0.000
REMARK SMILES CC(=O)[O-]
REMARK SMILES IDX 1 1 2 2 3 3 4 4
REMARK H PARENT
REMARK Flexibility Score: inf
ROOT
ATOM      1  C   UNL     1      12.696 -28.782  24.256  1.00  0.00     0.063 C 
ATOM      2  C   UNL     1      11.778 -29.087  23.122  1.00  0.00     0.038 C 
ATOM      3  O   UNL     1      10.876 -28.269  22.802  1.00  0.00    -0.550 OA
ATOM      4  O   UNL     1      11.950 -30.248  22.380  1.00  0.00    -0.550 OA
ENDROOT
TORSDOF 0
ENDMDL
MODEL 6
REMARK VINA RESULT:    -2.130     11.115     11.674
REMARK INTER + INTRA:          -2.130
REMARK INTER:                  -2.130
REMARK INTRA:                   0.000
REMARK UNBOUND:                 0.000
REMARK SMILES CC(=O)[O-]
REMARK SMILES IDX 1 1 2 2 3 3 4 4
REMARK H PARENT
REMARK Flexibility Score: inf
ROOT
ATOM      1  C   UNL     1      13.351 -30.008  24.030  1.00  0.00     0.063 C 
ATOM      2  C   UNL     1      12.711 -28.662  24.050  1.00  0.00     0.038 C 
ATOM      3  O   UNL     1      13.408 -27.635  24.267  1.00  0.00    -0.550 OA
ATOM      4  O   UNL     1      11.356 -28.530  23.777  1.00  0.00    -0.550 OA
ENDROOT
TORSDOF 0
ENDMDL
MODEL 7
REMARK VINA RESULT:    -2.114      1.312      1.859
REMARK INTER + INTRA:          -2.114
REMARK INTER:                  -2.114
REMARK INTRA:                   0.000
REMARK UNBOUND:                 0.000
REMARK SMILES CC(=O)[O-]
REMARK SMILES IDX 1 1 2 2 3 3 4 4
REMARK H PARENT
REMARK Flexibility Score: inf
ROOT
ATOM      1  C   UNL     1      23.242 -26.146  19.869  1.00  0.00     0.063 C 
ATOM      2  C   UNL     1      23.507 -24.705  20.144  1.00  0.00     0.038 C 
ATOM      3  O   UNL     1      24.060 -23.987  19.270  1.00  0.00    -0.550 OA
ATOM      4  O   UNL     1      23.095 -24.138  21.343  1.00  0.00    -0.550 OA
ENDROOT
TORSDOF 0
ENDMDL
MODEL 8
REMARK VINA RESULT:    -2.093     18.414     18.697
REMARK INTER + INTRA:          -2.093
REMARK INTER:                  -2.093
REMARK INTRA:                   0.000
REMARK UNBOUND:                 0.000
REMARK SMILES CC(=O)[O-]
REMARK SMILES IDX 1 1 2 2 3 3 4 4
REMARK H PARENT
REMARK Flexibility Score: inf
ROOT
ATOM      1  C   UNL     1      23.964 -36.599  33.774  1.00  0.00     0.063 C 
ATOM      2  C   UNL     1      23.132 -36.268  34.966  1.00  0.00     0.038 C 
ATOM      3  O   UNL     1      23.649 -35.680  35.953  1.00  0.00    -0.550 OA
ATOM      4  O   UNL     1      21.774 -36.558  34.971  1.00  0.00    -0.550 OA
ENDROOT
TORSDOF 0
ENDMDL
MODEL 9
REMARK VINA RESULT:    -2.070     11.607     11.807
REMARK INTER + INTRA:          -2.070
REMARK INTER:                  -2.070
REMARK INTRA:                   0.000
REMARK UNBOUND:                 0.000
REMARK SMILES CC(=O)[O-]
REMARK SMILES IDX 1 1 2 2 3 3 4 4
REMARK H PARENT
REMARK Flexibility Score: inf
ROOT
ATOM      1  C   UNL     1      12.687 -28.638  24.098  1.00  0.00     0.063 C 
ATOM      2  C   UNL     1      12.984 -30.000  23.570  1.00  0.00     0.038 C 
ATOM      3  O   UNL     1      13.809 -30.742  24.166  1.00  0.00    -0.550 OA
ATOM      4  O   UNL     1      12.313 -30.475  22.451  1.00  0.00    -0.550 OA
ENDROOT
TORSDOF 0
ENDMDL
