MODEL 1
REMARK VINA RESULT:    -3.647      0.000      0.000
REMARK INTER + INTRA:          -7.982
REMARK INTER:                  -7.059
REMARK INTRA:                  -0.923
REMARK UNBOUND:                -0.923
REMARK SMILES CCCCCCCCCCCCCCCCCC(=O)[O-]
REMARK SMILES IDX 10 1 11 2 12 3 13 4 14 5 15 6 16 7 17 8 18 9 19 10 20 11
REMARK SMILES IDX 9 12 8 13 7 14 6 15 5 16 4 17 3 18 2 19 1 20
REMARK H PARENT
REMARK Flexibility Score: inf
ROOT
ATOM      1  C   UNL     1     -31.494 -22.529 -33.799  1.00  0.00     0.000 C 
ENDROOT
BRANCH   1   2
ATOM      2  C   UNL     1     -31.864 -21.037 -33.735  1.00  0.00     0.000 C 
BRANCH   2   3
ATOM      3  C   UNL     1     -30.677 -20.085 -33.499  1.00  0.00     0.000 C 
BRANCH   3   4
ATOM      4  C   UNL     1     -29.410 -20.812 -33.023  1.00  0.00     0.000 C 
BRANCH   4   5
ATOM      5  C   UNL     1     -28.559 -19.904 -32.128  1.00  0.00     0.000 C 
BRANCH   5   6
ATOM      6  C   UNL     1     -28.957 -20.056 -30.653  1.00  0.00     0.000 C 
BRANCH   6   7
ATOM      7  C   UNL     1     -30.467 -19.875 -30.413  1.00  0.00     0.006 C 
BRANCH   7   8
ATOM      8  C   UNL     1     -31.133 -21.066 -29.699  1.00  0.00     0.053 C 
BRANCH   8   9
ATOM      9  C   UNL     1     -30.295 -22.308 -29.739  1.00  0.00     0.041 C 
ATOM     10  O   UNL     1     -30.347 -23.078 -30.733  1.00  0.00    -0.550 OA
ATOM     11  O   UNL     1     -29.480 -22.631 -28.661  1.00  0.00    -0.550 OA
ENDBRANCH   8   9
ENDBRANCH   7   8
ENDBRANCH   6   7
ENDBRANCH   5   6
ENDBRANCH   4   5
ENDBRANCH   3   4
ENDBRANCH   2   3
ENDBRANCH   1   2
BRANCH   1  12
ATOM     12  C   UNL     1     -31.499 -23.087 -35.233  1.00  0.00     0.000 C 
BRANCH  12  13
ATOM     13  C   UNL     1     -32.915 -23.203 -35.817  1.00  0.00    -0.000 C 
BRANCH  13  14
ATOM     14  C   UNL     1     -32.947 -22.976 -37.336  1.00  0.00    -0.000 C 
BRANCH  14  15
ATOM     15  C   UNL     1     -31.537 -23.051 -37.933  1.00  0.00    -0.000 C 
BRANCH  15  16
ATOM     16  C   UNL     1     -31.426 -24.202 -38.942  1.00  0.00    -0.000 C 
BRANCH  16  17
ATOM     17  C   UNL     1     -31.547 -25.590 -38.285  1.00  0.00    -0.000 C 
BRANCH  17  18
ATOM     18  C   UNL     1     -32.548 -26.545 -38.962  1.00  0.00    -0.000 C 
BRANCH  18  19
ATOM     19  C   UNL     1     -33.047 -27.653 -38.023  1.00  0.00    -0.003 C 
ATOM     20  C   UNL     1     -33.701 -28.785 -38.808  1.00  0.00     0.004 C 
ENDBRANCH  18  19
ENDBRANCH  17  18
ENDBRANCH  16  17
ENDBRANCH  15  16
ENDBRANCH  14  15
ENDBRANCH  13  14
ENDBRANCH  12  13
ENDBRANCH   1  12
TORSDOF 16
ENDMDL
MODEL 2
REMARK VINA RESULT:    -3.337      3.048      8.200
REMARK INTER + INTRA:          -7.382
REMARK INTER:                  -6.386
REMARK INTRA:                  -0.996
REMARK UNBOUND:                -0.923
REMARK SMILES CCCCCCCCCCCCCCCCCC(=O)[O-]
REMARK SMILES IDX 10 1 11 2 12 3 13 4 14 5 15 6 16 7 17 8 18 9 19 10 20 11
REMARK SMILES IDX 9 12 8 13 7 14 6 15 5 16 4 17 3 18 2 19 1 20
REMARK H PARENT
REMARK Flexibility Score: inf
ROOT
ATOM      1  C   UNL     1     -31.141 -22.326 -33.847  1.00  0.00     0.000 C 
ENDROOT
BRANCH   1   2
ATOM      2  C   UNL     1     -31.858 -23.029 -35.013  1.00  0.00     0.000 C 
BRANCH   2   3
ATOM      3  C   UNL     1     -33.274 -22.506 -35.313  1.00  0.00     0.000 C 
BRANCH   3   4
ATOM      4  C   UNL     1     -33.354 -21.706 -36.622  1.00  0.00     0.000 C 
BRANCH   4   5
ATOM      5  C   UNL     1     -33.071 -22.603 -37.833  1.00  0.00     0.000 C 
BRANCH   5   6
ATOM      6  C   UNL     1     -31.560 -22.757 -38.063  1.00  0.00     0.000 C 
BRANCH   6   7
ATOM      7  C   UNL     1     -31.192 -24.050 -38.814  1.00  0.00     0.006 C 
BRANCH   7   8
ATOM      8  C   UNL     1     -31.111 -25.295 -37.912  1.00  0.00     0.053 C 
BRANCH   8   9
ATOM      9  C   UNL     1     -32.248 -26.246 -38.134  1.00  0.00     0.041 C 
ATOM     10  O   UNL     1     -32.154 -27.160 -38.995  1.00  0.00    -0.550 OA
ATOM     11  O   UNL     1     -33.427 -26.102 -37.413  1.00  0.00    -0.550 OA
ENDBRANCH   8   9
ENDBRANCH   7   8
ENDBRANCH   6   7
ENDBRANCH   5   6
ENDBRANCH   4   5
ENDBRANCH   3   4
ENDBRANCH   2   3
ENDBRANCH   1   2
BRANCH   1  12
ATOM     12  C   UNL     1     -31.721 -20.934 -33.540  1.00  0.00     0.000 C 
BRANCH  12  13
ATOM     13  C   UNL     1     -30.641 -19.923 -33.125  1.00  0.00    -0.000 C 
BRANCH  13  14
ATOM     14  C   UNL     1     -29.220 -20.416 -33.437  1.00  0.00    -0.000 C 
BRANCH  14  15
ATOM     15  C   UNL     1     -28.214 -19.881 -32.411  1.00  0.00    -0.000 C 
BRANCH  15  16
ATOM     16  C   UNL     1     -28.800 -19.922 -30.992  1.00  0.00    -0.000 C 
BRANCH  16  17
ATOM     17  C   UNL     1     -29.365 -21.304 -30.615  1.00  0.00    -0.000 C 
BRANCH  17  18
ATOM     18  C   UNL     1     -30.650 -21.272 -29.767  1.00  0.00    -0.000 C 
BRANCH  18  19
ATOM     19  C   UNL     1     -31.287 -19.876 -29.699  1.00  0.00    -0.003 C 
ATOM     20  C   UNL     1     -32.726 -19.953 -29.199  1.00  0.00     0.004 C 
ENDBRANCH  18  19
ENDBRANCH  17  18
ENDBRANCH  16  17
ENDBRANCH  15  16
ENDBRANCH  14  15
ENDBRANCH  13  14
ENDBRANCH  12  13
ENDBRANCH   1  12
TORSDOF 16
ENDMDL
MODEL 3
REMARK VINA RESULT:    -3.230      3.640      8.517
REMARK INTER + INTRA:          -7.173
REMARK INTER:                  -6.919
REMARK INTRA:                  -0.254
REMARK UNBOUND:                -0.923
REMARK SMILES CCCCCCCCCCCCCCCCCC(=O)[O-]
REMARK SMILES IDX 10 1 11 2 12 3 13 4 14 5 15 6 16 7 17 8 18 9 19 10 20 11
REMARK SMILES IDX 9 12 8 13 7 14 6 15 5 16 4 17 3 18 2 19 1 20
REMARK H PARENT
REMARK Flexibility Score: inf
ROOT
ATOM      1  C   UNL     1     -31.697 -22.171 -33.903  1.00  0.00     0.000 C 
ENDROOT
BRANCH   1   2
ATOM      2  C   UNL     1     -32.634 -22.860 -34.911  1.00  0.00     0.000 C 
BRANCH   2   3
ATOM      3  C   UNL     1     -32.983 -22.017 -36.151  1.00  0.00     0.000 C 
BRANCH   3   4
ATOM      4  C   UNL     1     -32.358 -22.564 -37.444  1.00  0.00     0.000 C 
BRANCH   4   5
ATOM      5  C   UNL     1     -31.954 -24.034 -37.279  1.00  0.00     0.000 C 
BRANCH   5   6
ATOM      6  C   UNL     1     -31.666 -24.682 -38.642  1.00  0.00     0.000 C 
BRANCH   6   7
ATOM      7  C   UNL     1     -31.536 -26.214 -38.567  1.00  0.00     0.006 C 
BRANCH   7   8
ATOM      8  C   UNL     1     -32.850 -26.967 -38.848  1.00  0.00     0.053 C 
BRANCH   8   9
ATOM      9  C   UNL     1     -32.673 -28.455 -38.858  1.00  0.00     0.041 C 
ATOM     10  O   UNL     1     -33.664 -29.214 -38.691  1.00  0.00    -0.550 OA
ATOM     11  O   UNL     1     -31.407 -29.004 -39.019  1.00  0.00    -0.550 OA
ENDBRANCH   8   9
ENDBRANCH   7   8
ENDBRANCH   6   7
ENDBRANCH   5   6
ENDBRANCH   4   5
ENDBRANCH   3   4
ENDBRANCH   2   3
ENDBRANCH   1   2
BRANCH   1  12
ATOM     12  C   UNL     1     -31.854 -20.641 -33.888  1.00  0.00     0.000 C 
BRANCH  12  13
ATOM     13  C   UNL     1     -30.684 -19.934 -33.188  1.00  0.00    -0.000 C 
BRANCH  13  14
ATOM     14  C   UNL     1     -29.454 -20.841 -33.033  1.00  0.00    -0.000 C 
BRANCH  14  15
ATOM     15  C   UNL     1     -28.362 -20.152 -32.206  1.00  0.00    -0.000 C 
BRANCH  15  16
ATOM     16  C   UNL     1     -28.846 -19.875 -30.776  1.00  0.00    -0.000 C 
BRANCH  16  17
ATOM     17  C   UNL     1     -30.380 -19.917 -30.642  1.00  0.00    -0.000 C 
BRANCH  17  18
ATOM     18  C   UNL     1     -30.926 -21.060 -29.767  1.00  0.00    -0.000 C 
BRANCH  18  19
ATOM     19  C   UNL     1     -30.006 -22.289 -29.746  1.00  0.00    -0.003 C 
ATOM     20  C   UNL     1     -30.568 -23.410 -30.615  1.00  0.00     0.004 C 
ENDBRANCH  18  19
ENDBRANCH  17  18
ENDBRANCH  16  17
ENDBRANCH  15  16
ENDBRANCH  14  15
ENDBRANCH  13  14
ENDBRANCH  12  13
ENDBRANCH   1  12
TORSDOF 16
ENDMDL
MODEL 4
REMARK VINA RESULT:    -3.204      3.701      8.402
REMARK INTER + INTRA:          -7.123
REMARK INTER:                  -6.090
REMARK INTRA:                  -1.033
REMARK UNBOUND:                -0.923
REMARK SMILES CCCCCCCCCCCCCCCCCC(=O)[O-]
REMARK SMILES IDX 10 1 11 2 12 3 13 4 14 5 15 6 16 7 17 8 18 9 19 10 20 11
REMARK SMILES IDX 9 12 8 13 7 14 6 15 5 16 4 17 3 18 2 19 1 20
REMARK H PARENT
REMARK Flexibility Score: inf
ROOT
ATOM      1  C   UNL     1     -32.895 -21.401 -35.089  1.00  0.00     0.000 C 
ENDROOT
BRANCH   1   2
ATOM      2  C   UNL     1     -33.697 -21.486 -36.400  1.00  0.00     0.000 C 
BRANCH   2   3
ATOM      3  C   UNL     1     -33.567 -22.821 -37.155  1.00  0.00     0.000 C 
BRANCH   3   4
ATOM      4  C   UNL     1     -32.925 -23.929 -36.306  1.00  0.00     0.000 C 
BRANCH   4   5
ATOM      5  C   UNL     1     -31.524 -24.275 -36.823  1.00  0.00     0.000 C 
BRANCH   5   6
ATOM      6  C   UNL     1     -31.501 -24.331 -38.358  1.00  0.00     0.000 C 
BRANCH   6   7
ATOM      7  C   UNL     1     -31.596 -25.765 -38.912  1.00  0.00     0.006 C 
BRANCH   7   8
ATOM      8  C   UNL     1     -32.788 -26.569 -38.361  1.00  0.00     0.053 C 
BRANCH   8   9
ATOM      9  C   UNL     1     -32.669 -28.039 -38.631  1.00  0.00     0.041 C 
ATOM     10  O   UNL     1     -33.641 -28.807 -38.409  1.00  0.00    -0.550 OA
ATOM     11  O   UNL     1     -31.471 -28.565 -39.099  1.00  0.00    -0.550 OA
ENDBRANCH   8   9
ENDBRANCH   7   8
ENDBRANCH   6   7
ENDBRANCH   5   6
ENDBRANCH   4   5
ENDBRANCH   3   4
ENDBRANCH   2   3
ENDBRANCH   1   2
BRANCH   1  12
ATOM     12  C   UNL     1     -32.649 -19.954 -34.630  1.00  0.00     0.000 C 
BRANCH  12  13
ATOM     13  C   UNL     1     -31.800 -19.875 -33.352  1.00  0.00    -0.000 C 
BRANCH  13  14
ATOM     14  C   UNL     1     -30.292 -19.880 -33.645  1.00  0.00    -0.000 C 
BRANCH  14  15
ATOM     15  C   UNL     1     -29.625 -21.139 -33.079  1.00  0.00    -0.000 C 
BRANCH  15  16
ATOM     16  C   UNL     1     -30.668 -22.093 -32.480  1.00  0.00    -0.000 C 
BRANCH  16  17
ATOM     17  C   UNL     1     -30.636 -22.127 -30.940  1.00  0.00    -0.000 C 
BRANCH  17  18
ATOM     18  C   UNL     1     -29.911 -20.941 -30.279  1.00  0.00    -0.000 C 
BRANCH  18  19
ATOM     19  C   UNL     1     -30.811 -20.147 -29.320  1.00  0.00    -0.003 C 
ATOM     20  C   UNL     1     -32.175 -19.877 -29.945  1.00  0.00     0.004 C 
ENDBRANCH  18  19
ENDBRANCH  17  18
ENDBRANCH  16  17
ENDBRANCH  15  16
ENDBRANCH  14  15
ENDBRANCH  13  14
ENDBRANCH  12  13
ENDBRANCH   1  12
TORSDOF 16
ENDMDL
MODEL 5
REMARK VINA RESULT:    -2.902      1.076      1.897
REMARK INTER + INTRA:          -6.540
REMARK INTER:                  -5.280
REMARK INTRA:                  -1.260
REMARK UNBOUND:                -0.923
REMARK SMILES CCCCCCCCCCCCCCCCCC(=O)[O-]
REMARK SMILES IDX 10 1 11 2 12 3 13 4 14 5 15 6 16 7 17 8 18 9 19 10 20 11
REMARK SMILES IDX 9 12 8 13 7 14 6 15 5 16 4 17 3 18 2 19 1 20
REMARK H PARENT
REMARK Flexibility Score: inf
ROOT
ATOM      1  C   UNL     1     -31.501 -22.438 -33.855  1.00  0.00     0.000 C 
ENDROOT
BRANCH   1   2
ATOM      2  C   UNL     1     -31.646 -21.101 -33.107  1.00  0.00     0.000 C 
BRANCH   2   3
ATOM      3  C   UNL     1     -30.686 -19.991 -33.572  1.00  0.00     0.000 C 
BRANCH   3   4
ATOM      4  C   UNL     1     -29.250 -20.492 -33.790  1.00  0.00     0.000 C 
BRANCH   4   5
ATOM      5  C   UNL     1     -28.650 -21.027 -32.485  1.00  0.00     0.000 C 
BRANCH   5   6
ATOM      6  C   UNL     1     -28.282 -19.876 -31.536  1.00  0.00     0.000 C 
BRANCH   6   7
ATOM      7  C   UNL     1     -28.761 -20.108 -30.092  1.00  0.00     0.006 C 
BRANCH   7   8
ATOM      8  C   UNL     1     -30.183 -20.691 -29.991  1.00  0.00     0.053 C 
BRANCH   8   9
ATOM      9  C   UNL     1     -30.188 -22.140 -29.606  1.00  0.00     0.041 C 
ATOM     10  O   UNL     1     -29.834 -22.492 -28.450  1.00  0.00    -0.550 OA
ATOM     11  O   UNL     1     -30.554 -23.105 -30.536  1.00  0.00    -0.550 OA
ENDBRANCH   8   9
ENDBRANCH   7   8
ENDBRANCH   6   7
ENDBRANCH   5   6
ENDBRANCH   4   5
ENDBRANCH   3   4
ENDBRANCH   2   3
ENDBRANCH   1   2
BRANCH   1  12
ATOM     12  C   UNL     1     -32.418 -22.538 -35.086  1.00  0.00     0.000 C 
BRANCH  12  13
ATOM     13  C   UNL     1     -33.234 -21.257 -35.320  1.00  0.00    -0.000 C 
BRANCH  13  14
ATOM     14  C   UNL     1     -33.866 -21.209 -36.719  1.00  0.00    -0.000 C 
BRANCH  14  15
ATOM     15  C   UNL     1     -33.594 -22.505 -37.491  1.00  0.00    -0.000 C 
BRANCH  15  16
ATOM     16  C   UNL     1     -32.676 -22.247 -38.695  1.00  0.00    -0.000 C 
BRANCH  16  17
ATOM     17  C   UNL     1     -31.804 -23.464 -39.056  1.00  0.00    -0.000 C 
BRANCH  17  18
ATOM     18  C   UNL     1     -30.962 -24.027 -37.897  1.00  0.00    -0.000 C 
BRANCH  18  19
ATOM     19  C   UNL     1     -30.955 -25.562 -37.853  1.00  0.00    -0.003 C 
ATOM     20  C   UNL     1     -32.169 -26.138 -38.575  1.00  0.00     0.004 C 
ENDBRANCH  18  19
ENDBRANCH  17  18
ENDBRANCH  16  17
ENDBRANCH  15  16
ENDBRANCH  14  15
ENDBRANCH  13  14
ENDBRANCH  12  13
ENDBRANCH   1  12
TORSDOF 16
ENDMDL
MODEL 6
REMARK VINA RESULT:    -2.455      2.850      7.699
REMARK INTER + INTRA:          -5.674
REMARK INTER:                  -4.773
REMARK INTRA:                  -0.901
REMARK UNBOUND:                -0.923
REMARK SMILES CCCCCCCCCCCCCCCCCC(=O)[O-]
REMARK SMILES IDX 10 1 11 2 12 3 13 4 14 5 15 6 16 7 17 8 18 9 19 10 20 11
REMARK SMILES IDX 9 12 8 13 7 14 6 15 5 16 4 17 3 18 2 19 1 20
REMARK H PARENT
REMARK Flexibility Score: inf
ROOT
ATOM      1  C   UNL     1     -31.530 -22.553 -33.657  1.00  0.00     0.000 C 
ENDROOT
BRANCH   1   2
ATOM      2  C   UNL     1     -32.510 -23.004 -34.755  1.00  0.00     0.000 C 
BRANCH   2   3
ATOM      3  C   UNL     1     -33.343 -21.873 -35.384  1.00  0.00     0.000 C 
BRANCH   3   4
ATOM      4  C   UNL     1     -33.881 -22.229 -36.778  1.00  0.00     0.000 C 
BRANCH   4   5
ATOM      5  C   UNL     1     -33.472 -21.174 -37.812  1.00  0.00     0.000 C 
BRANCH   5   6
ATOM      6  C   UNL     1     -33.020 -21.834 -39.123  1.00  0.00     0.000 C 
BRANCH   6   7
ATOM      7  C   UNL     1     -31.714 -22.636 -38.976  1.00  0.00     0.006 C 
BRANCH   7   8
ATOM      8  C   UNL     1     -31.895 -24.158 -39.124  1.00  0.00     0.053 C 
BRANCH   8   9
ATOM      9  C   UNL     1     -31.608 -24.901 -37.855  1.00  0.00     0.041 C 
ATOM     10  O   UNL     1     -30.831 -24.413 -36.993  1.00  0.00    -0.550 OA
ATOM     11  O   UNL     1     -32.173 -26.152 -37.638  1.00  0.00    -0.550 OA
ENDBRANCH   8   9
ENDBRANCH   7   8
ENDBRANCH   6   7
ENDBRANCH   5   6
ENDBRANCH   4   5
ENDBRANCH   3   4
ENDBRANCH   2   3
ENDBRANCH   1   2
BRANCH   1  12
ATOM     12  C   UNL     1     -30.969 -21.142 -33.898  1.00  0.00     0.000 C 
BRANCH  12  13
ATOM     13  C   UNL     1     -29.435 -21.094 -33.815  1.00  0.00    -0.000 C 
BRANCH  13  14
ATOM     14  C   UNL     1     -28.925 -19.875 -33.032  1.00  0.00    -0.000 C 
BRANCH  14  15
ATOM     15  C   UNL     1     -28.388 -20.290 -31.657  1.00  0.00    -0.000 C 
BRANCH  15  16
ATOM     16  C   UNL     1     -29.362 -19.887 -30.540  1.00  0.00    -0.000 C 
BRANCH  16  17
ATOM     17  C   UNL     1     -30.634 -20.754 -30.512  1.00  0.00    -0.000 C 
BRANCH  17  18
ATOM     18  C   UNL     1     -30.448 -22.164 -29.921  1.00  0.00    -0.000 C 
BRANCH  18  19
ATOM     19  C   UNL     1     -30.566 -23.274 -30.975  1.00  0.00    -0.003 C 
ATOM     20  C   UNL     1     -30.886 -24.616 -30.325  1.00  0.00     0.004 C 
ENDBRANCH  18  19
ENDBRANCH  17  18
ENDBRANCH  16  17
ENDBRANCH  15  16
ENDBRANCH  14  15
ENDBRANCH  13  14
ENDBRANCH  12  13
ENDBRANCH   1  12
TORSDOF 16
ENDMDL
MODEL 7
REMARK VINA RESULT:    -1.512      1.591      1.924
REMARK INTER + INTRA:          -3.849
REMARK INTER:                  -3.135
REMARK INTRA:                  -0.714
REMARK UNBOUND:                -0.923
REMARK SMILES CCCCCCCCCCCCCCCCCC(=O)[O-]
REMARK SMILES IDX 10 1 11 2 12 3 13 4 14 5 15 6 16 7 17 8 18 9 19 10 20 11
REMARK SMILES IDX 9 12 8 13 7 14 6 15 5 16 4 17 3 18 2 19 1 20
REMARK H PARENT
REMARK Flexibility Score: inf
ROOT
ATOM      1  C   UNL     1     -30.864 -22.413 -32.722  1.00  0.00     0.000 C 
ENDROOT
BRANCH   1   2
ATOM      2  C   UNL     1     -30.956 -20.950 -33.191  1.00  0.00     0.000 C 
BRANCH   2   3
ATOM      3  C   UNL     1     -29.608 -20.294 -33.536  1.00  0.00     0.000 C 
BRANCH   3   4
ATOM      4  C   UNL     1     -28.546 -20.494 -32.444  1.00  0.00     0.000 C 
BRANCH   4   5
ATOM      5  C   UNL     1     -29.013 -19.904 -31.109  1.00  0.00     0.000 C 
BRANCH   5   6
ATOM      6  C   UNL     1     -28.923 -20.948 -29.985  1.00  0.00     0.000 C 
BRANCH   6   7
ATOM      7  C   UNL     1     -30.272 -21.626 -29.681  1.00  0.00     0.006 C 
BRANCH   7   8
ATOM      8  C   UNL     1     -31.185 -20.810 -28.748  1.00  0.00     0.053 C 
BRANCH   8   9
ATOM      9  C   UNL     1     -32.341 -20.185 -29.470  1.00  0.00     0.041 C 
ATOM     10  O   UNL     1     -32.239 -19.876 -30.686  1.00  0.00    -0.550 OA
ATOM     11  O   UNL     1     -33.521 -19.914 -28.789  1.00  0.00    -0.550 OA
ENDBRANCH   8   9
ENDBRANCH   7   8
ENDBRANCH   6   7
ENDBRANCH   5   6
ENDBRANCH   4   5
ENDBRANCH   3   4
ENDBRANCH   2   3
ENDBRANCH   1   2
BRANCH   1  12
ATOM     12  C   UNL     1     -31.611 -23.388 -33.648  1.00  0.00     0.000 C 
BRANCH  12  13
ATOM     13  C   UNL     1     -31.545 -22.968 -35.125  1.00  0.00    -0.000 C 
BRANCH  13  14
ATOM     14  C   UNL     1     -32.936 -22.751 -35.739  1.00  0.00    -0.000 C 
BRANCH  14  15
ATOM     15  C   UNL     1     -32.988 -23.270 -37.180  1.00  0.00    -0.000 C 
BRANCH  15  16
ATOM     16  C   UNL     1     -31.592 -23.679 -37.670  1.00  0.00    -0.000 C 
BRANCH  16  17
ATOM     17  C   UNL     1     -31.603 -24.973 -38.505  1.00  0.00    -0.000 C 
BRANCH  17  18
ATOM     18  C   UNL     1     -32.431 -26.126 -37.906  1.00  0.00    -0.000 C 
BRANCH  18  19
ATOM     19  C   UNL     1     -32.519 -27.344 -38.837  1.00  0.00    -0.003 C 
ATOM     20  C   UNL     1     -33.788 -28.148 -38.570  1.00  0.00     0.004 C 
ENDBRANCH  18  19
ENDBRANCH  17  18
ENDBRANCH  16  17
ENDBRANCH  15  16
ENDBRANCH  14  15
ENDBRANCH  13  14
ENDBRANCH  12  13
ENDBRANCH   1  12
TORSDOF 16
ENDMDL
MODEL 8
REMARK VINA RESULT:    -1.490      1.556      2.186
REMARK INTER + INTRA:          -3.806
REMARK INTER:                  -3.941
REMARK INTRA:                   0.135
REMARK UNBOUND:                -0.923
REMARK SMILES CCCCCCCCCCCCCCCCCC(=O)[O-]
REMARK SMILES IDX 10 1 11 2 12 3 13 4 14 5 15 6 16 7 17 8 18 9 19 10 20 11
REMARK SMILES IDX 9 12 8 13 7 14 6 15 5 16 4 17 3 18 2 19 1 20
REMARK H PARENT
REMARK Flexibility Score: inf
ROOT
ATOM      1  C   UNL     1     -32.169 -20.395 -34.640  1.00  0.00     0.000 C 
ENDROOT
BRANCH   1   2
ATOM      2  C   UNL     1     -32.010 -19.993 -33.163  1.00  0.00     0.000 C 
BRANCH   2   3
ATOM      3  C   UNL     1     -30.554 -19.884 -32.674  1.00  0.00     0.000 C 
BRANCH   3   4
ATOM      4  C   UNL     1     -29.639 -20.964 -33.271  1.00  0.00     0.000 C 
BRANCH   4   5
ATOM      5  C   UNL     1     -30.162 -22.368 -32.949  1.00  0.00     0.000 C 
BRANCH   5   6
ATOM      6  C   UNL     1     -31.025 -22.356 -31.678  1.00  0.00     0.000 C 
BRANCH   6   7
ATOM      7  C   UNL     1     -30.384 -23.118 -30.504  1.00  0.00     0.006 C 
BRANCH   7   8
ATOM      8  C   UNL     1     -29.686 -22.210 -29.475  1.00  0.00     0.053 C 
BRANCH   8   9
ATOM      9  C   UNL     1     -30.096 -20.773 -29.600  1.00  0.00     0.041 C 
ATOM     10  O   UNL     1     -29.242 -19.890 -29.872  1.00  0.00    -0.550 OA
ATOM     11  O   UNL     1     -31.418 -20.406 -29.381  1.00  0.00    -0.550 OA
ENDBRANCH   8   9
ENDBRANCH   7   8
ENDBRANCH   6   7
ENDBRANCH   5   6
ENDBRANCH   4   5
ENDBRANCH   3   4
ENDBRANCH   2   3
ENDBRANCH   1   2
BRANCH   1  12
ATOM     12  C   UNL     1     -33.640 -20.480 -35.083  1.00  0.00     0.000 C 
BRANCH  12  13
ATOM     13  C   UNL     1     -33.814 -21.226 -36.415  1.00  0.00    -0.000 C 
BRANCH  13  14
ATOM     14  C   UNL     1     -33.624 -22.743 -36.270  1.00  0.00    -0.000 C 
BRANCH  14  15
ATOM     15  C   UNL     1     -32.896 -23.325 -37.488  1.00  0.00    -0.000 C 
BRANCH  15  16
ATOM     16  C   UNL     1     -31.496 -23.827 -37.105  1.00  0.00    -0.000 C 
BRANCH  16  17
ATOM     17  C   UNL     1     -30.972 -24.924 -38.050  1.00  0.00    -0.000 C 
BRANCH  17  18
ATOM     18  C   UNL     1     -32.053 -25.628 -38.891  1.00  0.00    -0.000 C 
BRANCH  18  19
ATOM     19  C   UNL     1     -32.524 -26.953 -38.272  1.00  0.00    -0.003 C 
ATOM     20  C   UNL     1     -31.997 -28.146 -39.062  1.00  0.00     0.004 C 
ENDBRANCH  18  19
ENDBRANCH  17  18
ENDBRANCH  16  17
ENDBRANCH  15  16
ENDBRANCH  14  15
ENDBRANCH  13  14
ENDBRANCH  12  13
ENDBRANCH   1  12
TORSDOF 16
ENDMDL
MODEL 9
REMARK VINA RESULT:    -0.824      3.581      8.882
REMARK INTER + INTRA:          -2.517
REMARK INTER:                  -1.766
REMARK INTRA:                  -0.750
REMARK UNBOUND:                -0.923
REMARK SMILES CCCCCCCCCCCCCCCCCC(=O)[O-]
REMARK SMILES IDX 10 1 11 2 12 3 13 4 14 5 15 6 16 7 17 8 18 9 19 10 20 11
REMARK SMILES IDX 9 12 8 13 7 14 6 15 5 16 4 17 3 18 2 19 1 20
REMARK H PARENT
REMARK Flexibility Score: inf
ROOT
ATOM      1  C   UNL     1     -32.888 -21.222 -34.711  1.00  0.00     0.000 C 
ENDROOT
BRANCH   1   2
ATOM      2  C   UNL     1     -33.999 -21.069 -35.765  1.00  0.00     0.000 C 
BRANCH   2   3
ATOM      3  C   UNL     1     -33.973 -22.118 -36.891  1.00  0.00     0.000 C 
BRANCH   3   4
ATOM      4  C   UNL     1     -33.507 -21.542 -38.237  1.00  0.00     0.000 C 
BRANCH   4   5
ATOM      5  C   UNL     1     -32.867 -22.630 -39.108  1.00  0.00     0.000 C 
BRANCH   5   6
ATOM      6  C   UNL     1     -31.820 -23.426 -38.313  1.00  0.00     0.000 C 
BRANCH   6   7
ATOM      7  C   UNL     1     -31.627 -24.860 -38.838  1.00  0.00     0.006 C 
BRANCH   7   8
ATOM      8  C   UNL     1     -31.883 -25.951 -37.782  1.00  0.00     0.053 C 
BRANCH   8   9
ATOM      9  C   UNL     1     -32.437 -27.212 -38.375  1.00  0.00     0.041 C 
ATOM     10  O   UNL     1     -33.671 -27.453 -38.320  1.00  0.00    -0.550 OA
ATOM     11  O   UNL     1     -31.582 -28.139 -38.959  1.00  0.00    -0.550 OA
ENDBRANCH   8   9
ENDBRANCH   7   8
ENDBRANCH   6   7
ENDBRANCH   5   6
ENDBRANCH   4   5
ENDBRANCH   3   4
ENDBRANCH   2   3
ENDBRANCH   1   2
BRANCH   1  12
ATOM     12  C   UNL     1     -32.284 -19.875 -34.279  1.00  0.00     0.000 C 
BRANCH  12  13
ATOM     13  C   UNL     1     -31.612 -19.944 -32.898  1.00  0.00    -0.000 C 
BRANCH  13  14
ATOM     14  C   UNL     1     -30.242 -20.637 -32.944  1.00  0.00    -0.000 C 
BRANCH  14  15
ATOM     15  C   UNL     1     -30.188 -21.814 -31.962  1.00  0.00    -0.000 C 
BRANCH  15  16
ATOM     16  C   UNL     1     -30.156 -21.319 -30.509  1.00  0.00    -0.000 C 
BRANCH  16  17
ATOM     17  C   UNL     1     -29.472 -19.947 -30.357  1.00  0.00    -0.000 C 
BRANCH  17  18
ATOM     18  C   UNL     1     -28.028 -19.996 -29.825  1.00  0.00    -0.000 C 
BRANCH  18  19
ATOM     19  C   UNL     1     -27.847 -20.998 -28.676  1.00  0.00    -0.003 C 
ATOM     20  C   UNL     1     -26.500 -20.807 -27.987  1.00  0.00     0.004 C 
ENDBRANCH  18  19
ENDBRANCH  17  18
ENDBRANCH  16  17
ENDBRANCH  15  16
ENDBRANCH  14  15
ENDBRANCH  13  14
ENDBRANCH  12  13
ENDBRANCH   1  12
TORSDOF 16
ENDMDL
