MODEL 1
REMARK VINA RESULT:    -6.561      0.000      0.000
REMARK INTER + INTRA:          -8.221
REMARK INTER:                  -7.904
REMARK INTRA:                  -0.317
REMARK UNBOUND:                -0.317
REMARK SMILES O=c1c(O)c(-c2ccc(O)c(O)c2)oc2cc(O)cc(O)c12
REMARK SMILES IDX 5 1 3 2 2 3 1 4 22 5 20 6 19 7 17 8 16 9 15 10 14 11 6 12
REMARK SMILES IDX 7 13 8 14 9 15 13 16 11 17 10 18 12 20 4 22 21 24 18 26
REMARK H PARENT 10 19 12 21 4 23 21 25 18 27
REMARK Flexibility Score: inf
ROOT
ATOM      1  C   UNL     1      30.692  76.040  37.594  1.00  0.00     0.180 A 
ATOM      2  C   UNL     1      31.766  76.538  38.352  1.00  0.00     0.208 A 
ATOM      3  C   UNL     1      32.008  77.921  38.362  1.00  0.00     0.238 A 
ATOM      4  O   UNL     1      33.004  78.355  38.999  1.00  0.00    -0.285 OA
ATOM      5  C   UNL     1      31.165  78.789  37.627  1.00  0.00     0.111 A 
ATOM      6  C   UNL     1      31.295  80.210  37.597  1.00  0.00     0.134 A 
ATOM      7  C   UNL     1      30.487  80.960  36.733  1.00  0.00     0.093 A 
ATOM      8  C   UNL     1      29.512  80.346  35.947  1.00  0.00     0.123 A 
ATOM      9  C   UNL     1      29.337  78.964  36.012  1.00  0.00     0.094 A 
ATOM     10  C   UNL     1      30.152  78.186  36.838  1.00  0.00     0.146 A 
ATOM     11  O   UNL     1      29.960  76.872  36.864  1.00  0.00    -0.452 OA
ENDROOT
BRANCH   1  12
ATOM     12  C   UNL     1      30.358  74.597  37.554  1.00  0.00     0.025 A 
ATOM     13  C   UNL     1      29.606  73.993  38.574  1.00  0.00     0.016 A 
ATOM     14  C   UNL     1      29.284  72.636  38.502  1.00  0.00     0.051 A 
ATOM     15  C   UNL     1      29.692  71.861  37.411  1.00  0.00     0.157 A 
ATOM     16  C   UNL     1      30.750  73.828  36.449  1.00  0.00     0.062 A 
ATOM     17  C   UNL     1      30.431  72.466  36.368  1.00  0.00     0.158 A 
BRANCH  15  18
ATOM     18  O   UNL     1      29.341  70.509  37.403  1.00  0.00    -0.504 OA
ATOM     19  H   UNL     1      28.500  70.141  37.825  1.00  0.00     0.293 HD
ENDBRANCH  15  18
BRANCH  17  20
ATOM     20  O   UNL     1      30.865  71.759  35.244  1.00  0.00    -0.504 OA
ATOM     21  H   UNL     1      31.835  71.636  34.993  1.00  0.00     0.293 HD
ENDBRANCH  17  20
ENDBRANCH   1  12
BRANCH   2  22
ATOM     22  O   UNL     1      32.598  75.661  39.053  1.00  0.00    -0.502 OA
ATOM     23  H   UNL     1      33.609  75.729  39.023  1.00  0.00     0.293 HD
ENDBRANCH   2  22
BRANCH   6  24
ATOM     24  O   UNL     1      32.173  80.931  38.411  1.00  0.00    -0.507 OA
ATOM     25  H   UNL     1      32.114  81.922  38.586  1.00  0.00     0.293 HD
ENDBRANCH   6  24
BRANCH   8  26
ATOM     26  O   UNL     1      28.715  81.125  35.110  1.00  0.00    -0.508 OA
ATOM     27  H   UNL     1      27.704  81.060  35.130  1.00  0.00     0.293 HD
ENDBRANCH   8  26
TORSDOF 6
ENDMDL
MODEL 2
REMARK VINA RESULT:    -6.514      6.630      9.871
REMARK INTER + INTRA:          -8.164
REMARK INTER:                  -7.836
REMARK INTRA:                  -0.328
REMARK UNBOUND:                -0.317
REMARK SMILES O=c1c(O)c(-c2ccc(O)c(O)c2)oc2cc(O)cc(O)c12
REMARK SMILES IDX 5 1 3 2 2 3 1 4 22 5 20 6 19 7 17 8 16 9 15 10 14 11 6 12
REMARK SMILES IDX 7 13 8 14 9 15 13 16 11 17 10 18 12 20 4 22 21 24 18 26
REMARK H PARENT 10 19 12 21 4 23 21 25 18 27
REMARK Flexibility Score: inf
ROOT
ATOM      1  C   UNL     1      31.265  67.079  40.748  1.00  0.00     0.180 A 
ATOM      2  C   UNL     1      31.078  66.981  42.137  1.00  0.00     0.208 A 
ATOM      3  C   UNL     1      31.030  68.157  42.902  1.00  0.00     0.238 A 
ATOM      4  O   UNL     1      30.918  68.060  44.153  1.00  0.00    -0.285 OA
ATOM      5  C   UNL     1      31.153  69.417  42.267  1.00  0.00     0.111 A 
ATOM      6  C   UNL     1      31.079  70.673  42.939  1.00  0.00     0.134 A 
ATOM      7  C   UNL     1      31.345  71.852  42.231  1.00  0.00     0.093 A 
ATOM      8  C   UNL     1      31.616  71.824  40.864  1.00  0.00     0.123 A 
ATOM      9  C   UNL     1      31.633  70.606  40.184  1.00  0.00     0.094 A 
ATOM     10  C   UNL     1      31.408  69.410  40.871  1.00  0.00     0.146 A 
ATOM     11  O   UNL     1      31.442  68.271  40.190  1.00  0.00    -0.452 OA
ENDROOT
BRANCH   1  12
ATOM     12  C   UNL     1      31.300  65.885  39.871  1.00  0.00     0.025 A 
ATOM     13  C   UNL     1      30.138  65.396  39.255  1.00  0.00     0.016 A 
ATOM     14  C   UNL     1      30.201  64.283  38.414  1.00  0.00     0.051 A 
ATOM     15  C   UNL     1      31.421  63.647  38.162  1.00  0.00     0.157 A 
ATOM     16  C   UNL     1      32.528  65.262  39.603  1.00  0.00     0.062 A 
ATOM     17  C   UNL     1      32.602  64.145  38.760  1.00  0.00     0.158 A 
BRANCH  15  18
ATOM     18  O   UNL     1      31.415  62.536  37.315  1.00  0.00    -0.504 OA
ATOM     19  H   UNL     1      32.216  61.942  37.156  1.00  0.00     0.293 HD
ENDBRANCH  15  18
BRANCH  17  20
ATOM     20  O   UNL     1      33.856  63.569  38.549  1.00  0.00    -0.504 OA
ATOM     21  H   UNL     1      34.544  63.429  39.274  1.00  0.00     0.293 HD
ENDBRANCH  17  20
ENDBRANCH   1  12
BRANCH   2  22
ATOM     22  O   UNL     1      30.981  65.727  42.747  1.00  0.00    -0.502 OA
ATOM     23  H   UNL     1      31.316  65.551  43.687  1.00  0.00     0.293 HD
ENDBRANCH   2  22
BRANCH   6  24
ATOM     24  O   UNL     1      30.724  70.820  44.283  1.00  0.00    -0.507 OA
ATOM     25  H   UNL     1      30.738  71.691  44.790  1.00  0.00     0.293 HD
ENDBRANCH   6  24
BRANCH   8  26
ATOM     26  O   UNL     1      31.861  73.018  40.188  1.00  0.00    -0.508 OA
ATOM     27  H   UNL     1      32.635  73.620  40.439  1.00  0.00     0.293 HD
ENDBRANCH   8  26
TORSDOF 6
ENDMDL
MODEL 3
REMARK VINA RESULT:    -6.500      1.918      2.429
REMARK INTER + INTRA:          -8.148
REMARK INTER:                  -8.015
REMARK INTRA:                  -0.133
REMARK UNBOUND:                -0.317
REMARK SMILES O=c1c(O)c(-c2ccc(O)c(O)c2)oc2cc(O)cc(O)c12
REMARK SMILES IDX 5 1 3 2 2 3 1 4 22 5 20 6 19 7 17 8 16 9 15 10 14 11 6 12
REMARK SMILES IDX 7 13 8 14 9 15 13 16 11 17 10 18 12 20 4 22 21 24 18 26
REMARK H PARENT 10 19 12 21 4 23 21 25 18 27
REMARK Flexibility Score: inf
ROOT
ATOM      1  C   UNL     1      29.882  76.109  38.362  1.00  0.00     0.180 A 
ATOM      2  C   UNL     1      30.650  76.020  39.537  1.00  0.00     0.208 A 
ATOM      3  C   UNL     1      31.577  77.034  39.822  1.00  0.00     0.238 A 
ATOM      4  O   UNL     1      32.301  76.920  40.846  1.00  0.00    -0.285 OA
ATOM      5  C   UNL     1      31.715  78.132  38.939  1.00  0.00     0.111 A 
ATOM      6  C   UNL     1      32.596  79.235  39.149  1.00  0.00     0.134 A 
ATOM      7  C   UNL     1      32.745  80.201  38.147  1.00  0.00     0.093 A 
ATOM      8  C   UNL     1      31.999  80.138  36.970  1.00  0.00     0.123 A 
ATOM      9  C   UNL     1      31.092  79.096  36.779  1.00  0.00     0.094 A 
ATOM     10  C   UNL     1      30.947  78.098  37.746  1.00  0.00     0.146 A 
ATOM     11  O   UNL     1      30.080  77.117  37.522  1.00  0.00    -0.452 OA
ENDROOT
BRANCH   1  12
ATOM     12  C   UNL     1      28.865  75.092  38.006  1.00  0.00     0.025 A 
ATOM     13  C   UNL     1      27.509  75.428  37.879  1.00  0.00     0.016 A 
ATOM     14  C   UNL     1      26.573  74.457  37.520  1.00  0.00     0.051 A 
ATOM     15  C   UNL     1      26.970  73.140  37.268  1.00  0.00     0.157 A 
ATOM     16  C   UNL     1      29.270  73.777  37.733  1.00  0.00     0.062 A 
ATOM     17  C   UNL     1      28.338  72.795  37.372  1.00  0.00     0.158 A 
BRANCH  15  18
ATOM     18  O   UNL     1      25.983  72.215  36.917  1.00  0.00    -0.504 OA
ATOM     19  H   UNL     1      25.844  71.332  37.386  1.00  0.00     0.293 HD
ENDBRANCH  15  18
BRANCH  17  20
ATOM     20  O   UNL     1      28.812  71.504  37.127  1.00  0.00    -0.504 OA
ATOM     21  H   UNL     1      28.519  70.688  37.643  1.00  0.00     0.293 HD
ENDBRANCH  17  20
ENDBRANCH   1  12
BRANCH   2  22
ATOM     22  O   UNL     1      30.514  74.916  40.383  1.00  0.00    -0.502 OA
ATOM     23  H   UNL     1      31.127  74.758  41.173  1.00  0.00     0.293 HD
ENDBRANCH   2  22
BRANCH   6  24
ATOM     24  O   UNL     1      33.318  79.443  40.328  1.00  0.00    -0.507 OA
ATOM     25  H   UNL     1      33.009  79.171  41.248  1.00  0.00     0.293 HD
ENDBRANCH   6  24
BRANCH   8  26
ATOM     26  O   UNL     1      32.162  81.125  36.000  1.00  0.00    -0.508 OA
ATOM     27  H   UNL     1      33.051  81.269  35.535  1.00  0.00     0.293 HD
ENDBRANCH   8  26
TORSDOF 6
ENDMDL
MODEL 4
REMARK VINA RESULT:    -6.452      5.087      9.416
REMARK INTER + INTRA:          -8.089
REMARK INTER:                  -7.867
REMARK INTRA:                  -0.222
REMARK UNBOUND:                -0.317
REMARK SMILES O=c1c(O)c(-c2ccc(O)c(O)c2)oc2cc(O)cc(O)c12
REMARK SMILES IDX 5 1 3 2 2 3 1 4 22 5 20 6 19 7 17 8 16 9 15 10 14 11 6 12
REMARK SMILES IDX 7 13 8 14 9 15 13 16 11 17 10 18 12 20 4 22 21 24 18 26
REMARK H PARENT 10 19 12 21 4 23 21 25 18 27
REMARK Flexibility Score: inf
ROOT
ATOM      1  C   UNL     1      31.744  69.992  38.484  1.00  0.00     0.180 A 
ATOM      2  C   UNL     1      31.942  68.635  38.174  1.00  0.00     0.208 A 
ATOM      3  C   UNL     1      31.820  67.679  39.194  1.00  0.00     0.238 A 
ATOM      4  O   UNL     1      32.053  66.472  38.921  1.00  0.00    -0.285 OA
ATOM      5  C   UNL     1      31.485  68.088  40.507  1.00  0.00     0.111 A 
ATOM      6  C   UNL     1      31.296  67.201  41.608  1.00  0.00     0.134 A 
ATOM      7  C   UNL     1      31.095  67.725  42.891  1.00  0.00     0.093 A 
ATOM      8  C   UNL     1      31.011  69.101  43.101  1.00  0.00     0.123 A 
ATOM      9  C   UNL     1      31.135  69.976  42.022  1.00  0.00     0.094 A 
ATOM     10  C   UNL     1      31.373  69.484  40.736  1.00  0.00     0.146 A 
ATOM     11  O   UNL     1      31.495  70.350  39.737  1.00  0.00    -0.452 OA
ENDROOT
BRANCH   1  12
ATOM     12  C   UNL     1      31.831  71.056  37.457  1.00  0.00     0.025 A 
ATOM     13  C   UNL     1      30.883  71.157  36.427  1.00  0.00     0.016 A 
ATOM     14  C   UNL     1      30.972  72.183  35.485  1.00  0.00     0.051 A 
ATOM     15  C   UNL     1      31.997  73.132  35.557  1.00  0.00     0.157 A 
ATOM     16  C   UNL     1      32.847  72.019  37.545  1.00  0.00     0.062 A 
ATOM     17  C   UNL     1      32.945  73.052  36.604  1.00  0.00     0.158 A 
BRANCH  15  18
ATOM     18  O   UNL     1      32.033  74.131  34.580  1.00  0.00    -0.504 OA
ATOM     19  H   UNL     1      32.727  74.180  33.849  1.00  0.00     0.293 HD
ENDBRANCH  15  18
BRANCH  17  20
ATOM     20  O   UNL     1      33.990  73.968  36.747  1.00  0.00    -0.504 OA
ATOM     21  H   UNL     1      34.830  73.789  37.277  1.00  0.00     0.293 HD
ENDBRANCH  17  20
ENDBRANCH   1  12
BRANCH   2  22
ATOM     22  O   UNL     1      32.294  68.255  36.876  1.00  0.00    -0.502 OA
ATOM     23  H   UNL     1      33.205  67.877  36.647  1.00  0.00     0.293 HD
ENDBRANCH   2  22
BRANCH   6  24
ATOM     24  O   UNL     1      31.268  65.808  41.493  1.00  0.00    -0.507 OA
ATOM     25  H   UNL     1      30.859  65.182  42.170  1.00  0.00     0.293 HD
ENDBRANCH   6  24
BRANCH   8  26
ATOM     26  O   UNL     1      30.794  69.587  44.389  1.00  0.00    -0.508 OA
ATOM     27  H   UNL     1      30.255  69.065  45.069  1.00  0.00     0.293 HD
ENDBRANCH   8  26
TORSDOF 6
ENDMDL
MODEL 5
REMARK VINA RESULT:    -6.399      4.152      6.610
REMARK INTER + INTRA:          -8.026
REMARK INTER:                  -7.807
REMARK INTRA:                  -0.219
REMARK UNBOUND:                -0.317
REMARK SMILES O=c1c(O)c(-c2ccc(O)c(O)c2)oc2cc(O)cc(O)c12
REMARK SMILES IDX 5 1 3 2 2 3 1 4 22 5 20 6 19 7 17 8 16 9 15 10 14 11 6 12
REMARK SMILES IDX 7 13 8 14 9 15 13 16 11 17 10 18 12 20 4 22 21 24 18 26
REMARK H PARENT 10 19 12 21 4 23 21 25 18 27
REMARK Flexibility Score: inf
ROOT
ATOM      1  C   UNL     1      31.733  71.124  39.994  1.00  0.00     0.180 A 
ATOM      2  C   UNL     1      31.904  72.470  40.363  1.00  0.00     0.208 A 
ATOM      3  C   UNL     1      31.781  73.466  39.382  1.00  0.00     0.238 A 
ATOM      4  O   UNL     1      31.989  74.664  39.708  1.00  0.00    -0.285 OA
ATOM      5  C   UNL     1      31.474  73.107  38.048  1.00  0.00     0.111 A 
ATOM      6  C   UNL     1      31.287  74.036  36.981  1.00  0.00     0.134 A 
ATOM      7  C   UNL     1      31.115  73.563  35.674  1.00  0.00     0.093 A 
ATOM      8  C   UNL     1      31.058  72.195  35.406  1.00  0.00     0.123 A 
ATOM      9  C   UNL     1      31.181  71.278  36.450  1.00  0.00     0.094 A 
ATOM     10  C   UNL     1      31.389  71.720  37.759  1.00  0.00     0.146 A 
ATOM     11  O   UNL     1      31.510  70.815  38.723  1.00  0.00    -0.452 OA
ENDROOT
BRANCH   1  12
ATOM     12  C   UNL     1      31.822  70.020  40.977  1.00  0.00     0.025 A 
ATOM     13  C   UNL     1      30.866  69.866  41.993  1.00  0.00     0.016 A 
ATOM     14  C   UNL     1      30.958  68.804  42.893  1.00  0.00     0.051 A 
ATOM     15  C   UNL     1      31.993  67.869  42.792  1.00  0.00     0.157 A 
ATOM     16  C   UNL     1      32.849  69.072  40.859  1.00  0.00     0.062 A 
ATOM     17  C   UNL     1      32.950  68.001  41.758  1.00  0.00     0.158 A 
BRANCH  15  18
ATOM     18  O   UNL     1      32.031  66.831  43.727  1.00  0.00    -0.504 OA
ATOM     19  H   UNL     1      32.241  66.961  44.706  1.00  0.00     0.293 HD
ENDBRANCH  15  18
BRANCH  17  20
ATOM     20  O   UNL     1      34.006  67.103  41.587  1.00  0.00    -0.504 OA
ATOM     21  H   UNL     1      33.943  66.253  41.048  1.00  0.00     0.293 HD
ENDBRANCH  17  20
ENDBRANCH   1  12
BRANCH   2  22
ATOM     22  O   UNL     1      32.228  72.801  41.682  1.00  0.00    -0.502 OA
ATOM     23  H   UNL     1      32.024  73.710  42.081  1.00  0.00     0.293 HD
ENDBRANCH   2  22
BRANCH   6  24
ATOM     24  O   UNL     1      31.233  75.422  37.154  1.00  0.00    -0.507 OA
ATOM     25  H   UNL     1      31.776  75.940  37.828  1.00  0.00     0.293 HD
ENDBRANCH   6  24
BRANCH   8  26
ATOM     26  O   UNL     1      30.871  71.760  34.096  1.00  0.00    -0.508 OA
ATOM     27  H   UNL     1      31.616  71.315  33.574  1.00  0.00     0.293 HD
ENDBRANCH   8  26
TORSDOF 6
ENDMDL
MODEL 6
REMARK VINA RESULT:    -6.356      2.798      6.843
REMARK INTER + INTRA:          -7.974
REMARK INTER:                  -7.902
REMARK INTRA:                  -0.071
REMARK UNBOUND:                -0.317
REMARK SMILES O=c1c(O)c(-c2ccc(O)c(O)c2)oc2cc(O)cc(O)c12
REMARK SMILES IDX 5 1 3 2 2 3 1 4 22 5 20 6 19 7 17 8 16 9 15 10 14 11 6 12
REMARK SMILES IDX 7 13 8 14 9 15 13 16 11 17 10 18 12 20 4 22 21 24 18 26
REMARK H PARENT 10 19 12 21 4 23 21 25 18 27
REMARK Flexibility Score: inf
ROOT
ATOM      1  C   UNL     1      31.446  75.747  39.369  1.00  0.00     0.180 A 
ATOM      2  C   UNL     1      31.581  74.660  40.251  1.00  0.00     0.208 A 
ATOM      3  C   UNL     1      31.590  73.358  39.728  1.00  0.00     0.238 A 
ATOM      4  O   UNL     1      31.655  72.386  40.527  1.00  0.00    -0.285 OA
ATOM      5  C   UNL     1      31.481  73.158  38.330  1.00  0.00     0.111 A 
ATOM      6  C   UNL     1      31.519  71.884  37.689  1.00  0.00     0.134 A 
ATOM      7  C   UNL     1      31.271  71.795  36.314  1.00  0.00     0.093 A 
ATOM      8  C   UNL     1      31.052  72.939  35.547  1.00  0.00     0.123 A 
ATOM      9  C   UNL     1      31.071  74.195  36.154  1.00  0.00     0.094 A 
ATOM     10  C   UNL     1      31.279  74.312  37.530  1.00  0.00     0.146 A 
ATOM     11  O   UNL     1      31.281  75.525  38.071  1.00  0.00    -0.452 OA
ENDROOT
BRANCH   1  12
ATOM     12  C   UNL     1      31.454  77.151  39.843  1.00  0.00     0.025 A 
ATOM     13  C   UNL     1      30.537  77.603  40.804  1.00  0.00     0.016 A 
ATOM     14  C   UNL     1      30.580  78.925  41.251  1.00  0.00     0.051 A 
ATOM     15  C   UNL     1      31.541  79.815  40.762  1.00  0.00     0.157 A 
ATOM     16  C   UNL     1      32.433  78.035  39.365  1.00  0.00     0.062 A 
ATOM     17  C   UNL     1      32.484  79.363  39.809  1.00  0.00     0.158 A 
BRANCH  15  18
ATOM     18  O   UNL     1      31.527  81.125  41.247  1.00  0.00    -0.504 OA
ATOM     19  H   UNL     1      31.993  81.418  42.093  1.00  0.00     0.293 HD
ENDBRANCH  15  18
BRANCH  17  20
ATOM     20  O   UNL     1      33.478  80.190  39.281  1.00  0.00    -0.504 OA
ATOM     21  H   UNL     1      34.290  79.852  38.786  1.00  0.00     0.293 HD
ENDBRANCH  17  20
ENDBRANCH   1  12
BRANCH   2  22
ATOM     22  O   UNL     1      31.665  74.879  41.628  1.00  0.00    -0.502 OA
ATOM     23  H   UNL     1      31.389  74.180  42.308  1.00  0.00     0.293 HD
ENDBRANCH   2  22
BRANCH   6  24
ATOM     24  O   UNL     1      31.821  70.688  38.346  1.00  0.00    -0.507 OA
ATOM     25  H   UNL     1      32.736  70.264  38.377  1.00  0.00     0.293 HD
ENDBRANCH   6  24
BRANCH   8  26
ATOM     26  O   UNL     1      30.823  72.815  34.178  1.00  0.00    -0.508 OA
ATOM     27  H   UNL     1      30.369  71.998  33.789  1.00  0.00     0.293 HD
ENDBRANCH   8  26
TORSDOF 6
ENDMDL
MODEL 7
REMARK VINA RESULT:    -6.314      5.555     10.814
REMARK INTER + INTRA:          -7.923
REMARK INTER:                  -7.627
REMARK INTRA:                  -0.296
REMARK UNBOUND:                -0.317
REMARK SMILES O=c1c(O)c(-c2ccc(O)c(O)c2)oc2cc(O)cc(O)c12
REMARK SMILES IDX 5 1 3 2 2 3 1 4 22 5 20 6 19 7 17 8 16 9 15 10 14 11 6 12
REMARK SMILES IDX 7 13 8 14 9 15 13 16 11 17 10 18 12 20 4 22 21 24 18 26
REMARK H PARENT 10 19 12 21 4 23 21 25 18 27
REMARK Flexibility Score: inf
ROOT
ATOM      1  C   UNL     1      31.944  68.625  38.457  1.00  0.00     0.180 A 
ATOM      2  C   UNL     1      31.844  68.459  39.849  1.00  0.00     0.208 A 
ATOM      3  C   UNL     1      31.582  67.181  40.365  1.00  0.00     0.238 A 
ATOM      4  O   UNL     1      31.439  67.048  41.609  1.00  0.00    -0.285 OA
ATOM      5  C   UNL     1      31.439  66.081  39.484  1.00  0.00     0.111 A 
ATOM      6  C   UNL     1      31.211  64.735  39.900  1.00  0.00     0.134 A 
ATOM      7  C   UNL     1      30.956  63.749  38.938  1.00  0.00     0.093 A 
ATOM      8  C   UNL     1      30.985  64.048  37.576  1.00  0.00     0.123 A 
ATOM      9  C   UNL     1      31.265  65.349  37.157  1.00  0.00     0.094 A 
ATOM     10  C   UNL     1      31.488  66.361  38.094  1.00  0.00     0.146 A 
ATOM     11  O   UNL     1      31.741  67.588  37.655  1.00  0.00    -0.452 OA
ENDROOT
BRANCH   1  12
ATOM     12  C   UNL     1      32.245  69.938  37.840  1.00  0.00     0.025 A 
ATOM     13  C   UNL     1      33.549  70.457  37.823  1.00  0.00     0.016 A 
ATOM     14  C   UNL     1      33.811  71.686  37.214  1.00  0.00     0.051 A 
ATOM     15  C   UNL     1      32.785  72.413  36.601  1.00  0.00     0.157 A 
ATOM     16  C   UNL     1      31.218  70.655  37.207  1.00  0.00     0.062 A 
ATOM     17  C   UNL     1      31.471  71.888  36.593  1.00  0.00     0.158 A 
BRANCH  15  18
ATOM     18  O   UNL     1      33.113  73.637  36.014  1.00  0.00    -0.504 OA
ATOM     19  H   UNL     1      33.274  74.488  36.533  1.00  0.00     0.293 HD
ENDBRANCH  15  18
BRANCH  17  20
ATOM     20  O   UNL     1      30.398  72.552  35.994  1.00  0.00    -0.504 OA
ATOM     21  H   UNL     1      29.658  72.087  35.488  1.00  0.00     0.293 HD
ENDBRANCH  17  20
ENDBRANCH   1  12
BRANCH   2  22
ATOM     22  O   UNL     1      31.967  69.562  40.699  1.00  0.00    -0.502 OA
ATOM     23  H   UNL     1      31.256  70.280  40.765  1.00  0.00     0.293 HD
ENDBRANCH   2  22
BRANCH   6  24
ATOM     24  O   UNL     1      31.253  64.311  41.231  1.00  0.00    -0.507 OA
ATOM     25  H   UNL     1      32.084  64.290  41.802  1.00  0.00     0.293 HD
ENDBRANCH   6  24
BRANCH   8  26
ATOM     26  O   UNL     1      30.741  63.039  36.647  1.00  0.00    -0.508 OA
ATOM     27  H   UNL     1      31.480  62.424  36.327  1.00  0.00     0.293 HD
ENDBRANCH   8  26
TORSDOF 6
ENDMDL
MODEL 8
REMARK VINA RESULT:    -6.305      6.949     10.175
REMARK INTER + INTRA:          -7.912
REMARK INTER:                  -7.579
REMARK INTRA:                  -0.333
REMARK UNBOUND:                -0.317
REMARK SMILES O=c1c(O)c(-c2ccc(O)c(O)c2)oc2cc(O)cc(O)c12
REMARK SMILES IDX 5 1 3 2 2 3 1 4 22 5 20 6 19 7 17 8 16 9 15 10 14 11 6 12
REMARK SMILES IDX 7 13 8 14 9 15 13 16 11 17 10 18 12 20 4 22 21 24 18 26
REMARK H PARENT 10 19 12 21 4 23 21 25 18 27
REMARK Flexibility Score: inf
ROOT
ATOM      1  C   UNL     1      32.026  66.342  39.356  1.00  0.00     0.180 A 
ATOM      2  C   UNL     1      32.822  67.239  40.089  1.00  0.00     0.208 A 
ATOM      3  C   UNL     1      32.973  68.553  39.622  1.00  0.00     0.238 A 
ATOM      4  O   UNL     1      33.731  69.336  40.253  1.00  0.00    -0.285 OA
ATOM      5  C   UNL     1      32.314  68.960  38.436  1.00  0.00     0.111 A 
ATOM      6  C   UNL     1      32.365  70.278  37.892  1.00  0.00     0.134 A 
ATOM      7  C   UNL     1      31.782  70.534  36.645  1.00  0.00     0.093 A 
ATOM      8  C   UNL     1      31.095  69.537  35.954  1.00  0.00     0.123 A 
ATOM      9  C   UNL     1      30.988  68.259  36.504  1.00  0.00     0.094 A 
ATOM     10  C   UNL     1      31.591  67.964  37.729  1.00  0.00     0.146 A 
ATOM     11  O   UNL     1      31.475  66.734  38.214  1.00  0.00    -0.452 OA
ENDROOT
BRANCH   1  12
ATOM     12  C   UNL     1      31.799  64.946  39.799  1.00  0.00     0.025 A 
ATOM     13  C   UNL     1      30.736  64.615  40.654  1.00  0.00     0.016 A 
ATOM     14  C   UNL     1      30.528  63.289  41.038  1.00  0.00     0.051 A 
ATOM     15  C   UNL     1      31.364  62.270  40.571  1.00  0.00     0.157 A 
ATOM     16  C   UNL     1      32.626  63.923  39.311  1.00  0.00     0.062 A 
ATOM     17  C   UNL     1      32.425  62.590  39.692  1.00  0.00     0.158 A 
BRANCH  15  18
ATOM     18  O   UNL     1      31.104  60.965  40.997  1.00  0.00    -0.504 OA
ATOM     19  H   UNL     1      31.642  60.484  41.704  1.00  0.00     0.293 HD
ENDBRANCH  15  18
BRANCH  17  20
ATOM     20  O   UNL     1      33.295  61.626  39.177  1.00  0.00    -0.504 OA
ATOM     21  H   UNL     1      33.997  61.815  38.477  1.00  0.00     0.293 HD
ENDBRANCH  17  20
ENDBRANCH   1  12
BRANCH   2  22
ATOM     22  O   UNL     1      33.480  66.811  41.245  1.00  0.00    -0.502 OA
ATOM     23  H   UNL     1      33.946  65.913  41.305  1.00  0.00     0.293 HD
ENDBRANCH   2  22
BRANCH   6  24
ATOM     24  O   UNL     1      32.946  71.370  38.544  1.00  0.00    -0.507 OA
ATOM     25  H   UNL     1      33.443  72.117  38.085  1.00  0.00     0.293 HD
ENDBRANCH   6  24
BRANCH   8  26
ATOM     26  O   UNL     1      30.514  69.831  34.722  1.00  0.00    -0.508 OA
ATOM     27  H   UNL     1      30.826  70.615  34.162  1.00  0.00     0.293 HD
ENDBRANCH   8  26
TORSDOF 6
ENDMDL
MODEL 9
REMARK VINA RESULT:    -6.299      3.433      8.013
REMARK INTER + INTRA:          -7.905
REMARK INTER:                  -7.650
REMARK INTRA:                  -0.255
REMARK UNBOUND:                -0.317
REMARK SMILES O=c1c(O)c(-c2ccc(O)c(O)c2)oc2cc(O)cc(O)c12
REMARK SMILES IDX 5 1 3 2 2 3 1 4 22 5 20 6 19 7 17 8 16 9 15 10 14 11 6 12
REMARK SMILES IDX 7 13 8 14 9 15 13 16 11 17 10 18 12 20 4 22 21 24 18 26
REMARK H PARENT 10 19 12 21 4 23 21 25 18 27
REMARK Flexibility Score: inf
ROOT
ATOM      1  C   UNL     1      31.671  75.268  40.279  1.00  0.00     0.180 A 
ATOM      2  C   UNL     1      32.017  74.701  39.040  1.00  0.00     0.208 A 
ATOM      3  C   UNL     1      31.991  73.304  38.901  1.00  0.00     0.238 A 
ATOM      4  O   UNL     1      32.356  72.800  37.806  1.00  0.00    -0.285 OA
ATOM      5  C   UNL     1      31.604  72.493  39.994  1.00  0.00     0.111 A 
ATOM      6  C   UNL     1      31.505  71.070  39.952  1.00  0.00     0.134 A 
ATOM      7  C   UNL     1      31.238  70.361  41.130  1.00  0.00     0.093 A 
ATOM      8  C   UNL     1      31.004  71.027  42.333  1.00  0.00     0.123 A 
ATOM      9  C   UNL     1      31.041  72.421  42.374  1.00  0.00     0.094 A 
ATOM     10  C   UNL     1      31.340  73.154  41.222  1.00  0.00     0.146 A 
ATOM     11  O   UNL     1      31.375  74.479  41.304  1.00  0.00    -0.452 OA
ENDROOT
BRANCH   1  12
ATOM     12  C   UNL     1      31.649  76.733  40.496  1.00  0.00     0.025 A 
ATOM     13  C   UNL     1      30.441  77.439  40.604  1.00  0.00     0.016 A 
ATOM     14  C   UNL     1      30.447  78.816  40.832  1.00  0.00     0.051 A 
ATOM     15  C   UNL     1      31.652  79.513  40.970  1.00  0.00     0.157 A 
ATOM     16  C   UNL     1      32.859  77.425  40.656  1.00  0.00     0.062 A 
ATOM     17  C   UNL     1      32.875  78.807  40.885  1.00  0.00     0.158 A 
BRANCH  15  18
ATOM     18  O   UNL     1      31.588  80.890  41.193  1.00  0.00    -0.504 OA
ATOM     19  H   UNL     1      30.870  81.341  41.741  1.00  0.00     0.293 HD
ENDBRANCH  15  18
BRANCH  17  20
ATOM     20  O   UNL     1      34.117  79.432  41.021  1.00  0.00    -0.504 OA
ATOM     21  H   UNL     1      34.331  80.115  41.733  1.00  0.00     0.293 HD
ENDBRANCH  17  20
ENDBRANCH   1  12
BRANCH   2  22
ATOM     22  O   UNL     1      32.418  75.518  37.980  1.00  0.00    -0.502 OA
ATOM     23  H   UNL     1      31.792  75.777  37.227  1.00  0.00     0.293 HD
ENDBRANCH   2  22
BRANCH   6  24
ATOM     24  O   UNL     1      31.629  70.313  38.784  1.00  0.00    -0.507 OA
ATOM     25  H   UNL     1      32.357  70.431  38.096  1.00  0.00     0.293 HD
ENDBRANCH   6  24
BRANCH   8  26
ATOM     26  O   UNL     1      30.727  70.290  43.483  1.00  0.00    -0.508 OA
ATOM     27  H   UNL     1      30.487  69.307  43.437  1.00  0.00     0.293 HD
ENDBRANCH   8  26
TORSDOF 6
ENDMDL
