MODEL 1
REMARK VINA RESULT:     3.262      0.000      0.000
REMARK INTER + INTRA:           4.619
REMARK INTER:                   6.123
REMARK INTRA:                  -1.504
REMARK UNBOUND:                -1.504
REMARK SMILES CCCCCCCCC=CCCCCCCCC(=O)[O-]
REMARK SMILES IDX 10 1 9 2 11 3 12 4 13 5 14 6 15 7 16 8 17 9 18 10 19 11
REMARK SMILES IDX 20 12 8 13 7 14 6 15 5 16 4 17 3 18 2 19 1 20
REMARK H PARENT
REMARK Flexibility Score: inf
ROOT
ATOM      1  C   UNL     1      -2.659  26.786  26.517  1.00  0.00    -0.031 C 
ATOM      2  C   UNL     1      -1.565  27.479  26.864  1.00  0.00    -0.031 C 
ENDROOT
BRANCH   1   3
ATOM      3  C   UNL     1      -3.760  26.535  27.515  1.00  0.00     0.027 C 
BRANCH   3   4
ATOM      4  C   UNL     1      -4.904  27.558  27.402  1.00  0.00     0.004 C 
BRANCH   4   5
ATOM      5  C   UNL     1      -4.532  28.996  27.824  1.00  0.00     0.000 C 
BRANCH   5   6
ATOM      6  C   UNL     1      -4.269  29.196  29.328  1.00  0.00     0.000 C 
BRANCH   6   7
ATOM      7  C   UNL     1      -2.835  29.666  29.625  1.00  0.00     0.000 C 
BRANCH   7   8
ATOM      8  C   UNL     1      -2.131  28.790  30.673  1.00  0.00     0.006 C 
BRANCH   8   9
ATOM      9  C   UNL     1      -2.893  27.493  30.975  1.00  0.00     0.053 C 
BRANCH   9  10
ATOM     10  C   UNL     1      -2.009  26.303  30.762  1.00  0.00     0.041 C 
ATOM     11  O   UNL     1      -2.503  25.143  30.728  1.00  0.00    -0.550 OA
ATOM     12  O   UNL     1      -0.642  26.476  30.580  1.00  0.00    -0.550 OA
ENDBRANCH   9  10
ENDBRANCH   8   9
ENDBRANCH   7   8
ENDBRANCH   6   7
ENDBRANCH   5   6
ENDBRANCH   4   5
ENDBRANCH   3   4
ENDBRANCH   1   3
BRANCH   2  13
ATOM     13  C   UNL     1      -0.464  27.761  25.876  1.00  0.00     0.027 C 
BRANCH  13  14
ATOM     14  C   UNL     1       0.855  27.063  26.247  1.00  0.00     0.004 C 
BRANCH  14  15
ATOM     15  C   UNL     1       2.058  27.496  25.388  1.00  0.00     0.000 C 
BRANCH  15  16
ATOM     16  C   UNL     1       1.934  28.941  24.882  1.00  0.00     0.000 C 
BRANCH  16  17
ATOM     17  C   UNL     1       2.786  29.157  23.622  1.00  0.00    -0.000 C 
BRANCH  17  18
ATOM     18  C   UNL     1       3.807  28.031  23.395  1.00  0.00    -0.000 C 
BRANCH  18  19
ATOM     19  C   UNL     1       4.463  28.097  22.007  1.00  0.00    -0.003 C 
ATOM     20  C   UNL     1       5.907  28.580  22.105  1.00  0.00     0.004 C 
ENDBRANCH  18  19
ENDBRANCH  17  18
ENDBRANCH  16  17
ENDBRANCH  15  16
ENDBRANCH  14  15
ENDBRANCH  13  14
ENDBRANCH   2  13
TORSDOF 15
ENDMDL
MODEL 2
REMARK VINA RESULT:     3.561     20.002     22.005
REMARK INTER + INTRA:           5.181
REMARK INTER:                   1.734
REMARK INTRA:                   3.446
REMARK UNBOUND:                -1.504
REMARK SMILES CCCCCCCCC=CCCCCCCCC(=O)[O-]
REMARK SMILES IDX 10 1 9 2 11 3 12 4 13 5 14 6 15 7 16 8 17 9 18 10 19 11
REMARK SMILES IDX 20 12 8 13 7 14 6 15 5 16 4 17 3 18 2 19 1 20
REMARK H PARENT
REMARK Flexibility Score: inf
ROOT
ATOM      1  C   UNL     1      11.099  10.453  24.277  1.00  0.00    -0.031 C 
ATOM      2  C   UNL     1      11.670  10.829  23.123  1.00  0.00    -0.031 C 
ENDROOT
BRANCH   1   3
ATOM      3  C   UNL     1       9.609  10.566  24.471  1.00  0.00     0.027 C 
BRANCH   3   4
ATOM      4  C   UNL     1       9.142   9.986  25.817  1.00  0.00     0.004 C 
BRANCH   4   5
ATOM      5  C   UNL     1      10.193  10.045  26.947  1.00  0.00     0.000 C 
BRANCH   5   6
ATOM      6  C   UNL     1      11.453  10.873  26.637  1.00  0.00     0.000 C 
BRANCH   6   7
ATOM      7  C   UNL     1      11.141  12.354  26.365  1.00  0.00     0.000 C 
BRANCH   7   8
ATOM      8  C   UNL     1      12.273  13.290  26.817  1.00  0.00     0.006 C 
BRANCH   8   9
ATOM      9  C   UNL     1      13.630  12.580  26.916  1.00  0.00     0.053 C 
BRANCH   9  10
ATOM     10  C   UNL     1      14.630  13.451  27.609  1.00  0.00     0.041 C 
ATOM     11  O   UNL     1      15.016  14.525  27.073  1.00  0.00    -0.550 OA
ATOM     12  O   UNL     1      15.119  13.089  28.860  1.00  0.00    -0.550 OA
ENDBRANCH   9  10
ENDBRANCH   8   9
ENDBRANCH   7   8
ENDBRANCH   6   7
ENDBRANCH   5   6
ENDBRANCH   4   5
ENDBRANCH   3   4
ENDBRANCH   1   3
BRANCH   2  13
ATOM     13  C   UNL     1      13.153  10.703  22.899  1.00  0.00     0.027 C 
BRANCH  13  14
ATOM     14  C   UNL     1      13.847   9.876  23.995  1.00  0.00     0.004 C 
BRANCH  14  15
ATOM     15  C   UNL     1      14.755  10.701  24.925  1.00  0.00     0.000 C 
BRANCH  15  16
ATOM     16  C   UNL     1      15.124   9.950  26.213  1.00  0.00     0.000 C 
BRANCH  16  17
ATOM     17  C   UNL     1      13.924   9.875  27.169  1.00  0.00    -0.000 C 
BRANCH  17  18
ATOM     18  C   UNL     1      14.328  10.034  28.644  1.00  0.00    -0.000 C 
BRANCH  18  19
ATOM     19  C   UNL     1      13.125   9.969  29.597  1.00  0.00    -0.003 C 
ATOM     20  C   UNL     1      13.556  10.205  31.042  1.00  0.00     0.004 C 
ENDBRANCH  18  19
ENDBRANCH  17  18
ENDBRANCH  16  17
ENDBRANCH  15  16
ENDBRANCH  14  15
ENDBRANCH  13  14
ENDBRANCH   2  13
TORSDOF 15
ENDMDL
MODEL 3
REMARK VINA RESULT:     3.707      3.739      8.147
REMARK INTER + INTRA:           5.454
REMARK INTER:                   6.726
REMARK INTRA:                  -1.272
REMARK UNBOUND:                -1.504
REMARK SMILES CCCCCCCCC=CCCCCCCCC(=O)[O-]
REMARK SMILES IDX 10 1 9 2 11 3 12 4 13 5 14 6 15 7 16 8 17 9 18 10 19 11
REMARK SMILES IDX 20 12 8 13 7 14 6 15 5 16 4 17 3 18 2 19 1 20
REMARK H PARENT
REMARK Flexibility Score: inf
ROOT
ATOM      1  C   UNL     1      -3.431  27.392  27.501  1.00  0.00    -0.031 C 
ATOM      2  C   UNL     1      -3.764  28.687  27.595  1.00  0.00    -0.031 C 
ENDROOT
BRANCH   1   3
ATOM      3  C   UNL     1      -2.366  26.940  26.536  1.00  0.00     0.027 C 
BRANCH   3   4
ATOM      4  C   UNL     1      -1.168  27.905  26.483  1.00  0.00     0.004 C 
BRANCH   4   5
ATOM      5  C   UNL     1      -0.052  27.499  25.496  1.00  0.00     0.000 C 
BRANCH   5   6
ATOM      6  C   UNL     1       1.282  28.249  25.661  1.00  0.00     0.000 C 
BRANCH   6   7
ATOM      7  C   UNL     1       2.473  27.490  25.054  1.00  0.00     0.000 C 
BRANCH   7   8
ATOM      8  C   UNL     1       3.134  28.254  23.896  1.00  0.00     0.006 C 
BRANCH   8   9
ATOM      9  C   UNL     1       4.286  27.474  23.247  1.00  0.00     0.053 C 
BRANCH   9  10
ATOM     10  C   UNL     1       4.881  28.258  22.120  1.00  0.00     0.041 C 
ATOM     11  O   UNL     1       4.200  28.499  21.085  1.00  0.00    -0.550 OA
ATOM     12  O   UNL     1       6.180  28.742  22.218  1.00  0.00    -0.550 OA
ENDBRANCH   9  10
ENDBRANCH   8   9
ENDBRANCH   7   8
ENDBRANCH   6   7
ENDBRANCH   5   6
ENDBRANCH   4   5
ENDBRANCH   3   4
ENDBRANCH   1   3
BRANCH   2  13
ATOM     13  C   UNL     1      -4.809  29.164  28.569  1.00  0.00     0.027 C 
BRANCH  13  14
ATOM     14  C   UNL     1      -4.217  29.520  29.943  1.00  0.00     0.004 C 
BRANCH  14  15
ATOM     15  C   UNL     1      -2.686  29.380  30.022  1.00  0.00     0.000 C 
BRANCH  15  16
ATOM     16  C   UNL     1      -2.238  28.360  31.081  1.00  0.00     0.000 C 
BRANCH  16  17
ATOM     17  C   UNL     1      -3.155  27.128  31.080  1.00  0.00    -0.000 C 
BRANCH  17  18
ATOM     18  C   UNL     1      -2.376  25.807  30.974  1.00  0.00    -0.000 C 
BRANCH  18  19
ATOM     19  C   UNL     1      -1.135  25.922  30.076  1.00  0.00    -0.003 C 
ATOM     20  C   UNL     1       0.147  25.775  30.890  1.00  0.00     0.004 C 
ENDBRANCH  18  19
ENDBRANCH  17  18
ENDBRANCH  16  17
ENDBRANCH  15  16
ENDBRANCH  14  15
ENDBRANCH  13  14
ENDBRANCH   2  13
TORSDOF 15
ENDMDL
MODEL 4
REMARK VINA RESULT:     4.315      1.965      2.890
REMARK INTER + INTRA:           6.594
REMARK INTER:                   7.642
REMARK INTRA:                  -1.048
REMARK UNBOUND:                -1.504
REMARK SMILES CCCCCCCCC=CCCCCCCCC(=O)[O-]
REMARK SMILES IDX 10 1 9 2 11 3 12 4 13 5 14 6 15 7 16 8 17 9 18 10 19 11
REMARK SMILES IDX 20 12 8 13 7 14 6 15 5 16 4 17 3 18 2 19 1 20
REMARK H PARENT
REMARK Flexibility Score: inf
ROOT
ATOM      1  C   UNL     1      -0.764  26.349  28.642  1.00  0.00    -0.031 C 
ATOM      2  C   UNL     1      -1.403  27.128  27.757  1.00  0.00    -0.031 C 
ENDROOT
BRANCH   1   3
ATOM      3  C   UNL     1      -1.354  26.089  30.004  1.00  0.00     0.027 C 
BRANCH   3   4
ATOM      4  C   UNL     1      -2.892  26.154  30.004  1.00  0.00     0.004 C 
BRANCH   4   5
ATOM      5  C   UNL     1      -3.493  27.240  30.924  1.00  0.00     0.000 C 
BRANCH   5   6
ATOM      6  C   UNL     1      -2.693  28.552  31.008  1.00  0.00     0.000 C 
BRANCH   6   7
ATOM      7  C   UNL     1      -3.428  29.741  30.366  1.00  0.00     0.000 C 
BRANCH   7   8
ATOM      8  C   UNL     1      -3.496  29.635  28.834  1.00  0.00     0.006 C 
BRANCH   8   9
ATOM      9  C   UNL     1      -4.757  28.910  28.342  1.00  0.00     0.053 C 
BRANCH   9  10
ATOM     10  C   UNL     1      -4.466  28.142  27.091  1.00  0.00     0.041 C 
ATOM     11  O   UNL     1      -4.664  26.896  27.050  1.00  0.00    -0.550 OA
ATOM     12  O   UNL     1      -3.997  28.803  25.962  1.00  0.00    -0.550 OA
ENDBRANCH   9  10
ENDBRANCH   8   9
ENDBRANCH   7   8
ENDBRANCH   6   7
ENDBRANCH   5   6
ENDBRANCH   4   5
ENDBRANCH   3   4
ENDBRANCH   1   3
BRANCH   2  13
ATOM     13  C   UNL     1      -0.843  27.382  26.383  1.00  0.00     0.027 C 
BRANCH  13  14
ATOM     14  C   UNL     1       0.636  26.976  26.263  1.00  0.00     0.004 C 
BRANCH  14  15
ATOM     15  C   UNL     1       1.512  28.006  25.527  1.00  0.00     0.000 C 
BRANCH  15  16
ATOM     16  C   UNL     1       2.692  27.358  24.785  1.00  0.00     0.000 C 
BRANCH  16  17
ATOM     17  C   UNL     1       3.228  28.288  23.687  1.00  0.00    -0.000 C 
BRANCH  17  18
ATOM     18  C   UNL     1       4.600  27.847  23.152  1.00  0.00    -0.000 C 
BRANCH  18  19
ATOM     19  C   UNL     1       4.912  28.435  21.767  1.00  0.00    -0.003 C 
ATOM     20  C   UNL     1       4.322  27.570  20.657  1.00  0.00     0.004 C 
ENDBRANCH  18  19
ENDBRANCH  17  18
ENDBRANCH  16  17
ENDBRANCH  15  16
ENDBRANCH  14  15
ENDBRANCH  13  14
ENDBRANCH   2  13
TORSDOF 15
ENDMDL
MODEL 5
REMARK VINA RESULT:     4.427     18.835     21.372
REMARK INTER + INTRA:           6.806
REMARK INTER:                   6.807
REMARK INTRA:                  -0.001
REMARK UNBOUND:                -1.504
REMARK SMILES CCCCCCCCC=CCCCCCCCC(=O)[O-]
REMARK SMILES IDX 10 1 9 2 11 3 12 4 13 5 14 6 15 7 16 8 17 9 18 10 19 11
REMARK SMILES IDX 20 12 8 13 7 14 6 15 5 16 4 17 3 18 2 19 1 20
REMARK H PARENT
REMARK Flexibility Score: inf
ROOT
ATOM      1  C   UNL     1      10.586   9.992  24.209  1.00  0.00    -0.031 C 
ATOM      2  C   UNL     1       9.650   9.976  23.249  1.00  0.00    -0.031 C 
ENDROOT
BRANCH   1   3
ATOM      3  C   UNL     1      12.048  10.093  23.856  1.00  0.00     0.027 C 
BRANCH   3   4
ATOM      4  C   UNL     1      12.966   9.876  25.072  1.00  0.00     0.004 C 
BRANCH   4   5
ATOM      5  C   UNL     1      14.470  10.089  24.793  1.00  0.00     0.000 C 
BRANCH   5   6
ATOM      6  C   UNL     1      15.054  11.421  25.297  1.00  0.00     0.000 C 
BRANCH   6   7
ATOM      7  C   UNL     1      14.998  11.555  26.828  1.00  0.00     0.000 C 
BRANCH   7   8
ATOM      8  C   UNL     1      14.276  10.376  27.500  1.00  0.00     0.006 C 
BRANCH   8   9
ATOM      9  C   UNL     1      14.187  10.522  29.025  1.00  0.00     0.053 C 
BRANCH   9  10
ATOM     10  C   UNL     1      12.758  10.572  29.465  1.00  0.00     0.041 C 
ATOM     11  O   UNL     1      11.852  10.893  28.648  1.00  0.00    -0.550 OA
ATOM     12  O   UNL     1      12.421  10.244  30.773  1.00  0.00    -0.550 OA
ENDBRANCH   9  10
ENDBRANCH   8   9
ENDBRANCH   7   8
ENDBRANCH   6   7
ENDBRANCH   5   6
ENDBRANCH   4   5
ENDBRANCH   3   4
ENDBRANCH   1   3
BRANCH   2  13
ATOM     13  C   UNL     1       8.184   9.900  23.580  1.00  0.00     0.027 C 
BRANCH  13  14
ATOM     14  C   UNL     1       7.308  10.649  22.560  1.00  0.00     0.004 C 
BRANCH  14  15
ATOM     15  C   UNL     1       7.308  12.178  22.736  1.00  0.00     0.000 C 
BRANCH  15  16
ATOM     16  C   UNL     1       6.926  12.922  21.447  1.00  0.00     0.000 C 
BRANCH  16  17
ATOM     17  C   UNL     1       6.005  12.063  20.568  1.00  0.00    -0.000 C 
BRANCH  17  18
ATOM     18  C   UNL     1       5.765  12.678  19.179  1.00  0.00    -0.000 C 
BRANCH  18  19
ATOM     19  C   UNL     1       5.352  11.632  18.132  1.00  0.00    -0.003 C 
ATOM     20  C   UNL     1       3.835  11.585  17.972  1.00  0.00     0.004 C 
ENDBRANCH  18  19
ENDBRANCH  17  18
ENDBRANCH  16  17
ENDBRANCH  15  16
ENDBRANCH  14  15
ENDBRANCH  13  14
ENDBRANCH   2  13
TORSDOF 15
ENDMDL
MODEL 6
REMARK VINA RESULT:     5.254      3.818      8.550
REMARK INTER + INTRA:           8.357
REMARK INTER:                   9.474
REMARK INTRA:                  -1.117
REMARK UNBOUND:                -1.504
REMARK SMILES CCCCCCCCC=CCCCCCCCC(=O)[O-]
REMARK SMILES IDX 10 1 9 2 11 3 12 4 13 5 14 6 15 7 16 8 17 9 18 10 19 11
REMARK SMILES IDX 20 12 8 13 7 14 6 15 5 16 4 17 3 18 2 19 1 20
REMARK H PARENT
REMARK Flexibility Score: inf
ROOT
ATOM      1  C   UNL     1      -2.060  27.480  26.885  1.00  0.00    -0.031 C 
ATOM      2  C   UNL     1      -3.339  27.745  26.583  1.00  0.00    -0.031 C 
ENDROOT
BRANCH   1   3
ATOM      3  C   UNL     1      -0.956  27.811  25.915  1.00  0.00     0.027 C 
BRANCH   3   4
ATOM      4  C   UNL     1       0.349  27.056  26.222  1.00  0.00     0.004 C 
BRANCH   4   5
ATOM      5  C   UNL     1       1.608  27.635  25.542  1.00  0.00     0.000 C 
BRANCH   5   6
ATOM      6  C   UNL     1       1.553  29.138  25.218  1.00  0.00     0.000 C 
BRANCH   6   7
ATOM      7  C   UNL     1       2.664  29.581  24.251  1.00  0.00     0.000 C 
BRANCH   7   8
ATOM      8  C   UNL     1       3.443  28.395  23.661  1.00  0.00     0.006 C 
BRANCH   8   9
ATOM      9  C   UNL     1       3.445  28.387  22.126  1.00  0.00     0.053 C 
BRANCH   9  10
ATOM     10  C   UNL     1       4.792  27.996  21.605  1.00  0.00     0.041 C 
ATOM     11  O   UNL     1       4.895  27.116  20.706  1.00  0.00    -0.550 OA
ATOM     12  O   UNL     1       5.936  28.617  22.096  1.00  0.00    -0.550 OA
ENDBRANCH   9  10
ENDBRANCH   8   9
ENDBRANCH   7   8
ENDBRANCH   6   7
ENDBRANCH   5   6
ENDBRANCH   4   5
ENDBRANCH   3   4
ENDBRANCH   1   3
BRANCH   2  13
ATOM     13  C   UNL     1      -4.455  27.444  27.547  1.00  0.00     0.027 C 
BRANCH  13  14
ATOM     14  C   UNL     1      -4.043  26.432  28.630  1.00  0.00     0.004 C 
BRANCH  14  15
ATOM     15  C   UNL     1      -4.423  26.854  30.061  1.00  0.00     0.000 C 
BRANCH  15  16
ATOM     16  C   UNL     1      -3.297  26.595  31.074  1.00  0.00     0.000 C 
BRANCH  16  17
ATOM     17  C   UNL     1      -2.022  27.361  30.687  1.00  0.00    -0.000 C 
BRANCH  17  18
ATOM     18  C   UNL     1      -2.101  28.857  31.030  1.00  0.00    -0.000 C 
BRANCH  18  19
ATOM     19  C   UNL     1      -2.875  29.666  29.977  1.00  0.00    -0.003 C 
ATOM     20  C   UNL     1      -4.225  30.125  30.520  1.00  0.00     0.004 C 
ENDBRANCH  18  19
ENDBRANCH  17  18
ENDBRANCH  16  17
ENDBRANCH  15  16
ENDBRANCH  14  15
ENDBRANCH  13  14
ENDBRANCH   2  13
TORSDOF 15
ENDMDL
