MODEL 1
REMARK VINA RESULT:    -5.555      0.000      0.000
REMARK INTER + INTRA:         -14.291
REMARK INTER:                 -12.050
REMARK INTRA:                  -2.241
REMARK UNBOUND:                -2.241
REMARK SMILES CCCCCCCCCCCCCCCCCCCCCC(=O)[O-]
REMARK SMILES IDX 12 1 11 2 10 3 9 4 8 5 7 6 6 7 5 8 4 9 3 10 2 11 1 12 13 13
REMARK SMILES IDX 14 14 15 15 16 16 17 17 18 18 19 19 20 20 21 21 22 22 23 23
REMARK SMILES IDX 24 24
REMARK H PARENT
REMARK Flexibility Score: inf
ROOT
ATOM      1  C   UNL     1      49.998  28.952  16.466  1.00  0.00     0.000 C 
ENDROOT
BRANCH   1   2
ATOM      2  C   UNL     1      50.285  27.442  16.482  1.00  0.00     0.000 C 
BRANCH   2   3
ATOM      3  C   UNL     1      49.067  26.613  16.918  1.00  0.00     0.000 C 
BRANCH   3   4
ATOM      4  C   UNL     1      49.483  25.181  17.285  1.00  0.00    -0.000 C 
BRANCH   4   5
ATOM      5  C   UNL     1      49.485  24.928  18.803  1.00  0.00    -0.000 C 
BRANCH   5   6
ATOM      6  C   UNL     1      48.391  25.673  19.589  1.00  0.00    -0.000 C 
BRANCH   6   7
ATOM      7  C   UNL     1      48.451  25.407  21.099  1.00  0.00    -0.000 C 
BRANCH   7   8
ATOM      8  C   UNL     1      48.254  26.706  21.895  1.00  0.00    -0.000 C 
BRANCH   8   9
ATOM      9  C   UNL     1      49.524  27.150  22.644  1.00  0.00    -0.000 C 
BRANCH   9  10
ATOM     10  C   UNL     1      50.748  26.236  22.445  1.00  0.00    -0.000 C 
BRANCH  10  11
ATOM     11  C   UNL     1      52.007  27.007  22.023  1.00  0.00    -0.003 C 
ATOM     12  C   UNL     1      52.342  26.751  20.556  1.00  0.00     0.004 C 
ENDBRANCH  10  11
ENDBRANCH   9  10
ENDBRANCH   8   9
ENDBRANCH   7   8
ENDBRANCH   6   7
ENDBRANCH   5   6
ENDBRANCH   4   5
ENDBRANCH   3   4
ENDBRANCH   2   3
ENDBRANCH   1   2
BRANCH   1  13
ATOM     13  C   UNL     1      48.895  29.332  15.463  1.00  0.00     0.000 C 
BRANCH  13  14
ATOM     14  C   UNL     1      47.697  30.044  16.123  1.00  0.00     0.000 C 
BRANCH  14  15
ATOM     15  C   UNL     1      47.805  30.228  17.647  1.00  0.00     0.000 C 
BRANCH  15  16
ATOM     16  C   UNL     1      47.851  31.705  18.071  1.00  0.00     0.000 C 
BRANCH  16  17
ATOM     17  C   UNL     1      49.174  32.398  17.694  1.00  0.00     0.000 C 
BRANCH  17  18
ATOM     18  C   UNL     1      49.022  33.806  17.090  1.00  0.00     0.000 C 
BRANCH  18  19
ATOM     19  C   UNL     1      47.855  33.914  16.098  1.00  0.00     0.000 C 
BRANCH  19  20
ATOM     20  C   UNL     1      48.242  33.348  14.724  1.00  0.00     0.006 C 
BRANCH  20  21
ATOM     21  C   UNL     1      48.995  34.374  13.867  1.00  0.00     0.053 C 
BRANCH  21  22
ATOM     22  C   UNL     1      48.766  34.152  12.402  1.00  0.00     0.041 C 
ATOM     23  O   UNL     1      47.604  34.227  11.924  1.00  0.00    -0.550 OA
ATOM     24  O   UNL     1      49.833  33.829  11.571  1.00  0.00    -0.550 OA
ENDBRANCH  21  22
ENDBRANCH  20  21
ENDBRANCH  19  20
ENDBRANCH  18  19
ENDBRANCH  17  18
ENDBRANCH  16  17
ENDBRANCH  15  16
ENDBRANCH  14  15
ENDBRANCH  13  14
ENDBRANCH   1  13
TORSDOF 20
ENDMDL
MODEL 2
REMARK VINA RESULT:    -5.300      6.874     12.343
REMARK INTER + INTRA:         -13.739
REMARK INTER:                 -11.433
REMARK INTRA:                  -2.306
REMARK UNBOUND:                -2.241
REMARK SMILES CCCCCCCCCCCCCCCCCCCCCC(=O)[O-]
REMARK SMILES IDX 12 1 11 2 10 3 9 4 8 5 7 6 6 7 5 8 4 9 3 10 2 11 1 12 13 13
REMARK SMILES IDX 14 14 15 15 16 16 17 17 18 18 19 19 20 20 21 21 22 22 23 23
REMARK SMILES IDX 24 24
REMARK H PARENT
REMARK Flexibility Score: inf
ROOT
ATOM      1  C   UNL     1      43.179  37.555  12.118  1.00  0.00     0.000 C 
ENDROOT
BRANCH   1   2
ATOM      2  C   UNL     1      42.347  37.945  10.886  1.00  0.00     0.000 C 
BRANCH   2   3
ATOM      3  C   UNL     1      42.167  36.779   9.901  1.00  0.00     0.000 C 
BRANCH   3   4
ATOM      4  C   UNL     1      40.711  36.291   9.892  1.00  0.00    -0.000 C 
BRANCH   4   5
ATOM      5  C   UNL     1      40.575  34.805  10.272  1.00  0.00    -0.000 C 
BRANCH   5   6
ATOM      6  C   UNL     1      39.955  34.542  11.657  1.00  0.00    -0.000 C 
BRANCH   6   7
ATOM      7  C   UNL     1      38.997  35.655  12.106  1.00  0.00    -0.000 C 
BRANCH   7   8
ATOM      8  C   UNL     1      39.580  36.434  13.295  1.00  0.00    -0.000 C 
BRANCH   8   9
ATOM      9  C   UNL     1      39.294  37.945  13.221  1.00  0.00    -0.000 C 
BRANCH   9  10
ATOM     10  C   UNL     1      40.291  38.833  13.989  1.00  0.00    -0.000 C 
BRANCH  10  11
ATOM     11  C   UNL     1      40.239  40.304  13.554  1.00  0.00    -0.003 C 
ATOM     12  C   UNL     1      39.154  41.064  14.313  1.00  0.00     0.004 C 
ENDBRANCH  10  11
ENDBRANCH   9  10
ENDBRANCH   8   9
ENDBRANCH   7   8
ENDBRANCH   6   7
ENDBRANCH   5   6
ENDBRANCH   4   5
ENDBRANCH   3   4
ENDBRANCH   2   3
ENDBRANCH   1   2
BRANCH   1  13
ATOM     13  C   UNL     1      43.637  36.087  12.080  1.00  0.00     0.000 C 
BRANCH  13  14
ATOM     14  C   UNL     1      44.669  35.747  13.174  1.00  0.00     0.000 C 
BRANCH  14  15
ATOM     15  C   UNL     1      46.141  35.825  12.730  1.00  0.00     0.000 C 
BRANCH  15  16
ATOM     16  C   UNL     1      46.532  34.703  11.753  1.00  0.00     0.000 C 
BRANCH  16  17
ATOM     17  C   UNL     1      47.865  34.025  12.120  1.00  0.00     0.000 C 
BRANCH  17  18
ATOM     18  C   UNL     1      48.511  34.523  13.427  1.00  0.00     0.000 C 
BRANCH  18  19
ATOM     19  C   UNL     1      48.555  33.449  14.524  1.00  0.00     0.000 C 
BRANCH  19  20
ATOM     20  C   UNL     1      47.600  33.795  15.676  1.00  0.00     0.006 C 
BRANCH  20  21
ATOM     21  C   UNL     1      48.341  33.967  17.009  1.00  0.00     0.053 C 
BRANCH  21  22
ATOM     22  C   UNL     1      48.725  32.647  17.607  1.00  0.00     0.041 C 
ATOM     23  O   UNL     1      47.837  31.864  18.037  1.00  0.00    -0.550 OA
ATOM     24  O   UNL     1      50.065  32.297  17.722  1.00  0.00    -0.550 OA
ENDBRANCH  21  22
ENDBRANCH  20  21
ENDBRANCH  19  20
ENDBRANCH  18  19
ENDBRANCH  17  18
ENDBRANCH  16  17
ENDBRANCH  15  16
ENDBRANCH  14  15
ENDBRANCH  13  14
ENDBRANCH   1  13
TORSDOF 20
ENDMDL
MODEL 3
REMARK VINA RESULT:    -5.282      4.002      9.376
REMARK INTER + INTRA:         -13.700
REMARK INTER:                 -11.827
REMARK INTRA:                  -1.873
REMARK UNBOUND:                -2.241
REMARK SMILES CCCCCCCCCCCCCCCCCCCCCC(=O)[O-]
REMARK SMILES IDX 12 1 11 2 10 3 9 4 8 5 7 6 6 7 5 8 4 9 3 10 2 11 1 12 13 13
REMARK SMILES IDX 14 14 15 15 16 16 17 17 18 18 19 19 20 20 21 21 22 22 23 23
REMARK SMILES IDX 24 24
REMARK H PARENT
REMARK Flexibility Score: inf
ROOT
ATOM      1  C   UNL     1      49.057  30.201  16.465  1.00  0.00     0.000 C 
ENDROOT
BRANCH   1   2
ATOM      2  C   UNL     1      47.957  30.357  17.527  1.00  0.00     0.000 C 
BRANCH   2   3
ATOM      3  C   UNL     1      47.931  31.761  18.150  1.00  0.00     0.000 C 
BRANCH   3   4
ATOM      4  C   UNL     1      49.227  32.522  17.837  1.00  0.00    -0.000 C 
BRANCH   4   5
ATOM      5  C   UNL     1      48.975  33.886  17.168  1.00  0.00    -0.000 C 
BRANCH   5   6
ATOM      6  C   UNL     1      47.520  34.139  16.734  1.00  0.00    -0.000 C 
BRANCH   6   7
ATOM      7  C   UNL     1      47.270  33.810  15.255  1.00  0.00    -0.000 C 
BRANCH   7   8
ATOM      8  C   UNL     1      48.596  33.617  14.503  1.00  0.00    -0.000 C 
BRANCH   8   9
ATOM      9  C   UNL     1      48.546  34.134  13.054  1.00  0.00    -0.000 C 
BRANCH   9  10
ATOM     10  C   UNL     1      49.568  33.489  12.099  1.00  0.00    -0.000 C 
BRANCH  10  11
ATOM     11  C   UNL     1      49.240  33.734  10.619  1.00  0.00    -0.003 C 
ATOM     12  C   UNL     1      47.800  33.340  10.303  1.00  0.00     0.004 C 
ENDBRANCH  10  11
ENDBRANCH   9  10
ENDBRANCH   8   9
ENDBRANCH   7   8
ENDBRANCH   6   7
ENDBRANCH   5   6
ENDBRANCH   4   5
ENDBRANCH   3   4
ENDBRANCH   2   3
ENDBRANCH   1   2
BRANCH   1  13
ATOM     13  C   UNL     1      48.514  29.670  15.127  1.00  0.00     0.000 C 
BRANCH  13  14
ATOM     14  C   UNL     1      48.335  28.139  15.111  1.00  0.00     0.000 C 
BRANCH  14  15
ATOM     15  C   UNL     1      49.628  27.333  14.892  1.00  0.00     0.000 C 
BRANCH  15  16
ATOM     16  C   UNL     1      49.485  25.853  15.284  1.00  0.00     0.000 C 
BRANCH  16  17
ATOM     17  C   UNL     1      48.400  25.616  16.350  1.00  0.00     0.000 C 
BRANCH  17  18
ATOM     18  C   UNL     1      48.930  25.242  17.747  1.00  0.00     0.000 C 
BRANCH  18  19
ATOM     19  C   UNL     1      48.554  26.266  18.828  1.00  0.00     0.000 C 
BRANCH  19  20
ATOM     20  C   UNL     1      48.327  25.582  20.184  1.00  0.00     0.006 C 
BRANCH  20  21
ATOM     21  C   UNL     1      49.559  25.678  21.093  1.00  0.00     0.053 C 
BRANCH  21  22
ATOM     22  C   UNL     1      49.292  26.516  22.307  1.00  0.00     0.041 C 
ATOM     23  O   UNL     1      48.113  26.675  22.720  1.00  0.00    -0.550 OA
ATOM     24  O   UNL     1      50.342  27.149  22.963  1.00  0.00    -0.550 OA
ENDBRANCH  21  22
ENDBRANCH  20  21
ENDBRANCH  19  20
ENDBRANCH  18  19
ENDBRANCH  17  18
ENDBRANCH  16  17
ENDBRANCH  15  16
ENDBRANCH  14  15
ENDBRANCH  13  14
ENDBRANCH   1  13
TORSDOF 20
ENDMDL
MODEL 4
REMARK VINA RESULT:    -5.264      2.480      5.016
REMARK INTER + INTRA:         -13.661
REMARK INTER:                 -10.099
REMARK INTRA:                  -3.562
REMARK UNBOUND:                -2.241
REMARK SMILES CCCCCCCCCCCCCCCCCCCCCC(=O)[O-]
REMARK SMILES IDX 12 1 11 2 10 3 9 4 8 5 7 6 6 7 5 8 4 9 3 10 2 11 1 12 13 13
REMARK SMILES IDX 14 14 15 15 16 16 17 17 18 18 19 19 20 20 21 21 22 22 23 23
REMARK SMILES IDX 24 24
REMARK H PARENT
REMARK Flexibility Score: inf
ROOT
ATOM      1  C   UNL     1      48.683  26.587  19.230  1.00  0.00     0.000 C 
ENDROOT
BRANCH   1   2
ATOM      2  C   UNL     1      48.413  26.444  20.736  1.00  0.00     0.000 C 
BRANCH   2   3
ATOM      3  C   UNL     1      49.125  25.230  21.352  1.00  0.00     0.000 C 
BRANCH   3   4
ATOM      4  C   UNL     1      49.832  25.616  22.660  1.00  0.00    -0.000 C 
BRANCH   4   5
ATOM      5  C   UNL     1      50.350  27.066  22.656  1.00  0.00    -0.000 C 
BRANCH   5   6
ATOM      6  C   UNL     1      51.857  27.218  22.380  1.00  0.00    -0.000 C 
BRANCH   6   7
ATOM      7  C   UNL     1      52.624  25.893  22.493  1.00  0.00    -0.000 C 
BRANCH   7   8
ATOM      8  C   UNL     1      53.457  25.630  21.230  1.00  0.00    -0.000 C 
BRANCH   8   9
ATOM      9  C   UNL     1      52.605  25.166  20.034  1.00  0.00    -0.000 C 
BRANCH   9  10
ATOM     10  C   UNL     1      52.884  25.906  18.713  1.00  0.00    -0.000 C 
BRANCH  10  11
ATOM     11  C   UNL     1      52.238  27.298  18.660  1.00  0.00    -0.003 C 
ATOM     12  C   UNL     1      53.293  28.397  18.749  1.00  0.00     0.004 C 
ENDBRANCH  10  11
ENDBRANCH   9  10
ENDBRANCH   8   9
ENDBRANCH   7   8
ENDBRANCH   6   7
ENDBRANCH   5   6
ENDBRANCH   4   5
ENDBRANCH   3   4
ENDBRANCH   2   3
ENDBRANCH   1   2
BRANCH   1  13
ATOM     13  C   UNL     1      49.079  25.254  18.572  1.00  0.00     0.000 C 
BRANCH  13  14
ATOM     14  C   UNL     1      48.881  25.252  17.044  1.00  0.00     0.000 C 
BRANCH  14  15
ATOM     15  C   UNL     1      50.172  25.397  16.218  1.00  0.00     0.000 C 
BRANCH  15  16
ATOM     16  C   UNL     1      50.078  26.499  15.149  1.00  0.00     0.000 C 
BRANCH  16  17
ATOM     17  C   UNL     1      48.705  27.194  15.121  1.00  0.00     0.000 C 
BRANCH  17  18
ATOM     18  C   UNL     1      48.667  28.588  15.777  1.00  0.00     0.000 C 
BRANCH  18  19
ATOM     19  C   UNL     1      50.060  29.116  16.149  1.00  0.00     0.000 C 
BRANCH  19  20
ATOM     20  C   UNL     1      49.977  30.535  16.729  1.00  0.00     0.006 C 
BRANCH  20  21
ATOM     21  C   UNL     1      48.667  31.239  16.350  1.00  0.00     0.053 C 
BRANCH  21  22
ATOM     22  C   UNL     1      48.119  32.047  17.487  1.00  0.00     0.041 C 
ATOM     23  O   UNL     1      48.144  33.305  17.440  1.00  0.00    -0.550 OA
ATOM     24  O   UNL     1      47.611  31.411  18.614  1.00  0.00    -0.550 OA
ENDBRANCH  21  22
ENDBRANCH  20  21
ENDBRANCH  19  20
ENDBRANCH  18  19
ENDBRANCH  17  18
ENDBRANCH  16  17
ENDBRANCH  15  16
ENDBRANCH  14  15
ENDBRANCH  13  14
ENDBRANCH   1  13
TORSDOF 20
ENDMDL
MODEL 5
REMARK VINA RESULT:    -5.208      6.122     11.660
REMARK INTER + INTRA:         -13.539
REMARK INTER:                 -11.655
REMARK INTRA:                  -1.884
REMARK UNBOUND:                -2.241
REMARK SMILES CCCCCCCCCCCCCCCCCCCCCC(=O)[O-]
REMARK SMILES IDX 12 1 11 2 10 3 9 4 8 5 7 6 6 7 5 8 4 9 3 10 2 11 1 12 13 13
REMARK SMILES IDX 14 14 15 15 16 16 17 17 18 18 19 19 20 20 21 21 22 22 23 23
REMARK SMILES IDX 24 24
REMARK H PARENT
REMARK Flexibility Score: inf
ROOT
ATOM      1  C   UNL     1      46.354  35.740  12.547  1.00  0.00     0.000 C 
ENDROOT
BRANCH   1   2
ATOM      2  C   UNL     1      44.898  35.715  13.040  1.00  0.00     0.000 C 
BRANCH   2   3
ATOM      3  C   UNL     1      44.000  36.707  12.285  1.00  0.00     0.000 C 
BRANCH   3   4
ATOM      4  C   UNL     1      42.582  36.144  12.119  1.00  0.00    -0.000 C 
BRANCH   4   5
ATOM      5  C   UNL     1      42.102  36.148  10.656  1.00  0.00    -0.000 C 
BRANCH   5   6
ATOM      6  C   UNL     1      40.954  35.170  10.345  1.00  0.00    -0.000 C 
BRANCH   6   7
ATOM      7  C   UNL     1      40.155  34.768  11.592  1.00  0.00    -0.000 C 
BRANCH   7   8
ATOM      8  C   UNL     1      38.843  35.562  11.684  1.00  0.00    -0.000 C 
BRANCH   8   9
ATOM      9  C   UNL     1      38.905  36.711  12.707  1.00  0.00    -0.000 C 
BRANCH   9  10
ATOM     10  C   UNL     1      39.422  38.050  12.148  1.00  0.00    -0.000 C 
BRANCH  10  11
ATOM     11  C   UNL     1      40.346  38.788  13.127  1.00  0.00    -0.003 C 
ATOM     12  C   UNL     1      41.093  39.921  12.429  1.00  0.00     0.004 C 
ENDBRANCH  10  11
ENDBRANCH   9  10
ENDBRANCH   8   9
ENDBRANCH   7   8
ENDBRANCH   6   7
ENDBRANCH   5   6
ENDBRANCH   4   5
ENDBRANCH   3   4
ENDBRANCH   2   3
ENDBRANCH   1   2
BRANCH   1  13
ATOM     13  C   UNL     1      46.764  34.430  11.851  1.00  0.00     0.000 C 
BRANCH  13  14
ATOM     14  C   UNL     1      48.242  34.061  12.080  1.00  0.00     0.000 C 
BRANCH  14  15
ATOM     15  C   UNL     1      48.801  34.429  13.466  1.00  0.00     0.000 C 
BRANCH  15  16
ATOM     16  C   UNL     1      48.477  33.378  14.541  1.00  0.00     0.000 C 
BRANCH  16  17
ATOM     17  C   UNL     1      47.539  33.912  15.639  1.00  0.00     0.000 C 
BRANCH  17  18
ATOM     18  C   UNL     1      48.031  33.689  17.082  1.00  0.00     0.000 C 
BRANCH  18  19
ATOM     19  C   UNL     1      48.904  32.435  17.232  1.00  0.00     0.000 C 
BRANCH  19  20
ATOM     20  C   UNL     1      48.081  31.245  17.747  1.00  0.00     0.006 C 
BRANCH  20  21
ATOM     21  C   UNL     1      47.570  30.359  16.603  1.00  0.00     0.053 C 
BRANCH  21  22
ATOM     22  C   UNL     1      48.160  28.982  16.658  1.00  0.00     0.041 C 
ATOM     23  O   UNL     1      48.359  28.422  17.768  1.00  0.00    -0.550 OA
ATOM     24  O   UNL     1      48.522  28.330  15.485  1.00  0.00    -0.550 OA
ENDBRANCH  21  22
ENDBRANCH  20  21
ENDBRANCH  19  20
ENDBRANCH  18  19
ENDBRANCH  17  18
ENDBRANCH  16  17
ENDBRANCH  15  16
ENDBRANCH  14  15
ENDBRANCH  13  14
ENDBRANCH   1  13
TORSDOF 20
ENDMDL
MODEL 6
REMARK VINA RESULT:    -5.132      6.777     12.463
REMARK INTER + INTRA:         -13.374
REMARK INTER:                 -11.439
REMARK INTRA:                  -1.935
REMARK UNBOUND:                -2.241
REMARK SMILES CCCCCCCCCCCCCCCCCCCCCC(=O)[O-]
REMARK SMILES IDX 12 1 11 2 10 3 9 4 8 5 7 6 6 7 5 8 4 9 3 10 2 11 1 12 13 13
REMARK SMILES IDX 14 14 15 15 16 16 17 17 18 18 19 19 20 20 21 21 22 22 23 23
REMARK SMILES IDX 24 24
REMARK H PARENT
REMARK Flexibility Score: inf
ROOT
ATOM      1  C   UNL     1      43.109  36.313  12.143  1.00  0.00     0.000 C 
ENDROOT
BRANCH   1   2
ATOM      2  C   UNL     1      42.651  37.239  11.005  1.00  0.00     0.000 C 
BRANCH   2   3
ATOM      3  C   UNL     1      42.834  38.727  11.343  1.00  0.00     0.000 C 
BRANCH   3   4
ATOM      4  C   UNL     1      41.502  39.482  11.222  1.00  0.00    -0.000 C 
BRANCH   4   5
ATOM      5  C   UNL     1      40.938  39.926  12.584  1.00  0.00    -0.000 C 
BRANCH   5   6
ATOM      6  C   UNL     1      39.831  39.021  13.156  1.00  0.00    -0.000 C 
BRANCH   6   7
ATOM      7  C   UNL     1      40.378  37.888  14.035  1.00  0.00    -0.000 C 
BRANCH   7   8
ATOM      8  C   UNL     1      39.841  36.525  13.573  1.00  0.00    -0.000 C 
BRANCH   8   9
ATOM      9  C   UNL     1      39.111  36.595  12.219  1.00  0.00    -0.000 C 
BRANCH   9  10
ATOM     10  C   UNL     1      38.628  35.239  11.672  1.00  0.00    -0.000 C 
BRANCH  10  11
ATOM     11  C   UNL     1      38.949  35.047  10.182  1.00  0.00    -0.003 C 
ATOM     12  C   UNL     1      40.413  34.668   9.980  1.00  0.00     0.004 C 
ENDBRANCH  10  11
ENDBRANCH   9  10
ENDBRANCH   8   9
ENDBRANCH   7   8
ENDBRANCH   6   7
ENDBRANCH   5   6
ENDBRANCH   4   5
ENDBRANCH   3   4
ENDBRANCH   2   3
ENDBRANCH   1   2
BRANCH   1  13
ATOM     13  C   UNL     1      44.585  36.529  12.522  1.00  0.00     0.000 C 
BRANCH  13  14
ATOM     14  C   UNL     1      45.396  35.220  12.567  1.00  0.00     0.000 C 
BRANCH  14  15
ATOM     15  C   UNL     1      46.921  35.399  12.672  1.00  0.00     0.000 C 
BRANCH  15  16
ATOM     16  C   UNL     1      47.706  34.312  11.919  1.00  0.00     0.000 C 
BRANCH  16  17
ATOM     17  C   UNL     1      48.495  33.381  12.858  1.00  0.00     0.000 C 
BRANCH  17  18
ATOM     18  C   UNL     1      48.798  33.967  14.250  1.00  0.00     0.000 C 
BRANCH  18  19
ATOM     19  C   UNL     1      47.990  33.300  15.373  1.00  0.00     0.000 C 
BRANCH  19  20
ATOM     20  C   UNL     1      48.469  31.862  15.621  1.00  0.00     0.006 C 
BRANCH  20  21
ATOM     21  C   UNL     1      47.868  31.265  16.900  1.00  0.00     0.053 C 
BRANCH  21  22
ATOM     22  C   UNL     1      47.663  29.785  16.782  1.00  0.00     0.041 C 
ATOM     23  O   UNL     1      47.898  29.032  17.763  1.00  0.00    -0.550 OA
ATOM     24  O   UNL     1      47.245  29.233  15.577  1.00  0.00    -0.550 OA
ENDBRANCH  21  22
ENDBRANCH  20  21
ENDBRANCH  19  20
ENDBRANCH  18  19
ENDBRANCH  17  18
ENDBRANCH  16  17
ENDBRANCH  15  16
ENDBRANCH  14  15
ENDBRANCH  13  14
ENDBRANCH   1  13
TORSDOF 20
ENDMDL
MODEL 7
REMARK VINA RESULT:    -5.099      7.288     11.041
REMARK INTER + INTRA:         -13.302
REMARK INTER:                 -11.340
REMARK INTRA:                  -1.962
REMARK UNBOUND:                -2.241
REMARK SMILES CCCCCCCCCCCCCCCCCCCCCC(=O)[O-]
REMARK SMILES IDX 12 1 11 2 10 3 9 4 8 5 7 6 6 7 5 8 4 9 3 10 2 11 1 12 13 13
REMARK SMILES IDX 14 14 15 15 16 16 17 17 18 18 19 19 20 20 21 21 22 22 23 23
REMARK SMILES IDX 24 24
REMARK H PARENT
REMARK Flexibility Score: inf
ROOT
ATOM      1  C   UNL     1      42.775  37.495  11.210  1.00  0.00     0.000 C 
ENDROOT
BRANCH   1   2
ATOM      2  C   UNL     1      43.193  36.254  12.015  1.00  0.00     0.000 C 
BRANCH   2   3
ATOM      3  C   UNL     1      44.421  36.509  12.902  1.00  0.00     0.000 C 
BRANCH   3   4
ATOM      4  C   UNL     1      45.352  35.287  12.911  1.00  0.00    -0.000 C 
BRANCH   4   5
ATOM      5  C   UNL     1      46.817  35.647  12.607  1.00  0.00    -0.000 C 
BRANCH   5   6
ATOM      6  C   UNL     1      47.757  34.442  12.415  1.00  0.00    -0.000 C 
BRANCH   6   7
ATOM      7  C   UNL     1      48.808  34.319  13.526  1.00  0.00    -0.000 C 
BRANCH   7   8
ATOM      8  C   UNL     1      48.463  33.170  14.486  1.00  0.00    -0.000 C 
BRANCH   8   9
ATOM      9  C   UNL     1      47.804  33.654  15.790  1.00  0.00    -0.000 C 
BRANCH   9  10
ATOM     10  C   UNL     1      48.787  34.028  16.914  1.00  0.00    -0.000 C 
BRANCH  10  11
ATOM     11  C   UNL     1      49.203  32.824  17.771  1.00  0.00    -0.003 C 
ATOM     12  C   UNL     1      48.041  31.850  17.950  1.00  0.00     0.004 C 
ENDBRANCH  10  11
ENDBRANCH   9  10
ENDBRANCH   8   9
ENDBRANCH   7   8
ENDBRANCH   6   7
ENDBRANCH   5   6
ENDBRANCH   4   5
ENDBRANCH   3   4
ENDBRANCH   2   3
ENDBRANCH   1   2
BRANCH   1  13
ATOM     13  C   UNL     1      41.811  37.156  10.060  1.00  0.00     0.000 C 
BRANCH  13  14
ATOM     14  C   UNL     1      41.587  35.641   9.886  1.00  0.00     0.000 C 
BRANCH  14  15
ATOM     15  C   UNL     1      40.126  35.178  10.016  1.00  0.00     0.000 C 
BRANCH  15  16
ATOM     16  C   UNL     1      39.202  36.263  10.594  1.00  0.00     0.000 C 
BRANCH  16  17
ATOM     17  C   UNL     1      38.724  35.947  12.023  1.00  0.00     0.000 C 
BRANCH  17  18
ATOM     18  C   UNL     1      39.809  36.055  13.112  1.00  0.00     0.000 C 
BRANCH  18  19
ATOM     19  C   UNL     1      39.711  37.348  13.933  1.00  0.00     0.000 C 
BRANCH  19  20
ATOM     20  C   UNL     1      40.107  38.570  13.091  1.00  0.00     0.006 C 
BRANCH  20  21
ATOM     21  C   UNL     1      39.044  39.676  13.143  1.00  0.00     0.053 C 
BRANCH  21  22
ATOM     22  C   UNL     1      39.367  40.710  14.179  1.00  0.00     0.041 C 
ATOM     23  O   UNL     1      38.573  40.920  15.133  1.00  0.00    -0.550 OA
ATOM     24  O   UNL     1      40.528  41.466  14.072  1.00  0.00    -0.550 OA
ENDBRANCH  21  22
ENDBRANCH  20  21
ENDBRANCH  19  20
ENDBRANCH  18  19
ENDBRANCH  17  18
ENDBRANCH  16  17
ENDBRANCH  15  16
ENDBRANCH  14  15
ENDBRANCH  13  14
ENDBRANCH   1  13
TORSDOF 20
ENDMDL
MODEL 8
REMARK VINA RESULT:    -5.061      2.875      7.281
REMARK INTER + INTRA:         -13.220
REMARK INTER:                 -10.859
REMARK INTRA:                  -2.362
REMARK UNBOUND:                -2.241
REMARK SMILES CCCCCCCCCCCCCCCCCCCCCC(=O)[O-]
REMARK SMILES IDX 12 1 11 2 10 3 9 4 8 5 7 6 6 7 5 8 4 9 3 10 2 11 1 12 13 13
REMARK SMILES IDX 14 14 15 15 16 16 17 17 18 18 19 19 20 20 21 21 22 22 23 23
REMARK SMILES IDX 24 24
REMARK H PARENT
REMARK Flexibility Score: inf
ROOT
ATOM      1  C   UNL     1      48.931  26.127  19.126  1.00  0.00     0.000 C 
ENDROOT
BRANCH   1   2
ATOM      2  C   UNL     1      48.458  25.272  17.940  1.00  0.00     0.000 C 
BRANCH   2   3
ATOM      3  C   UNL     1      49.417  25.340  16.741  1.00  0.00     0.000 C 
BRANCH   3   4
ATOM      4  C   UNL     1      49.813  26.792  16.440  1.00  0.00    -0.000 C 
BRANCH   4   5
ATOM      5  C   UNL     1      49.079  27.373  15.218  1.00  0.00    -0.000 C 
BRANCH   5   6
ATOM      6  C   UNL     1      48.070  28.492  15.536  1.00  0.00    -0.000 C 
BRANCH   6   7
ATOM      7  C   UNL     1      48.140  28.965  16.994  1.00  0.00    -0.000 C 
BRANCH   7   8
ATOM      8  C   UNL     1      47.883  30.476  17.095  1.00  0.00    -0.000 C 
BRANCH   8   9
ATOM      9  C   UNL     1      49.123  31.321  16.752  1.00  0.00    -0.000 C 
BRANCH   9  10
ATOM     10  C   UNL     1      49.419  32.468  17.736  1.00  0.00    -0.000 C 
BRANCH  10  11
ATOM     11  C   UNL     1      49.083  33.851  17.161  1.00  0.00    -0.003 C 
ATOM     12  C   UNL     1      47.575  34.039  17.027  1.00  0.00     0.004 C 
ENDBRANCH  10  11
ENDBRANCH   9  10
ENDBRANCH   8   9
ENDBRANCH   7   8
ENDBRANCH   6   7
ENDBRANCH   5   6
ENDBRANCH   4   5
ENDBRANCH   3   4
ENDBRANCH   2   3
ENDBRANCH   1   2
BRANCH   1  13
ATOM     13  C   UNL     1      48.592  25.491  20.485  1.00  0.00     0.000 C 
BRANCH  13  14
ATOM     14  C   UNL     1      48.013  26.499  21.497  1.00  0.00     0.000 C 
BRANCH  14  15
ATOM     15  C   UNL     1      48.937  26.841  22.680  1.00  0.00     0.000 C 
BRANCH  15  16
ATOM     16  C   UNL     1      50.317  26.169  22.576  1.00  0.00     0.000 C 
BRANCH  16  17
ATOM     17  C   UNL     1      51.472  27.181  22.464  1.00  0.00     0.000 C 
BRANCH  17  18
ATOM     18  C   UNL     1      52.685  26.697  21.649  1.00  0.00     0.000 C 
BRANCH  18  19
ATOM     19  C   UNL     1      52.292  25.858  20.424  1.00  0.00     0.000 C 
BRANCH  19  20
ATOM     20  C   UNL     1      52.646  26.584  19.119  1.00  0.00     0.006 C 
BRANCH  20  21
ATOM     21  C   UNL     1      53.341  27.928  19.375  1.00  0.00     0.053 C 
BRANCH  21  22
ATOM     22  C   UNL     1      53.405  28.768  18.135  1.00  0.00     0.041 C 
ATOM     23  O   UNL     1      54.513  29.190  17.712  1.00  0.00    -0.550 OA
ATOM     24  O   UNL     1      52.237  29.113  17.465  1.00  0.00    -0.550 OA
ENDBRANCH  21  22
ENDBRANCH  20  21
ENDBRANCH  19  20
ENDBRANCH  18  19
ENDBRANCH  17  18
ENDBRANCH  16  17
ENDBRANCH  15  16
ENDBRANCH  14  15
ENDBRANCH  13  14
ENDBRANCH   1  13
TORSDOF 20
ENDMDL
MODEL 9
REMARK VINA RESULT:    -5.003      1.134      2.676
REMARK INTER + INTRA:         -13.094
REMARK INTER:                 -11.129
REMARK INTRA:                  -1.965
REMARK UNBOUND:                -2.241
REMARK SMILES CCCCCCCCCCCCCCCCCCCCCC(=O)[O-]
REMARK SMILES IDX 12 1 11 2 10 3 9 4 8 5 7 6 6 7 5 8 4 9 3 10 2 11 1 12 13 13
REMARK SMILES IDX 14 14 15 15 16 16 17 17 18 18 19 19 20 20 21 21 22 22 23 23
REMARK SMILES IDX 24 24
REMARK H PARENT
REMARK Flexibility Score: inf
ROOT
ATOM      1  C   UNL     1      48.882  27.106  18.143  1.00  0.00     0.000 C 
ENDROOT
BRANCH   1   2
ATOM      2  C   UNL     1      48.572  25.660  18.562  1.00  0.00     0.000 C 
BRANCH   2   3
ATOM      3  C   UNL     1      48.661  25.451  20.082  1.00  0.00     0.000 C 
BRANCH   3   4
ATOM      4  C   UNL     1      48.166  26.695  20.834  1.00  0.00    -0.000 C 
BRANCH   4   5
ATOM      5  C   UNL     1      48.676  26.761  22.285  1.00  0.00    -0.000 C 
BRANCH   5   6
ATOM      6  C   UNL     1      50.035  26.080  22.529  1.00  0.00    -0.000 C 
BRANCH   6   7
ATOM      7  C   UNL     1      51.206  27.072  22.559  1.00  0.00    -0.000 C 
BRANCH   7   8
ATOM      8  C   UNL     1      52.517  26.389  22.141  1.00  0.00    -0.000 C 
BRANCH   8   9
ATOM      9  C   UNL     1      52.428  25.708  20.763  1.00  0.00    -0.000 C 
BRANCH   9  10
ATOM     10  C   UNL     1      52.329  26.674  19.568  1.00  0.00    -0.000 C 
BRANCH  10  11
ATOM     11  C   UNL     1      53.120  27.973  19.782  1.00  0.00    -0.003 C 
ATOM     12  C   UNL     1      54.187  28.150  18.706  1.00  0.00     0.004 C 
ENDBRANCH  10  11
ENDBRANCH   9  10
ENDBRANCH   8   9
ENDBRANCH   7   8
ENDBRANCH   6   7
ENDBRANCH   5   6
ENDBRANCH   4   5
ENDBRANCH   3   4
ENDBRANCH   2   3
ENDBRANCH   1   2
BRANCH   1  13
ATOM     13  C   UNL     1      48.657  27.346  16.641  1.00  0.00     0.000 C 
BRANCH  13  14
ATOM     14  C   UNL     1      48.618  28.841  16.267  1.00  0.00     0.000 C 
BRANCH  14  15
ATOM     15  C   UNL     1      49.992  29.532  16.194  1.00  0.00     0.000 C 
BRANCH  15  16
ATOM     16  C   UNL     1      50.041  30.852  16.983  1.00  0.00     0.000 C 
BRANCH  16  17
ATOM     17  C   UNL     1      48.691  31.591  17.002  1.00  0.00     0.000 C 
BRANCH  17  18
ATOM     18  C   UNL     1      48.791  33.127  17.079  1.00  0.00     0.000 C 
BRANCH  18  19
ATOM     19  C   UNL     1      48.024  33.837  15.954  1.00  0.00     0.000 C 
BRANCH  19  20
ATOM     20  C   UNL     1      48.368  33.235  14.584  1.00  0.00     0.006 C 
BRANCH  20  21
ATOM     21  C   UNL     1      48.929  34.285  13.616  1.00  0.00     0.053 C 
BRANCH  21  22
ATOM     22  C   UNL     1      49.175  33.712  12.253  1.00  0.00     0.041 C 
ATOM     23  O   UNL     1      48.262  33.083  11.656  1.00  0.00    -0.550 OA
ATOM     24  O   UNL     1      50.424  33.842  11.657  1.00  0.00    -0.550 OA
ENDBRANCH  21  22
ENDBRANCH  20  21
ENDBRANCH  19  20
ENDBRANCH  18  19
ENDBRANCH  17  18
ENDBRANCH  16  17
ENDBRANCH  15  16
ENDBRANCH  14  15
ENDBRANCH  13  14
ENDBRANCH   1  13
TORSDOF 20
ENDMDL
