MODEL 1
REMARK VINA RESULT:    -4.887      0.000      0.000
REMARK INTER + INTRA:          -5.746
REMARK INTER:                  -5.601
REMARK INTRA:                  -0.145
REMARK UNBOUND:                -0.145
REMARK SMILES O=C([O-])C=Cc1ccc(O)cc1
REMARK SMILES IDX 6 1 7 2 12 3 8 4 11 5 9 6 5 7 4 8 2 9 1 10 3 11 10 12
REMARK H PARENT 10 13
REMARK Flexibility Score: inf
ROOT
ATOM      1  C   UNL     1      15.784 -33.014 -20.608  1.00  0.00    -0.025 A 
ATOM      2  C   UNL     1      15.950 -33.346 -19.253  1.00  0.00     0.012 A 
ATOM      3  C   UNL     1      14.491 -33.063 -21.167  1.00  0.00     0.012 A 
ATOM      4  C   UNL     1      14.847 -33.693 -18.466  1.00  0.00     0.047 A 
ATOM      5  C   UNL     1      13.391 -33.411 -20.377  1.00  0.00     0.047 A 
ATOM      6  C   UNL     1      13.565 -33.725 -19.026  1.00  0.00     0.115 A 
ENDROOT
BRANCH   1   7
ATOM      7  C   UNL     1      16.986 -32.662 -21.404  1.00  0.00     0.010 C 
ATOM      8  C   UNL     1      18.125 -33.369 -21.387  1.00  0.00     0.025 C 
BRANCH   8   9
ATOM      9  C   UNL     1      19.294 -32.997 -22.200  1.00  0.00     0.064 C 
ATOM     10  O   UNL     1      19.566 -31.789 -22.437  1.00  0.00    -0.545 OA
ATOM     11  O   UNL     1      20.114 -33.993 -22.713  1.00  0.00    -0.545 OA
ENDBRANCH   8   9
ENDBRANCH   1   7
BRANCH   6  12
ATOM     12  O   UNL     1      12.460 -34.070 -18.251  1.00  0.00    -0.508 OA
ATOM     13  H   UNL     1      11.834 -33.366 -17.878  1.00  0.00     0.293 HD
ENDBRANCH   6  12
TORSDOF 3
ENDMDL
MODEL 2
REMARK VINA RESULT:    -4.872      1.331      5.838
REMARK INTER + INTRA:          -5.730
REMARK INTER:                  -5.595
REMARK INTRA:                  -0.134
REMARK UNBOUND:                -0.145
REMARK SMILES O=C([O-])C=Cc1ccc(O)cc1
REMARK SMILES IDX 6 1 7 2 12 3 8 4 11 5 9 6 5 7 4 8 2 9 1 10 3 11 10 12
REMARK H PARENT 10 13
REMARK Flexibility Score: inf
ROOT
ATOM      1  C   UNL     1      15.929 -32.752 -21.035  1.00  0.00    -0.025 A 
ATOM      2  C   UNL     1      16.131 -31.362 -21.084  1.00  0.00     0.012 A 
ATOM      3  C   UNL     1      17.029 -33.607 -21.252  1.00  0.00     0.012 A 
ATOM      4  C   UNL     1      17.406 -30.836 -21.318  1.00  0.00     0.047 A 
ATOM      5  C   UNL     1      18.302 -33.077 -21.487  1.00  0.00     0.047 A 
ATOM      6  C   UNL     1      18.495 -31.693 -21.518  1.00  0.00     0.115 A 
ENDROOT
BRANCH   1   7
ATOM      7  C   UNL     1      14.556 -33.261 -20.794  1.00  0.00     0.010 C 
ATOM      8  C   UNL     1      13.977 -33.299 -19.586  1.00  0.00     0.025 C 
BRANCH   8   9
ATOM      9  C   UNL     1      12.607 -33.800 -19.387  1.00  0.00     0.064 C 
ATOM     10  O   UNL     1      12.393 -34.914 -18.837  1.00  0.00    -0.545 OA
ATOM     11  O   UNL     1      11.530 -33.030 -19.809  1.00  0.00    -0.545 OA
ENDBRANCH   8   9
ENDBRANCH   1   7
BRANCH   6  12
ATOM     12  O   UNL     1      19.769 -31.180 -21.751  1.00  0.00    -0.508 OA
ATOM     13  H   UNL     1      20.186 -31.200 -22.674  1.00  0.00     0.293 HD
ENDBRANCH   6  12
TORSDOF 3
ENDMDL
MODEL 3
REMARK VINA RESULT:    -4.815      3.716      6.699
REMARK INTER + INTRA:          -5.664
REMARK INTER:                  -5.524
REMARK INTRA:                  -0.140
REMARK UNBOUND:                -0.145
REMARK SMILES O=C([O-])C=Cc1ccc(O)cc1
REMARK SMILES IDX 6 1 7 2 12 3 8 4 11 5 9 6 5 7 4 8 2 9 1 10 3 11 10 12
REMARK H PARENT 10 13
REMARK Flexibility Score: inf
ROOT
ATOM      1  C   UNL     1      19.022 -30.125 -22.358  1.00  0.00    -0.025 A 
ATOM      2  C   UNL     1      18.553 -28.853 -21.992  1.00  0.00     0.012 A 
ATOM      3  C   UNL     1      19.970 -30.227 -23.397  1.00  0.00     0.012 A 
ATOM      4  C   UNL     1      19.037 -27.705 -22.628  1.00  0.00     0.047 A 
ATOM      5  C   UNL     1      20.451 -29.078 -24.031  1.00  0.00     0.047 A 
ATOM      6  C   UNL     1      19.989 -27.815 -23.648  1.00  0.00     0.115 A 
ENDROOT
BRANCH   1   7
ATOM      7  C   UNL     1      18.470 -31.313 -21.660  1.00  0.00     0.010 C 
ATOM      8  C   UNL     1      18.793 -32.577 -21.971  1.00  0.00     0.025 C 
BRANCH   8   9
ATOM      9  C   UNL     1      18.234 -33.731 -21.248  1.00  0.00     0.064 C 
ATOM     10  O   UNL     1      18.902 -34.789 -21.093  1.00  0.00    -0.545 OA
ATOM     11  O   UNL     1      16.950 -33.653 -20.725  1.00  0.00    -0.545 OA
ENDBRANCH   8   9
ENDBRANCH   1   7
BRANCH   6  12
ATOM     12  O   UNL     1      20.479 -26.679 -24.289  1.00  0.00    -0.508 OA
ATOM     13  H   UNL     1      20.708 -26.685 -25.275  1.00  0.00     0.293 HD
ENDBRANCH   6  12
TORSDOF 3
ENDMDL
MODEL 4
REMARK VINA RESULT:    -4.785      6.293      8.974
REMARK INTER + INTRA:          -5.629
REMARK INTER:                  -5.486
REMARK INTRA:                  -0.143
REMARK UNBOUND:                -0.145
REMARK SMILES O=C([O-])C=Cc1ccc(O)cc1
REMARK SMILES IDX 6 1 7 2 12 3 8 4 11 5 9 6 5 7 4 8 2 9 1 10 3 11 10 12
REMARK H PARENT 10 13
REMARK Flexibility Score: inf
ROOT
ATOM      1  C   UNL     1       8.606 -31.923 -20.117  1.00  0.00    -0.025 A 
ATOM      2  C   UNL     1       9.925 -31.990 -20.598  1.00  0.00     0.012 A 
ATOM      3  C   UNL     1       8.108 -32.993 -19.347  1.00  0.00     0.012 A 
ATOM      4  C   UNL     1      10.737 -33.088 -20.296  1.00  0.00     0.047 A 
ATOM      5  C   UNL     1       8.923 -34.089 -19.048  1.00  0.00     0.047 A 
ATOM      6  C   UNL     1      10.238 -34.139 -19.518  1.00  0.00     0.115 A 
ENDROOT
BRANCH   1   7
ATOM      7  C   UNL     1       7.780 -30.742 -20.474  1.00  0.00     0.010 C 
ATOM      8  C   UNL     1       8.155 -29.475 -20.247  1.00  0.00     0.025 C 
BRANCH   8   9
ATOM      9  C   UNL     1       7.314 -28.327 -20.626  1.00  0.00     0.064 C 
ATOM     10  O   UNL     1       6.214 -28.492 -21.218  1.00  0.00    -0.545 OA
ATOM     11  O   UNL     1       7.739 -27.040 -20.322  1.00  0.00    -0.545 OA
ENDBRANCH   8   9
ENDBRANCH   1   7
BRANCH   6  12
ATOM     12  O   UNL     1      11.038 -35.237 -19.211  1.00  0.00    -0.508 OA
ATOM     13  H   UNL     1      11.216 -35.969 -19.888  1.00  0.00     0.293 HD
ENDBRANCH   6  12
TORSDOF 3
ENDMDL
MODEL 5
REMARK VINA RESULT:    -4.782     14.356     15.533
REMARK INTER + INTRA:          -5.626
REMARK INTER:                  -5.476
REMARK INTRA:                  -0.150
REMARK UNBOUND:                -0.145
REMARK SMILES O=C([O-])C=Cc1ccc(O)cc1
REMARK SMILES IDX 6 1 7 2 12 3 8 4 11 5 9 6 5 7 4 8 2 9 1 10 3 11 10 12
REMARK H PARENT 10 13
REMARK Flexibility Score: inf
ROOT
ATOM      1  C   UNL     1       7.831 -24.391 -11.581  1.00  0.00    -0.025 A 
ATOM      2  C   UNL     1       6.564 -24.056 -11.076  1.00  0.00     0.012 A 
ATOM      3  C   UNL     1       8.713 -25.133 -10.769  1.00  0.00     0.012 A 
ATOM      4  C   UNL     1       6.173 -24.474  -9.800  1.00  0.00     0.047 A 
ATOM      5  C   UNL     1       8.319 -25.548  -9.493  1.00  0.00     0.047 A 
ATOM      6  C   UNL     1       7.050 -25.223  -9.006  1.00  0.00     0.115 A 
ENDROOT
BRANCH   1   7
ATOM      7  C   UNL     1       8.203 -23.916 -12.938  1.00  0.00     0.010 C 
ATOM      8  C   UNL     1       7.317 -23.467 -13.838  1.00  0.00     0.025 C 
BRANCH   8   9
ATOM      9  C   UNL     1       7.724 -22.991 -15.171  1.00  0.00     0.064 C 
ATOM     10  O   UNL     1       7.763 -21.760 -15.440  1.00  0.00    -0.545 OA
ATOM     11  O   UNL     1       8.074 -23.914 -16.148  1.00  0.00    -0.545 OA
ENDBRANCH   8   9
ENDBRANCH   1   7
BRANCH   6  12
ATOM     12  O   UNL     1       6.671 -25.644  -7.733  1.00  0.00    -0.508 OA
ATOM     13  H   UNL     1       5.798 -26.132  -7.575  1.00  0.00     0.293 HD
ENDBRANCH   6  12
TORSDOF 3
ENDMDL
MODEL 6
REMARK VINA RESULT:    -4.705      5.758      8.148
REMARK INTER + INTRA:          -5.537
REMARK INTER:                  -5.385
REMARK INTRA:                  -0.153
REMARK UNBOUND:                -0.145
REMARK SMILES O=C([O-])C=Cc1ccc(O)cc1
REMARK SMILES IDX 6 1 7 2 12 3 8 4 11 5 9 6 5 7 4 8 2 9 1 10 3 11 10 12
REMARK H PARENT 10 13
REMARK Flexibility Score: inf
ROOT
ATOM      1  C   UNL     1      10.074 -32.118 -19.900  1.00  0.00    -0.025 A 
ATOM      2  C   UNL     1       9.133 -33.107 -19.567  1.00  0.00     0.012 A 
ATOM      3  C   UNL     1      11.446 -32.438 -19.843  1.00  0.00     0.012 A 
ATOM      4  C   UNL     1       9.549 -34.394 -19.210  1.00  0.00     0.047 A 
ATOM      5  C   UNL     1      11.858 -33.725 -19.485  1.00  0.00     0.047 A 
ATOM      6  C   UNL     1      10.913 -34.707 -19.170  1.00  0.00     0.115 A 
ENDROOT
BRANCH   1   7
ATOM      7  C   UNL     1       9.583 -30.765 -20.263  1.00  0.00     0.010 C 
ATOM      8  C   UNL     1       8.287 -30.461 -20.424  1.00  0.00     0.025 C 
BRANCH   8   9
ATOM      9  C   UNL     1       7.836 -29.104 -20.771  1.00  0.00     0.064 C 
ATOM     10  O   UNL     1       6.627 -28.767 -20.650  1.00  0.00    -0.545 OA
ATOM     11  O   UNL     1       8.759 -28.176 -21.239  1.00  0.00    -0.545 OA
ENDBRANCH   8   9
ENDBRANCH   1   7
BRANCH   6  12
ATOM     12  O   UNL     1      11.339 -35.985 -18.816  1.00  0.00    -0.508 OA
ATOM     13  H   UNL     1      10.754 -36.798 -18.965  1.00  0.00     0.293 HD
ENDBRANCH   6  12
TORSDOF 3
ENDMDL
MODEL 7
REMARK VINA RESULT:    -4.673      4.290      6.089
REMARK INTER + INTRA:          -5.501
REMARK INTER:                  -5.361
REMARK INTRA:                  -0.140
REMARK UNBOUND:                -0.145
REMARK SMILES O=C([O-])C=Cc1ccc(O)cc1
REMARK SMILES IDX 6 1 7 2 12 3 8 4 11 5 9 6 5 7 4 8 2 9 1 10 3 11 10 12
REMARK H PARENT 10 13
REMARK Flexibility Score: inf
ROOT
ATOM      1  C   UNL     1      10.089 -32.911 -19.097  1.00  0.00    -0.025 A 
ATOM      2  C   UNL     1      10.001 -32.413 -17.786  1.00  0.00     0.012 A 
ATOM      3  C   UNL     1       8.926 -32.936 -19.894  1.00  0.00     0.012 A 
ATOM      4  C   UNL     1       8.788 -31.925 -17.290  1.00  0.00     0.047 A 
ATOM      5  C   UNL     1       7.715 -32.448 -19.393  1.00  0.00     0.047 A 
ATOM      6  C   UNL     1       7.642 -31.940 -18.093  1.00  0.00     0.115 A 
ENDROOT
BRANCH   1   7
ATOM      7  C   UNL     1      11.396 -33.427 -19.574  1.00  0.00     0.010 C 
ATOM      8  C   UNL     1      12.530 -32.711 -19.559  1.00  0.00     0.025 C 
BRANCH   8   9
ATOM      9  C   UNL     1      13.812 -33.260 -20.030  1.00  0.00     0.064 C 
ATOM     10  O   UNL     1      14.753 -33.500 -19.226  1.00  0.00    -0.545 OA
ATOM     11  O   UNL     1      13.988 -33.522 -21.383  1.00  0.00    -0.545 OA
ENDBRANCH   8   9
ENDBRANCH   1   7
BRANCH   6  12
ATOM     12  O   UNL     1       6.429 -31.457 -17.609  1.00  0.00    -0.508 OA
ATOM     13  H   UNL     1       6.068 -30.554 -17.890  1.00  0.00     0.293 HD
ENDBRANCH   6  12
TORSDOF 3
ENDMDL
MODEL 8
REMARK VINA RESULT:    -4.576      6.757      8.277
REMARK INTER + INTRA:          -5.390
REMARK INTER:                  -5.249
REMARK INTRA:                  -0.141
REMARK UNBOUND:                -0.145
REMARK SMILES O=C([O-])C=Cc1ccc(O)cc1
REMARK SMILES IDX 6 1 7 2 12 3 8 4 11 5 9 6 5 7 4 8 2 9 1 10 3 11 10 12
REMARK H PARENT 10 13
REMARK Flexibility Score: inf
ROOT
ATOM      1  C   UNL     1       8.740 -32.393 -19.246  1.00  0.00    -0.025 A 
ATOM      2  C   UNL     1       8.481 -32.052 -20.584  1.00  0.00     0.012 A 
ATOM      3  C   UNL     1       8.281 -31.537 -18.225  1.00  0.00     0.012 A 
ATOM      4  C   UNL     1       7.757 -30.897 -20.896  1.00  0.00     0.047 A 
ATOM      5  C   UNL     1       7.558 -30.383 -18.541  1.00  0.00     0.047 A 
ATOM      6  C   UNL     1       7.292 -30.060 -19.875  1.00  0.00     0.115 A 
ENDROOT
BRANCH   1   7
ATOM      7  C   UNL     1       9.522 -33.624 -18.966  1.00  0.00     0.010 C 
ATOM      8  C   UNL     1      10.385 -33.742 -17.947  1.00  0.00     0.025 C 
BRANCH   8   9
ATOM      9  C   UNL     1      11.135 -34.984 -17.693  1.00  0.00     0.064 C 
ATOM     10  O   UNL     1      11.785 -35.146 -16.625  1.00  0.00    -0.545 OA
ATOM     11  O   UNL     1      11.123 -35.996 -18.645  1.00  0.00    -0.545 OA
ENDBRANCH   8   9
ENDBRANCH   1   7
BRANCH   6  12
ATOM     12  O   UNL     1       6.570 -28.908 -20.174  1.00  0.00    -0.508 OA
ATOM     13  H   UNL     1       5.978 -28.460 -19.485  1.00  0.00     0.293 HD
ENDBRANCH   6  12
TORSDOF 3
ENDMDL
MODEL 9
REMARK VINA RESULT:    -4.549     11.238     13.173
REMARK INTER + INTRA:          -5.358
REMARK INTER:                  -5.212
REMARK INTRA:                  -0.147
REMARK UNBOUND:                -0.145
REMARK SMILES O=C([O-])C=Cc1ccc(O)cc1
REMARK SMILES IDX 6 1 7 2 12 3 8 4 11 5 9 6 5 7 4 8 2 9 1 10 3 11 10 12
REMARK H PARENT 10 13
REMARK Flexibility Score: inf
ROOT
ATOM      1  C   UNL     1       9.873 -26.462 -12.152  1.00  0.00    -0.025 A 
ATOM      2  C   UNL     1       9.623 -25.080 -12.092  1.00  0.00     0.012 A 
ATOM      3  C   UNL     1      10.819 -27.021 -11.268  1.00  0.00     0.012 A 
ATOM      4  C   UNL     1      10.282 -24.278 -11.155  1.00  0.00     0.047 A 
ATOM      5  C   UNL     1      11.476 -26.215 -10.334  1.00  0.00     0.047 A 
ATOM      6  C   UNL     1      11.209 -24.844 -10.272  1.00  0.00     0.115 A 
ENDROOT
BRANCH   1   7
ATOM      7  C   UNL     1       9.156 -27.269 -13.170  1.00  0.00     0.010 C 
ATOM      8  C   UNL     1       8.805 -26.804 -14.378  1.00  0.00     0.025 C 
BRANCH   8   9
ATOM      9  C   UNL     1       8.105 -27.638 -15.368  1.00  0.00     0.064 C 
ATOM     10  O   UNL     1       6.916 -27.390 -15.706  1.00  0.00    -0.545 OA
ATOM     11  O   UNL     1       8.767 -28.716 -15.943  1.00  0.00    -0.545 OA
ENDBRANCH   8   9
ENDBRANCH   1   7
BRANCH   6  12
ATOM     12  O   UNL     1      11.872 -24.054  -9.335  1.00  0.00    -0.508 OA
ATOM     13  H   UNL     1      12.793 -23.675  -9.519  1.00  0.00     0.293 HD
ENDBRANCH   6  12
TORSDOF 3
ENDMDL
