MODEL 1
REMARK VINA RESULT:    -4.603      0.000      0.000
REMARK INTER + INTRA:          -5.192
REMARK INTER:                  -5.007
REMARK INTRA:                  -0.185
REMARK UNBOUND:                -0.185
REMARK SMILES C=C(C)[C@@H]1CC[C@@H](C)C[C@@H]1O
REMARK SMILES IDX 8 1 7 2 6 3 5 4 4 5 10 6 9 7 11 8 2 10 1 11 3 12
REMARK H PARENT 11 9
REMARK Flexibility Score: inf
ROOT
ATOM      1  C   UNL     1      42.556  13.792 110.626  1.00  0.00     0.008 C 
ATOM      2  C   UNL     1      41.731  14.302 111.814  1.00  0.00    -0.012 C 
ATOM      3  C   UNL     1      41.184  15.712 111.524  1.00  0.00     0.004 C 
ATOM      4  C   UNL     1      40.375  16.244 112.713  1.00  0.00     0.011 C 
ATOM      5  C   UNL     1      41.230  16.257 114.000  1.00  0.00     0.043 C 
ATOM      6  C   UNL     1      41.787  14.847 114.305  1.00  0.00     0.121 C 
ATOM      7  C   UNL     1      42.581  14.306 113.101  1.00  0.00     0.035 C 
ENDROOT
BRANCH   6   8
ATOM      8  O   UNL     1      40.735  13.972 114.626  1.00  0.00    -0.392 OA
ATOM      9  H   UNL     1      39.927  14.309 114.157  1.00  0.00     0.210 HD
ENDBRANCH   6   8
BRANCH   5  10
ATOM     10  C   UNL     1      40.488  16.818 115.209  1.00  0.00    -0.075 C 
ATOM     11  C   UNL     1      39.166  17.048 115.118  1.00  0.00     0.008 C 
ATOM     12  C   UNL     1      41.207  17.131 116.501  1.00  0.00     0.039 C 
ENDBRANCH   5  10
TORSDOF 2
ENDMDL
MODEL 2
REMARK VINA RESULT:    -4.583     13.056     14.958
REMARK INTER + INTRA:          -5.170
REMARK INTER:                  -4.975
REMARK INTRA:                  -0.195
REMARK UNBOUND:                -0.185
REMARK SMILES C=C(C)[C@@H]1CC[C@@H](C)C[C@@H]1O
REMARK SMILES IDX 8 1 7 2 6 3 5 4 4 5 10 6 9 7 11 8 2 10 1 11 3 12
REMARK H PARENT 11 9
REMARK Flexibility Score: inf
ROOT
ATOM      1  C   UNL     1      40.396   4.151 113.887  1.00  0.00     0.008 C 
ATOM      2  C   UNL     1      40.959   2.903 113.195  1.00  0.00    -0.012 C 
ATOM      3  C   UNL     1      40.742   1.657 114.074  1.00  0.00     0.004 C 
ATOM      4  C   UNL     1      41.321   0.405 113.404  1.00  0.00     0.011 C 
ATOM      5  C   UNL     1      42.824   0.587 113.096  1.00  0.00     0.043 C 
ATOM      6  C   UNL     1      43.057   1.836 112.214  1.00  0.00     0.121 C 
ATOM      7  C   UNL     1      42.456   3.089 112.878  1.00  0.00     0.035 C 
ENDROOT
BRANCH   6   8
ATOM      8  O   UNL     1      42.489   1.641 110.943  1.00  0.00    -0.392 OA
ATOM      9  H   UNL     1      41.513   1.795 111.038  1.00  0.00     0.210 HD
ENDBRANCH   6   8
BRANCH   5  10
ATOM     10  C   UNL     1      43.463  -0.647 112.466  1.00  0.00    -0.075 C 
ATOM     11  C   UNL     1      42.712  -1.744 112.267  1.00  0.00     0.008 C 
ATOM     12  C   UNL     1      44.922  -0.665 112.072  1.00  0.00     0.039 C 
ENDBRANCH   5  10
TORSDOF 2
ENDMDL
MODEL 3
REMARK VINA RESULT:    -4.326      8.068      9.360
REMARK INTER + INTRA:          -4.891
REMARK INTER:                  -4.692
REMARK INTRA:                  -0.198
REMARK UNBOUND:                -0.185
REMARK SMILES C=C(C)[C@@H]1CC[C@@H](C)C[C@@H]1O
REMARK SMILES IDX 8 1 7 2 6 3 5 4 4 5 10 6 9 7 11 8 2 10 1 11 3 12
REMARK H PARENT 11 9
REMARK Flexibility Score: inf
ROOT
ATOM      1  C   UNL     1      48.212  10.784 120.766  1.00  0.00     0.008 C 
ATOM      2  C   UNL     1      46.745  11.115 120.469  1.00  0.00    -0.012 C 
ATOM      3  C   UNL     1      46.234  12.206 121.427  1.00  0.00     0.004 C 
ATOM      4  C   UNL     1      44.760  12.530 121.155  1.00  0.00     0.011 C 
ATOM      5  C   UNL     1      43.884  11.262 121.273  1.00  0.00     0.043 C 
ATOM      6  C   UNL     1      44.386  10.157 120.315  1.00  0.00     0.121 C 
ATOM      7  C   UNL     1      45.872   9.848 120.575  1.00  0.00     0.035 C 
ENDROOT
BRANCH   6   8
ATOM      8  O   UNL     1      44.199  10.555 118.980  1.00  0.00    -0.392 OA
ATOM      9  H   UNL     1      44.532   9.814 118.410  1.00  0.00     0.210 HD
ENDBRANCH   6   8
BRANCH   5  10
ATOM     10  C   UNL     1      42.399  11.535 121.054  1.00  0.00    -0.075 C 
ATOM     11  C   UNL     1      41.998  12.785 120.764  1.00  0.00     0.008 C 
ATOM     12  C   UNL     1      41.371  10.433 121.166  1.00  0.00     0.039 C 
ENDBRANCH   5  10
TORSDOF 2
ENDMDL
MODEL 4
REMARK VINA RESULT:    -4.310      7.273      9.151
REMARK INTER + INTRA:          -4.873
REMARK INTER:                  -4.683
REMARK INTRA:                  -0.191
REMARK UNBOUND:                -0.185
REMARK SMILES C=C(C)[C@@H]1CC[C@@H](C)C[C@@H]1O
REMARK SMILES IDX 8 1 7 2 6 3 5 4 4 5 10 6 9 7 11 8 2 10 1 11 3 12
REMARK H PARENT 11 9
REMARK Flexibility Score: inf
ROOT
ATOM      1  C   UNL     1      43.577  12.159 122.863  1.00  0.00     0.008 C 
ATOM      2  C   UNL     1      43.866  11.762 121.410  1.00  0.00    -0.012 C 
ATOM      3  C   UNL     1      42.608  11.946 120.541  1.00  0.00     0.004 C 
ATOM      4  C   UNL     1      42.876  11.530 119.090  1.00  0.00     0.011 C 
ATOM      5  C   UNL     1      43.366  10.066 119.017  1.00  0.00     0.043 C 
ATOM      6  C   UNL     1      44.630   9.865 119.885  1.00  0.00     0.121 C 
ATOM      7  C   UNL     1      44.365  10.304 121.337  1.00  0.00     0.035 C 
ENDROOT
BRANCH   6   8
ATOM      8  O   UNL     1      45.705  10.593 119.346  1.00  0.00    -0.392 OA
ATOM      9  H   UNL     1      46.090  11.128 120.088  1.00  0.00     0.210 HD
ENDBRANCH   6   8
BRANCH   5  10
ATOM     10  C   UNL     1      43.608   9.585 117.590  1.00  0.00    -0.075 C 
ATOM     11  C   UNL     1      43.785   8.272 117.362  1.00  0.00     0.008 C 
ATOM     12  C   UNL     1      43.663  10.552 116.430  1.00  0.00     0.039 C 
ENDBRANCH   5  10
TORSDOF 2
ENDMDL
MODEL 5
REMARK VINA RESULT:    -4.310      5.279      7.269
REMARK INTER + INTRA:          -4.873
REMARK INTER:                  -4.690
REMARK INTRA:                  -0.184
REMARK UNBOUND:                -0.185
REMARK SMILES C=C(C)[C@@H]1CC[C@@H](C)C[C@@H]1O
REMARK SMILES IDX 8 1 7 2 6 3 5 4 4 5 10 6 9 7 11 8 2 10 1 11 3 12
REMARK H PARENT 11 9
REMARK Flexibility Score: inf
ROOT
ATOM      1  C   UNL     1      41.257  12.764 113.699  1.00  0.00     0.008 C 
ATOM      2  C   UNL     1      41.837  11.382 114.022  1.00  0.00    -0.012 C 
ATOM      3  C   UNL     1      42.821  11.473 115.203  1.00  0.00     0.004 C 
ATOM      4  C   UNL     1      43.426  10.101 115.522  1.00  0.00     0.011 C 
ATOM      5  C   UNL     1      44.132   9.507 114.283  1.00  0.00     0.043 C 
ATOM      6  C   UNL     1      43.156   9.409 113.088  1.00  0.00     0.121 C 
ATOM      7  C   UNL     1      42.533  10.784 112.783  1.00  0.00     0.035 C 
ENDROOT
BRANCH   6   8
ATOM      8  O   UNL     1      42.147   8.470 113.365  1.00  0.00    -0.392 OA
ATOM      9  H   UNL     1      42.434   7.970 114.173  1.00  0.00     0.210 HD
ENDBRANCH   6   8
BRANCH   5  10
ATOM     10  C   UNL     1      44.791   8.158 114.555  1.00  0.00    -0.075 C 
ATOM     11  C   UNL     1      45.698   7.684 113.685  1.00  0.00     0.008 C 
ATOM     12  C   UNL     1      44.436   7.341 115.776  1.00  0.00     0.039 C 
ENDBRANCH   5  10
TORSDOF 2
ENDMDL
MODEL 6
REMARK VINA RESULT:    -4.237      2.071      4.124
REMARK INTER + INTRA:          -4.794
REMARK INTER:                  -4.605
REMARK INTRA:                  -0.189
REMARK UNBOUND:                -0.185
REMARK SMILES C=C(C)[C@@H]1CC[C@@H](C)C[C@@H]1O
REMARK SMILES IDX 8 1 7 2 6 3 5 4 4 5 10 6 9 7 11 8 2 10 1 11 3 12
REMARK H PARENT 11 9
REMARK Flexibility Score: inf
ROOT
ATOM      1  C   UNL     1      39.963  17.695 114.392  1.00  0.00     0.008 C 
ATOM      2  C   UNL     1      40.494  16.366 113.844  1.00  0.00    -0.012 C 
ATOM      3  C   UNL     1      39.330  15.404 113.543  1.00  0.00     0.004 C 
ATOM      4  C   UNL     1      39.849  14.061 113.016  1.00  0.00     0.011 C 
ATOM      5  C   UNL     1      40.831  13.415 114.019  1.00  0.00     0.043 C 
ATOM      6  C   UNL     1      42.006  14.369 114.330  1.00  0.00     0.121 C 
ATOM      7  C   UNL     1      41.482  15.726 114.840  1.00  0.00     0.035 C 
ENDROOT
BRANCH   6   8
ATOM      8  O   UNL     1      42.795  14.554 113.181  1.00  0.00    -0.392 OA
ATOM      9  H   UNL     1      42.912  15.533 113.068  1.00  0.00     0.210 HD
ENDBRANCH   6   8
BRANCH   5  10
ATOM     10  C   UNL     1      41.346  12.053 113.564  1.00  0.00    -0.075 C 
ATOM     11  C   UNL     1      40.873  11.521 112.424  1.00  0.00     0.008 C 
ATOM     12  C   UNL     1      42.368  11.287 114.372  1.00  0.00     0.039 C 
ENDBRANCH   5  10
TORSDOF 2
ENDMDL
MODEL 7
REMARK VINA RESULT:    -4.230      9.531     10.135
REMARK INTER + INTRA:          -4.786
REMARK INTER:                  -4.607
REMARK INTRA:                  -0.179
REMARK UNBOUND:                -0.185
REMARK SMILES C=C(C)[C@@H]1CC[C@@H](C)C[C@@H]1O
REMARK SMILES IDX 8 1 7 2 6 3 5 4 4 5 10 6 9 7 11 8 2 10 1 11 3 12
REMARK H PARENT 11 9
REMARK Flexibility Score: inf
ROOT
ATOM      1  C   UNL     1      48.726   6.539 111.509  1.00  0.00     0.008 C 
ATOM      2  C   UNL     1      48.178   6.731 112.928  1.00  0.00    -0.012 C 
ATOM      3  C   UNL     1      46.791   7.399 112.883  1.00  0.00     0.004 C 
ATOM      4  C   UNL     1      46.240   7.618 114.297  1.00  0.00     0.011 C 
ATOM      5  C   UNL     1      47.215   8.467 115.144  1.00  0.00     0.043 C 
ATOM      6  C   UNL     1      48.613   7.809 115.198  1.00  0.00     0.121 C 
ATOM      7  C   UNL     1      49.155   7.570 113.776  1.00  0.00     0.035 C 
ENDROOT
BRANCH   6   8
ATOM      8  O   UNL     1      48.547   6.595 115.903  1.00  0.00    -0.392 OA
ATOM      9  H   UNL     1      49.077   5.933 115.386  1.00  0.00     0.210 HD
ENDBRANCH   6   8
BRANCH   5  10
ATOM     10  C   UNL     1      46.697   8.754 116.550  1.00  0.00    -0.075 C 
ATOM     11  C   UNL     1      45.619   8.088 116.999  1.00  0.00     0.008 C 
ATOM     12  C   UNL     1      47.364   9.775 117.442  1.00  0.00     0.039 C 
ENDBRANCH   5  10
TORSDOF 2
ENDMDL
MODEL 8
REMARK VINA RESULT:    -4.189      6.817      8.697
REMARK INTER + INTRA:          -4.741
REMARK INTER:                  -4.550
REMARK INTRA:                  -0.192
REMARK UNBOUND:                -0.185
REMARK SMILES C=C(C)[C@@H]1CC[C@@H](C)C[C@@H]1O
REMARK SMILES IDX 8 1 7 2 6 3 5 4 4 5 10 6 9 7 11 8 2 10 1 11 3 12
REMARK H PARENT 11 9
REMARK Flexibility Score: inf
ROOT
ATOM      1  C   UNL     1      45.798   9.551 120.369  1.00  0.00     0.008 C 
ATOM      2  C   UNL     1      45.340   9.157 118.960  1.00  0.00    -0.012 C 
ATOM      3  C   UNL     1      46.367   9.621 117.910  1.00  0.00     0.004 C 
ATOM      4  C   UNL     1      45.910   9.253 116.494  1.00  0.00     0.011 C 
ATOM      5  C   UNL     1      44.522   9.858 116.186  1.00  0.00     0.043 C 
ATOM      6  C   UNL     1      43.479   9.401 117.232  1.00  0.00     0.121 C 
ATOM      7  C   UNL     1      43.950   9.752 118.657  1.00  0.00     0.035 C 
ENDROOT
BRANCH   6   8
ATOM      8  O   UNL     1      43.260   8.017 117.121  1.00  0.00    -0.392 OA
ATOM      9  H   UNL     1      44.147   7.596 116.974  1.00  0.00     0.210 HD
ENDBRANCH   6   8
BRANCH   5  10
ATOM     10  C   UNL     1      44.036   9.559 114.772  1.00  0.00    -0.075 C 
ATOM     11  C   UNL     1      42.955  10.205 114.299  1.00  0.00     0.008 C 
ATOM     12  C   UNL     1      44.736   8.546 113.896  1.00  0.00     0.039 C 
ENDBRANCH   5  10
TORSDOF 2
ENDMDL
MODEL 9
REMARK VINA RESULT:    -4.138      9.822     11.981
REMARK INTER + INTRA:          -4.686
REMARK INTER:                  -4.597
REMARK INTRA:                  -0.089
REMARK UNBOUND:                -0.185
REMARK SMILES C=C(C)[C@@H]1CC[C@@H](C)C[C@@H]1O
REMARK SMILES IDX 8 1 7 2 6 3 5 4 4 5 10 6 9 7 11 8 2 10 1 11 3 12
REMARK H PARENT 11 9
REMARK Flexibility Score: inf
ROOT
ATOM      1  C   UNL     1      46.996   8.454 116.081  1.00  0.00     0.008 C 
ATOM      2  C   UNL     1      47.592   7.568 114.981  1.00  0.00    -0.012 C 
ATOM      3  C   UNL     1      49.053   7.968 114.700  1.00  0.00     0.004 C 
ATOM      4  C   UNL     1      49.655   7.105 113.585  1.00  0.00     0.011 C 
ATOM      5  C   UNL     1      48.814   7.207 112.292  1.00  0.00     0.043 C 
ATOM      6  C   UNL     1      47.345   6.807 112.559  1.00  0.00     0.121 C 
ATOM      7  C   UNL     1      46.748   7.662 113.694  1.00  0.00     0.035 C 
ENDROOT
BRANCH   6   8
ATOM      8  O   UNL     1      47.268   5.443 112.887  1.00  0.00    -0.392 OA
ATOM      9  H   UNL     1      46.590   5.358 113.606  1.00  0.00     0.210 HD
ENDBRANCH   6   8
BRANCH   5  10
ATOM     10  C   UNL     1      49.393   6.400 111.135  1.00  0.00    -0.075 C 
ATOM     11  C   UNL     1      49.201   6.830 109.875  1.00  0.00     0.008 C 
ATOM     12  C   UNL     1      50.166   5.123 111.373  1.00  0.00     0.039 C 
ENDBRANCH   5  10
TORSDOF 2
ENDMDL
