MODEL 1
REMARK VINA RESULT:    -4.739      0.000      0.000
REMARK INTER + INTRA:          -5.348
REMARK INTER:                  -5.154
REMARK INTRA:                  -0.194
REMARK UNBOUND:                -0.194
REMARK SMILES Cc1ccc(C(C)C)c(O)c1
REMARK SMILES IDX 1 1 2 2 11 3 9 4 5 5 4 6 3 7 10 8 6 10 7 11 8 12
REMARK H PARENT 10 9
REMARK Flexibility Score: inf
ROOT
ATOM      1  C   UNL     1      13.700 -45.083  29.970  1.00  0.00     0.044 C 
ATOM      2  C   UNL     1      15.066 -45.114  30.588  1.00  0.00    -0.047 A 
ATOM      3  C   UNL     1      16.208 -45.065  29.779  1.00  0.00     0.049 A 
ATOM      4  C   UNL     1      17.490 -45.058  30.350  1.00  0.00     0.119 A 
ATOM      5  C   UNL     1      17.638 -45.085  31.757  1.00  0.00    -0.004 A 
ATOM      6  C   UNL     1      16.481 -45.114  32.558  1.00  0.00     0.008 A 
ATOM      7  C   UNL     1      15.210 -45.122  31.981  1.00  0.00     0.004 A 
ENDROOT
BRANCH   4   8
ATOM      8  O   UNL     1      18.607 -45.019  29.517  1.00  0.00    -0.508 OA
ATOM      9  H   UNL     1      18.672 -45.591  28.683  1.00  0.00     0.293 HD
ENDBRANCH   4   8
BRANCH   5  10
ATOM     10  C   UNL     1      19.002 -45.078  32.435  1.00  0.00     0.017 C 
ATOM     11  C   UNL     1      19.118 -46.185  33.491  1.00  0.00     0.012 C 
ATOM     12  C   UNL     1      19.341 -43.702  33.021  1.00  0.00     0.012 C 
ENDBRANCH   5  10
TORSDOF 2
ENDMDL
MODEL 2
REMARK VINA RESULT:    -4.728      1.829      2.966
REMARK INTER + INTRA:          -5.337
REMARK INTER:                  -5.143
REMARK INTRA:                  -0.194
REMARK UNBOUND:                -0.194
REMARK SMILES Cc1ccc(C(C)C)c(O)c1
REMARK SMILES IDX 1 1 2 2 11 3 9 4 5 5 4 6 3 7 10 8 6 10 7 11 8 12
REMARK H PARENT 10 9
REMARK Flexibility Score: inf
ROOT
ATOM      1  C   UNL     1      17.114 -45.221  27.036  1.00  0.00     0.044 C 
ATOM      2  C   UNL     1      16.817 -45.159  28.505  1.00  0.00    -0.047 A 
ATOM      3  C   UNL     1      17.855 -45.256  29.440  1.00  0.00     0.049 A 
ATOM      4  C   UNL     1      17.591 -45.164  30.815  1.00  0.00     0.119 A 
ATOM      5  C   UNL     1      16.266 -44.956  31.269  1.00  0.00    -0.004 A 
ATOM      6  C   UNL     1      15.236 -44.840  30.316  1.00  0.00     0.008 A 
ATOM      7  C   UNL     1      15.509 -44.934  28.951  1.00  0.00     0.004 A 
ENDROOT
BRANCH   4   8
ATOM      8  O   UNL     1      18.645 -45.274  31.721  1.00  0.00    -0.508 OA
ATOM      9  H   UNL     1      19.472 -44.692  31.651  1.00  0.00     0.293 HD
ENDBRANCH   4   8
BRANCH   5  10
ATOM     10  C   UNL     1      15.917 -44.847  32.747  1.00  0.00     0.017 C 
ATOM     11  C   UNL     1      15.247 -46.124  33.270  1.00  0.00     0.012 C 
ATOM     12  C   UNL     1      15.068 -43.604  33.043  1.00  0.00     0.012 C 
ENDBRANCH   5  10
TORSDOF 2
ENDMDL
MODEL 3
REMARK VINA RESULT:    -4.671      6.263      7.187
REMARK INTER + INTRA:          -5.274
REMARK INTER:                  -5.078
REMARK INTRA:                  -0.196
REMARK UNBOUND:                -0.194
REMARK SMILES Cc1ccc(C(C)C)c(O)c1
REMARK SMILES IDX 1 1 2 2 11 3 9 4 5 5 4 6 3 7 10 8 6 10 7 11 8 12
REMARK H PARENT 10 9
REMARK Flexibility Score: inf
ROOT
ATOM      1  C   UNL     1      18.536 -43.323  25.091  1.00  0.00     0.044 C 
ATOM      2  C   UNL     1      18.550 -42.070  25.915  1.00  0.00    -0.047 A 
ATOM      3  C   UNL     1      18.514 -40.816  25.293  1.00  0.00     0.049 A 
ATOM      4  C   UNL     1      18.491 -39.639  26.057  1.00  0.00     0.119 A 
ATOM      5  C   UNL     1      18.489 -39.712  27.471  1.00  0.00    -0.004 A 
ATOM      6  C   UNL     1      18.506 -40.981  28.082  1.00  0.00     0.008 A 
ATOM      7  C   UNL     1      18.529 -42.146  27.313  1.00  0.00     0.004 A 
ENDROOT
BRANCH   4   8
ATOM      8  O   UNL     1      18.465 -38.405  25.408  1.00  0.00    -0.508 OA
ATOM      9  H   UNL     1      17.866 -37.650  25.722  1.00  0.00     0.293 HD
ENDBRANCH   4   8
BRANCH   5  10
ATOM     10  C   UNL     1      18.465 -38.472  28.353  1.00  0.00     0.017 C 
ATOM     11  C   UNL     1      19.879 -37.997  28.709  1.00  0.00     0.012 C 
ATOM     12  C   UNL     1      17.608 -38.680  29.608  1.00  0.00     0.012 C 
ENDBRANCH   5  10
TORSDOF 2
ENDMDL
MODEL 4
REMARK VINA RESULT:    -4.663      2.505      3.687
REMARK INTER + INTRA:          -5.266
REMARK INTER:                  -5.075
REMARK INTRA:                  -0.191
REMARK UNBOUND:                -0.194
REMARK SMILES Cc1ccc(C(C)C)c(O)c1
REMARK SMILES IDX 1 1 2 2 11 3 9 4 5 5 4 6 3 7 10 8 6 10 7 11 8 12
REMARK H PARENT 10 9
REMARK Flexibility Score: inf
ROOT
ATOM      1  C   UNL     1      17.306 -45.125  27.010  1.00  0.00     0.044 C 
ATOM      2  C   UNL     1      16.668 -45.064  28.366  1.00  0.00    -0.047 A 
ATOM      3  C   UNL     1      15.291 -45.277  28.509  1.00  0.00     0.049 A 
ATOM      4  C   UNL     1      14.692 -45.256  29.777  1.00  0.00     0.119 A 
ATOM      5  C   UNL     1      15.482 -45.034  30.931  1.00  0.00    -0.004 A 
ATOM      6  C   UNL     1      16.868 -44.841  30.773  1.00  0.00     0.008 A 
ATOM      7  C   UNL     1      17.455 -44.862  29.507  1.00  0.00     0.004 A 
ENDROOT
BRANCH   4   8
ATOM      8  O   UNL     1      13.317 -45.462  29.885  1.00  0.00    -0.508 OA
ATOM      9  H   UNL     1      12.877 -45.677  30.774  1.00  0.00     0.293 HD
ENDBRANCH   4   8
BRANCH   5  10
ATOM     10  C   UNL     1      14.889 -45.000  32.333  1.00  0.00     0.017 C 
ATOM     11  C   UNL     1      15.007 -43.609  32.968  1.00  0.00     0.012 C 
ATOM     12  C   UNL     1      15.495 -46.084  33.234  1.00  0.00     0.012 C 
ENDBRANCH   5  10
TORSDOF 2
ENDMDL
MODEL 5
REMARK VINA RESULT:    -4.538      3.699      5.380
REMARK INTER + INTRA:          -5.131
REMARK INTER:                  -4.935
REMARK INTRA:                  -0.195
REMARK UNBOUND:                -0.194
REMARK SMILES Cc1ccc(C(C)C)c(O)c1
REMARK SMILES IDX 1 1 2 2 11 3 9 4 5 5 4 6 3 7 10 8 6 10 7 11 8 12
REMARK H PARENT 10 9
REMARK Flexibility Score: inf
ROOT
ATOM      1  C   UNL     1      19.073 -42.431  24.458  1.00  0.00     0.044 C 
ATOM      2  C   UNL     1      18.414 -42.994  25.682  1.00  0.00    -0.047 A 
ATOM      3  C   UNL     1      18.317 -42.226  26.849  1.00  0.00     0.049 A 
ATOM      4  C   UNL     1      17.671 -42.732  27.987  1.00  0.00     0.119 A 
ATOM      5  C   UNL     1      17.095 -44.025  27.958  1.00  0.00    -0.004 A 
ATOM      6  C   UNL     1      17.183 -44.778  26.772  1.00  0.00     0.008 A 
ATOM      7  C   UNL     1      17.829 -44.266  25.645  1.00  0.00     0.004 A 
ENDROOT
BRANCH   4   8
ATOM      8  O   UNL     1      17.600 -41.946  29.137  1.00  0.00    -0.508 OA
ATOM      9  H   UNL     1      18.025 -42.238  30.010  1.00  0.00     0.293 HD
ENDBRANCH   4   8
BRANCH   5  10
ATOM     10  C   UNL     1      16.381 -44.628  29.160  1.00  0.00     0.017 C 
ATOM     11  C   UNL     1      17.350 -45.385  30.078  1.00  0.00     0.012 C 
ATOM     12  C   UNL     1      15.199 -45.510  28.739  1.00  0.00     0.012 C 
ENDBRANCH   5  10
TORSDOF 2
ENDMDL
MODEL 6
REMARK VINA RESULT:    -4.468      2.191      2.798
REMARK INTER + INTRA:          -5.054
REMARK INTER:                  -4.860
REMARK INTRA:                  -0.194
REMARK UNBOUND:                -0.194
REMARK SMILES Cc1ccc(C(C)C)c(O)c1
REMARK SMILES IDX 1 1 2 2 11 3 9 4 5 5 4 6 3 7 10 8 6 10 7 11 8 12
REMARK H PARENT 10 9
REMARK Flexibility Score: inf
ROOT
ATOM      1  C   UNL     1      13.362 -43.251  32.523  1.00  0.00     0.044 C 
ATOM      2  C   UNL     1      14.817 -43.605  32.607  1.00  0.00    -0.047 A 
ATOM      3  C   UNL     1      15.754 -42.647  33.012  1.00  0.00     0.049 A 
ATOM      4  C   UNL     1      17.113 -42.979  33.128  1.00  0.00     0.119 A 
ATOM      5  C   UNL     1      17.546 -44.298  32.849  1.00  0.00    -0.004 A 
ATOM      6  C   UNL     1      16.589 -45.255  32.461  1.00  0.00     0.008 A 
ATOM      7  C   UNL     1      15.240 -44.915  32.349  1.00  0.00     0.004 A 
ENDROOT
BRANCH   4   8
ATOM      8  O   UNL     1      18.023 -42.000  33.524  1.00  0.00    -0.508 OA
ATOM      9  H   UNL     1      19.024 -42.161  33.502  1.00  0.00     0.293 HD
ENDBRANCH   4   8
BRANCH   5  10
ATOM     10  C   UNL     1      19.005 -44.718  32.956  1.00  0.00     0.017 C 
ATOM     11  C   UNL     1      19.769 -44.467  31.650  1.00  0.00     0.012 C 
ATOM     12  C   UNL     1      19.147 -46.173  33.421  1.00  0.00     0.012 C 
ENDBRANCH   5  10
TORSDOF 2
ENDMDL
MODEL 7
REMARK VINA RESULT:    -4.433      3.646      4.815
REMARK INTER + INTRA:          -5.016
REMARK INTER:                  -4.829
REMARK INTRA:                  -0.187
REMARK UNBOUND:                -0.194
REMARK SMILES Cc1ccc(C(C)C)c(O)c1
REMARK SMILES IDX 1 1 2 2 11 3 9 4 5 5 4 6 3 7 10 8 6 10 7 11 8 12
REMARK H PARENT 10 9
REMARK Flexibility Score: inf
ROOT
ATOM      1  C   UNL     1      12.516 -45.126  29.453  1.00  0.00     0.044 C 
ATOM      2  C   UNL     1      13.814 -44.747  28.802  1.00  0.00    -0.047 A 
ATOM      3  C   UNL     1      14.964 -45.514  29.023  1.00  0.00     0.049 A 
ATOM      4  C   UNL     1      16.173 -45.188  28.390  1.00  0.00     0.119 A 
ATOM      5  C   UNL     1      16.235 -44.083  27.507  1.00  0.00    -0.004 A 
ATOM      6  C   UNL     1      15.065 -43.333  27.280  1.00  0.00     0.008 A 
ATOM      7  C   UNL     1      13.867 -43.665  27.914  1.00  0.00     0.004 A 
ENDROOT
BRANCH   4   8
ATOM      8  O   UNL     1      17.304 -45.965  28.638  1.00  0.00    -0.508 OA
ATOM      9  H   UNL     1      18.089 -45.985  27.996  1.00  0.00     0.293 HD
ENDBRANCH   4   8
BRANCH   5  10
ATOM     10  C   UNL     1      17.517 -43.680  26.791  1.00  0.00     0.017 C 
ATOM     11  C   UNL     1      17.582 -42.168  26.546  1.00  0.00     0.012 C 
ATOM     12  C   UNL     1      17.718 -44.471  25.492  1.00  0.00     0.012 C 
ENDBRANCH   5  10
TORSDOF 2
ENDMDL
MODEL 8
REMARK VINA RESULT:    -4.431      5.410      6.360
REMARK INTER + INTRA:          -5.014
REMARK INTER:                  -4.818
REMARK INTRA:                  -0.196
REMARK UNBOUND:                -0.194
REMARK SMILES Cc1ccc(C(C)C)c(O)c1
REMARK SMILES IDX 1 1 2 2 11 3 9 4 5 5 4 6 3 7 10 8 6 10 7 11 8 12
REMARK H PARENT 10 9
REMARK Flexibility Score: inf
ROOT
ATOM      1  C   UNL     1      18.521 -38.992  24.322  1.00  0.00     0.044 C 
ATOM      2  C   UNL     1      18.485 -39.899  25.516  1.00  0.00    -0.047 A 
ATOM      3  C   UNL     1      18.447 -41.288  25.346  1.00  0.00     0.049 A 
ATOM      4  C   UNL     1      18.449 -42.145  26.457  1.00  0.00     0.119 A 
ATOM      5  C   UNL     1      18.504 -41.608  27.766  1.00  0.00    -0.004 A 
ATOM      6  C   UNL     1      18.562 -40.210  27.921  1.00  0.00     0.008 A 
ATOM      7  C   UNL     1      18.559 -39.366  26.809  1.00  0.00     0.004 A 
ENDROOT
BRANCH   4   8
ATOM      8  O   UNL     1      18.400 -43.524  26.255  1.00  0.00    -0.508 OA
ATOM      9  H   UNL     1      19.240 -44.092  26.248  1.00  0.00     0.293 HD
ENDBRANCH   4   8
BRANCH   5  10
ATOM     10  C   UNL     1      18.509 -42.487  29.010  1.00  0.00     0.017 C 
ATOM     11  C   UNL     1      17.088 -42.769  29.513  1.00  0.00     0.012 C 
ATOM     12  C   UNL     1      19.394 -41.902  30.118  1.00  0.00     0.012 C 
ENDBRANCH   5  10
TORSDOF 2
ENDMDL
MODEL 9
REMARK VINA RESULT:    -4.414      5.397      7.062
REMARK INTER + INTRA:          -4.995
REMARK INTER:                  -4.803
REMARK INTRA:                  -0.192
REMARK UNBOUND:                -0.194
REMARK SMILES Cc1ccc(C(C)C)c(O)c1
REMARK SMILES IDX 1 1 2 2 11 3 9 4 5 5 4 6 3 7 10 8 6 10 7 11 8 12
REMARK H PARENT 10 9
REMARK Flexibility Score: inf
ROOT
ATOM      1  C   UNL     1      19.261 -37.962  28.920  1.00  0.00     0.044 C 
ATOM      2  C   UNL     1      18.968 -39.258  28.223  1.00  0.00    -0.047 A 
ATOM      3  C   UNL     1      19.001 -40.464  28.933  1.00  0.00     0.049 A 
ATOM      4  C   UNL     1      18.693 -41.677  28.298  1.00  0.00     0.119 A 
ATOM      5  C   UNL     1      18.330 -41.687  26.930  1.00  0.00    -0.004 A 
ATOM      6  C   UNL     1      18.282 -40.464  26.234  1.00  0.00     0.008 A 
ATOM      7  C   UNL     1      18.591 -39.263  26.875  1.00  0.00     0.004 A 
ENDROOT
BRANCH   4   8
ATOM      8  O   UNL     1      18.744 -42.863  29.030  1.00  0.00    -0.508 OA
ATOM      9  H   UNL     1      19.544 -43.100  29.606  1.00  0.00     0.293 HD
ENDBRANCH   4   8
BRANCH   5  10
ATOM     10  C   UNL     1      17.985 -42.970  26.186  1.00  0.00     0.017 C 
ATOM     11  C   UNL     1      18.857 -43.157  24.938  1.00  0.00     0.012 C 
ATOM     12  C   UNL     1      16.492 -43.049  25.846  1.00  0.00     0.012 C 
ENDBRANCH   5  10
TORSDOF 2
ENDMDL
