MODEL 1
REMARK VINA RESULT:    -4.194      0.000      0.000
REMARK INTER + INTRA:         -13.233
REMARK INTER:                 -10.568
REMARK INTRA:                  -2.665
REMARK UNBOUND:                -2.665
REMARK SMILES CCCCCCCCCCCCCCCCCCCCCCCCCCCC(=O)[O-]
REMARK SMILES IDX 15 1 16 2 17 3 18 4 19 5 20 6 21 7 22 8 23 9 24 10 25 11
REMARK SMILES IDX 26 12 27 13 28 14 29 15 30 16 14 17 13 18 12 19 11 20 10 21
REMARK SMILES IDX 9 22 8 23 7 24 6 25 5 26 4 27 3 28 2 29 1 30
REMARK H PARENT
REMARK Flexibility Score: inf
ROOT
ATOM      1  C   UNL     1       1.490   3.578   7.538  1.00  0.00     0.000 C 
ENDROOT
BRANCH   1   2
ATOM      2  C   UNL     1       0.638   3.331   8.802  1.00  0.00     0.000 C 
BRANCH   2   3
ATOM      3  C   UNL     1      -0.253   2.076   8.723  1.00  0.00     0.000 C 
BRANCH   3   4
ATOM      4  C   UNL     1      -1.767   2.349   8.662  1.00  0.00     0.000 C 
BRANCH   4   5
ATOM      5  C   UNL     1      -2.625   1.521   9.640  1.00  0.00     0.000 C 
BRANCH   5   6
ATOM      6  C   UNL     1      -2.250   0.030   9.736  1.00  0.00     0.000 C 
BRANCH   6   7
ATOM      7  C   UNL     1      -2.723  -0.784   8.523  1.00  0.00     0.000 C 
BRANCH   7   8
ATOM      8  C   UNL     1      -1.803  -1.991   8.285  1.00  0.00     0.000 C 
BRANCH   8   9
ATOM      9  C   UNL     1      -0.471  -1.888   9.049  1.00  0.00     0.000 C 
BRANCH   9  10
ATOM     10  C   UNL     1       0.757  -1.549   8.180  1.00  0.00     0.000 C 
BRANCH  10  11
ATOM     11  C   UNL     1       0.448  -1.173   6.719  1.00  0.00     0.000 C 
BRANCH  11  12
ATOM     12  C   UNL     1       0.850   0.256   6.307  1.00  0.00     0.006 C 
BRANCH  12  13
ATOM     13  C   UNL     1       0.866   0.487   4.785  1.00  0.00     0.053 C 
BRANCH  13  14
ATOM     14  C   UNL     1       0.108   1.715   4.383  1.00  0.00     0.041 C 
ATOM     15  O   UNL     1      -0.969   2.015   4.965  1.00  0.00    -0.550 OA
ATOM     16  O   UNL     1       0.607   2.550   3.392  1.00  0.00    -0.550 OA
ENDBRANCH  13  14
ENDBRANCH  12  13
ENDBRANCH  11  12
ENDBRANCH  10  11
ENDBRANCH   9  10
ENDBRANCH   8   9
ENDBRANCH   7   8
ENDBRANCH   6   7
ENDBRANCH   5   6
ENDBRANCH   4   5
ENDBRANCH   3   4
ENDBRANCH   2   3
ENDBRANCH   1   2
BRANCH   1  17
ATOM     17  C   UNL     1       2.175   4.958   7.538  1.00  0.00     0.000 C 
BRANCH  17  18
ATOM     18  C   UNL     1       2.609   5.405   8.942  1.00  0.00     0.000 C 
BRANCH  18  19
ATOM     19  C   UNL     1       1.474   6.075   9.731  1.00  0.00     0.000 C 
BRANCH  19  20
ATOM     20  C   UNL     1       1.692   7.593   9.817  1.00  0.00     0.000 C 
BRANCH  20  21
ATOM     21  C   UNL     1       0.442   8.401   9.424  1.00  0.00     0.000 C 
BRANCH  21  22
ATOM     22  C   UNL     1       0.558   9.187   8.102  1.00  0.00    -0.000 C 
BRANCH  22  23
ATOM     23  C   UNL     1       1.446   8.536   7.027  1.00  0.00    -0.000 C 
BRANCH  23  24
ATOM     24  C   UNL     1       2.711   9.353   6.722  1.00  0.00    -0.000 C 
BRANCH  24  25
ATOM     25  C   UNL     1       3.967   8.616   7.211  1.00  0.00    -0.000 C 
BRANCH  25  26
ATOM     26  C   UNL     1       4.780   7.993   6.065  1.00  0.00    -0.000 C 
BRANCH  26  27
ATOM     27  C   UNL     1       6.285   7.919   6.379  1.00  0.00    -0.000 C 
BRANCH  27  28
ATOM     28  C   UNL     1       6.580   7.257   7.738  1.00  0.00    -0.000 C 
BRANCH  28  29
ATOM     29  C   UNL     1       7.388   8.122   8.722  1.00  0.00    -0.003 C 
ATOM     30  C   UNL     1       7.441   9.596   8.319  1.00  0.00     0.004 C 
ENDBRANCH  28  29
ENDBRANCH  27  28
ENDBRANCH  26  27
ENDBRANCH  25  26
ENDBRANCH  24  25
ENDBRANCH  23  24
ENDBRANCH  22  23
ENDBRANCH  21  22
ENDBRANCH  20  21
ENDBRANCH  19  20
ENDBRANCH  18  19
ENDBRANCH  17  18
ENDBRANCH   1  17
TORSDOF 26
ENDMDL
MODEL 2
REMARK VINA RESULT:    -4.171      1.517      2.792
REMARK INTER + INTRA:         -13.175
REMARK INTER:                 -10.502
REMARK INTRA:                  -2.673
REMARK UNBOUND:                -2.665
REMARK SMILES CCCCCCCCCCCCCCCCCCCCCCCCCCCC(=O)[O-]
REMARK SMILES IDX 15 1 16 2 17 3 18 4 19 5 20 6 21 7 22 8 23 9 24 10 25 11
REMARK SMILES IDX 26 12 27 13 28 14 29 15 30 16 14 17 13 18 12 19 11 20 10 21
REMARK SMILES IDX 9 22 8 23 7 24 6 25 5 26 4 27 3 28 2 29 1 30
REMARK H PARENT
REMARK Flexibility Score: inf
ROOT
ATOM      1  C   UNL     1       1.044   2.970   7.724  1.00  0.00     0.000 C 
ENDROOT
BRANCH   1   2
ATOM      2  C   UNL     1       0.048   3.173   8.886  1.00  0.00     0.000 C 
BRANCH   2   3
ATOM      3  C   UNL     1      -0.553   1.864   9.434  1.00  0.00     0.000 C 
BRANCH   3   4
ATOM      4  C   UNL     1      -1.982   1.547   8.958  1.00  0.00     0.000 C 
BRANCH   4   5
ATOM      5  C   UNL     1      -2.801   0.636   9.896  1.00  0.00     0.000 C 
BRANCH   5   6
ATOM      6  C   UNL     1      -2.207  -0.767  10.124  1.00  0.00     0.000 C 
BRANCH   6   7
ATOM      7  C   UNL     1      -2.684  -1.794   9.088  1.00  0.00     0.000 C 
BRANCH   7   8
ATOM      8  C   UNL     1      -1.525  -2.230   8.178  1.00  0.00     0.000 C 
BRANCH   8   9
ATOM      9  C   UNL     1      -0.150  -1.798   8.715  1.00  0.00     0.000 C 
BRANCH   9  10
ATOM     10  C   UNL     1       0.838  -1.287   7.647  1.00  0.00     0.000 C 
BRANCH  10  11
ATOM     11  C   UNL     1       0.316  -0.143   6.760  1.00  0.00     0.000 C 
BRANCH  11  12
ATOM     12  C   UNL     1       0.727  -0.219   5.277  1.00  0.00     0.006 C 
BRANCH  12  13
ATOM     13  C   UNL     1       1.384   1.067   4.743  1.00  0.00     0.053 C 
BRANCH  13  14
ATOM     14  C   UNL     1       0.388   2.014   4.145  1.00  0.00     0.041 C 
ATOM     15  O   UNL     1       0.709   2.736   3.163  1.00  0.00    -0.550 OA
ATOM     16  O   UNL     1      -0.905   2.074   4.647  1.00  0.00    -0.550 OA
ENDBRANCH  13  14
ENDBRANCH  12  13
ENDBRANCH  11  12
ENDBRANCH  10  11
ENDBRANCH   9  10
ENDBRANCH   8   9
ENDBRANCH   7   8
ENDBRANCH   6   7
ENDBRANCH   5   6
ENDBRANCH   4   5
ENDBRANCH   3   4
ENDBRANCH   2   3
ENDBRANCH   1   2
BRANCH   1  17
ATOM     17  C   UNL     1       2.091   4.095   7.629  1.00  0.00     0.000 C 
BRANCH  17  18
ATOM     18  C   UNL     1       2.036   5.060   8.823  1.00  0.00     0.000 C 
BRANCH  18  19
ATOM     19  C   UNL     1       2.504   6.479   8.465  1.00  0.00     0.000 C 
BRANCH  19  20
ATOM     20  C   UNL     1       3.995   6.486   8.100  1.00  0.00     0.000 C 
BRANCH  20  21
ATOM     21  C   UNL     1       4.816   5.469   8.913  1.00  0.00     0.000 C 
BRANCH  21  22
ATOM     22  C   UNL     1       6.068   6.043   9.609  1.00  0.00    -0.000 C 
BRANCH  22  23
ATOM     23  C   UNL     1       5.966   7.519  10.031  1.00  0.00    -0.000 C 
BRANCH  23  24
ATOM     24  C   UNL     1       7.235   8.323   9.709  1.00  0.00    -0.000 C 
BRANCH  24  25
ATOM     25  C   UNL     1       6.876   9.740   9.235  1.00  0.00    -0.000 C 
BRANCH  25  26
ATOM     26  C   UNL     1       5.764   9.752   8.173  1.00  0.00    -0.000 C 
BRANCH  26  27
ATOM     27  C   UNL     1       6.317   9.753   6.736  1.00  0.00    -0.000 C 
BRANCH  27  28
ATOM     28  C   UNL     1       6.277   8.360   6.079  1.00  0.00    -0.000 C 
BRANCH  28  29
ATOM     29  C   UNL     1       7.118   8.220   4.798  1.00  0.00    -0.003 C 
ATOM     30  C   UNL     1       6.512   8.953   3.601  1.00  0.00     0.004 C 
ENDBRANCH  28  29
ENDBRANCH  27  28
ENDBRANCH  26  27
ENDBRANCH  25  26
ENDBRANCH  24  25
ENDBRANCH  23  24
ENDBRANCH  22  23
ENDBRANCH  21  22
ENDBRANCH  20  21
ENDBRANCH  19  20
ENDBRANCH  18  19
ENDBRANCH  17  18
ENDBRANCH   1  17
TORSDOF 26
ENDMDL
MODEL 3
REMARK VINA RESULT:    -3.976      2.321      3.594
REMARK INTER + INTRA:         -12.683
REMARK INTER:                 -10.168
REMARK INTRA:                  -2.515
REMARK UNBOUND:                -2.665
REMARK SMILES CCCCCCCCCCCCCCCCCCCCCCCCCCCC(=O)[O-]
REMARK SMILES IDX 15 1 16 2 17 3 18 4 19 5 20 6 21 7 22 8 23 9 24 10 25 11
REMARK SMILES IDX 26 12 27 13 28 14 29 15 30 16 14 17 13 18 12 19 11 20 10 21
REMARK SMILES IDX 9 22 8 23 7 24 6 25 5 26 4 27 3 28 2 29 1 30
REMARK H PARENT
REMARK Flexibility Score: inf
ROOT
ATOM      1  C   UNL     1       1.933   3.873   7.000  1.00  0.00     0.000 C 
ENDROOT
BRANCH   1   2
ATOM      2  C   UNL     1       1.078   2.729   7.586  1.00  0.00     0.000 C 
BRANCH   2   3
ATOM      3  C   UNL     1       1.086   1.441   6.739  1.00  0.00     0.000 C 
BRANCH   3   4
ATOM      4  C   UNL     1       0.713   1.627   5.256  1.00  0.00     0.000 C 
BRANCH   4   5
ATOM      5  C   UNL     1      -0.703   1.155   4.870  1.00  0.00     0.000 C 
BRANCH   5   6
ATOM      6  C   UNL     1      -1.425   0.315   5.940  1.00  0.00     0.000 C 
BRANCH   6   7
ATOM      7  C   UNL     1      -2.587   1.065   6.606  1.00  0.00     0.000 C 
BRANCH   7   8
ATOM      8  C   UNL     1      -2.075   1.977   7.731  1.00  0.00     0.000 C 
BRANCH   8   9
ATOM      9  C   UNL     1      -2.570   1.546   9.122  1.00  0.00     0.000 C 
BRANCH   9  10
ATOM     10  C   UNL     1      -1.848   0.324   9.724  1.00  0.00     0.000 C 
BRANCH  10  11
ATOM     11  C   UNL     1      -2.484  -1.041   9.403  1.00  0.00     0.000 C 
BRANCH  11  12
ATOM     12  C   UNL     1      -1.491  -2.208   9.242  1.00  0.00     0.006 C 
BRANCH  12  13
ATOM     13  C   UNL     1      -0.032  -1.763   9.030  1.00  0.00     0.053 C 
BRANCH  13  14
ATOM     14  C   UNL     1       0.952  -2.719   9.632  1.00  0.00     0.041 C 
ATOM     15  O   UNL     1       0.636  -3.925   9.815  1.00  0.00    -0.550 OA
ATOM     16  O   UNL     1       2.232  -2.289   9.956  1.00  0.00    -0.550 OA
ENDBRANCH  13  14
ENDBRANCH  12  13
ENDBRANCH  11  12
ENDBRANCH  10  11
ENDBRANCH   9  10
ENDBRANCH   8   9
ENDBRANCH   7   8
ENDBRANCH   6   7
ENDBRANCH   5   6
ENDBRANCH   4   5
ENDBRANCH   3   4
ENDBRANCH   2   3
ENDBRANCH   1   2
BRANCH   1  17
ATOM     17  C   UNL     1       2.790   4.585   8.064  1.00  0.00     0.000 C 
BRANCH  17  18
ATOM     18  C   UNL     1       2.955   6.087   7.786  1.00  0.00     0.000 C 
BRANCH  18  19
ATOM     19  C   UNL     1       2.911   6.938   9.064  1.00  0.00     0.000 C 
BRANCH  19  20
ATOM     20  C   UNL     1       1.549   7.632   9.211  1.00  0.00     0.000 C 
BRANCH  20  21
ATOM     21  C   UNL     1       1.241   8.599   8.053  1.00  0.00     0.000 C 
BRANCH  21  22
ATOM     22  C   UNL     1       2.471   9.086   7.260  1.00  0.00    -0.000 C 
BRANCH  22  23
ATOM     23  C   UNL     1       2.204   9.444   5.787  1.00  0.00    -0.000 C 
BRANCH  23  24
ATOM     24  C   UNL     1       3.493   9.617   4.970  1.00  0.00    -0.000 C 
BRANCH  24  25
ATOM     25  C   UNL     1       4.731   9.445   5.863  1.00  0.00    -0.000 C 
BRANCH  25  26
ATOM     26  C   UNL     1       5.589   8.232   5.468  1.00  0.00    -0.000 C 
BRANCH  26  27
ATOM     27  C   UNL     1       6.761   7.996   6.438  1.00  0.00    -0.000 C 
BRANCH  27  28
ATOM     28  C   UNL     1       6.371   7.127   7.648  1.00  0.00    -0.000 C 
BRANCH  28  29
ATOM     29  C   UNL     1       6.690   7.742   9.022  1.00  0.00    -0.003 C 
ATOM     30  C   UNL     1       6.029   9.103   9.238  1.00  0.00     0.004 C 
ENDBRANCH  28  29
ENDBRANCH  27  28
ENDBRANCH  26  27
ENDBRANCH  25  26
ENDBRANCH  24  25
ENDBRANCH  23  24
ENDBRANCH  22  23
ENDBRANCH  21  22
ENDBRANCH  20  21
ENDBRANCH  19  20
ENDBRANCH  18  19
ENDBRANCH  17  18
ENDBRANCH   1  17
TORSDOF 26
ENDMDL
MODEL 4
REMARK VINA RESULT:    -3.590      3.093      9.949
REMARK INTER + INTRA:         -11.712
REMARK INTER:                  -9.367
REMARK INTRA:                  -2.345
REMARK UNBOUND:                -2.665
REMARK SMILES CCCCCCCCCCCCCCCCCCCCCCCCCCCC(=O)[O-]
REMARK SMILES IDX 15 1 16 2 17 3 18 4 19 5 20 6 21 7 22 8 23 9 24 10 25 11
REMARK SMILES IDX 26 12 27 13 28 14 29 15 30 16 14 17 13 18 12 19 11 20 10 21
REMARK SMILES IDX 9 22 8 23 7 24 6 25 5 26 4 27 3 28 2 29 1 30
REMARK H PARENT
REMARK Flexibility Score: inf
ROOT
ATOM      1  C   UNL     1       0.642   3.454   9.307  1.00  0.00     0.000 C 
ENDROOT
BRANCH   1   2
ATOM      2  C   UNL     1       1.590   4.604   8.903  1.00  0.00     0.000 C 
BRANCH   2   3
ATOM      3  C   UNL     1       1.485   5.850   9.804  1.00  0.00     0.000 C 
BRANCH   3   4
ATOM      4  C   UNL     1       1.586   7.201   9.072  1.00  0.00     0.000 C 
BRANCH   4   5
ATOM      5  C   UNL     1       1.704   8.437   9.987  1.00  0.00     0.000 C 
BRANCH   5   6
ATOM      6  C   UNL     1       2.432   9.642   9.364  1.00  0.00     0.000 C 
BRANCH   6   7
ATOM      7  C   UNL     1       3.960   9.542   9.479  1.00  0.00     0.000 C 
BRANCH   7   8
ATOM      8  C   UNL     1       4.568   8.972   8.189  1.00  0.00     0.000 C 
BRANCH   8   9
ATOM      9  C   UNL     1       5.886   8.217   8.433  1.00  0.00     0.000 C 
BRANCH   9  10
ATOM     10  C   UNL     1       7.128   8.832   7.757  1.00  0.00     0.000 C 
BRANCH  10  11
ATOM     11  C   UNL     1       6.840   9.723   6.535  1.00  0.00     0.000 C 
BRANCH  11  12
ATOM     12  C   UNL     1       6.623   8.969   5.208  1.00  0.00     0.006 C 
BRANCH  12  13
ATOM     13  C   UNL     1       7.910   8.760   4.390  1.00  0.00     0.053 C 
BRANCH  13  14
ATOM     14  C   UNL     1       7.856   9.435   3.053  1.00  0.00     0.041 C 
ATOM     15  O   UNL     1       6.851  10.125   2.730  1.00  0.00    -0.550 OA
ATOM     16  O   UNL     1       8.928   9.333   2.177  1.00  0.00    -0.550 OA
ENDBRANCH  13  14
ENDBRANCH  12  13
ENDBRANCH  11  12
ENDBRANCH  10  11
ENDBRANCH   9  10
ENDBRANCH   8   9
ENDBRANCH   7   8
ENDBRANCH   6   7
ENDBRANCH   5   6
ENDBRANCH   4   5
ENDBRANCH   3   4
ENDBRANCH   2   3
ENDBRANCH   1   2
BRANCH   1  17
ATOM     17  C   UNL     1      -0.570   3.936  10.125  1.00  0.00     0.000 C 
BRANCH  17  18
ATOM     18  C   UNL     1      -1.762   2.970  10.045  1.00  0.00     0.000 C 
BRANCH  18  19
ATOM     19  C   UNL     1      -1.332   1.503   9.903  1.00  0.00     0.000 C 
BRANCH  19  20
ATOM     20  C   UNL     1      -2.547   0.567   9.984  1.00  0.00     0.000 C 
BRANCH  20  21
ATOM     21  C   UNL     1      -2.575  -0.479   8.855  1.00  0.00     0.000 C 
BRANCH  21  22
ATOM     22  C   UNL     1      -2.546  -1.949   9.321  1.00  0.00    -0.000 C 
BRANCH  22  23
ATOM     23  C   UNL     1      -1.299  -2.747   8.900  1.00  0.00    -0.000 C 
BRANCH  23  24
ATOM     24  C   UNL     1      -0.005  -2.211   9.530  1.00  0.00    -0.000 C 
BRANCH  24  25
ATOM     25  C   UNL     1       1.004  -1.808   8.444  1.00  0.00    -0.000 C 
BRANCH  25  26
ATOM     26  C   UNL     1       0.331  -1.237   7.185  1.00  0.00    -0.000 C 
BRANCH  26  27
ATOM     27  C   UNL     1       0.475   0.292   7.078  1.00  0.00    -0.000 C 
BRANCH  27  28
ATOM     28  C   UNL     1       0.168   0.824   5.666  1.00  0.00    -0.000 C 
BRANCH  28  29
ATOM     29  C   UNL     1      -1.184   1.546   5.522  1.00  0.00    -0.003 C 
ATOM     30  C   UNL     1      -2.367   0.586   5.405  1.00  0.00     0.004 C 
ENDBRANCH  28  29
ENDBRANCH  27  28
ENDBRANCH  26  27
ENDBRANCH  25  26
ENDBRANCH  24  25
ENDBRANCH  23  24
ENDBRANCH  22  23
ENDBRANCH  21  22
ENDBRANCH  20  21
ENDBRANCH  19  20
ENDBRANCH  18  19
ENDBRANCH  17  18
ENDBRANCH   1  17
TORSDOF 26
ENDMDL
MODEL 5
REMARK VINA RESULT:    -3.584      2.456      3.997
REMARK INTER + INTRA:         -11.697
REMARK INTER:                  -9.219
REMARK INTRA:                  -2.478
REMARK UNBOUND:                -2.665
REMARK SMILES CCCCCCCCCCCCCCCCCCCCCCCCCCCC(=O)[O-]
REMARK SMILES IDX 15 1 16 2 17 3 18 4 19 5 20 6 21 7 22 8 23 9 24 10 25 11
REMARK SMILES IDX 26 12 27 13 28 14 29 15 30 16 14 17 13 18 12 19 11 20 10 21
REMARK SMILES IDX 9 22 8 23 7 24 6 25 5 26 4 27 3 28 2 29 1 30
REMARK H PARENT
REMARK Flexibility Score: inf
ROOT
ATOM      1  C   UNL     1       0.670   2.675   7.312  1.00  0.00     0.000 C 
ENDROOT
BRANCH   1   2
ATOM      2  C   UNL     1       0.887   1.229   7.807  1.00  0.00     0.000 C 
BRANCH   2   3
ATOM      3  C   UNL     1       0.680   0.154   6.722  1.00  0.00     0.000 C 
BRANCH   3   4
ATOM      4  C   UNL     1       0.677   0.676   5.273  1.00  0.00     0.000 C 
BRANCH   4   5
ATOM      5  C   UNL     1      -0.632   1.355   4.821  1.00  0.00     0.000 C 
BRANCH   5   6
ATOM      6  C   UNL     1      -1.796   0.393   4.520  1.00  0.00     0.000 C 
BRANCH   6   7
ATOM      7  C   UNL     1      -3.034   0.662   5.387  1.00  0.00     0.000 C 
BRANCH   7   8
ATOM      8  C   UNL     1      -2.625   1.075   6.809  1.00  0.00     0.000 C 
BRANCH   8   9
ATOM      9  C   UNL     1      -2.566  -0.114   7.783  1.00  0.00     0.000 C 
BRANCH   9  10
ATOM     10  C   UNL     1      -2.230   0.253   9.243  1.00  0.00     0.000 C 
BRANCH  10  11
ATOM     11  C   UNL     1      -1.622  -0.885  10.085  1.00  0.00     0.000 C 
BRANCH  11  12
ATOM     12  C   UNL     1      -1.165  -2.122   9.288  1.00  0.00     0.006 C 
BRANCH  12  13
ATOM     13  C   UNL     1      -0.369  -3.143  10.121  1.00  0.00     0.053 C 
BRANCH  13  14
ATOM     14  C   UNL     1       1.085  -3.167   9.762  1.00  0.00     0.041 C 
ATOM     15  O   UNL     1       1.662  -2.114   9.379  1.00  0.00    -0.550 OA
ATOM     16  O   UNL     1       1.814  -4.343   9.886  1.00  0.00    -0.550 OA
ENDBRANCH  13  14
ENDBRANCH  12  13
ENDBRANCH  11  12
ENDBRANCH  10  11
ENDBRANCH   9  10
ENDBRANCH   8   9
ENDBRANCH   7   8
ENDBRANCH   6   7
ENDBRANCH   5   6
ENDBRANCH   4   5
ENDBRANCH   3   4
ENDBRANCH   2   3
ENDBRANCH   1   2
BRANCH   1  17
ATOM     17  C   UNL     1       1.984   3.379   6.926  1.00  0.00     0.000 C 
BRANCH  17  18
ATOM     18  C   UNL     1       2.101   4.788   7.528  1.00  0.00     0.000 C 
BRANCH  18  19
ATOM     19  C   UNL     1       3.073   4.850   8.715  1.00  0.00     0.000 C 
BRANCH  19  20
ATOM     20  C   UNL     1       2.334   5.229  10.007  1.00  0.00     0.000 C 
BRANCH  20  21
ATOM     21  C   UNL     1       1.315   6.365   9.803  1.00  0.00     0.000 C 
BRANCH  21  22
ATOM     22  C   UNL     1       1.919   7.783   9.729  1.00  0.00    -0.000 C 
BRANCH  22  23
ATOM     23  C   UNL     1       1.871   8.445   8.341  1.00  0.00    -0.000 C 
BRANCH  23  24
ATOM     24  C   UNL     1       3.217   9.057   7.923  1.00  0.00    -0.000 C 
BRANCH  24  25
ATOM     25  C   UNL     1       4.386   8.203   8.436  1.00  0.00    -0.000 C 
BRANCH  25  26
ATOM     26  C   UNL     1       5.744   8.641   7.864  1.00  0.00    -0.000 C 
BRANCH  26  27
ATOM     27  C   UNL     1       6.269   7.680   6.782  1.00  0.00    -0.000 C 
BRANCH  27  28
ATOM     28  C   UNL     1       6.006   8.188   5.352  1.00  0.00    -0.000 C 
BRANCH  28  29
ATOM     29  C   UNL     1       7.268   8.514   4.535  1.00  0.00    -0.003 C 
ATOM     30  C   UNL     1       7.752   9.951   4.727  1.00  0.00     0.004 C 
ENDBRANCH  28  29
ENDBRANCH  27  28
ENDBRANCH  26  27
ENDBRANCH  25  26
ENDBRANCH  24  25
ENDBRANCH  23  24
ENDBRANCH  22  23
ENDBRANCH  21  22
ENDBRANCH  20  21
ENDBRANCH  19  20
ENDBRANCH  18  19
ENDBRANCH  17  18
ENDBRANCH   1  17
TORSDOF 26
ENDMDL
MODEL 6
REMARK VINA RESULT:    -3.322      2.804      9.745
REMARK INTER + INTRA:         -11.036
REMARK INTER:                  -8.396
REMARK INTRA:                  -2.640
REMARK UNBOUND:                -2.665
REMARK SMILES CCCCCCCCCCCCCCCCCCCCCCCCCCCC(=O)[O-]
REMARK SMILES IDX 15 1 16 2 17 3 18 4 19 5 20 6 21 7 22 8 23 9 24 10 25 11
REMARK SMILES IDX 26 12 27 13 28 14 29 15 30 16 14 17 13 18 12 19 11 20 10 21
REMARK SMILES IDX 9 22 8 23 7 24 6 25 5 26 4 27 3 28 2 29 1 30
REMARK H PARENT
REMARK Flexibility Score: inf
ROOT
ATOM      1  C   UNL     1       0.439   1.986   5.017  1.00  0.00     0.000 C 
ENDROOT
BRANCH   1   2
ATOM      2  C   UNL     1       1.382   1.866   6.234  1.00  0.00     0.000 C 
BRANCH   2   3
ATOM      3  C   UNL     1       1.745   3.216   6.883  1.00  0.00     0.000 C 
BRANCH   3   4
ATOM      4  C   UNL     1       0.779   3.699   7.980  1.00  0.00     0.000 C 
BRANCH   4   5
ATOM      5  C   UNL     1       1.400   3.848   9.384  1.00  0.00     0.000 C 
BRANCH   5   6
ATOM      6  C   UNL     1       1.308   5.259   9.991  1.00  0.00     0.000 C 
BRANCH   6   7
ATOM      7  C   UNL     1       1.562   6.371   8.963  1.00  0.00     0.000 C 
BRANCH   7   8
ATOM      8  C   UNL     1       1.180   7.743   9.537  1.00  0.00     0.000 C 
BRANCH   8   9
ATOM      9  C   UNL     1       1.391   8.891   8.534  1.00  0.00     0.000 C 
BRANCH   9  10
ATOM     10  C   UNL     1       2.848   9.377   8.394  1.00  0.00     0.000 C 
BRANCH  10  11
ATOM     11  C   UNL     1       3.179  10.093   7.071  1.00  0.00     0.000 C 
BRANCH  11  12
ATOM     12  C   UNL     1       3.472   9.165   5.876  1.00  0.00     0.006 C 
BRANCH  12  13
ATOM     13  C   UNL     1       4.421   9.776   4.829  1.00  0.00     0.053 C 
BRANCH  13  14
ATOM     14  C   UNL     1       5.424   8.786   4.317  1.00  0.00     0.041 C 
ATOM     15  O   UNL     1       6.066   9.023   3.259  1.00  0.00    -0.550 OA
ATOM     16  O   UNL     1       5.676   7.620   5.027  1.00  0.00    -0.550 OA
ENDBRANCH  13  14
ENDBRANCH  12  13
ENDBRANCH  11  12
ENDBRANCH  10  11
ENDBRANCH   9  10
ENDBRANCH   8   9
ENDBRANCH   7   8
ENDBRANCH   6   7
ENDBRANCH   5   6
ENDBRANCH   4   5
ENDBRANCH   3   4
ENDBRANCH   2   3
ENDBRANCH   1   2
BRANCH   1  17
ATOM     17  C   UNL     1      -0.445   0.740   4.819  1.00  0.00     0.000 C 
BRANCH  17  18
ATOM     18  C   UNL     1      -1.933   1.021   5.072  1.00  0.00     0.000 C 
BRANCH  18  19
ATOM     19  C   UNL     1      -2.395   0.574   6.468  1.00  0.00     0.000 C 
BRANCH  19  20
ATOM     20  C   UNL     1      -2.244   1.716   7.484  1.00  0.00     0.000 C 
BRANCH  20  21
ATOM     21  C   UNL     1      -2.210   1.220   8.941  1.00  0.00     0.000 C 
BRANCH  21  22
ATOM     22  C   UNL     1      -1.419  -0.084   9.173  1.00  0.00    -0.000 C 
BRANCH  22  23
ATOM     23  C   UNL     1      -0.002  -0.107   8.572  1.00  0.00    -0.000 C 
BRANCH  23  24
ATOM     24  C   UNL     1       0.382  -1.480   8.000  1.00  0.00    -0.000 C 
BRANCH  24  25
ATOM     25  C   UNL     1       1.253  -2.261   8.997  1.00  0.00    -0.000 C 
BRANCH  25  26
ATOM     26  C   UNL     1       0.435  -2.910  10.125  1.00  0.00    -0.000 C 
BRANCH  26  27
ATOM     27  C   UNL     1       0.299  -4.434   9.957  1.00  0.00    -0.000 C 
BRANCH  27  28
ATOM     28  C   UNL     1      -1.167  -4.896   9.849  1.00  0.00    -0.000 C 
BRANCH  28  29
ATOM     29  C   UNL     1      -2.071  -3.996   8.988  1.00  0.00    -0.003 C 
ATOM     30  C   UNL     1      -3.374  -3.611   9.687  1.00  0.00     0.004 C 
ENDBRANCH  28  29
ENDBRANCH  27  28
ENDBRANCH  26  27
ENDBRANCH  25  26
ENDBRANCH  24  25
ENDBRANCH  23  24
ENDBRANCH  22  23
ENDBRANCH  21  22
ENDBRANCH  20  21
ENDBRANCH  19  20
ENDBRANCH  18  19
ENDBRANCH  17  18
ENDBRANCH   1  17
TORSDOF 26
ENDMDL
MODEL 7
REMARK VINA RESULT:    -3.312      2.388      9.441
REMARK INTER + INTRA:         -11.011
REMARK INTER:                  -8.062
REMARK INTRA:                  -2.950
REMARK UNBOUND:                -2.665
REMARK SMILES CCCCCCCCCCCCCCCCCCCCCCCCCCCC(=O)[O-]
REMARK SMILES IDX 15 1 16 2 17 3 18 4 19 5 20 6 21 7 22 8 23 9 24 10 25 11
REMARK SMILES IDX 26 12 27 13 28 14 29 15 30 16 14 17 13 18 12 19 11 20 10 21
REMARK SMILES IDX 9 22 8 23 7 24 6 25 5 26 4 27 3 28 2 29 1 30
REMARK H PARENT
REMARK Flexibility Score: inf
ROOT
ATOM      1  C   UNL     1       1.885   4.781   8.352  1.00  0.00     0.000 C 
ENDROOT
BRANCH   1   2
ATOM      2  C   UNL     1       2.796   5.228   9.515  1.00  0.00     0.000 C 
BRANCH   2   3
ATOM      3  C   UNL     1       3.308   6.676   9.392  1.00  0.00     0.000 C 
BRANCH   3   4
ATOM      4  C   UNL     1       4.706   6.932   9.985  1.00  0.00     0.000 C 
BRANCH   4   5
ATOM      5  C   UNL     1       5.706   7.626   9.037  1.00  0.00     0.000 C 
BRANCH   5   6
ATOM      6  C   UNL     1       5.830   6.989   7.641  1.00  0.00     0.000 C 
BRANCH   6   7
ATOM      7  C   UNL     1       6.555   7.893   6.634  1.00  0.00     0.000 C 
BRANCH   7   8
ATOM      8  C   UNL     1       5.865   9.262   6.534  1.00  0.00     0.000 C 
BRANCH   8   9
ATOM      9  C   UNL     1       4.896   9.357   5.343  1.00  0.00     0.000 C 
BRANCH   9  10
ATOM     10  C   UNL     1       3.438   9.699   5.711  1.00  0.00     0.000 C 
BRANCH  10  11
ATOM     11  C   UNL     1       2.986   9.237   7.108  1.00  0.00     0.000 C 
BRANCH  11  12
ATOM     12  C   UNL     1       1.536   9.598   7.484  1.00  0.00     0.006 C 
BRANCH  12  13
ATOM     13  C   UNL     1       0.535   9.455   6.322  1.00  0.00     0.053 C 
BRANCH  13  14
ATOM     14  C   UNL     1      -0.888   9.424   6.791  1.00  0.00     0.041 C 
ATOM     15  O   UNL     1      -1.806   9.057   6.010  1.00  0.00    -0.550 OA
ATOM     16  O   UNL     1      -1.197   9.766   8.101  1.00  0.00    -0.550 OA
ENDBRANCH  13  14
ENDBRANCH  12  13
ENDBRANCH  11  12
ENDBRANCH  10  11
ENDBRANCH   9  10
ENDBRANCH   8   9
ENDBRANCH   7   8
ENDBRANCH   6   7
ENDBRANCH   5   6
ENDBRANCH   4   5
ENDBRANCH   3   4
ENDBRANCH   2   3
ENDBRANCH   1   2
BRANCH   1  17
ATOM     17  C   UNL     1       1.203   3.425   8.612  1.00  0.00     0.000 C 
BRANCH  17  18
ATOM     18  C   UNL     1       0.460   3.382   9.956  1.00  0.00     0.000 C 
BRANCH  18  19
ATOM     19  C   UNL     1      -0.943   4.004   9.881  1.00  0.00     0.000 C 
BRANCH  19  20
ATOM     20  C   UNL     1      -2.025   2.942  10.125  1.00  0.00     0.000 C 
BRANCH  20  21
ATOM     21  C   UNL     1      -1.592   1.533   9.683  1.00  0.00     0.000 C 
BRANCH  21  22
ATOM     22  C   UNL     1      -2.738   0.512   9.529  1.00  0.00    -0.000 C 
BRANCH  22  23
ATOM     23  C   UNL     1      -2.417  -0.914  10.009  1.00  0.00    -0.000 C 
BRANCH  23  24
ATOM     24  C   UNL     1      -1.711  -1.761   8.939  1.00  0.00    -0.000 C 
BRANCH  24  25
ATOM     25  C   UNL     1      -0.209  -1.878   9.241  1.00  0.00    -0.000 C 
BRANCH  25  26
ATOM     26  C   UNL     1       0.666  -1.129   8.223  1.00  0.00    -0.000 C 
BRANCH  26  27
ATOM     27  C   UNL     1       0.072  -1.149   6.803  1.00  0.00    -0.000 C 
BRANCH  27  28
ATOM     28  C   UNL     1       0.332   0.156   6.027  1.00  0.00    -0.000 C 
BRANCH  28  29
ATOM     29  C   UNL     1      -0.664   1.294   6.315  1.00  0.00    -0.003 C 
ATOM     30  C   UNL     1      -1.951   1.185   5.497  1.00  0.00     0.004 C 
ENDBRANCH  28  29
ENDBRANCH  27  28
ENDBRANCH  26  27
ENDBRANCH  25  26
ENDBRANCH  24  25
ENDBRANCH  23  24
ENDBRANCH  22  23
ENDBRANCH  21  22
ENDBRANCH  20  21
ENDBRANCH  19  20
ENDBRANCH  18  19
ENDBRANCH  17  18
ENDBRANCH   1  17
TORSDOF 26
ENDMDL
MODEL 8
REMARK VINA RESULT:    -3.285      2.853      4.432
REMARK INTER + INTRA:         -10.943
REMARK INTER:                 -10.759
REMARK INTRA:                  -0.184
REMARK UNBOUND:                -2.665
REMARK SMILES CCCCCCCCCCCCCCCCCCCCCCCCCCCC(=O)[O-]
REMARK SMILES IDX 15 1 16 2 17 3 18 4 19 5 20 6 21 7 22 8 23 9 24 10 25 11
REMARK SMILES IDX 26 12 27 13 28 14 29 15 30 16 14 17 13 18 12 19 11 20 10 21
REMARK SMILES IDX 9 22 8 23 7 24 6 25 5 26 4 27 3 28 2 29 1 30
REMARK H PARENT
REMARK Flexibility Score: inf
ROOT
ATOM      1  C   UNL     1       2.005   4.260   7.510  1.00  0.00     0.000 C 
ENDROOT
BRANCH   1   2
ATOM      2  C   UNL     1       0.917   3.615   8.396  1.00  0.00     0.000 C 
BRANCH   2   3
ATOM      3  C   UNL     1       0.264   2.364   7.778  1.00  0.00     0.000 C 
BRANCH   3   4
ATOM      4  C   UNL     1       0.881   1.887   6.451  1.00  0.00     0.000 C 
BRANCH   4   5
ATOM      5  C   UNL     1      -0.118   1.694   5.292  1.00  0.00     0.000 C 
BRANCH   5   6
ATOM      6  C   UNL     1      -1.455   1.040   5.686  1.00  0.00     0.000 C 
BRANCH   6   7
ATOM      7  C   UNL     1      -1.569   0.772   7.193  1.00  0.00     0.000 C 
BRANCH   7   8
ATOM      8  C   UNL     1      -1.854  -0.713   7.463  1.00  0.00     0.000 C 
BRANCH   8   9
ATOM      9  C   UNL     1      -2.449  -0.963   8.859  1.00  0.00     0.000 C 
BRANCH   9  10
ATOM     10  C   UNL     1      -3.043  -2.370   9.075  1.00  0.00     0.000 C 
BRANCH  10  11
ATOM     11  C   UNL     1      -2.212  -3.306   9.972  1.00  0.00     0.000 C 
BRANCH  11  12
ATOM     12  C   UNL     1      -1.023  -3.998   9.278  1.00  0.00     0.006 C 
BRANCH  12  13
ATOM     13  C   UNL     1       0.263  -4.031  10.125  1.00  0.00     0.053 C 
BRANCH  13  14
ATOM     14  C   UNL     1       1.018  -2.738  10.071  1.00  0.00     0.041 C 
ATOM     15  O   UNL     1       2.278  -2.736  10.112  1.00  0.00    -0.550 OA
ATOM     16  O   UNL     1       0.334  -1.536   9.940  1.00  0.00    -0.550 OA
ENDBRANCH  13  14
ENDBRANCH  12  13
ENDBRANCH  11  12
ENDBRANCH  10  11
ENDBRANCH   9  10
ENDBRANCH   8   9
ENDBRANCH   7   8
ENDBRANCH   6   7
ENDBRANCH   5   6
ENDBRANCH   4   5
ENDBRANCH   3   4
ENDBRANCH   2   3
ENDBRANCH   1   2
BRANCH   1  17
ATOM     17  C   UNL     1       2.976   5.151   8.308  1.00  0.00     0.000 C 
BRANCH  17  18
ATOM     18  C   UNL     1       2.310   6.430   8.837  1.00  0.00     0.000 C 
BRANCH  18  19
ATOM     19  C   UNL     1       3.223   7.662   8.738  1.00  0.00     0.000 C 
BRANCH  19  20
ATOM     20  C   UNL     1       3.998   7.873  10.047  1.00  0.00     0.000 C 
BRANCH  20  21
ATOM     21  C   UNL     1       5.321   8.633   9.844  1.00  0.00     0.000 C 
BRANCH  21  22
ATOM     22  C   UNL     1       5.296   9.710   8.740  1.00  0.00    -0.000 C 
BRANCH  22  23
ATOM     23  C   UNL     1       6.466   9.653   7.741  1.00  0.00    -0.000 C 
BRANCH  23  24
ATOM     24  C   UNL     1       6.474   8.365   6.904  1.00  0.00    -0.000 C 
BRANCH  24  25
ATOM     25  C   UNL     1       5.348   8.387   5.859  1.00  0.00    -0.000 C 
BRANCH  25  26
ATOM     26  C   UNL     1       5.857   8.665   4.436  1.00  0.00    -0.000 C 
BRANCH  26  27
ATOM     27  C   UNL     1       7.375   8.448   4.296  1.00  0.00    -0.000 C 
BRANCH  27  28
ATOM     28  C   UNL     1       8.121   9.719   3.848  1.00  0.00    -0.000 C 
BRANCH  28  29
ATOM     29  C   UNL     1       8.640   9.692   2.399  1.00  0.00    -0.003 C 
ATOM     30  C   UNL     1      10.163   9.795   2.306  1.00  0.00     0.004 C 
ENDBRANCH  28  29
ENDBRANCH  27  28
ENDBRANCH  26  27
ENDBRANCH  25  26
ENDBRANCH  24  25
ENDBRANCH  23  24
ENDBRANCH  22  23
ENDBRANCH  21  22
ENDBRANCH  20  21
ENDBRANCH  19  20
ENDBRANCH  18  19
ENDBRANCH  17  18
ENDBRANCH   1  17
TORSDOF 26
ENDMDL
MODEL 9
REMARK VINA RESULT:    -3.239      2.627      8.989
REMARK INTER + INTRA:         -10.827
REMARK INTER:                  -7.541
REMARK INTRA:                  -3.286
REMARK UNBOUND:                -2.665
REMARK SMILES CCCCCCCCCCCCCCCCCCCCCCCCCCCC(=O)[O-]
REMARK SMILES IDX 15 1 16 2 17 3 18 4 19 5 20 6 21 7 22 8 23 9 24 10 25 11
REMARK SMILES IDX 26 12 27 13 28 14 29 15 30 16 14 17 13 18 12 19 11 20 10 21
REMARK SMILES IDX 9 22 8 23 7 24 6 25 5 26 4 27 3 28 2 29 1 30
REMARK H PARENT
REMARK Flexibility Score: inf
ROOT
ATOM      1  C   UNL     1       3.102   5.071   7.497  1.00  0.00     0.000 C 
ENDROOT
BRANCH   1   2
ATOM      2  C   UNL     1       4.043   5.117   8.721  1.00  0.00     0.000 C 
BRANCH   2   3
ATOM      3  C   UNL     1       3.861   6.365   9.607  1.00  0.00     0.000 C 
BRANCH   3   4
ATOM      4  C   UNL     1       4.570   7.636   9.105  1.00  0.00     0.000 C 
BRANCH   4   5
ATOM      5  C   UNL     1       4.269   8.918   9.908  1.00  0.00     0.000 C 
BRANCH   5   6
ATOM      6  C   UNL     1       3.028   9.702   9.444  1.00  0.00     0.000 C 
BRANCH   6   7
ATOM      7  C   UNL     1       1.726   9.187  10.073  1.00  0.00     0.000 C 
BRANCH   7   8
ATOM      8  C   UNL     1       0.907   8.383   9.051  1.00  0.00     0.000 C 
BRANCH   8   9
ATOM      9  C   UNL     1       0.613   9.175   7.765  1.00  0.00     0.000 C 
BRANCH   9  10
ATOM     10  C   UNL     1       1.240   8.596   6.481  1.00  0.00     0.000 C 
BRANCH  10  11
ATOM     11  C   UNL     1       1.983   9.611   5.593  1.00  0.00     0.000 C 
BRANCH  11  12
ATOM     12  C   UNL     1       3.490   9.755   5.878  1.00  0.00     0.006 C 
BRANCH  12  13
ATOM     13  C   UNL     1       4.300   8.471   5.624  1.00  0.00     0.053 C 
BRANCH  13  14
ATOM     14  C   UNL     1       5.622   8.745   4.972  1.00  0.00     0.041 C 
ATOM     15  O   UNL     1       5.972   9.930   4.722  1.00  0.00    -0.550 OA
ATOM     16  O   UNL     1       6.483   7.697   4.674  1.00  0.00    -0.550 OA
ENDBRANCH  13  14
ENDBRANCH  12  13
ENDBRANCH  11  12
ENDBRANCH  10  11
ENDBRANCH   9  10
ENDBRANCH   8   9
ENDBRANCH   7   8
ENDBRANCH   6   7
ENDBRANCH   5   6
ENDBRANCH   4   5
ENDBRANCH   3   4
ENDBRANCH   2   3
ENDBRANCH   1   2
BRANCH   1  17
ATOM     17  C   UNL     1       1.890   4.144   7.708  1.00  0.00     0.000 C 
BRANCH  17  18
ATOM     18  C   UNL     1       1.489   4.018   9.185  1.00  0.00     0.000 C 
BRANCH  18  19
ATOM     19  C   UNL     1       0.194   4.775   9.517  1.00  0.00     0.000 C 
BRANCH  19  20
ATOM     20  C   UNL     1      -0.852   3.828  10.124  1.00  0.00     0.000 C 
BRANCH  20  21
ATOM     21  C   UNL     1      -0.829   2.425   9.492  1.00  0.00     0.000 C 
BRANCH  21  22
ATOM     22  C   UNL     1      -2.172   1.951   8.898  1.00  0.00    -0.000 C 
BRANCH  22  23
ATOM     23  C   UNL     1      -2.598   0.526   9.294  1.00  0.00    -0.000 C 
BRANCH  23  24
ATOM     24  C   UNL     1      -2.527  -0.466   8.122  1.00  0.00    -0.000 C 
BRANCH  24  25
ATOM     25  C   UNL     1      -1.600  -1.643   8.461  1.00  0.00    -0.000 C 
BRANCH  25  26
ATOM     26  C   UNL     1      -0.374  -1.724   7.537  1.00  0.00    -0.000 C 
BRANCH  26  27
ATOM     27  C   UNL     1       0.493  -0.454   7.590  1.00  0.00    -0.000 C 
BRANCH  27  28
ATOM     28  C   UNL     1       0.622   0.241   6.221  1.00  0.00    -0.000 C 
BRANCH  28  29
ATOM     29  C   UNL     1      -0.681   0.852   5.677  1.00  0.00    -0.003 C 
ATOM     30  C   UNL     1      -0.491   1.585   4.349  1.00  0.00     0.004 C 
ENDBRANCH  28  29
ENDBRANCH  27  28
ENDBRANCH  26  27
ENDBRANCH  25  26
ENDBRANCH  24  25
ENDBRANCH  23  24
ENDBRANCH  22  23
ENDBRANCH  21  22
ENDBRANCH  20  21
ENDBRANCH  19  20
ENDBRANCH  18  19
ENDBRANCH  17  18
ENDBRANCH   1  17
TORSDOF 26
ENDMDL
