MODEL 1
REMARK VINA RESULT:    -2.013      0.000      0.000
REMARK INTER + INTRA:          -2.322
REMARK INTER:                  -2.366
REMARK INTRA:                   0.045
REMARK UNBOUND:                 0.045
REMARK SMILES O=c1c(O)c(-c2ccc(O)c(O)c2)oc2cc(O)ccc12
REMARK SMILES IDX 5 1 3 2 2 3 1 4 21 5 15 6 14 7 16 8 17 9 19 10 20 11 6 12
REMARK SMILES IDX 7 13 8 14 9 15 13 16 11 17 10 18 12 20 4 22 18 24
REMARK H PARENT 10 19 12 21 4 23 18 25
REMARK Flexibility Score: inf
ROOT
ATOM      1  C   UNL     1     -12.375 -15.394  31.581  1.00  0.00     0.180 A 
ATOM      2  C   UNL     1     -13.725 -15.104  31.866  1.00  0.00     0.208 A 
ATOM      3  C   UNL     1     -14.054 -14.584  33.127  1.00  0.00     0.235 A 
ATOM      4  O   UNL     1     -15.257 -14.326  33.409  1.00  0.00    -0.285 OA
ATOM      5  C   UNL     1     -13.035 -14.347  34.064  1.00  0.00     0.069 A 
ATOM      6  C   UNL     1     -11.706 -14.642  33.693  1.00  0.00     0.142 A 
ATOM      7  O   UNL     1     -11.437 -15.142  32.492  1.00  0.00    -0.452 OA
ATOM      8  C   UNL     1     -10.661 -14.410  34.596  1.00  0.00     0.094 A 
ATOM      9  C   UNL     1     -10.927 -13.889  35.865  1.00  0.00     0.119 A 
ATOM     10  C   UNL     1     -12.247 -13.597  36.237  1.00  0.00     0.047 A 
ATOM     11  C   UNL     1     -13.297 -13.823  35.342  1.00  0.00     0.020 A 
ENDROOT
BRANCH   1  12
ATOM     12  C   UNL     1     -11.950 -15.962  30.282  1.00  0.00     0.025 A 
ATOM     13  C   UNL     1     -10.802 -15.459  29.651  1.00  0.00     0.016 A 
ATOM     14  C   UNL     1     -10.369 -15.993  28.435  1.00  0.00     0.051 A 
ATOM     15  C   UNL     1     -11.071 -17.049  27.838  1.00  0.00     0.157 A 
ATOM     16  C   UNL     1     -12.640 -17.036  29.690  1.00  0.00     0.062 A 
ATOM     17  C   UNL     1     -12.209 -17.575  28.473  1.00  0.00     0.158 A 
BRANCH  15  18
ATOM     18  O   UNL     1     -10.640 -17.579  26.624  1.00  0.00    -0.504 OA
ATOM     19  H   UNL     1      -9.690 -17.907  26.494  1.00  0.00     0.293 HD
ENDBRANCH  15  18
BRANCH  17  20
ATOM     20  O   UNL     1     -12.920 -18.635  27.912  1.00  0.00    -0.504 OA
ATOM     21  H   UNL     1     -13.196 -19.445  28.455  1.00  0.00     0.293 HD
ENDBRANCH  17  20
ENDBRANCH   1  12
BRANCH   2  22
ATOM     22  O   UNL     1     -14.712 -15.304  30.897  1.00  0.00    -0.502 OA
ATOM     23  H   UNL     1     -15.553 -15.838  31.081  1.00  0.00     0.293 HD
ENDBRANCH   2  22
BRANCH   9  24
ATOM     24  O   UNL     1      -9.875 -13.666  36.751  1.00  0.00    -0.508 OA
ATOM     25  H   UNL     1      -9.370 -14.434  37.178  1.00  0.00     0.293 HD
ENDBRANCH   9  24
TORSDOF 5
ENDMDL
MODEL 2
REMARK VINA RESULT:    -1.848      1.921      7.136
REMARK INTER + INTRA:          -2.128
REMARK INTER:                  -2.373
REMARK INTRA:                   0.245
REMARK UNBOUND:                 0.045
REMARK SMILES O=c1c(O)c(-c2ccc(O)c(O)c2)oc2cc(O)ccc12
REMARK SMILES IDX 5 1 3 2 2 3 1 4 21 5 15 6 14 7 16 8 17 9 19 10 20 11 6 12
REMARK SMILES IDX 7 13 8 14 9 15 13 16 11 17 10 18 12 20 4 22 18 24
REMARK H PARENT 10 19 12 21 4 23 18 25
REMARK Flexibility Score: inf
ROOT
ATOM      1  C   UNL     1     -11.918 -15.520  31.415  1.00  0.00     0.180 A 
ATOM      2  C   UNL     1     -10.865 -16.379  31.042  1.00  0.00     0.208 A 
ATOM      3  C   UNL     1     -10.804 -16.842  29.718  1.00  0.00     0.235 A 
ATOM      4  O   UNL     1      -9.877 -17.620  29.363  1.00  0.00    -0.285 OA
ATOM      5  C   UNL     1     -11.778 -16.425  28.796  1.00  0.00     0.069 A 
ATOM      6  C   UNL     1     -12.787 -15.545  29.242  1.00  0.00     0.142 A 
ATOM      7  O   UNL     1     -12.814 -15.137  30.506  1.00  0.00    -0.452 OA
ATOM      8  C   UNL     1     -13.770 -15.098  28.351  1.00  0.00     0.094 A 
ATOM      9  C   UNL     1     -13.759 -15.522  27.019  1.00  0.00     0.119 A 
ATOM     10  C   UNL     1     -12.759 -16.397  26.573  1.00  0.00     0.047 A 
ATOM     11  C   UNL     1     -11.772 -16.847  27.455  1.00  0.00     0.020 A 
ENDROOT
BRANCH   1  12
ATOM     12  C   UNL     1     -12.061 -15.005  32.795  1.00  0.00     0.025 A 
ATOM     13  C   UNL     1     -13.344 -14.825  33.336  1.00  0.00     0.016 A 
ATOM     14  C   UNL     1     -13.504 -14.360  34.643  1.00  0.00     0.051 A 
ATOM     15  C   UNL     1     -12.382 -14.082  35.436  1.00  0.00     0.157 A 
ATOM     16  C   UNL     1     -10.938 -14.744  33.601  1.00  0.00     0.062 A 
ATOM     17  C   UNL     1     -11.094 -14.281  34.912  1.00  0.00     0.158 A 
BRANCH  15  18
ATOM     18  O   UNL     1     -12.543 -13.616  36.739  1.00  0.00    -0.504 OA
ATOM     19  H   UNL     1     -12.103 -12.759  37.055  1.00  0.00     0.293 HD
ENDBRANCH  15  18
BRANCH  17  20
ATOM     20  O   UNL     1      -9.958 -14.028  35.680  1.00  0.00    -0.504 OA
ATOM     21  H   UNL     1      -9.327 -13.263  35.472  1.00  0.00     0.293 HD
ENDBRANCH  17  20
ENDBRANCH   1  12
BRANCH   2  22
ATOM     22  O   UNL     1      -9.882 -16.738  31.968  1.00  0.00    -0.502 OA
ATOM     23  H   UNL     1      -8.915 -16.885  31.703  1.00  0.00     0.293 HD
ENDBRANCH   2  22
BRANCH   9  24
ATOM     24  O   UNL     1     -14.745 -15.069  26.145  1.00  0.00    -0.508 OA
ATOM     25  H   UNL     1     -14.630 -14.213  25.615  1.00  0.00     0.293 HD
ENDBRANCH   9  24
TORSDOF 5
ENDMDL
MODEL 3
REMARK VINA RESULT:    -1.162      1.795      6.734
REMARK INTER + INTRA:          -1.322
REMARK INTER:                  -1.626
REMARK INTRA:                   0.304
REMARK UNBOUND:                 0.045
REMARK SMILES O=c1c(O)c(-c2ccc(O)c(O)c2)oc2cc(O)ccc12
REMARK SMILES IDX 5 1 3 2 2 3 1 4 21 5 15 6 14 7 16 8 17 9 19 10 20 11 6 12
REMARK SMILES IDX 7 13 8 14 9 15 13 16 11 17 10 18 12 20 4 22 18 24
REMARK H PARENT 10 19 12 21 4 23 18 25
REMARK Flexibility Score: inf
ROOT
ATOM      1  C   UNL     1     -13.074 -14.934  30.961  1.00  0.00     0.180 A 
ATOM      2  C   UNL     1     -14.117 -14.320  30.237  1.00  0.00     0.208 A 
ATOM      3  C   UNL     1     -14.198 -14.536  28.853  1.00  0.00     0.235 A 
ATOM      4  O   UNL     1     -15.116 -13.990  28.182  1.00  0.00    -0.285 OA
ATOM      5  C   UNL     1     -13.256 -15.369  28.228  1.00  0.00     0.069 A 
ATOM      6  C   UNL     1     -12.257 -15.965  29.027  1.00  0.00     0.142 A 
ATOM      7  O   UNL     1     -12.209 -15.728  30.333  1.00  0.00    -0.452 OA
ATOM      8  C   UNL     1     -11.305 -16.810  28.442  1.00  0.00     0.094 A 
ATOM      9  C   UNL     1     -11.339 -17.065  27.068  1.00  0.00     0.119 A 
ATOM     10  C   UNL     1     -12.329 -16.474  26.272  1.00  0.00     0.047 A 
ATOM     11  C   UNL     1     -13.284 -15.631  26.846  1.00  0.00     0.020 A 
ENDROOT
BRANCH   1  12
ATOM     12  C   UNL     1     -12.910 -14.740  32.420  1.00  0.00     0.025 A 
ATOM     13  C   UNL     1     -14.045 -14.557  33.224  1.00  0.00     0.016 A 
ATOM     14  C   UNL     1     -13.917 -14.393  34.605  1.00  0.00     0.051 A 
ATOM     15  C   UNL     1     -12.651 -14.426  35.206  1.00  0.00     0.157 A 
ATOM     16  C   UNL     1     -11.643 -14.793  33.029  1.00  0.00     0.062 A 
ATOM     17  C   UNL     1     -11.511 -14.632  34.412  1.00  0.00     0.158 A 
BRANCH  15  18
ATOM     18  O   UNL     1     -12.525 -14.259  36.583  1.00  0.00    -0.504 OA
ATOM     19  H   UNL     1     -11.897 -14.835  37.133  1.00  0.00     0.293 HD
ENDBRANCH  15  18
BRANCH  17  20
ATOM     20  O   UNL     1     -10.238 -14.684  34.982  1.00  0.00    -0.504 OA
ATOM     21  H   UNL     1      -9.767 -13.855  35.325  1.00  0.00     0.293 HD
ENDBRANCH  17  20
ENDBRANCH   1  12
BRANCH   2  22
ATOM     22  O   UNL     1     -15.069 -13.536  30.894  1.00  0.00    -0.502 OA
ATOM     23  H   UNL     1     -16.058 -13.593  30.681  1.00  0.00     0.293 HD
ENDBRANCH   2  22
BRANCH   9  24
ATOM     24  O   UNL     1     -10.383 -17.908  26.503  1.00  0.00    -0.508 OA
ATOM     25  H   UNL     1     -10.371 -18.102  25.509  1.00  0.00     0.293 HD
ENDBRANCH   9  24
TORSDOF 5
ENDMDL
MODEL 4
REMARK VINA RESULT:    -0.632      1.257      6.553
REMARK INTER + INTRA:          -0.698
REMARK INTER:                  -1.153
REMARK INTRA:                   0.455
REMARK UNBOUND:                 0.045
REMARK SMILES O=c1c(O)c(-c2ccc(O)c(O)c2)oc2cc(O)ccc12
REMARK SMILES IDX 5 1 3 2 2 3 1 4 21 5 15 6 14 7 16 8 17 9 19 10 20 11 6 12
REMARK SMILES IDX 7 13 8 14 9 15 13 16 11 17 10 18 12 20 4 22 18 24
REMARK H PARENT 10 19 12 21 4 23 18 25
REMARK Flexibility Score: inf
ROOT
ATOM      1  C   UNL     1     -12.357 -14.891  32.563  1.00  0.00     0.180 A 
ATOM      2  C   UNL     1     -13.669 -14.489  32.236  1.00  0.00     0.208 A 
ATOM      3  C   UNL     1     -14.121 -14.660  30.918  1.00  0.00     0.235 A 
ATOM      4  O   UNL     1     -15.287 -14.300  30.599  1.00  0.00    -0.285 OA
ATOM      5  C   UNL     1     -13.268 -15.242  29.966  1.00  0.00     0.069 A 
ATOM      6  C   UNL     1     -11.978 -15.638  30.379  1.00  0.00     0.142 A 
ATOM      7  O   UNL     1     -11.585 -15.450  31.633  1.00  0.00    -0.452 OA
ATOM      8  C   UNL     1     -11.102 -16.231  29.461  1.00  0.00     0.094 A 
ATOM      9  C   UNL     1     -11.498 -16.430  28.135  1.00  0.00     0.119 A 
ATOM     10  C   UNL     1     -12.778 -16.036  27.722  1.00  0.00     0.047 A 
ATOM     11  C   UNL     1     -13.661 -15.445  28.631  1.00  0.00     0.020 A 
ENDROOT
BRANCH   1  12
ATOM     12  C   UNL     1     -11.801 -14.726  33.925  1.00  0.00     0.025 A 
ATOM     13  C   UNL     1     -10.426 -14.910  34.136  1.00  0.00     0.016 A 
ATOM     14  C   UNL     1      -9.876 -14.739  35.408  1.00  0.00     0.051 A 
ATOM     15  C   UNL     1     -10.690 -14.367  36.487  1.00  0.00     0.157 A 
ATOM     16  C   UNL     1     -12.612 -14.333  35.005  1.00  0.00     0.062 A 
ATOM     17  C   UNL     1     -12.063 -14.159  36.281  1.00  0.00     0.158 A 
BRANCH  15  18
ATOM     18  O   UNL     1     -10.139 -14.201  37.756  1.00  0.00    -0.504 OA
ATOM     19  H   UNL     1      -9.189 -14.487  37.965  1.00  0.00     0.293 HD
ENDBRANCH  15  18
BRANCH  17  20
ATOM     20  O   UNL     1     -12.898 -13.774  37.330  1.00  0.00    -0.504 OA
ATOM     21  H   UNL     1     -13.831 -14.153  37.443  1.00  0.00     0.293 HD
ENDBRANCH  17  20
ENDBRANCH   1  12
BRANCH   2  22
ATOM     22  O   UNL     1     -14.512 -13.959  33.216  1.00  0.00    -0.502 OA
ATOM     23  H   UNL     1     -15.516 -14.092  33.197  1.00  0.00     0.293 HD
ENDBRANCH   2  22
BRANCH   9  24
ATOM     24  O   UNL     1     -10.613 -17.021  27.235  1.00  0.00    -0.508 OA
ATOM     25  H   UNL     1      -9.697 -16.625  27.056  1.00  0.00     0.293 HD
ENDBRANCH   9  24
TORSDOF 5
ENDMDL
MODEL 5
REMARK VINA RESULT:    -0.590      3.908      6.001
REMARK INTER + INTRA:          -0.649
REMARK INTER:                  -0.969
REMARK INTRA:                   0.320
REMARK UNBOUND:                 0.045
REMARK SMILES O=c1c(O)c(-c2ccc(O)c(O)c2)oc2cc(O)ccc12
REMARK SMILES IDX 5 1 3 2 2 3 1 4 21 5 15 6 14 7 16 8 17 9 19 10 20 11 6 12
REMARK SMILES IDX 7 13 8 14 9 15 13 16 11 17 10 18 12 20 4 22 18 24
REMARK H PARENT 10 19 12 21 4 23 18 25
REMARK Flexibility Score: inf
ROOT
ATOM      1  C   UNL     1     -13.352 -15.451  29.843  1.00  0.00     0.180 A 
ATOM      2  C   UNL     1     -12.018 -15.264  29.427  1.00  0.00     0.208 A 
ATOM      3  C   UNL     1     -11.077 -16.270  29.697  1.00  0.00     0.235 A 
ATOM      4  O   UNL     1      -9.875 -16.122  29.344  1.00  0.00    -0.285 OA
ATOM      5  C   UNL     1     -11.488 -17.441  30.355  1.00  0.00     0.069 A 
ATOM      6  C   UNL     1     -12.847 -17.561  30.717  1.00  0.00     0.142 A 
ATOM      7  O   UNL     1     -13.704 -16.582  30.451  1.00  0.00    -0.452 OA
ATOM      8  C   UNL     1     -13.298 -18.718  31.366  1.00  0.00     0.094 A 
ATOM      9  C   UNL     1     -12.408 -19.755  31.658  1.00  0.00     0.119 A 
ATOM     10  C   UNL     1     -11.057 -19.638  31.300  1.00  0.00     0.047 A 
ATOM     11  C   UNL     1     -10.598 -18.488  30.651  1.00  0.00     0.020 A 
ENDROOT
BRANCH   1  12
ATOM     12  C   UNL     1     -14.398 -14.429  29.611  1.00  0.00     0.025 A 
ATOM     13  C   UNL     1     -14.320 -13.606  28.477  1.00  0.00     0.016 A 
ATOM     14  C   UNL     1     -15.306 -12.649  28.226  1.00  0.00     0.051 A 
ATOM     15  C   UNL     1     -16.394 -12.511  29.099  1.00  0.00     0.157 A 
ATOM     16  C   UNL     1     -15.502 -14.301  30.473  1.00  0.00     0.062 A 
ATOM     17  C   UNL     1     -16.493 -13.345  30.224  1.00  0.00     0.158 A 
BRANCH  15  18
ATOM     18  O   UNL     1     -17.375 -11.554  28.848  1.00  0.00    -0.504 OA
ATOM     19  H   UNL     1     -18.297 -11.615  29.266  1.00  0.00     0.293 HD
ENDBRANCH  15  18
BRANCH  17  20
ATOM     20  O   UNL     1     -17.571 -13.243  31.103  1.00  0.00    -0.504 OA
ATOM     21  H   UNL     1     -18.529 -13.196  30.778  1.00  0.00     0.293 HD
ENDBRANCH  17  20
ENDBRANCH   1  12
BRANCH   2  22
ATOM     22  O   UNL     1     -11.647 -14.110  28.730  1.00  0.00    -0.502 OA
ATOM     23  H   UNL     1     -10.930 -14.115  28.015  1.00  0.00     0.293 HD
ENDBRANCH   2  22
BRANCH   9  24
ATOM     24  O   UNL     1     -12.873 -20.898  32.304  1.00  0.00    -0.508 OA
ATOM     25  H   UNL     1     -13.279 -20.854  33.232  1.00  0.00     0.293 HD
ENDBRANCH   9  24
TORSDOF 5
ENDMDL
MODEL 6
REMARK VINA RESULT:    -0.243      1.651      6.893
REMARK INTER + INTRA:          -0.241
REMARK INTER:                  -0.342
REMARK INTRA:                   0.102
REMARK UNBOUND:                 0.045
REMARK SMILES O=c1c(O)c(-c2ccc(O)c(O)c2)oc2cc(O)ccc12
REMARK SMILES IDX 5 1 3 2 2 3 1 4 21 5 15 6 14 7 16 8 17 9 19 10 20 11 6 12
REMARK SMILES IDX 7 13 8 14 9 15 13 16 11 17 10 18 12 20 4 22 18 24
REMARK H PARENT 10 19 12 21 4 23 18 25
REMARK Flexibility Score: inf
ROOT
ATOM      1  C   UNL     1     -11.506 -15.812  31.628  1.00  0.00     0.180 A 
ATOM      2  C   UNL     1     -10.765 -15.435  30.489  1.00  0.00     0.208 A 
ATOM      3  C   UNL     1     -10.961 -16.139  29.291  1.00  0.00     0.235 A 
ATOM      4  O   UNL     1     -10.303 -15.827  28.261  1.00  0.00    -0.285 OA
ATOM      5  C   UNL     1     -11.899 -17.184  29.249  1.00  0.00     0.069 A 
ATOM      6  C   UNL     1     -12.617 -17.484  30.426  1.00  0.00     0.142 A 
ATOM      7  O   UNL     1     -12.395 -16.800  31.543  1.00  0.00    -0.452 OA
ATOM      8  C   UNL     1     -13.568 -18.512  30.422  1.00  0.00     0.094 A 
ATOM      9  C   UNL     1     -13.809 -19.245  29.257  1.00  0.00     0.119 A 
ATOM     10  C   UNL     1     -13.096 -18.950  28.086  1.00  0.00     0.047 A 
ATOM     11  C   UNL     1     -12.146 -17.925  28.080  1.00  0.00     0.020 A 
ENDROOT
BRANCH   1  12
ATOM     12  C   UNL     1     -11.343 -15.131  32.933  1.00  0.00     0.025 A 
ATOM     13  C   UNL     1     -10.053 -14.838  33.402  1.00  0.00     0.016 A 
ATOM     14  C   UNL     1      -9.875 -14.178  34.619  1.00  0.00     0.051 A 
ATOM     15  C   UNL     1     -10.985 -13.786  35.380  1.00  0.00     0.157 A 
ATOM     16  C   UNL     1     -12.455 -14.719  33.689  1.00  0.00     0.062 A 
ATOM     17  C   UNL     1     -12.281 -14.055  34.908  1.00  0.00     0.158 A 
BRANCH  15  18
ATOM     18  O   UNL     1     -10.805 -13.130  36.596  1.00  0.00    -0.504 OA
ATOM     19  H   UNL     1     -10.364 -12.219  36.648  1.00  0.00     0.293 HD
ENDBRANCH  15  18
BRANCH  17  20
ATOM     20  O   UNL     1     -13.406 -13.665  35.634  1.00  0.00    -0.504 OA
ATOM     21  H   UNL     1     -13.608 -14.036  36.555  1.00  0.00     0.293 HD
ENDBRANCH  17  20
ENDBRANCH   1  12
BRANCH   2  22
ATOM     22  O   UNL     1      -9.875 -14.360  30.547  1.00  0.00    -0.502 OA
ATOM     23  H   UNL     1      -9.518 -13.906  29.715  1.00  0.00     0.293 HD
ENDBRANCH   2  22
BRANCH   9  24
ATOM     24  O   UNL     1     -14.758 -20.265  29.271  1.00  0.00    -0.508 OA
ATOM     25  H   UNL     1     -15.599 -20.214  28.708  1.00  0.00     0.293 HD
ENDBRANCH   9  24
TORSDOF 5
ENDMDL
MODEL 7
REMARK VINA RESULT:     0.202      3.903      5.718
REMARK INTER + INTRA:           0.282
REMARK INTER:                   0.575
REMARK INTRA:                  -0.294
REMARK UNBOUND:                 0.045
REMARK SMILES O=c1c(O)c(-c2ccc(O)c(O)c2)oc2cc(O)ccc12
REMARK SMILES IDX 5 1 3 2 2 3 1 4 21 5 15 6 14 7 16 8 17 9 19 10 20 11 6 12
REMARK SMILES IDX 7 13 8 14 9 15 13 16 11 17 10 18 12 20 4 22 18 24
REMARK H PARENT 10 19 12 21 4 23 18 25
REMARK Flexibility Score: inf
ROOT
ATOM      1  C   UNL     1     -12.854 -16.500  29.213  1.00  0.00     0.180 A 
ATOM      2  C   UNL     1     -13.023 -16.675  27.824  1.00  0.00     0.208 A 
ATOM      3  C   UNL     1     -13.779 -15.732  27.110  1.00  0.00     0.235 A 
ATOM      4  O   UNL     1     -13.953 -15.872  25.868  1.00  0.00    -0.285 OA
ATOM      5  C   UNL     1     -14.331 -14.634  27.788  1.00  0.00     0.069 A 
ATOM      6  C   UNL     1     -14.097 -14.518  29.175  1.00  0.00     0.142 A 
ATOM      7  O   UNL     1     -13.383 -15.437  29.815  1.00  0.00    -0.452 OA
ATOM      8  C   UNL     1     -14.622 -13.431  29.884  1.00  0.00     0.094 A 
ATOM      9  C   UNL     1     -15.381 -12.459  29.226  1.00  0.00     0.119 A 
ATOM     10  C   UNL     1     -15.616 -12.572  27.848  1.00  0.00     0.047 A 
ATOM     11  C   UNL     1     -15.095 -13.652  27.131  1.00  0.00     0.020 A 
ENDROOT
BRANCH   1  12
ATOM     12  C   UNL     1     -12.087 -17.460  30.038  1.00  0.00     0.025 A 
ATOM     13  C   UNL     1     -10.793 -17.122  30.466  1.00  0.00     0.016 A 
ATOM     14  C   UNL     1     -10.058 -18.002  31.263  1.00  0.00     0.051 A 
ATOM     15  C   UNL     1     -10.611 -19.228  31.658  1.00  0.00     0.157 A 
ATOM     16  C   UNL     1     -12.646 -18.682  30.453  1.00  0.00     0.062 A 
ATOM     17  C   UNL     1     -11.913 -19.565  31.253  1.00  0.00     0.158 A 
BRANCH  15  18
ATOM     18  O   UNL     1      -9.875 -20.106  32.450  1.00  0.00    -0.504 OA
ATOM     19  H   UNL     1      -9.550 -20.998  32.095  1.00  0.00     0.293 HD
ENDBRANCH  15  18
BRANCH  17  20
ATOM     20  O   UNL     1     -12.498 -20.771  31.641  1.00  0.00    -0.504 OA
ATOM     21  H   UNL     1     -12.598 -21.551  31.002  1.00  0.00     0.293 HD
ENDBRANCH  17  20
ENDBRANCH   1  12
BRANCH   2  22
ATOM     22  O   UNL     1     -12.420 -17.751  27.167  1.00  0.00    -0.502 OA
ATOM     23  H   UNL     1     -11.996 -17.659  26.252  1.00  0.00     0.293 HD
ENDBRANCH   2  22
BRANCH   9  24
ATOM     24  O   UNL     1     -15.896 -11.385  29.948  1.00  0.00    -0.508 OA
ATOM     25  H   UNL     1     -16.860 -11.090  29.843  1.00  0.00     0.293 HD
ENDBRANCH   9  24
TORSDOF 5
ENDMDL
MODEL 8
REMARK VINA RESULT:     0.490      3.066      6.985
REMARK INTER + INTRA:           0.620
REMARK INTER:                   0.334
REMARK INTRA:                   0.287
REMARK UNBOUND:                 0.045
REMARK SMILES O=c1c(O)c(-c2ccc(O)c(O)c2)oc2cc(O)ccc12
REMARK SMILES IDX 5 1 3 2 2 3 1 4 21 5 15 6 14 7 16 8 17 9 19 10 20 11 6 12
REMARK SMILES IDX 7 13 8 14 9 15 13 16 11 17 10 18 12 20 4 22 18 24
REMARK H PARENT 10 19 12 21 4 23 18 25
REMARK Flexibility Score: inf
ROOT
ATOM      1  C   UNL     1     -13.309 -15.280  29.803  1.00  0.00     0.180 A 
ATOM      2  C   UNL     1     -12.271 -15.529  30.725  1.00  0.00     0.208 A 
ATOM      3  C   UNL     1     -11.129 -16.219  30.288  1.00  0.00     0.235 A 
ATOM      4  O   UNL     1     -10.192 -16.462  31.096  1.00  0.00    -0.285 OA
ATOM      5  C   UNL     1     -11.039 -16.626  28.948  1.00  0.00     0.069 A 
ATOM      6  C   UNL     1     -12.111 -16.318  28.082  1.00  0.00     0.142 A 
ATOM      7  O   UNL     1     -13.179 -15.671  28.537  1.00  0.00    -0.452 OA
ATOM      8  C   UNL     1     -12.055 -16.698  26.736  1.00  0.00     0.094 A 
ATOM      9  C   UNL     1     -10.941 -17.385  26.243  1.00  0.00     0.119 A 
ATOM     10  C   UNL     1      -9.875 -17.693  27.100  1.00  0.00     0.047 A 
ATOM     11  C   UNL     1      -9.922 -17.316  28.446  1.00  0.00     0.020 A 
ENDROOT
BRANCH   1  12
ATOM     12  C   UNL     1     -14.552 -14.576  30.191  1.00  0.00     0.025 A 
ATOM     13  C   UNL     1     -15.041 -14.707  31.500  1.00  0.00     0.016 A 
ATOM     14  C   UNL     1     -16.199 -14.035  31.895  1.00  0.00     0.051 A 
ATOM     15  C   UNL     1     -16.880 -13.208  30.990  1.00  0.00     0.157 A 
ATOM     16  C   UNL     1     -15.226 -13.729  29.292  1.00  0.00     0.062 A 
ATOM     17  C   UNL     1     -16.386 -13.053  29.684  1.00  0.00     0.158 A 
BRANCH  15  18
ATOM     18  O   UNL     1     -18.038 -12.541  31.385  1.00  0.00    -0.504 OA
ATOM     19  H   UNL     1     -18.722 -12.978  31.992  1.00  0.00     0.293 HD
ENDBRANCH  15  18
BRANCH  17  20
ATOM     20  O   UNL     1     -17.032 -12.226  28.765  1.00  0.00    -0.504 OA
ATOM     21  H   UNL     1     -16.748 -11.266  28.612  1.00  0.00     0.293 HD
ENDBRANCH  17  20
ENDBRANCH   1  12
BRANCH   2  22
ATOM     22  O   UNL     1     -12.367 -15.068  32.041  1.00  0.00    -0.502 OA
ATOM     23  H   UNL     1     -12.466 -15.696  32.829  1.00  0.00     0.293 HD
ENDBRANCH   2  22
BRANCH   9  24
ATOM     24  O   UNL     1     -10.901 -17.756  24.901  1.00  0.00    -0.508 OA
ATOM     25  H   UNL     1     -10.103 -18.242  24.509  1.00  0.00     0.293 HD
ENDBRANCH   9  24
TORSDOF 5
ENDMDL
MODEL 9
REMARK VINA RESULT:     0.528      1.746      6.954
REMARK INTER + INTRA:           0.665
REMARK INTER:                   0.943
REMARK INTRA:                  -0.279
REMARK UNBOUND:                 0.045
REMARK SMILES O=c1c(O)c(-c2ccc(O)c(O)c2)oc2cc(O)ccc12
REMARK SMILES IDX 5 1 3 2 2 3 1 4 21 5 15 6 14 7 16 8 17 9 19 10 20 11 6 12
REMARK SMILES IDX 7 13 8 14 9 15 13 16 11 17 10 18 12 20 4 22 18 24
REMARK H PARENT 10 19 12 21 4 23 18 25
REMARK Flexibility Score: inf
ROOT
ATOM      1  C   UNL     1     -13.106 -16.206  31.233  1.00  0.00     0.180 A 
ATOM      2  C   UNL     1     -13.532 -17.550  31.249  1.00  0.00     0.208 A 
ATOM      3  C   UNL     1     -13.400 -18.315  30.079  1.00  0.00     0.235 A 
ATOM      4  O   UNL     1     -13.783 -19.517  30.065  1.00  0.00    -0.285 OA
ATOM      5  C   UNL     1     -12.834 -17.733  28.934  1.00  0.00     0.069 A 
ATOM      6  C   UNL     1     -12.411 -16.388  29.007  1.00  0.00     0.142 A 
ATOM      7  O   UNL     1     -12.562 -15.696  30.130  1.00  0.00    -0.452 OA
ATOM      8  C   UNL     1     -11.833 -15.775  27.889  1.00  0.00     0.094 A 
ATOM      9  C   UNL     1     -11.673 -16.488  26.697  1.00  0.00     0.119 A 
ATOM     10  C   UNL     1     -12.093 -17.823  26.621  1.00  0.00     0.047 A 
ATOM     11  C   UNL     1     -12.670 -18.445  27.732  1.00  0.00     0.020 A 
ENDROOT
BRANCH   1  12
ATOM     12  C   UNL     1     -13.228 -15.329  32.420  1.00  0.00     0.025 A 
ATOM     13  C   UNL     1     -14.478 -14.782  32.749  1.00  0.00     0.016 A 
ATOM     14  C   UNL     1     -14.622 -13.970  33.876  1.00  0.00     0.051 A 
ATOM     15  C   UNL     1     -13.521 -13.704  34.701  1.00  0.00     0.157 A 
ATOM     16  C   UNL     1     -12.130 -15.078  33.262  1.00  0.00     0.062 A 
ATOM     17  C   UNL     1     -12.271 -14.266  34.393  1.00  0.00     0.158 A 
BRANCH  15  18
ATOM     18  O   UNL     1     -13.666 -12.891  35.823  1.00  0.00    -0.504 OA
ATOM     19  H   UNL     1     -13.240 -11.973  35.872  1.00  0.00     0.293 HD
ENDBRANCH  15  18
BRANCH  17  20
ATOM     20  O   UNL     1     -11.159 -14.033  35.203  1.00  0.00    -0.504 OA
ATOM     21  H   UNL     1     -11.159 -14.247  36.193  1.00  0.00     0.293 HD
ENDBRANCH  17  20
ENDBRANCH   1  12
BRANCH   2  22
ATOM     22  O   UNL     1     -14.046 -18.117  32.418  1.00  0.00    -0.502 OA
ATOM     23  H   UNL     1     -14.777 -18.819  32.404  1.00  0.00     0.293 HD
ENDBRANCH   2  22
BRANCH   9  24
ATOM     24  O   UNL     1     -11.095 -15.862  25.594  1.00  0.00    -0.508 OA
ATOM     25  H   UNL     1     -11.645 -15.293  24.961  1.00  0.00     0.293 HD
ENDBRANCH   9  24
TORSDOF 5
ENDMDL
