MODEL 1
REMARK VINA RESULT:    -7.114      0.000      0.000
REMARK INTER + INTRA:          -7.738
REMARK INTER:                  -7.738
REMARK INTRA:                   0.000
REMARK UNBOUND:                 0.000
REMARK SMILES Cc1cc(O)c2c(c1)C(=O)c1cc(O)cc(O)c1C2=O
REMARK SMILES IDX 1 1 2 2 8 3 7 4 6 5 4 6 3 7 19 8 20 9 18 10 11 11 9 12 10 13
REMARK SMILES IDX 12 14 13 15 15 16 16 17 5 18 17 20 14 22
REMARK H PARENT 5 19 17 21 14 23
REMARK Flexibility Score: inf
ROOT
ATOM      1  C   UNL     1     -18.124  13.125  -2.428  1.00  0.00     0.044 C 
ATOM      2  C   UNL     1     -17.241  12.317  -3.334  1.00  0.00    -0.047 A 
ATOM      3  C   UNL     1     -17.062  10.948  -3.105  1.00  0.00     0.016 A 
ATOM      4  C   UNL     1     -16.209  10.188  -3.926  1.00  0.00     0.038 A 
ATOM      5  C   UNL     1     -15.512  10.812  -4.984  1.00  0.00     0.076 A 
ATOM      6  C   UNL     1     -15.682  12.201  -5.196  1.00  0.00     0.127 A 
ATOM      7  C   UNL     1     -16.536  12.939  -4.368  1.00  0.00     0.050 A 
ATOM      8  C   UNL     1     -14.612   9.995  -5.847  1.00  0.00     0.201 C 
ATOM      9  O   UNL     1     -13.993  10.543  -6.798  1.00  0.00    -0.288 OA
ATOM     10  C   UNL     1     -14.440   8.536  -5.596  1.00  0.00     0.076 A 
ATOM     11  C   UNL     1     -15.143   7.930  -4.531  1.00  0.00     0.041 A 
ATOM     12  C   UNL     1     -16.040   8.738  -3.675  1.00  0.00     0.194 C 
ATOM     13  O   UNL     1     -16.666   8.189  -2.726  1.00  0.00    -0.289 OA
ATOM     14  C   UNL     1     -14.988   6.553  -4.285  1.00  0.00     0.059 A 
ATOM     15  C   UNL     1     -14.144   5.778  -5.086  1.00  0.00     0.120 A 
ATOM     16  C   UNL     1     -13.450   6.372  -6.137  1.00  0.00     0.093 A 
ATOM     17  C   UNL     1     -13.588   7.740  -6.401  1.00  0.00     0.131 A 
ENDROOT
BRANCH   6  18
ATOM     18  O   UNL     1     -15.002  12.857  -6.225  1.00  0.00    -0.507 OA
ATOM     19  H   UNL     1     -14.137  13.359  -6.059  1.00  0.00     0.293 HD
ENDBRANCH   6  18
BRANCH  17  20
ATOM     20  O   UNL     1     -12.876   8.301  -7.462  1.00  0.00    -0.507 OA
ATOM     21  H   UNL     1     -12.554   7.742  -8.244  1.00  0.00     0.293 HD
ENDBRANCH  17  20
BRANCH  15  22
ATOM     22  O   UNL     1     -13.990   4.415  -4.843  1.00  0.00    -0.508 OA
ATOM     23  H   UNL     1     -13.327   4.069  -4.159  1.00  0.00     0.293 HD
ENDBRANCH  15  22
TORSDOF 3
ENDMDL
MODEL 2
REMARK VINA RESULT:    -6.999      1.135      5.485
REMARK INTER + INTRA:          -7.613
REMARK INTER:                  -7.613
REMARK INTRA:                   0.000
REMARK UNBOUND:                 0.000
REMARK SMILES Cc1cc(O)c2c(c1)C(=O)c1cc(O)cc(O)c1C2=O
REMARK SMILES IDX 1 1 2 2 8 3 7 4 6 5 4 6 3 7 19 8 20 9 18 10 11 11 9 12 10 13
REMARK SMILES IDX 12 14 13 15 15 16 16 17 5 18 17 20 14 22
REMARK H PARENT 5 19 17 21 14 23
REMARK Flexibility Score: inf
ROOT
ATOM      1  C   UNL     1     -14.188   4.269  -4.819  1.00  0.00     0.044 C 
ATOM      2  C   UNL     1     -14.264   5.750  -5.050  1.00  0.00    -0.047 A 
ATOM      3  C   UNL     1     -15.121   6.541  -4.276  1.00  0.00     0.016 A 
ATOM      4  C   UNL     1     -15.228   7.924  -4.508  1.00  0.00     0.038 A 
ATOM      5  C   UNL     1     -14.476   8.524  -5.542  1.00  0.00     0.076 A 
ATOM      6  C   UNL     1     -13.627   7.714  -6.335  1.00  0.00     0.127 A 
ATOM      7  C   UNL     1     -13.535   6.338  -6.087  1.00  0.00     0.050 A 
ATOM      8  C   UNL     1     -14.596   9.991  -5.775  1.00  0.00     0.201 C 
ATOM      9  O   UNL     1     -13.922  10.535  -6.691  1.00  0.00    -0.288 OA
ATOM     10  C   UNL     1     -15.505  10.820  -4.936  1.00  0.00     0.076 A 
ATOM     11  C   UNL     1     -16.252  10.203  -3.908  1.00  0.00     0.041 A 
ATOM     12  C   UNL     1     -16.131   8.746  -3.671  1.00  0.00     0.194 C 
ATOM     13  O   UNL     1     -16.801   8.202  -2.749  1.00  0.00    -0.289 OA
ATOM     14  C   UNL     1     -17.114  10.976  -3.108  1.00  0.00     0.059 A 
ATOM     15  C   UNL     1     -17.238  12.351  -3.321  1.00  0.00     0.120 A 
ATOM     16  C   UNL     1     -16.502  12.965  -4.333  1.00  0.00     0.093 A 
ATOM     17  C   UNL     1     -15.639  12.215  -5.142  1.00  0.00     0.131 A 
ENDROOT
BRANCH   6  18
ATOM     18  O   UNL     1     -12.875   8.267  -7.373  1.00  0.00    -0.507 OA
ATOM     19  H   UNL     1     -13.290   8.501  -8.268  1.00  0.00     0.293 HD
ENDBRANCH   6  18
BRANCH  17  20
ATOM     20  O   UNL     1     -14.919  12.863  -6.147  1.00  0.00    -0.507 OA
ATOM     21  H   UNL     1     -13.928  13.057  -6.054  1.00  0.00     0.293 HD
ENDBRANCH  17  20
BRANCH  15  22
ATOM     22  O   UNL     1     -18.090  13.119  -2.530  1.00  0.00    -0.508 OA
ATOM     23  H   UNL     1     -18.606  13.903  -2.912  1.00  0.00     0.293 HD
ENDBRANCH  15  22
TORSDOF 3
ENDMDL
MODEL 3
REMARK VINA RESULT:    -5.839      2.010      6.529
REMARK INTER + INTRA:          -6.351
REMARK INTER:                  -6.351
REMARK INTRA:                   0.000
REMARK UNBOUND:                 0.000
REMARK SMILES Cc1cc(O)c2c(c1)C(=O)c1cc(O)cc(O)c1C2=O
REMARK SMILES IDX 1 1 2 2 8 3 7 4 6 5 4 6 3 7 19 8 20 9 18 10 11 11 9 12 10 13
REMARK SMILES IDX 12 14 13 15 15 16 16 17 5 18 17 20 14 22
REMARK H PARENT 5 19 17 21 14 23
REMARK Flexibility Score: inf
ROOT
ATOM      1  C   UNL     1     -13.625   3.045  -7.854  1.00  0.00     0.044 C 
ATOM      2  C   UNL     1     -13.957   4.218  -6.979  1.00  0.00    -0.047 A 
ATOM      3  C   UNL     1     -13.580   5.511  -7.360  1.00  0.00     0.016 A 
ATOM      4  C   UNL     1     -13.853   6.614  -6.531  1.00  0.00     0.038 A 
ATOM      5  C   UNL     1     -14.503   6.418  -5.292  1.00  0.00     0.076 A 
ATOM      6  C   UNL     1     -14.863   5.104  -4.903  1.00  0.00     0.127 A 
ATOM      7  C   UNL     1     -14.581   4.020  -5.744  1.00  0.00     0.050 A 
ATOM      8  C   UNL     1     -14.789   7.594  -4.423  1.00  0.00     0.201 C 
ATOM      9  O   UNL     1     -15.376   7.428  -3.320  1.00  0.00    -0.288 OA
ATOM     10  C   UNL     1     -14.390   8.965  -4.849  1.00  0.00     0.076 A 
ATOM     11  C   UNL     1     -13.739   9.142  -6.090  1.00  0.00     0.041 A 
ATOM     12  C   UNL     1     -13.456   7.975  -6.956  1.00  0.00     0.194 C 
ATOM     13  O   UNL     1     -12.875   8.142  -8.064  1.00  0.00    -0.289 OA
ATOM     14  C   UNL     1     -13.356  10.433  -6.501  1.00  0.00     0.059 A 
ATOM     15  C   UNL     1     -13.616  11.543  -5.693  1.00  0.00     0.120 A 
ATOM     16  C   UNL     1     -14.259  11.373  -4.469  1.00  0.00     0.093 A 
ATOM     17  C   UNL     1     -14.648  10.098  -4.038  1.00  0.00     0.131 A 
ENDROOT
BRANCH   6  18
ATOM     18  O   UNL     1     -15.496   4.867  -3.682  1.00  0.00    -0.507 OA
ATOM     19  H   UNL     1     -16.490   5.023  -3.557  1.00  0.00     0.293 HD
ENDBRANCH   6  18
BRANCH  17  20
ATOM     20  O   UNL     1     -15.289   9.966  -2.805  1.00  0.00    -0.507 OA
ATOM     21  H   UNL     1     -15.919   9.197  -2.611  1.00  0.00     0.293 HD
ENDBRANCH  17  20
BRANCH  15  22
ATOM     22  O   UNL     1     -13.239  12.821  -6.100  1.00  0.00    -0.508 OA
ATOM     23  H   UNL     1     -12.652  12.967  -6.913  1.00  0.00     0.293 HD
ENDBRANCH  15  22
TORSDOF 3
ENDMDL
MODEL 4
REMARK VINA RESULT:    -5.655      1.909      3.760
REMARK INTER + INTRA:          -6.151
REMARK INTER:                  -6.151
REMARK INTRA:                   0.000
REMARK UNBOUND:                 0.000
REMARK SMILES Cc1cc(O)c2c(c1)C(=O)c1cc(O)cc(O)c1C2=O
REMARK SMILES IDX 1 1 2 2 8 3 7 4 6 5 4 6 3 7 19 8 20 9 18 10 11 11 9 12 10 13
REMARK SMILES IDX 12 14 13 15 15 16 16 17 5 18 17 20 14 22
REMARK H PARENT 5 19 17 21 14 23
REMARK Flexibility Score: inf
ROOT
ATOM      1  C   UNL     1     -14.253  13.078  -5.970  1.00  0.00     0.044 C 
ATOM      2  C   UNL     1     -14.454  11.658  -5.527  1.00  0.00    -0.047 A 
ATOM      3  C   UNL     1     -13.924  10.604  -6.280  1.00  0.00     0.016 A 
ATOM      4  C   UNL     1     -14.137   9.268  -5.895  1.00  0.00     0.038 A 
ATOM      5  C   UNL     1     -14.905   8.981  -4.745  1.00  0.00     0.076 A 
ATOM      6  C   UNL     1     -15.455  10.053  -3.999  1.00  0.00     0.127 A 
ATOM      7  C   UNL     1     -15.231  11.376  -4.400  1.00  0.00     0.050 A 
ATOM      8  C   UNL     1     -15.121   7.562  -4.345  1.00  0.00     0.201 C 
ATOM      9  O   UNL     1     -15.798   7.298  -3.316  1.00  0.00    -0.288 OA
ATOM     10  C   UNL     1     -14.542   6.451  -5.153  1.00  0.00     0.076 A 
ATOM     11  C   UNL     1     -13.779   6.756  -6.302  1.00  0.00     0.041 A 
ATOM     12  C   UNL     1     -13.560   8.166  -6.698  1.00  0.00     0.194 C 
ATOM     13  O   UNL     1     -12.876   8.430  -7.726  1.00  0.00    -0.289 OA
ATOM     14  C   UNL     1     -13.228   5.715  -7.072  1.00  0.00     0.059 A 
ATOM     15  C   UNL     1     -13.427   4.381  -6.710  1.00  0.00     0.120 A 
ATOM     16  C   UNL     1     -14.178   4.075  -5.577  1.00  0.00     0.093 A 
ATOM     17  C   UNL     1     -14.737   5.094  -4.795  1.00  0.00     0.131 A 
ENDROOT
BRANCH   6  18
ATOM     18  O   UNL     1     -16.228   9.811  -2.862  1.00  0.00    -0.507 OA
ATOM     19  H   UNL     1     -17.193  10.116  -2.797  1.00  0.00     0.293 HD
ENDBRANCH   6  18
BRANCH  17  20
ATOM     20  O   UNL     1     -15.484   4.751  -3.668  1.00  0.00    -0.507 OA
ATOM     21  H   UNL     1     -16.488   4.889  -3.629  1.00  0.00     0.293 HD
ENDBRANCH  17  20
BRANCH  15  22
ATOM     22  O   UNL     1     -12.881   3.349  -7.471  1.00  0.00    -0.508 OA
ATOM     23  H   UNL     1     -13.338   3.010  -8.310  1.00  0.00     0.293 HD
ENDBRANCH  15  22
TORSDOF 3
ENDMDL
MODEL 5
REMARK VINA RESULT:    -5.520      1.810      2.614
REMARK INTER + INTRA:          -6.004
REMARK INTER:                  -6.004
REMARK INTRA:                   0.000
REMARK UNBOUND:                 0.000
REMARK SMILES Cc1cc(O)c2c(c1)C(=O)c1cc(O)cc(O)c1C2=O
REMARK SMILES IDX 1 1 2 2 8 3 7 4 6 5 4 6 3 7 19 8 20 9 18 10 11 11 9 12 10 13
REMARK SMILES IDX 12 14 13 15 15 16 16 17 5 18 17 20 14 22
REMARK H PARENT 5 19 17 21 14 23
REMARK Flexibility Score: inf
ROOT
ATOM      1  C   UNL     1     -14.675  12.536  -3.438  1.00  0.00     0.044 C 
ATOM      2  C   UNL     1     -14.442  11.293  -4.245  1.00  0.00    -0.047 A 
ATOM      3  C   UNL     1     -14.820  10.043  -3.740  1.00  0.00     0.016 A 
ATOM      4  C   UNL     1     -14.575   8.868  -4.472  1.00  0.00     0.038 A 
ATOM      5  C   UNL     1     -13.926   8.942  -5.724  1.00  0.00     0.076 A 
ATOM      6  C   UNL     1     -13.528  10.207  -6.220  1.00  0.00     0.127 A 
ATOM      7  C   UNL     1     -13.782  11.365  -5.475  1.00  0.00     0.050 A 
ATOM      8  C   UNL     1     -13.674   7.689  -6.491  1.00  0.00     0.201 C 
ATOM      9  O   UNL     1     -13.103   7.747  -7.613  1.00  0.00    -0.288 OA
ATOM     10  C   UNL     1     -14.092   6.368  -5.942  1.00  0.00     0.076 A 
ATOM     11  C   UNL     1     -14.737   6.312  -4.687  1.00  0.00     0.041 A 
ATOM     12  C   UNL     1     -14.992   7.556  -3.925  1.00  0.00     0.194 C 
ATOM     13  O   UNL     1     -15.570   7.499  -2.804  1.00  0.00    -0.289 OA
ATOM     14  C   UNL     1     -15.135   5.070  -4.159  1.00  0.00     0.059 A 
ATOM     15  C   UNL     1     -14.900   3.889  -4.867  1.00  0.00     0.120 A 
ATOM     16  C   UNL     1     -14.265   3.938  -6.107  1.00  0.00     0.093 A 
ATOM     17  C   UNL     1     -13.859   5.163  -6.651  1.00  0.00     0.131 A 
ENDROOT
BRANCH   6  18
ATOM     18  O   UNL     1     -12.875  10.321  -7.449  1.00  0.00    -0.507 OA
ATOM     19  H   UNL     1     -13.172  10.988  -8.152  1.00  0.00     0.293 HD
ENDBRANCH   6  18
BRANCH  17  20
ATOM     20  O   UNL     1     -13.225   5.174  -7.895  1.00  0.00    -0.507 OA
ATOM     21  H   UNL     1     -13.515   5.802  -8.636  1.00  0.00     0.293 HD
ENDBRANCH  17  20
BRANCH  15  22
ATOM     22  O   UNL     1     -15.295   2.658  -4.347  1.00  0.00    -0.508 OA
ATOM     23  H   UNL     1     -15.338   1.827  -4.925  1.00  0.00     0.293 HD
ENDBRANCH  15  22
TORSDOF 3
ENDMDL
MODEL 6
REMARK VINA RESULT:    -5.192      4.355      8.842
REMARK INTER + INTRA:          -5.647
REMARK INTER:                  -5.647
REMARK INTRA:                   0.000
REMARK UNBOUND:                 0.000
REMARK SMILES Cc1cc(O)c2c(c1)C(=O)c1cc(O)cc(O)c1C2=O
REMARK SMILES IDX 1 1 2 2 8 3 7 4 6 5 4 6 3 7 19 8 20 9 18 10 11 11 9 12 10 13
REMARK SMILES IDX 12 14 13 15 15 16 16 17 5 18 17 20 14 22
REMARK H PARENT 5 19 17 21 14 23
REMARK Flexibility Score: inf
ROOT
ATOM      1  C   UNL     1     -12.875  -2.010  -4.163  1.00  0.00     0.044 C 
ATOM      2  C   UNL     1     -13.041  -0.789  -5.020  1.00  0.00    -0.047 A 
ATOM      3  C   UNL     1     -13.388   0.437  -4.440  1.00  0.00     0.016 A 
ATOM      4  C   UNL     1     -13.581   1.580  -5.238  1.00  0.00     0.038 A 
ATOM      5  C   UNL     1     -13.438   1.491  -6.640  1.00  0.00     0.076 A 
ATOM      6  C   UNL     1     -13.107   0.243  -7.221  1.00  0.00     0.127 A 
ATOM      7  C   UNL     1     -12.919  -0.883  -6.409  1.00  0.00     0.050 A 
ATOM      8  C   UNL     1     -13.643   2.710  -7.473  1.00  0.00     0.201 C 
ATOM      9  O   UNL     1     -13.510   2.641  -8.725  1.00  0.00    -0.288 OA
ATOM     10  C   UNL     1     -14.004   4.009  -6.839  1.00  0.00     0.076 A 
ATOM     11  C   UNL     1     -14.145   4.079  -5.435  1.00  0.00     0.041 A 
ATOM     12  C   UNL     1     -13.938   2.870  -4.605  1.00  0.00     0.194 C 
ATOM     13  O   UNL     1     -14.065   2.941  -3.351  1.00  0.00    -0.289 OA
ATOM     14  C   UNL     1     -14.485   5.301  -4.826  1.00  0.00     0.059 A 
ATOM     15  C   UNL     1     -14.684   6.449  -5.598  1.00  0.00     0.120 A 
ATOM     16  C   UNL     1     -14.544   6.385  -6.983  1.00  0.00     0.093 A 
ATOM     17  C   UNL     1     -14.207   5.180  -7.611  1.00  0.00     0.131 A 
ENDROOT
BRANCH   6  18
ATOM     18  O   UNL     1     -12.967   0.112  -8.604  1.00  0.00    -0.507 OA
ATOM     19  H   UNL     1     -13.028  -0.789  -9.064  1.00  0.00     0.293 HD
ENDBRANCH   6  18
BRANCH  17  20
ATOM     20  O   UNL     1     -14.077   5.154  -9.000  1.00  0.00    -0.507 OA
ATOM     21  H   UNL     1     -13.877   5.992  -9.534  1.00  0.00     0.293 HD
ENDBRANCH  17  20
BRANCH  15  22
ATOM     22  O   UNL     1     -15.020   7.659  -4.996  1.00  0.00    -0.508 OA
ATOM     23  H   UNL     1     -15.217   7.722  -4.004  1.00  0.00     0.293 HD
ENDBRANCH  15  22
TORSDOF 3
ENDMDL
MODEL 7
REMARK VINA RESULT:    -5.035      7.483     12.255
REMARK INTER + INTRA:          -5.476
REMARK INTER:                  -5.476
REMARK INTRA:                   0.000
REMARK UNBOUND:                 0.000
REMARK SMILES Cc1cc(O)c2c(c1)C(=O)c1cc(O)cc(O)c1C2=O
REMARK SMILES IDX 1 1 2 2 8 3 7 4 6 5 4 6 3 7 19 8 20 9 18 10 11 11 9 12 10 13
REMARK SMILES IDX 12 14 13 15 15 16 16 17 5 18 17 20 14 22
REMARK H PARENT 5 19 17 21 14 23
REMARK Flexibility Score: inf
ROOT
ATOM      1  C   UNL     1     -14.302  -6.029  -8.216  1.00  0.00     0.044 C 
ATOM      2  C   UNL     1     -14.537  -4.738  -7.487  1.00  0.00    -0.047 A 
ATOM      3  C   UNL     1     -13.996  -3.544  -7.977  1.00  0.00     0.016 A 
ATOM      4  C   UNL     1     -14.179  -2.334  -7.284  1.00  0.00     0.038 A 
ATOM      5  C   UNL     1     -14.904  -2.321  -6.071  1.00  0.00     0.076 A 
ATOM      6  C   UNL     1     -15.430  -3.537  -5.571  1.00  0.00     0.127 A 
ATOM      7  C   UNL     1     -15.236  -4.731  -6.277  1.00  0.00     0.050 A 
ATOM      8  C   UNL     1     -15.093  -1.032  -5.348  1.00  0.00     0.201 C 
ATOM      9  O   UNL     1     -15.745  -1.011  -4.269  1.00  0.00    -0.288 OA
ATOM     10  C   UNL     1     -14.519   0.232  -5.888  1.00  0.00     0.076 A 
ATOM     11  C   UNL     1     -13.795   0.200  -7.101  1.00  0.00     0.041 A 
ATOM     12  C   UNL     1     -13.609  -1.079  -7.824  1.00  0.00     0.194 C 
ATOM     13  O   UNL     1     -12.962  -1.099  -8.908  1.00  0.00    -0.289 OA
ATOM     14  C   UNL     1     -13.249   1.388  -7.621  1.00  0.00     0.059 A 
ATOM     15  C   UNL     1     -13.416   2.601  -6.948  1.00  0.00     0.120 A 
ATOM     16  C   UNL     1     -14.130   2.638  -5.753  1.00  0.00     0.093 A 
ATOM     17  C   UNL     1     -14.682   1.468  -5.215  1.00  0.00     0.131 A 
ENDROOT
BRANCH   6  18
ATOM     18  O   UNL     1     -16.142  -3.568  -4.370  1.00  0.00    -0.507 OA
ATOM     19  H   UNL     1     -17.152  -3.652  -4.351  1.00  0.00     0.293 HD
ENDBRANCH   6  18
BRANCH  17  20
ATOM     20  O   UNL     1     -15.391   1.543  -4.015  1.00  0.00    -0.507 OA
ATOM     21  H   UNL     1     -15.176   0.939  -3.230  1.00  0.00     0.293 HD
ENDBRANCH  17  20
BRANCH  15  22
ATOM     22  O   UNL     1     -12.876   3.778  -7.462  1.00  0.00    -0.508 OA
ATOM     23  H   UNL     1     -13.421   4.399  -8.051  1.00  0.00     0.293 HD
ENDBRANCH  15  22
TORSDOF 3
ENDMDL
MODEL 8
REMARK VINA RESULT:    -4.770      5.637      8.957
REMARK INTER + INTRA:          -5.188
REMARK INTER:                  -5.188
REMARK INTRA:                   0.000
REMARK UNBOUND:                 0.000
REMARK SMILES Cc1cc(O)c2c(c1)C(=O)c1cc(O)cc(O)c1C2=O
REMARK SMILES IDX 1 1 2 2 8 3 7 4 6 5 4 6 3 7 19 8 20 9 18 10 11 11 9 12 10 13
REMARK SMILES IDX 12 14 13 15 15 16 16 17 5 18 17 20 14 22
REMARK H PARENT 5 19 17 21 14 23
REMARK Flexibility Score: inf
ROOT
ATOM      1  C   UNL     1     -14.202   5.983  -4.885  1.00  0.00     0.044 C 
ATOM      2  C   UNL     1     -14.096   4.612  -5.488  1.00  0.00    -0.047 A 
ATOM      3  C   UNL     1     -14.471   3.485  -4.748  1.00  0.00     0.016 A 
ATOM      4  C   UNL     1     -14.342   2.194  -5.289  1.00  0.00     0.038 A 
ATOM      5  C   UNL     1     -13.815   2.026  -6.589  1.00  0.00     0.076 A 
ATOM      6  C   UNL     1     -13.418   3.169  -7.324  1.00  0.00     0.127 A 
ATOM      7  C   UNL     1     -13.555   4.446  -6.766  1.00  0.00     0.050 A 
ATOM      8  C   UNL     1     -13.685   0.652  -7.152  1.00  0.00     0.201 C 
ATOM      9  O   UNL     1     -13.223   0.494  -8.315  1.00  0.00    -0.288 OA
ATOM     10  C   UNL     1     -14.098  -0.536  -6.354  1.00  0.00     0.076 A 
ATOM     11  C   UNL     1     -14.620  -0.350  -5.055  1.00  0.00     0.041 A 
ATOM     12  C   UNL     1     -14.754   1.015  -4.494  1.00  0.00     0.194 C 
ATOM     13  O   UNL     1     -15.223   1.173  -3.333  1.00  0.00    -0.289 OA
ATOM     14  C   UNL     1     -15.013  -1.465  -4.292  1.00  0.00     0.059 A 
ATOM     15  C   UNL     1     -14.893  -2.758  -4.809  1.00  0.00     0.120 A 
ATOM     16  C   UNL     1     -14.379  -2.947  -6.090  1.00  0.00     0.093 A 
ATOM     17  C   UNL     1     -13.980  -1.852  -6.867  1.00  0.00     0.131 A 
ENDROOT
BRANCH   6  18
ATOM     18  O   UNL     1     -12.883   3.044  -8.608  1.00  0.00    -0.507 OA
ATOM     19  H   UNL     1     -13.249   3.571  -9.393  1.00  0.00     0.293 HD
ENDBRANCH   6  18
BRANCH  17  20
ATOM     20  O   UNL     1     -13.470  -2.079  -8.146  1.00  0.00    -0.507 OA
ATOM     21  H   UNL     1     -13.971  -1.794  -8.980  1.00  0.00     0.293 HD
ENDBRANCH  17  20
BRANCH  15  22
ATOM     22  O   UNL     1     -15.282  -3.863  -4.055  1.00  0.00    -0.508 OA
ATOM     23  H   UNL     1     -16.212  -4.259  -4.135  1.00  0.00     0.293 HD
ENDBRANCH  15  22
TORSDOF 3
ENDMDL
