MODEL 1
REMARK VINA RESULT:    -3.491      0.000      0.000
REMARK INTER + INTRA:          -8.877
REMARK INTER:                  -6.349
REMARK INTRA:                  -2.529
REMARK UNBOUND:                -2.529
REMARK SMILES CCCCCCCCCCCCCCCC(=O)[O-]
REMARK SMILES IDX 9 1 10 2 11 3 12 4 13 5 14 6 15 7 16 8 17 9 18 10 8 11 7 12
REMARK SMILES IDX 6 13 5 14 4 15 3 16 2 17 1 18
REMARK H PARENT
REMARK Flexibility Score: inf
ROOT
ATOM      1  C   UNL     1       3.876  35.099  -7.054  1.00  0.00     0.000 C 
ENDROOT
BRANCH   1   2
ATOM      2  C   UNL     1       3.660  36.178  -8.129  1.00  0.00     0.000 C 
BRANCH   2   3
ATOM      3  C   UNL     1       2.281  36.850  -8.026  1.00  0.00     0.000 C 
BRANCH   3   4
ATOM      4  C   UNL     1       1.689  36.765  -6.608  1.00  0.00     0.000 C 
BRANCH   4   5
ATOM      5  C   UNL     1       1.643  38.131  -5.906  1.00  0.00     0.000 C 
BRANCH   5   6
ATOM      6  C   UNL     1       1.882  38.027  -4.389  1.00  0.00     0.006 C 
BRANCH   6   7
ATOM      7  C   UNL     1       1.809  36.579  -3.890  1.00  0.00     0.053 C 
BRANCH   7   8
ATOM      8  C   UNL     1       0.588  36.342  -3.055  1.00  0.00     0.041 C 
ATOM      9  O   UNL     1      -0.497  36.005  -3.599  1.00  0.00    -0.550 OA
ATOM     10  O   UNL     1       0.638  36.526  -1.680  1.00  0.00    -0.550 OA
ENDBRANCH   7   8
ENDBRANCH   6   7
ENDBRANCH   5   6
ENDBRANCH   4   5
ENDBRANCH   3   4
ENDBRANCH   2   3
ENDBRANCH   1   2
BRANCH   1  11
ATOM     11  C   UNL     1       5.358  34.720  -6.883  1.00  0.00     0.000 C 
BRANCH  11  12
ATOM     12  C   UNL     1       6.145  35.608  -5.899  1.00  0.00    -0.000 C 
BRANCH  12  13
ATOM     13  C   UNL     1       5.279  36.465  -4.953  1.00  0.00    -0.000 C 
BRANCH  13  14
ATOM     14  C   UNL     1       5.376  37.984  -5.182  1.00  0.00    -0.000 C 
BRANCH  14  15
ATOM     15  C   UNL     1       6.299  38.354  -6.353  1.00  0.00    -0.000 C 
BRANCH  15  16
ATOM     16  C   UNL     1       5.524  39.092  -7.450  1.00  0.00    -0.000 C 
BRANCH  16  17
ATOM     17  C   UNL     1       4.555  40.114  -6.848  1.00  0.00    -0.003 C 
ATOM     18  C   UNL     1       4.135  41.154  -7.884  1.00  0.00     0.004 C 
ENDBRANCH  16  17
ENDBRANCH  15  16
ENDBRANCH  14  15
ENDBRANCH  13  14
ENDBRANCH  12  13
ENDBRANCH  11  12
ENDBRANCH   1  11
TORSDOF 14
ENDMDL
MODEL 2
REMARK VINA RESULT:    -3.489      2.537      4.440
REMARK INTER + INTRA:          -8.874
REMARK INTER:                  -6.363
REMARK INTRA:                  -2.511
REMARK UNBOUND:                -2.529
REMARK SMILES CCCCCCCCCCCCCCCC(=O)[O-]
REMARK SMILES IDX 9 1 10 2 11 3 12 4 13 5 14 6 15 7 16 8 17 9 18 10 8 11 7 12
REMARK SMILES IDX 6 13 5 14 4 15 3 16 2 17 1 18
REMARK H PARENT
REMARK Flexibility Score: inf
ROOT
ATOM      1  C   UNL     1       2.369  37.676  -8.162  1.00  0.00     0.000 C 
ENDROOT
BRANCH   1   2
ATOM      2  C   UNL     1       3.234  36.453  -8.511  1.00  0.00     0.000 C 
BRANCH   2   3
ATOM      3  C   UNL     1       2.840  35.200  -7.713  1.00  0.00     0.000 C 
BRANCH   3   4
ATOM      4  C   UNL     1       4.023  34.239  -7.503  1.00  0.00     0.000 C 
BRANCH   4   5
ATOM      5  C   UNL     1       5.368  34.862  -7.912  1.00  0.00     0.000 C 
BRANCH   5   6
ATOM      6  C   UNL     1       6.575  34.052  -7.408  1.00  0.00     0.006 C 
BRANCH   6   7
ATOM      7  C   UNL     1       7.056  34.527  -6.031  1.00  0.00     0.053 C 
BRANCH   7   8
ATOM      8  C   UNL     1       6.442  33.725  -4.924  1.00  0.00     0.041 C 
ATOM      9  O   UNL     1       6.275  32.484  -5.056  1.00  0.00    -0.550 OA
ATOM     10  O   UNL     1       6.023  34.355  -3.759  1.00  0.00    -0.550 OA
ENDBRANCH   7   8
ENDBRANCH   6   7
ENDBRANCH   5   6
ENDBRANCH   4   5
ENDBRANCH   3   4
ENDBRANCH   2   3
ENDBRANCH   1   2
BRANCH   1  11
ATOM     11  C   UNL     1       1.497  37.451  -6.914  1.00  0.00     0.000 C 
BRANCH  11  12
ATOM     12  C   UNL     1       1.818  38.377  -5.724  1.00  0.00    -0.000 C 
BRANCH  12  13
ATOM     13  C   UNL     1       2.476  37.683  -4.513  1.00  0.00    -0.000 C 
BRANCH  13  14
ATOM     14  C   UNL     1       3.910  37.180  -4.752  1.00  0.00    -0.000 C 
BRANCH  14  15
ATOM     15  C   UNL     1       4.910  38.321  -4.992  1.00  0.00    -0.000 C 
BRANCH  15  16
ATOM     16  C   UNL     1       5.870  37.978  -6.137  1.00  0.00    -0.000 C 
BRANCH  16  17
ATOM     17  C   UNL     1       6.005  39.152  -7.113  1.00  0.00    -0.003 C 
ATOM     18  C   UNL     1       4.790  40.072  -7.041  1.00  0.00     0.004 C 
ENDBRANCH  16  17
ENDBRANCH  15  16
ENDBRANCH  14  15
ENDBRANCH  13  14
ENDBRANCH  12  13
ENDBRANCH  11  12
ENDBRANCH   1  11
TORSDOF 14
ENDMDL
MODEL 3
REMARK VINA RESULT:    -3.487      2.468      5.205
REMARK INTER + INTRA:          -8.869
REMARK INTER:                  -6.694
REMARK INTRA:                  -2.175
REMARK UNBOUND:                -2.529
REMARK SMILES CCCCCCCCCCCCCCCC(=O)[O-]
REMARK SMILES IDX 9 1 10 2 11 3 12 4 13 5 14 6 15 7 16 8 17 9 18 10 8 11 7 12
REMARK SMILES IDX 6 13 5 14 4 15 3 16 2 17 1 18
REMARK H PARENT
REMARK Flexibility Score: inf
ROOT
ATOM      1  C   UNL     1       5.720  38.750  -6.235  1.00  0.00     0.000 C 
ENDROOT
BRANCH   1   2
ATOM      2  C   UNL     1       5.311  37.921  -5.005  1.00  0.00     0.000 C 
BRANCH   2   3
ATOM      3  C   UNL     1       5.454  36.408  -5.234  1.00  0.00     0.000 C 
BRANCH   3   4
ATOM      4  C   UNL     1       6.065  36.076  -6.607  1.00  0.00     0.000 C 
BRANCH   4   5
ATOM      5  C   UNL     1       6.913  34.795  -6.579  1.00  0.00     0.000 C 
BRANCH   5   6
ATOM      6  C   UNL     1       6.803  34.038  -5.244  1.00  0.00     0.006 C 
BRANCH   6   7
ATOM      7  C   UNL     1       6.187  32.644  -5.417  1.00  0.00     0.053 C 
BRANCH   7   8
ATOM      8  C   UNL     1       5.005  32.447  -4.519  1.00  0.00     0.041 C 
ATOM      9  O   UNL     1       4.007  33.209  -4.606  1.00  0.00    -0.550 OA
ATOM     10  O   UNL     1       5.019  31.440  -3.562  1.00  0.00    -0.550 OA
ENDBRANCH   7   8
ENDBRANCH   6   7
ENDBRANCH   5   6
ENDBRANCH   4   5
ENDBRANCH   3   4
ENDBRANCH   2   3
ENDBRANCH   1   2
BRANCH   1  11
ATOM     11  C   UNL     1       4.699  39.849  -6.578  1.00  0.00     0.000 C 
BRANCH  11  12
ATOM     12  C   UNL     1       4.020  39.696  -7.954  1.00  0.00    -0.000 C 
BRANCH  12  13
ATOM     13  C   UNL     1       3.807  38.242  -8.421  1.00  0.00    -0.000 C 
BRANCH  13  14
ATOM     14  C   UNL     1       2.381  37.698  -8.223  1.00  0.00    -0.000 C 
BRANCH  14  15
ATOM     15  C   UNL     1       2.152  37.124  -6.817  1.00  0.00    -0.000 C 
BRANCH  15  16
ATOM     16  C   UNL     1       1.450  38.145  -5.915  1.00  0.00    -0.000 C 
BRANCH  16  17
ATOM     17  C   UNL     1       1.869  37.967  -4.452  1.00  0.00    -0.003 C 
ATOM     18  C   UNL     1       1.948  36.490  -4.076  1.00  0.00     0.004 C 
ENDBRANCH  16  17
ENDBRANCH  15  16
ENDBRANCH  14  15
ENDBRANCH  13  14
ENDBRANCH  12  13
ENDBRANCH  11  12
ENDBRANCH   1  11
TORSDOF 14
ENDMDL
MODEL 4
REMARK VINA RESULT:    -3.482      2.661      4.498
REMARK INTER + INTRA:          -8.860
REMARK INTER:                  -6.255
REMARK INTRA:                  -2.605
REMARK UNBOUND:                -2.529
REMARK SMILES CCCCCCCCCCCCCCCC(=O)[O-]
REMARK SMILES IDX 9 1 10 2 11 3 12 4 13 5 14 6 15 7 16 8 17 9 18 10 8 11 7 12
REMARK SMILES IDX 6 13 5 14 4 15 3 16 2 17 1 18
REMARK H PARENT
REMARK Flexibility Score: inf
ROOT
ATOM      1  C   UNL     1       3.627  36.493  -8.409  1.00  0.00     0.000 C 
ENDROOT
BRANCH   1   2
ATOM      2  C   UNL     1       4.178  35.474  -7.396  1.00  0.00     0.000 C 
BRANCH   2   3
ATOM      3  C   UNL     1       5.557  34.925  -7.796  1.00  0.00     0.000 C 
BRANCH   3   4
ATOM      4  C   UNL     1       6.628  35.183  -6.723  1.00  0.00     0.000 C 
BRANCH   4   5
ATOM      5  C   UNL     1       6.756  34.019  -5.727  1.00  0.00     0.000 C 
BRANCH   5   6
ATOM      6  C   UNL     1       6.197  34.363  -4.336  1.00  0.00     0.006 C 
BRANCH   6   7
ATOM      7  C   UNL     1       4.741  33.909  -4.169  1.00  0.00     0.053 C 
BRANCH   7   8
ATOM      8  C   UNL     1       4.532  32.520  -4.689  1.00  0.00     0.041 C 
ATOM      9  O   UNL     1       3.788  32.321  -5.685  1.00  0.00    -0.550 OA
ATOM     10  O   UNL     1       5.133  31.442  -4.053  1.00  0.00    -0.550 OA
ENDBRANCH   7   8
ENDBRANCH   6   7
ENDBRANCH   5   6
ENDBRANCH   4   5
ENDBRANCH   3   4
ENDBRANCH   2   3
ENDBRANCH   1   2
BRANCH   1  11
ATOM     11  C   UNL     1       4.573  37.688  -8.623  1.00  0.00     0.000 C 
BRANCH  11  12
ATOM     12  C   UNL     1       4.016  39.047  -8.156  1.00  0.00    -0.000 C 
BRANCH  12  13
ATOM     13  C   UNL     1       4.691  39.635  -6.899  1.00  0.00    -0.000 C 
BRANCH  13  14
ATOM     14  C   UNL     1       5.784  38.750  -6.275  1.00  0.00    -0.000 C 
BRANCH  14  15
ATOM     15  C   UNL     1       5.344  38.099  -4.955  1.00  0.00    -0.000 C 
BRANCH  15  16
ATOM     16  C   UNL     1       3.902  38.486  -4.607  1.00  0.00    -0.000 C 
BRANCH  16  17
ATOM     17  C   UNL     1       2.987  37.256  -4.605  1.00  0.00    -0.003 C 
ATOM     18  C   UNL     1       1.626  37.580  -5.215  1.00  0.00     0.004 C 
ENDBRANCH  16  17
ENDBRANCH  15  16
ENDBRANCH  14  15
ENDBRANCH  13  14
ENDBRANCH  12  13
ENDBRANCH  11  12
ENDBRANCH   1  11
TORSDOF 14
ENDMDL
MODEL 5
REMARK VINA RESULT:    -3.464      1.653      4.397
REMARK INTER + INTRA:          -8.829
REMARK INTER:                  -6.236
REMARK INTRA:                  -2.593
REMARK UNBOUND:                -2.529
REMARK SMILES CCCCCCCCCCCCCCCC(=O)[O-]
REMARK SMILES IDX 9 1 10 2 11 3 12 4 13 5 14 6 15 7 16 8 17 9 18 10 8 11 7 12
REMARK SMILES IDX 6 13 5 14 4 15 3 16 2 17 1 18
REMARK H PARENT
REMARK Flexibility Score: inf
ROOT
ATOM      1  C   UNL     1       3.784  39.314  -8.293  1.00  0.00     0.000 C 
ENDROOT
BRANCH   1   2
ATOM      2  C   UNL     1       4.539  39.758  -7.028  1.00  0.00     0.000 C 
BRANCH   2   3
ATOM      3  C   UNL     1       5.925  39.106  -6.904  1.00  0.00     0.000 C 
BRANCH   3   4
ATOM      4  C   UNL     1       6.027  38.165  -5.691  1.00  0.00     0.000 C 
BRANCH   4   5
ATOM      5  C   UNL     1       4.775  38.213  -4.801  1.00  0.00     0.000 C 
BRANCH   5   6
ATOM      6  C   UNL     1       4.008  36.879  -4.783  1.00  0.00     0.006 C 
BRANCH   6   7
ATOM      7  C   UNL     1       2.608  37.025  -4.172  1.00  0.00     0.053 C 
BRANCH   7   8
ATOM      8  C   UNL     1       1.562  37.215  -5.228  1.00  0.00     0.041 C 
ATOM      9  O   UNL     1       0.887  36.235  -5.637  1.00  0.00    -0.550 OA
ATOM     10  O   UNL     1       1.356  38.471  -5.784  1.00  0.00    -0.550 OA
ENDBRANCH   7   8
ENDBRANCH   6   7
ENDBRANCH   5   6
ENDBRANCH   4   5
ENDBRANCH   3   4
ENDBRANCH   2   3
ENDBRANCH   1   2
BRANCH   1  11
ATOM     11  C   UNL     1       4.194  37.908  -8.766  1.00  0.00     0.000 C 
BRANCH  11  12
ATOM     12  C   UNL     1       3.140  36.809  -8.522  1.00  0.00    -0.000 C 
BRANCH  12  13
ATOM     13  C   UNL     1       3.709  35.438  -8.099  1.00  0.00    -0.000 C 
BRANCH  13  14
ATOM     14  C   UNL     1       5.242  35.380  -7.979  1.00  0.00    -0.000 C 
BRANCH  14  15
ATOM     15  C   UNL     1       5.737  34.113  -7.266  1.00  0.00    -0.000 C 
BRANCH  15  16
ATOM     16  C   UNL     1       6.990  34.404  -6.433  1.00  0.00    -0.000 C 
BRANCH  16  17
ATOM     17  C   UNL     1       6.708  34.242  -4.936  1.00  0.00    -0.003 C 
ATOM     18  C   UNL     1       5.518  33.317  -4.696  1.00  0.00     0.004 C 
ENDBRANCH  16  17
ENDBRANCH  15  16
ENDBRANCH  14  15
ENDBRANCH  13  14
ENDBRANCH  12  13
ENDBRANCH  11  12
ENDBRANCH   1  11
TORSDOF 14
ENDMDL
MODEL 6
REMARK VINA RESULT:    -3.454      2.110      4.580
REMARK INTER + INTRA:          -8.809
REMARK INTER:                  -6.430
REMARK INTRA:                  -2.379
REMARK UNBOUND:                -2.529
REMARK SMILES CCCCCCCCCCCCCCCC(=O)[O-]
REMARK SMILES IDX 9 1 10 2 11 3 12 4 13 5 14 6 15 7 16 8 17 9 18 10 8 11 7 12
REMARK SMILES IDX 6 13 5 14 4 15 3 16 2 17 1 18
REMARK H PARENT
REMARK Flexibility Score: inf
ROOT
ATOM      1  C   UNL     1       5.852  38.990  -6.897  1.00  0.00     0.000 C 
ENDROOT
BRANCH   1   2
ATOM      2  C   UNL     1       5.713  38.338  -5.511  1.00  0.00     0.000 C 
BRANCH   2   3
ATOM      3  C   UNL     1       4.315  38.530  -4.902  1.00  0.00     0.000 C 
BRANCH   3   4
ATOM      4  C   UNL     1       3.621  37.193  -4.587  1.00  0.00     0.000 C 
BRANCH   4   5
ATOM      5  C   UNL     1       2.101  37.343  -4.419  1.00  0.00     0.000 C 
BRANCH   5   6
ATOM      6  C   UNL     1       1.435  38.026  -5.626  1.00  0.00     0.006 C 
BRANCH   6   7
ATOM      7  C   UNL     1       0.646  37.034  -6.490  1.00  0.00     0.053 C 
BRANCH   7   8
ATOM      8  C   UNL     1      -0.087  37.726  -7.598  1.00  0.00     0.041 C 
ATOM      9  O   UNL     1      -1.137  38.378  -7.354  1.00  0.00    -0.550 OA
ATOM     10  O   UNL     1       0.371  37.626  -8.905  1.00  0.00    -0.550 OA
ENDBRANCH   7   8
ENDBRANCH   6   7
ENDBRANCH   5   6
ENDBRANCH   4   5
ENDBRANCH   3   4
ENDBRANCH   2   3
ENDBRANCH   1   2
BRANCH   1  11
ATOM     11  C   UNL     1       4.663  39.903  -7.247  1.00  0.00     0.000 C 
BRANCH  11  12
ATOM     12  C   UNL     1       3.653  39.298  -8.242  1.00  0.00    -0.000 C 
BRANCH  12  13
ATOM     13  C   UNL     1       4.155  38.062  -9.016  1.00  0.00    -0.000 C 
BRANCH  13  14
ATOM     14  C   UNL     1       3.702  36.707  -8.441  1.00  0.00    -0.000 C 
BRANCH  14  15
ATOM     15  C   UNL     1       4.807  35.642  -8.484  1.00  0.00    -0.000 C 
BRANCH  15  16
ATOM     16  C   UNL     1       5.090  35.088  -7.083  1.00  0.00    -0.000 C 
BRANCH  16  17
ATOM     17  C   UNL     1       6.596  34.983  -6.825  1.00  0.00    -0.003 C 
ATOM     18  C   UNL     1       6.881  34.390  -5.448  1.00  0.00     0.004 C 
ENDBRANCH  16  17
ENDBRANCH  15  16
ENDBRANCH  14  15
ENDBRANCH  13  14
ENDBRANCH  12  13
ENDBRANCH  11  12
ENDBRANCH   1  11
TORSDOF 14
ENDMDL
MODEL 7
REMARK VINA RESULT:    -3.410      1.435      3.455
REMARK INTER + INTRA:          -8.730
REMARK INTER:                  -6.710
REMARK INTRA:                  -2.020
REMARK UNBOUND:                -2.529
REMARK SMILES CCCCCCCCCCCCCCCC(=O)[O-]
REMARK SMILES IDX 9 1 10 2 11 3 12 4 13 5 14 6 15 7 16 8 17 9 18 10 8 11 7 12
REMARK SMILES IDX 6 13 5 14 4 15 3 16 2 17 1 18
REMARK H PARENT
REMARK Flexibility Score: inf
ROOT
ATOM      1  C   UNL     1       3.401  38.147  -8.248  1.00  0.00     0.000 C 
ENDROOT
BRANCH   1   2
ATOM      2  C   UNL     1       2.070  37.565  -7.742  1.00  0.00     0.000 C 
BRANCH   2   3
ATOM      3  C   UNL     1       1.628  38.174  -6.402  1.00  0.00     0.000 C 
BRANCH   3   4
ATOM      4  C   UNL     1       1.108  37.113  -5.416  1.00  0.00     0.000 C 
BRANCH   4   5
ATOM      5  C   UNL     1       1.567  37.375  -3.972  1.00  0.00     0.000 C 
BRANCH   5   6
ATOM      6  C   UNL     1       1.471  36.123  -3.082  1.00  0.00     0.006 C 
BRANCH   6   7
ATOM      7  C   UNL     1       0.254  36.169  -2.149  1.00  0.00     0.053 C 
BRANCH   7   8
ATOM      8  C   UNL     1       0.663  36.171  -0.708  1.00  0.00     0.041 C 
ATOM      9  O   UNL     1       0.618  37.236  -0.037  1.00  0.00    -0.550 OA
ATOM     10  O   UNL     1       1.125  35.004  -0.114  1.00  0.00    -0.550 OA
ENDBRANCH   7   8
ENDBRANCH   6   7
ENDBRANCH   5   6
ENDBRANCH   4   5
ENDBRANCH   3   4
ENDBRANCH   2   3
ENDBRANCH   1   2
BRANCH   1  11
ATOM     11  C   UNL     1       3.911  39.310  -7.378  1.00  0.00     0.000 C 
BRANCH  11  12
ATOM     12  C   UNL     1       5.445  39.404  -7.256  1.00  0.00    -0.000 C 
BRANCH  12  13
ATOM     13  C   UNL     1       6.075  38.480  -6.192  1.00  0.00    -0.000 C 
BRANCH  13  14
ATOM     14  C   UNL     1       5.125  38.050  -5.060  1.00  0.00    -0.000 C 
BRANCH  14  15
ATOM     15  C   UNL     1       5.242  36.557  -4.719  1.00  0.00    -0.000 C 
BRANCH  15  16
ATOM     16  C   UNL     1       4.414  35.706  -5.689  1.00  0.00    -0.000 C 
BRANCH  16  17
ATOM     17  C   UNL     1       5.233  34.527  -6.224  1.00  0.00    -0.003 C 
ATOM     18  C   UNL     1       6.729  34.818  -6.157  1.00  0.00     0.004 C 
ENDBRANCH  16  17
ENDBRANCH  15  16
ENDBRANCH  14  15
ENDBRANCH  13  14
ENDBRANCH  12  13
ENDBRANCH  11  12
ENDBRANCH   1  11
TORSDOF 14
ENDMDL
MODEL 8
REMARK VINA RESULT:    -3.368      2.939      4.781
REMARK INTER + INTRA:          -8.653
REMARK INTER:                  -6.178
REMARK INTRA:                  -2.476
REMARK UNBOUND:                -2.529
REMARK SMILES CCCCCCCCCCCCCCCC(=O)[O-]
REMARK SMILES IDX 9 1 10 2 11 3 12 4 13 5 14 6 15 7 16 8 17 9 18 10 8 11 7 12
REMARK SMILES IDX 6 13 5 14 4 15 3 16 2 17 1 18
REMARK H PARENT
REMARK Flexibility Score: inf
ROOT
ATOM      1  C   UNL     1       3.741  34.886  -6.284  1.00  0.00     0.000 C 
ENDROOT
BRANCH   1   2
ATOM      2  C   UNL     1       4.806  34.907  -7.395  1.00  0.00     0.000 C 
BRANCH   2   3
ATOM      3  C   UNL     1       6.161  35.444  -6.908  1.00  0.00     0.000 C 
BRANCH   3   4
ATOM      4  C   UNL     1       7.111  34.322  -6.455  1.00  0.00     0.000 C 
BRANCH   4   5
ATOM      5  C   UNL     1       7.137  33.140  -7.437  1.00  0.00     0.000 C 
BRANCH   5   6
ATOM      6  C   UNL     1       6.727  31.811  -6.778  1.00  0.00     0.006 C 
BRANCH   6   7
ATOM      7  C   UNL     1       6.261  32.004  -5.329  1.00  0.00     0.053 C 
BRANCH   7   8
ATOM      8  C   UNL     1       4.868  31.492  -5.124  1.00  0.00     0.041 C 
ATOM      9  O   UNL     1       4.088  31.364  -6.104  1.00  0.00    -0.550 OA
ATOM     10  O   UNL     1       4.419  31.188  -3.845  1.00  0.00    -0.550 OA
ENDBRANCH   7   8
ENDBRANCH   6   7
ENDBRANCH   5   6
ENDBRANCH   4   5
ENDBRANCH   3   4
ENDBRANCH   2   3
ENDBRANCH   1   2
BRANCH   1  11
ATOM     11  C   UNL     1       4.169  35.677  -5.035  1.00  0.00     0.000 C 
BRANCH  11  12
ATOM     12  C   UNL     1       3.185  36.779  -4.598  1.00  0.00    -0.000 C 
BRANCH  12  13
ATOM     13  C   UNL     1       3.748  38.215  -4.642  1.00  0.00    -0.000 C 
BRANCH  13  14
ATOM     14  C   UNL     1       5.262  38.312  -4.897  1.00  0.00    -0.000 C 
BRANCH  14  15
ATOM     15  C   UNL     1       5.599  38.953  -6.252  1.00  0.00    -0.000 C 
BRANCH  15  16
ATOM     16  C   UNL     1       4.325  39.380  -6.990  1.00  0.00    -0.000 C 
BRANCH  16  17
ATOM     17  C   UNL     1       4.110  38.537  -8.251  1.00  0.00    -0.003 C 
ATOM     18  C   UNL     1       2.714  37.922  -8.274  1.00  0.00     0.004 C 
ENDBRANCH  16  17
ENDBRANCH  15  16
ENDBRANCH  14  15
ENDBRANCH  13  14
ENDBRANCH  12  13
ENDBRANCH  11  12
ENDBRANCH   1  11
TORSDOF 14
ENDMDL
MODEL 9
REMARK VINA RESULT:    -3.344      2.045      4.377
REMARK INTER + INTRA:          -8.610
REMARK INTER:                  -5.826
REMARK INTRA:                  -2.783
REMARK UNBOUND:                -2.529
REMARK SMILES CCCCCCCCCCCCCCCC(=O)[O-]
REMARK SMILES IDX 9 1 10 2 11 3 12 4 13 5 14 6 15 7 16 8 17 9 18 10 8 11 7 12
REMARK SMILES IDX 6 13 5 14 4 15 3 16 2 17 1 18
REMARK H PARENT
REMARK Flexibility Score: inf
ROOT
ATOM      1  C   UNL     1       3.810  35.138  -7.294  1.00  0.00     0.000 C 
ENDROOT
BRANCH   1   2
ATOM      2  C   UNL     1       3.242  36.336  -8.074  1.00  0.00     0.000 C 
BRANCH   2   3
ATOM      3  C   UNL     1       4.230  37.511  -8.158  1.00  0.00     0.000 C 
BRANCH   3   4
ATOM      4  C   UNL     1       5.527  37.246  -7.374  1.00  0.00     0.000 C 
BRANCH   4   5
ATOM      5  C   UNL     1       5.769  38.285  -6.267  1.00  0.00     0.000 C 
BRANCH   5   6
ATOM      6  C   UNL     1       4.483  39.022  -5.853  1.00  0.00     0.006 C 
BRANCH   6   7
ATOM      7  C   UNL     1       3.883  38.457  -4.559  1.00  0.00     0.053 C 
BRANCH   7   8
ATOM      8  C   UNL     1       2.456  38.041  -4.747  1.00  0.00     0.041 C 
ATOM      9  O   UNL     1       1.796  38.465  -5.731  1.00  0.00    -0.550 OA
ATOM     10  O   UNL     1       1.846  37.211  -3.816  1.00  0.00    -0.550 OA
ENDBRANCH   7   8
ENDBRANCH   6   7
ENDBRANCH   5   6
ENDBRANCH   4   5
ENDBRANCH   3   4
ENDBRANCH   2   3
ENDBRANCH   1   2
BRANCH   1  11
ATOM     11  C   UNL     1       2.898  34.698  -6.134  1.00  0.00     0.000 C 
BRANCH  11  12
ATOM     12  C   UNL     1       3.640  34.278  -4.850  1.00  0.00    -0.000 C 
BRANCH  12  13
ATOM     13  C   UNL     1       4.963  35.026  -4.583  1.00  0.00    -0.000 C 
BRANCH  13  14
ATOM     14  C   UNL     1       6.218  34.136  -4.548  1.00  0.00    -0.000 C 
BRANCH  14  15
ATOM     15  C   UNL     1       7.106  34.309  -5.789  1.00  0.00    -0.000 C 
BRANCH  15  16
ATOM     16  C   UNL     1       6.820  33.216  -6.825  1.00  0.00    -0.000 C 
BRANCH  16  17
ATOM     17  C   UNL     1       6.353  31.923  -6.149  1.00  0.00    -0.003 C 
ATOM     18  C   UNL     1       5.176  31.304  -6.896  1.00  0.00     0.004 C 
ENDBRANCH  16  17
ENDBRANCH  15  16
ENDBRANCH  14  15
ENDBRANCH  13  14
ENDBRANCH  12  13
ENDBRANCH  11  12
ENDBRANCH   1  11
TORSDOF 14
ENDMDL
