MODEL 1
REMARK VINA RESULT:    -3.559      0.000      0.000
REMARK INTER + INTRA:          -9.044
REMARK INTER:                  -6.471
REMARK INTRA:                  -2.573
REMARK UNBOUND:                -2.573
REMARK SMILES CCCCCCCCCCCCCCCC(=O)[O-]
REMARK SMILES IDX 9 1 10 2 11 3 12 4 13 5 14 6 15 7 16 8 17 9 18 10 8 11 7 12
REMARK SMILES IDX 6 13 5 14 4 15 3 16 2 17 1 18
REMARK H PARENT
REMARK Flexibility Score: inf
ROOT
ATOM      1  C   UNL     1      30.268  32.960   4.011  1.00  0.00     0.000 C 
ENDROOT
BRANCH   1   2
ATOM      2  C   UNL     1      28.902  32.855   3.310  1.00  0.00     0.000 C 
BRANCH   2   3
ATOM      3  C   UNL     1      27.850  33.795   3.921  1.00  0.00     0.000 C 
BRANCH   3   4
ATOM      4  C   UNL     1      26.600  33.935   3.035  1.00  0.00     0.000 C 
BRANCH   4   5
ATOM      5  C   UNL     1      26.713  33.137   1.726  1.00  0.00     0.000 C 
BRANCH   5   6
ATOM      6  C   UNL     1      26.024  33.834   0.543  1.00  0.00     0.006 C 
BRANCH   6   7
ATOM      7  C   UNL     1      25.388  35.156   0.981  1.00  0.00     0.053 C 
BRANCH   7   8
ATOM      8  C   UNL     1      23.921  35.154   0.692  1.00  0.00     0.041 C 
ATOM      9  O   UNL     1      23.195  36.101   1.093  1.00  0.00    -0.550 OA
ATOM     10  O   UNL     1      23.344  34.082   0.023  1.00  0.00    -0.550 OA
ENDBRANCH   7   8
ENDBRANCH   6   7
ENDBRANCH   5   6
ENDBRANCH   4   5
ENDBRANCH   3   4
ENDBRANCH   2   3
ENDBRANCH   1   2
BRANCH   1  11
ATOM     11  C   UNL     1      31.415  33.267   3.032  1.00  0.00     0.000 C 
BRANCH  11  12
ATOM     12  C   UNL     1      31.108  32.949   1.554  1.00  0.00    -0.000 C 
BRANCH  12  13
ATOM     13  C   UNL     1      31.064  34.171   0.615  1.00  0.00    -0.000 C 
BRANCH  13  14
ATOM     14  C   UNL     1      29.652  34.661   0.241  1.00  0.00    -0.000 C 
BRANCH  14  15
ATOM     15  C   UNL     1      29.382  36.105   0.695  1.00  0.00    -0.000 C 
BRANCH  15  16
ATOM     16  C   UNL     1      29.921  36.399   2.107  1.00  0.00    -0.000 C 
BRANCH  16  17
ATOM     17  C   UNL     1      28.944  37.143   3.036  1.00  0.00    -0.003 C 
ATOM     18  C   UNL     1      27.701  37.656   2.310  1.00  0.00     0.004 C 
ENDBRANCH  16  17
ENDBRANCH  15  16
ENDBRANCH  14  15
ENDBRANCH  13  14
ENDBRANCH  12  13
ENDBRANCH  11  12
ENDBRANCH   1  11
TORSDOF 14
ENDMDL
MODEL 2
REMARK VINA RESULT:    -3.531      1.508      3.154
REMARK INTER + INTRA:          -8.995
REMARK INTER:                  -6.690
REMARK INTRA:                  -2.305
REMARK UNBOUND:                -2.573
REMARK SMILES CCCCCCCCCCCCCCCC(=O)[O-]
REMARK SMILES IDX 9 1 10 2 11 3 12 4 13 5 14 6 15 7 16 8 17 9 18 10 8 11 7 12
REMARK SMILES IDX 6 13 5 14 4 15 3 16 2 17 1 18
REMARK H PARENT
REMARK Flexibility Score: inf
ROOT
ATOM      1  C   UNL     1      29.808  35.492   2.619  1.00  0.00     0.000 C 
ENDROOT
BRANCH   1   2
ATOM      2  C   UNL     1      29.601  34.050   3.113  1.00  0.00     0.000 C 
BRANCH   2   3
ATOM      3  C   UNL     1      28.561  33.955   4.243  1.00  0.00     0.000 C 
BRANCH   3   4
ATOM      4  C   UNL     1      27.147  33.654   3.718  1.00  0.00     0.000 C 
BRANCH   4   5
ATOM      5  C   UNL     1      27.163  32.920   2.367  1.00  0.00     0.000 C 
BRANCH   5   6
ATOM      6  C   UNL     1      26.333  33.637   1.291  1.00  0.00     0.006 C 
BRANCH   6   7
ATOM      7  C   UNL     1      26.302  35.147   1.539  1.00  0.00     0.053 C 
BRANCH   7   8
ATOM      8  C   UNL     1      24.945  35.700   1.238  1.00  0.00     0.041 C 
ATOM      9  O   UNL     1      24.007  34.931   0.902  1.00  0.00    -0.550 OA
ATOM     10  O   UNL     1      24.728  37.071   1.280  1.00  0.00    -0.550 OA
ENDBRANCH   7   8
ENDBRANCH   6   7
ENDBRANCH   5   6
ENDBRANCH   4   5
ENDBRANCH   3   4
ENDBRANCH   2   3
ENDBRANCH   1   2
BRANCH   1  11
ATOM     11  C   UNL     1      30.043  35.570   1.100  1.00  0.00     0.000 C 
BRANCH  11  12
ATOM     12  C   UNL     1      30.154  34.204   0.391  1.00  0.00    -0.000 C 
BRANCH  12  13
ATOM     13  C   UNL     1      31.327  34.074  -0.602  1.00  0.00    -0.000 C 
BRANCH  13  14
ATOM     14  C   UNL     1      32.234  32.846  -0.389  1.00  0.00    -0.000 C 
BRANCH  14  15
ATOM     15  C   UNL     1      33.380  33.116   0.599  1.00  0.00    -0.000 C 
BRANCH  15  16
ATOM     16  C   UNL     1      33.099  32.562   2.008  1.00  0.00    -0.000 C 
BRANCH  16  17
ATOM     17  C   UNL     1      33.239  33.585   3.151  1.00  0.00    -0.003 C 
ATOM     18  C   UNL     1      33.508  35.005   2.654  1.00  0.00     0.004 C 
ENDBRANCH  16  17
ENDBRANCH  15  16
ENDBRANCH  14  15
ENDBRANCH  13  14
ENDBRANCH  12  13
ENDBRANCH  11  12
ENDBRANCH   1  11
TORSDOF 14
ENDMDL
MODEL 3
REMARK VINA RESULT:    -3.477      3.107      5.504
REMARK INTER + INTRA:          -8.896
REMARK INTER:                  -6.926
REMARK INTRA:                  -1.970
REMARK UNBOUND:                -2.573
REMARK SMILES CCCCCCCCCCCCCCCC(=O)[O-]
REMARK SMILES IDX 9 1 10 2 11 3 12 4 13 5 14 6 15 7 16 8 17 9 18 10 8 11 7 12
REMARK SMILES IDX 6 13 5 14 4 15 3 16 2 17 1 18
REMARK H PARENT
REMARK Flexibility Score: inf
ROOT
ATOM      1  C   UNL     1      28.560  34.071   4.160  1.00  0.00     0.000 C 
ENDROOT
BRANCH   1   2
ATOM      2  C   UNL     1      29.694  33.083   3.834  1.00  0.00     0.000 C 
BRANCH   2   3
ATOM      3  C   UNL     1      30.673  33.634   2.784  1.00  0.00     0.000 C 
BRANCH   3   4
ATOM      4  C   UNL     1      32.144  33.393   3.167  1.00  0.00     0.000 C 
BRANCH   4   5
ATOM      5  C   UNL     1      32.861  32.448   2.189  1.00  0.00     0.000 C 
BRANCH   5   6
ATOM      6  C   UNL     1      33.645  33.199   1.102  1.00  0.00     0.006 C 
BRANCH   6   7
ATOM      7  C   UNL     1      33.092  32.882  -0.290  1.00  0.00     0.053 C 
BRANCH   7   8
ATOM      8  C   UNL     1      32.144  33.950  -0.734  1.00  0.00     0.041 C 
ATOM      9  O   UNL     1      32.219  35.108  -0.244  1.00  0.00    -0.550 OA
ATOM     10  O   UNL     1      31.144  33.656  -1.652  1.00  0.00    -0.550 OA
ENDBRANCH   7   8
ENDBRANCH   6   7
ENDBRANCH   5   6
ENDBRANCH   4   5
ENDBRANCH   3   4
ENDBRANCH   2   3
ENDBRANCH   1   2
BRANCH   1  11
ATOM     11  C   UNL     1      27.182  33.564   3.698  1.00  0.00     0.000 C 
BRANCH  11  12
ATOM     12  C   UNL     1      27.175  32.867   2.322  1.00  0.00    -0.000 C 
BRANCH  12  13
ATOM     13  C   UNL     1      25.981  33.221   1.413  1.00  0.00    -0.000 C 
BRANCH  13  14
ATOM     14  C   UNL     1      25.347  34.601   1.670  1.00  0.00    -0.000 C 
BRANCH  14  15
ATOM     15  C   UNL     1      25.985  35.717   0.826  1.00  0.00    -0.000 C 
BRANCH  15  16
ATOM     16  C   UNL     1      26.931  36.617   1.641  1.00  0.00    -0.000 C 
BRANCH  16  17
ATOM     17  C   UNL     1      28.431  36.400   1.371  1.00  0.00    -0.003 C 
ATOM     18  C   UNL     1      28.698  35.506   0.160  1.00  0.00     0.004 C 
ENDBRANCH  16  17
ENDBRANCH  15  16
ENDBRANCH  14  15
ENDBRANCH  13  14
ENDBRANCH  12  13
ENDBRANCH  11  12
ENDBRANCH   1  11
TORSDOF 14
ENDMDL
MODEL 4
REMARK VINA RESULT:    -3.461      4.033      6.684
REMARK INTER + INTRA:          -8.866
REMARK INTER:                  -7.402
REMARK INTRA:                  -1.465
REMARK UNBOUND:                -2.573
REMARK SMILES CCCCCCCCCCCCCCCC(=O)[O-]
REMARK SMILES IDX 9 1 10 2 11 3 12 4 13 5 14 6 15 7 16 8 17 9 18 10 8 11 7 12
REMARK SMILES IDX 6 13 5 14 4 15 3 16 2 17 1 18
REMARK H PARENT
REMARK Flexibility Score: inf
ROOT
ATOM      1  C   UNL     1      28.618  34.250   3.966  1.00  0.00     0.000 C 
ENDROOT
BRANCH   1   2
ATOM      2  C   UNL     1      28.969  35.498   3.137  1.00  0.00     0.000 C 
BRANCH   2   3
ATOM      3  C   UNL     1      30.275  35.332   2.342  1.00  0.00     0.000 C 
BRANCH   3   4
ATOM      4  C   UNL     1      30.102  34.432   1.106  1.00  0.00     0.000 C 
BRANCH   4   5
ATOM      5  C   UNL     1      30.734  33.043   1.294  1.00  0.00     0.000 C 
BRANCH   5   6
ATOM      6  C   UNL     1      32.213  33.002   0.882  1.00  0.00     0.006 C 
BRANCH   6   7
ATOM      7  C   UNL     1      33.098  32.578   2.057  1.00  0.00     0.053 C 
BRANCH   7   8
ATOM      8  C   UNL     1      33.615  33.778   2.784  1.00  0.00     0.041 C 
ATOM      9  O   UNL     1      33.805  33.732   4.028  1.00  0.00    -0.550 OA
ATOM     10  O   UNL     1      33.839  34.965   2.098  1.00  0.00    -0.550 OA
ENDBRANCH   7   8
ENDBRANCH   6   7
ENDBRANCH   5   6
ENDBRANCH   4   5
ENDBRANCH   3   4
ENDBRANCH   2   3
ENDBRANCH   1   2
BRANCH   1  11
ATOM     11  C   UNL     1      27.185  33.751   3.710  1.00  0.00     0.000 C 
BRANCH  11  12
ATOM     12  C   UNL     1      27.035  32.802   2.504  1.00  0.00    -0.000 C 
BRANCH  12  13
ATOM     13  C   UNL     1      26.565  33.471   1.197  1.00  0.00    -0.000 C 
BRANCH  13  14
ATOM     14  C   UNL     1      25.605  34.662   1.378  1.00  0.00    -0.000 C 
BRANCH  14  15
ATOM     15  C   UNL     1      24.133  34.282   1.147  1.00  0.00    -0.000 C 
BRANCH  15  16
ATOM     16  C   UNL     1      23.965  32.868   0.560  1.00  0.00    -0.000 C 
BRANCH  16  17
ATOM     17  C   UNL     1      23.049  32.778  -0.674  1.00  0.00    -0.003 C 
ATOM     18  C   UNL     1      22.191  31.513  -0.693  1.00  0.00     0.004 C 
ENDBRANCH  16  17
ENDBRANCH  15  16
ENDBRANCH  14  15
ENDBRANCH  13  14
ENDBRANCH  12  13
ENDBRANCH  11  12
ENDBRANCH   1  11
TORSDOF 14
ENDMDL
MODEL 5
REMARK VINA RESULT:    -3.428      3.963      6.359
REMARK INTER + INTRA:          -8.807
REMARK INTER:                  -6.339
REMARK INTRA:                  -2.468
REMARK UNBOUND:                -2.573
REMARK SMILES CCCCCCCCCCCCCCCC(=O)[O-]
REMARK SMILES IDX 9 1 10 2 11 3 12 4 13 5 14 6 15 7 16 8 17 9 18 10 8 11 7 12
REMARK SMILES IDX 6 13 5 14 4 15 3 16 2 17 1 18
REMARK H PARENT
REMARK Flexibility Score: inf
ROOT
ATOM      1  C   UNL     1      28.918  35.863   0.286  1.00  0.00     0.000 C 
ENDROOT
BRANCH   1   2
ATOM      2  C   UNL     1      29.355  34.596  -0.470  1.00  0.00     0.000 C 
BRANCH   2   3
ATOM      3  C   UNL     1      30.882  34.485  -0.605  1.00  0.00     0.000 C 
BRANCH   3   4
ATOM      4  C   UNL     1      31.430  33.165  -0.035  1.00  0.00     0.000 C 
BRANCH   4   5
ATOM      5  C   UNL     1      30.729  32.750   1.269  1.00  0.00     0.000 C 
BRANCH   5   6
ATOM      6  C   UNL     1      31.663  32.802   2.488  1.00  0.00     0.006 C 
BRANCH   6   7
ATOM      7  C   UNL     1      33.130  32.749   2.057  1.00  0.00     0.053 C 
BRANCH   7   8
ATOM      8  C   UNL     1      33.912  33.839   2.718  1.00  0.00     0.041 C 
ATOM      9  O   UNL     1      34.581  34.650   2.025  1.00  0.00    -0.550 OA
ATOM     10  O   UNL     1      33.943  33.932   4.103  1.00  0.00    -0.550 OA
ENDBRANCH   7   8
ENDBRANCH   6   7
ENDBRANCH   5   6
ENDBRANCH   4   5
ENDBRANCH   3   4
ENDBRANCH   2   3
ENDBRANCH   1   2
BRANCH   1  11
ATOM     11  C   UNL     1      30.064  36.497   1.094  1.00  0.00     0.000 C 
BRANCH  11  12
ATOM     12  C   UNL     1      30.063  36.156   2.598  1.00  0.00    -0.000 C 
BRANCH  12  13
ATOM     13  C   UNL     1      28.688  35.773   3.183  1.00  0.00    -0.000 C 
BRANCH  13  14
ATOM     14  C   UNL     1      28.618  34.379   3.835  1.00  0.00    -0.000 C 
BRANCH  14  15
ATOM     15  C   UNL     1      27.269  33.678   3.600  1.00  0.00    -0.000 C 
BRANCH  15  16
ATOM     16  C   UNL     1      27.174  33.015   2.215  1.00  0.00    -0.000 C 
BRANCH  16  17
ATOM     17  C   UNL     1      25.884  33.323   1.431  1.00  0.00    -0.003 C 
ATOM     18  C   UNL     1      25.471  34.792   1.513  1.00  0.00     0.004 C 
ENDBRANCH  16  17
ENDBRANCH  15  16
ENDBRANCH  14  15
ENDBRANCH  13  14
ENDBRANCH  12  13
ENDBRANCH  11  12
ENDBRANCH   1  11
TORSDOF 14
ENDMDL
MODEL 6
REMARK VINA RESULT:    -3.426      3.800      6.121
REMARK INTER + INTRA:          -8.802
REMARK INTER:                  -6.295
REMARK INTRA:                  -2.507
REMARK UNBOUND:                -2.573
REMARK SMILES CCCCCCCCCCCCCCCC(=O)[O-]
REMARK SMILES IDX 9 1 10 2 11 3 12 4 13 5 14 6 15 7 16 8 17 9 18 10 8 11 7 12
REMARK SMILES IDX 6 13 5 14 4 15 3 16 2 17 1 18
REMARK H PARENT
REMARK Flexibility Score: inf
ROOT
ATOM      1  C   UNL     1      30.124  35.991   1.928  1.00  0.00     0.000 C 
ENDROOT
BRANCH   1   2
ATOM      2  C   UNL     1      29.568  36.086   0.496  1.00  0.00     0.000 C 
BRANCH   2   3
ATOM      3  C   UNL     1      29.556  34.729  -0.225  1.00  0.00     0.000 C 
BRANCH   3   4
ATOM      4  C   UNL     1      30.973  34.205  -0.517  1.00  0.00     0.000 C 
BRANCH   4   5
ATOM      5  C   UNL     1      31.305  32.929   0.275  1.00  0.00     0.000 C 
BRANCH   5   6
ATOM      6  C   UNL     1      32.727  32.943   0.856  1.00  0.00     0.006 C 
BRANCH   6   7
ATOM      7  C   UNL     1      32.695  32.861   2.384  1.00  0.00     0.053 C 
BRANCH   7   8
ATOM      8  C   UNL     1      33.391  34.039   2.988  1.00  0.00     0.041 C 
ATOM      9  O   UNL     1      33.463  35.126   2.356  1.00  0.00    -0.550 OA
ATOM     10  O   UNL     1      34.006  33.924   4.228  1.00  0.00    -0.550 OA
ENDBRANCH   7   8
ENDBRANCH   6   7
ENDBRANCH   5   6
ENDBRANCH   4   5
ENDBRANCH   3   4
ENDBRANCH   2   3
ENDBRANCH   1   2
BRANCH   1  11
ATOM     11  C   UNL     1      29.048  36.236   3.000  1.00  0.00     0.000 C 
BRANCH  11  12
ATOM     12  C   UNL     1      28.626  34.982   3.793  1.00  0.00    -0.000 C 
BRANCH  12  13
ATOM     13  C   UNL     1      29.306  33.669   3.356  1.00  0.00    -0.000 C 
BRANCH  13  14
ATOM     14  C   UNL     1      28.391  32.668   2.626  1.00  0.00    -0.000 C 
BRANCH  14  15
ATOM     15  C   UNL     1      26.915  33.100   2.625  1.00  0.00    -0.000 C 
BRANCH  15  16
ATOM     16  C   UNL     1      26.393  33.440   1.217  1.00  0.00    -0.000 C 
BRANCH  16  17
ATOM     17  C   UNL     1      25.280  34.504   1.174  1.00  0.00    -0.003 C 
ATOM     18  C   UNL     1      25.778  35.906   1.524  1.00  0.00     0.004 C 
ENDBRANCH  16  17
ENDBRANCH  15  16
ENDBRANCH  14  15
ENDBRANCH  13  14
ENDBRANCH  12  13
ENDBRANCH  11  12
ENDBRANCH   1  11
TORSDOF 14
ENDMDL
MODEL 7
REMARK VINA RESULT:    -3.393      1.697      3.178
REMARK INTER + INTRA:          -8.742
REMARK INTER:                  -6.966
REMARK INTRA:                  -1.777
REMARK UNBOUND:                -2.573
REMARK SMILES CCCCCCCCCCCCCCCC(=O)[O-]
REMARK SMILES IDX 9 1 10 2 11 3 12 4 13 5 14 6 15 7 16 8 17 9 18 10 8 11 7 12
REMARK SMILES IDX 6 13 5 14 4 15 3 16 2 17 1 18
REMARK H PARENT
REMARK Flexibility Score: inf
ROOT
ATOM      1  C   UNL     1      29.699  33.981   3.186  1.00  0.00     0.000 C 
ENDROOT
BRANCH   1   2
ATOM      2  C   UNL     1      28.414  34.091   4.025  1.00  0.00     0.000 C 
BRANCH   2   3
ATOM      3  C   UNL     1      27.264  33.241   3.458  1.00  0.00     0.000 C 
BRANCH   3   4
ATOM      4  C   UNL     1      26.372  34.031   2.485  1.00  0.00     0.000 C 
BRANCH   4   5
ATOM      5  C   UNL     1      26.600  33.632   1.018  1.00  0.00     0.000 C 
BRANCH   5   6
ATOM      6  C   UNL     1      25.368  33.879   0.135  1.00  0.00     0.006 C 
BRANCH   6   7
ATOM      7  C   UNL     1      24.100  33.336   0.800  1.00  0.00     0.053 C 
BRANCH   7   8
ATOM      8  C   UNL     1      23.119  32.882  -0.233  1.00  0.00     0.041 C 
ATOM      9  O   UNL     1      22.677  33.693  -1.087  1.00  0.00    -0.550 OA
ATOM     10  O   UNL     1      22.653  31.573  -0.223  1.00  0.00    -0.550 OA
ENDBRANCH   7   8
ENDBRANCH   6   7
ENDBRANCH   5   6
ENDBRANCH   4   5
ENDBRANCH   3   4
ENDBRANCH   2   3
ENDBRANCH   1   2
BRANCH   1  11
ATOM     11  C   UNL     1      29.884  35.170   2.226  1.00  0.00     0.000 C 
BRANCH  11  12
ATOM     12  C   UNL     1      30.428  34.797   0.831  1.00  0.00    -0.000 C 
BRANCH  12  13
ATOM     13  C   UNL     1      30.569  33.285   0.564  1.00  0.00    -0.000 C 
BRANCH  13  14
ATOM     14  C   UNL     1      31.839  32.870  -0.203  1.00  0.00    -0.000 C 
BRANCH  14  15
ATOM     15  C   UNL     1      33.128  33.128   0.595  1.00  0.00    -0.000 C 
BRANCH  15  16
ATOM     16  C   UNL     1      33.107  32.479   1.991  1.00  0.00    -0.000 C 
BRANCH  16  17
ATOM     17  C   UNL     1      33.397  33.438   3.160  1.00  0.00    -0.003 C 
ATOM     18  C   UNL     1      33.654  34.875   2.706  1.00  0.00     0.004 C 
ENDBRANCH  16  17
ENDBRANCH  15  16
ENDBRANCH  14  15
ENDBRANCH  13  14
ENDBRANCH  12  13
ENDBRANCH  11  12
ENDBRANCH   1  11
TORSDOF 14
ENDMDL
MODEL 8
REMARK VINA RESULT:    -3.371      3.172      5.415
REMARK INTER + INTRA:          -8.703
REMARK INTER:                  -6.301
REMARK INTRA:                  -2.402
REMARK UNBOUND:                -2.573
REMARK SMILES CCCCCCCCCCCCCCCC(=O)[O-]
REMARK SMILES IDX 9 1 10 2 11 3 12 4 13 5 14 6 15 7 16 8 17 9 18 10 8 11 7 12
REMARK SMILES IDX 6 13 5 14 4 15 3 16 2 17 1 18
REMARK H PARENT
REMARK Flexibility Score: inf
ROOT
ATOM      1  C   UNL     1      27.038  32.819   2.332  1.00  0.00     0.000 C 
ENDROOT
BRANCH   1   2
ATOM      2  C   UNL     1      27.134  33.699   3.590  1.00  0.00     0.000 C 
BRANCH   2   3
ATOM      3  C   UNL     1      28.582  34.096   3.925  1.00  0.00     0.000 C 
BRANCH   3   4
ATOM      4  C   UNL     1      29.583  32.963   3.641  1.00  0.00     0.000 C 
BRANCH   4   5
ATOM      5  C   UNL     1      31.021  33.478   3.459  1.00  0.00     0.000 C 
BRANCH   5   6
ATOM      6  C   UNL     1      31.774  32.752   2.334  1.00  0.00     0.006 C 
BRANCH   6   7
ATOM      7  C   UNL     1      30.963  32.762   1.036  1.00  0.00     0.053 C 
BRANCH   7   8
ATOM      8  C   UNL     1      31.864  32.940  -0.144  1.00  0.00     0.041 C 
ATOM      9  O   UNL     1      33.023  33.407   0.008  1.00  0.00    -0.550 OA
ATOM     10  O   UNL     1      31.407  32.639  -1.421  1.00  0.00    -0.550 OA
ENDBRANCH   7   8
ENDBRANCH   6   7
ENDBRANCH   5   6
ENDBRANCH   4   5
ENDBRANCH   3   4
ENDBRANCH   2   3
ENDBRANCH   1   2
BRANCH   1  11
ATOM     11  C   UNL     1      26.322  33.527   1.167  1.00  0.00     0.000 C 
BRANCH  11  12
ATOM     12  C   UNL     1      25.266  34.568   1.592  1.00  0.00    -0.000 C 
BRANCH  12  13
ATOM     13  C   UNL     1      25.298  35.894   0.806  1.00  0.00    -0.000 C 
BRANCH  13  14
ATOM     14  C   UNL     1      25.729  37.129   1.619  1.00  0.00    -0.000 C 
BRANCH  14  15
ATOM     15  C   UNL     1      27.191  37.053   2.088  1.00  0.00    -0.000 C 
BRANCH  15  16
ATOM     16  C   UNL     1      28.198  37.171   0.929  1.00  0.00    -0.000 C 
BRANCH  16  17
ATOM     17  C   UNL     1      29.116  35.950   0.736  1.00  0.00    -0.003 C 
ATOM     18  C   UNL     1      28.952  35.287  -0.631  1.00  0.00     0.004 C 
ENDBRANCH  16  17
ENDBRANCH  15  16
ENDBRANCH  14  15
ENDBRANCH  13  14
ENDBRANCH  12  13
ENDBRANCH  11  12
ENDBRANCH   1  11
TORSDOF 14
ENDMDL
MODEL 9
REMARK VINA RESULT:    -3.340      4.054      6.211
REMARK INTER + INTRA:          -8.646
REMARK INTER:                  -6.647
REMARK INTRA:                  -1.999
REMARK UNBOUND:                -2.573
REMARK SMILES CCCCCCCCCCCCCCCC(=O)[O-]
REMARK SMILES IDX 9 1 10 2 11 3 12 4 13 5 14 6 15 7 16 8 17 9 18 10 8 11 7 12
REMARK SMILES IDX 6 13 5 14 4 15 3 16 2 17 1 18
REMARK H PARENT
REMARK Flexibility Score: inf
ROOT
ATOM      1  C   UNL     1      28.842  35.322   3.265  1.00  0.00     0.000 C 
ENDROOT
BRANCH   1   2
ATOM      2  C   UNL     1      30.130  35.113   2.449  1.00  0.00     0.000 C 
BRANCH   2   3
ATOM      3  C   UNL     1      29.916  34.201   1.230  1.00  0.00     0.000 C 
BRANCH   3   4
ATOM      4  C   UNL     1      30.714  32.888   1.330  1.00  0.00     0.000 C 
BRANCH   4   5
ATOM      5  C   UNL     1      32.204  33.078   1.004  1.00  0.00     0.000 C 
BRANCH   5   6
ATOM      6  C   UNL     1      33.128  32.493   2.083  1.00  0.00     0.006 C 
BRANCH   6   7
ATOM      7  C   UNL     1      33.357  33.501   3.213  1.00  0.00     0.053 C 
BRANCH   7   8
ATOM      8  C   UNL     1      34.090  34.702   2.704  1.00  0.00     0.041 C 
ATOM      9  O   UNL     1      33.603  35.853   2.856  1.00  0.00    -0.550 OA
ATOM     10  O   UNL     1      35.287  34.548   2.017  1.00  0.00    -0.550 OA
ENDBRANCH   7   8
ENDBRANCH   6   7
ENDBRANCH   5   6
ENDBRANCH   4   5
ENDBRANCH   3   4
ENDBRANCH   2   3
ENDBRANCH   1   2
BRANCH   1  11
ATOM     11  C   UNL     1      28.349  34.027   3.937  1.00  0.00     0.000 C 
BRANCH  11  12
ATOM     12  C   UNL     1      26.929  33.586   3.530  1.00  0.00    -0.000 C 
BRANCH  12  13
ATOM     13  C   UNL     1      26.820  32.921   2.143  1.00  0.00    -0.000 C 
BRANCH  13  14
ATOM     14  C   UNL     1      25.508  33.195   1.384  1.00  0.00    -0.000 C 
BRANCH  14  15
ATOM     15  C   UNL     1      25.303  34.685   1.065  1.00  0.00    -0.000 C 
BRANCH  15  16
ATOM     16  C   UNL     1      26.447  35.279   0.223  1.00  0.00    -0.000 C 
BRANCH  16  17
ATOM     17  C   UNL     1      26.917  36.679   0.657  1.00  0.00    -0.003 C 
ATOM     18  C   UNL     1      26.080  37.267   1.793  1.00  0.00     0.004 C 
ENDBRANCH  16  17
ENDBRANCH  15  16
ENDBRANCH  14  15
ENDBRANCH  13  14
ENDBRANCH  12  13
ENDBRANCH  11  12
ENDBRANCH   1  11
TORSDOF 14
ENDMDL
