MODEL 1
REMARK VINA RESULT:    -3.872      0.000      0.000
REMARK INTER + INTRA:          -8.345
REMARK INTER:                  -7.494
REMARK INTRA:                  -0.851
REMARK UNBOUND:                -0.851
REMARK SMILES CCCCCCCCCCCCCCCCCC(=O)[O-]
REMARK SMILES IDX 10 1 11 2 12 3 13 4 14 5 15 6 16 7 17 8 18 9 19 10 20 11
REMARK SMILES IDX 9 12 8 13 7 14 6 15 5 16 4 17 3 18 2 19 1 20
REMARK H PARENT
REMARK Flexibility Score: inf
ROOT
ATOM      1  C   UNL     1      -3.143   5.306  -1.329  1.00  0.00     0.000 C 
ENDROOT
BRANCH   1   2
ATOM      2  C   UNL     1      -3.024   4.472  -2.621  1.00  0.00     0.000 C 
BRANCH   2   3
ATOM      3  C   UNL     1      -3.853   4.989  -3.811  1.00  0.00     0.000 C 
BRANCH   3   4
ATOM      4  C   UNL     1      -5.170   5.650  -3.379  1.00  0.00     0.000 C 
BRANCH   4   5
ATOM      5  C   UNL     1      -5.755   6.501  -4.512  1.00  0.00     0.000 C 
BRANCH   5   6
ATOM      6  C   UNL     1      -6.247   5.616  -5.668  1.00  0.00     0.000 C 
BRANCH   6   7
ATOM      7  C   UNL     1      -7.559   6.124  -6.293  1.00  0.00     0.006 C 
BRANCH   7   8
ATOM      8  C   UNL     1      -7.493   6.337  -7.814  1.00  0.00     0.053 C 
BRANCH   8   9
ATOM      9  C   UNL     1      -7.414   7.789  -8.175  1.00  0.00     0.041 C 
ATOM     10  O   UNL     1      -7.809   8.666  -7.362  1.00  0.00    -0.550 OA
ATOM     11  O   UNL     1      -6.937   8.171  -9.421  1.00  0.00    -0.550 OA
ENDBRANCH   8   9
ENDBRANCH   7   8
ENDBRANCH   6   7
ENDBRANCH   5   6
ENDBRANCH   4   5
ENDBRANCH   3   4
ENDBRANCH   2   3
ENDBRANCH   1   2
BRANCH   1  12
ATOM     12  C   UNL     1      -2.862   4.539  -0.023  1.00  0.00     0.000 C 
BRANCH  12  13
ATOM     13  C   UNL     1      -2.845   3.014  -0.220  1.00  0.00    -0.000 C 
BRANCH  13  14
ATOM     14  C   UNL     1      -3.800   2.284   0.739  1.00  0.00    -0.000 C 
BRANCH  14  15
ATOM     15  C   UNL     1      -4.442   1.040   0.106  1.00  0.00    -0.000 C 
BRANCH  15  16
ATOM     16  C   UNL     1      -3.391   0.205  -0.641  1.00  0.00    -0.000 C 
BRANCH  16  17
ATOM     17  C   UNL     1      -3.895  -1.204  -0.994  1.00  0.00    -0.000 C 
BRANCH  17  18
ATOM     18  C   UNL     1      -3.740  -1.531  -2.487  1.00  0.00    -0.000 C 
BRANCH  18  19
ATOM     19  C   UNL     1      -3.805  -3.045  -2.726  1.00  0.00    -0.003 C 
ATOM     20  C   UNL     1      -3.772  -3.813  -1.408  1.00  0.00     0.004 C 
ENDBRANCH  18  19
ENDBRANCH  17  18
ENDBRANCH  16  17
ENDBRANCH  15  16
ENDBRANCH  14  15
ENDBRANCH  13  14
ENDBRANCH  12  13
ENDBRANCH   1  12
TORSDOF 16
ENDMDL
MODEL 2
REMARK VINA RESULT:    -3.651      0.812      1.714
REMARK INTER + INTRA:          -7.916
REMARK INTER:                  -6.996
REMARK INTRA:                  -0.920
REMARK UNBOUND:                -0.851
REMARK SMILES CCCCCCCCCCCCCCCCCC(=O)[O-]
REMARK SMILES IDX 10 1 11 2 12 3 13 4 14 5 15 6 16 7 17 8 18 9 19 10 20 11
REMARK SMILES IDX 9 12 8 13 7 14 6 15 5 16 4 17 3 18 2 19 1 20
REMARK H PARENT
REMARK Flexibility Score: inf
ROOT
ATOM      1  C   UNL     1      -3.406   4.389  -2.433  1.00  0.00     0.000 C 
ENDROOT
BRANCH   1   2
ATOM      2  C   UNL     1      -3.830   5.140  -3.713  1.00  0.00     0.000 C 
BRANCH   2   3
ATOM      3  C   UNL     1      -5.301   5.591  -3.749  1.00  0.00     0.000 C 
BRANCH   3   4
ATOM      4  C   UNL     1      -5.647   6.402  -5.006  1.00  0.00     0.000 C 
BRANCH   4   5
ATOM      5  C   UNL     1      -6.931   5.880  -5.661  1.00  0.00     0.000 C 
BRANCH   5   6
ATOM      6  C   UNL     1      -6.787   5.828  -7.189  1.00  0.00     0.000 C 
BRANCH   6   7
ATOM      7  C   UNL     1      -7.908   6.588  -7.921  1.00  0.00     0.006 C 
BRANCH   7   8
ATOM      8  C   UNL     1      -7.460   7.909  -8.567  1.00  0.00     0.053 C 
BRANCH   8   9
ATOM      9  C   UNL     1      -7.243   8.987  -7.549  1.00  0.00     0.041 C 
ATOM     10  O   UNL     1      -6.082   9.420  -7.324  1.00  0.00    -0.550 OA
ATOM     11  O   UNL     1      -8.317   9.488  -6.827  1.00  0.00    -0.550 OA
ENDBRANCH   8   9
ENDBRANCH   7   8
ENDBRANCH   6   7
ENDBRANCH   5   6
ENDBRANCH   4   5
ENDBRANCH   3   4
ENDBRANCH   2   3
ENDBRANCH   1   2
BRANCH   1  12
ATOM     12  C   UNL     1      -3.183   5.275  -1.194  1.00  0.00     0.000 C 
BRANCH  12  13
ATOM     13  C   UNL     1      -2.796   4.466   0.056  1.00  0.00    -0.000 C 
BRANCH  13  14
ATOM     14  C   UNL     1      -2.927   2.949  -0.160  1.00  0.00    -0.000 C 
BRANCH  14  15
ATOM     15  C   UNL     1      -4.008   2.313   0.729  1.00  0.00    -0.000 C 
BRANCH  15  16
ATOM     16  C   UNL     1      -4.472   0.970   0.147  1.00  0.00    -0.000 C 
BRANCH  16  17
ATOM     17  C   UNL     1      -3.431   0.339  -0.793  1.00  0.00    -0.000 C 
BRANCH  17  18
ATOM     18  C   UNL     1      -3.657  -1.166  -1.001  1.00  0.00    -0.000 C 
BRANCH  18  19
ATOM     19  C   UNL     1      -3.964  -1.477  -2.470  1.00  0.00    -0.003 C 
ATOM     20  C   UNL     1      -3.796  -2.964  -2.766  1.00  0.00     0.004 C 
ENDBRANCH  18  19
ENDBRANCH  17  18
ENDBRANCH  16  17
ENDBRANCH  15  16
ENDBRANCH  14  15
ENDBRANCH  13  14
ENDBRANCH  12  13
ENDBRANCH   1  12
TORSDOF 16
ENDMDL
MODEL 3
REMARK VINA RESULT:    -3.442      4.501      9.481
REMARK INTER + INTRA:          -7.511
REMARK INTER:                  -6.638
REMARK INTRA:                  -0.874
REMARK UNBOUND:                -0.851
REMARK SMILES CCCCCCCCCCCCCCCCCC(=O)[O-]
REMARK SMILES IDX 10 1 11 2 12 3 13 4 14 5 15 6 16 7 17 8 18 9 19 10 20 11
REMARK SMILES IDX 9 12 8 13 7 14 6 15 5 16 4 17 3 18 2 19 1 20
REMARK H PARENT
REMARK Flexibility Score: inf
ROOT
ATOM      1  C   UNL     1      -2.699   4.860  -2.259  1.00  0.00     0.000 C 
ENDROOT
BRANCH   1   2
ATOM      2  C   UNL     1      -3.381   5.189  -0.915  1.00  0.00     0.000 C 
BRANCH   2   3
ATOM      3  C   UNL     1      -3.272   4.093   0.160  1.00  0.00     0.000 C 
BRANCH   3   4
ATOM      4  C   UNL     1      -2.650   2.794  -0.373  1.00  0.00     0.000 C 
BRANCH   4   5
ATOM      5  C   UNL     1      -3.552   1.590  -0.075  1.00  0.00     0.000 C 
BRANCH   5   6
ATOM      6  C   UNL     1      -2.988   0.310  -0.711  1.00  0.00     0.000 C 
BRANCH   6   7
ATOM      7  C   UNL     1      -4.084  -0.706  -1.079  1.00  0.00     0.006 C 
BRANCH   7   8
ATOM      8  C   UNL     1      -3.825  -1.469  -2.389  1.00  0.00     0.053 C 
BRANCH   8   9
ATOM      9  C   UNL     1      -3.804  -2.953  -2.180  1.00  0.00     0.041 C 
ATOM     10  O   UNL     1      -3.826  -3.731  -3.170  1.00  0.00    -0.550 OA
ATOM     11  O   UNL     1      -3.795  -3.475  -0.894  1.00  0.00    -0.550 OA
ENDBRANCH   8   9
ENDBRANCH   7   8
ENDBRANCH   6   7
ENDBRANCH   5   6
ENDBRANCH   4   5
ENDBRANCH   3   4
ENDBRANCH   2   3
ENDBRANCH   1   2
BRANCH   1  12
ATOM     12  C   UNL     1      -3.656   4.586  -3.433  1.00  0.00     0.000 C 
BRANCH  12  13
ATOM     13  C   UNL     1      -4.810   5.600  -3.510  1.00  0.00    -0.000 C 
BRANCH  13  14
ATOM     14  C   UNL     1      -5.289   5.841  -4.951  1.00  0.00    -0.000 C 
BRANCH  14  15
ATOM     15  C   UNL     1      -6.763   6.270  -5.024  1.00  0.00    -0.000 C 
BRANCH  15  16
ATOM     16  C   UNL     1      -7.366   5.919  -6.392  1.00  0.00    -0.000 C 
BRANCH  16  17
ATOM     17  C   UNL     1      -6.820   6.804  -7.525  1.00  0.00    -0.000 C 
BRANCH  17  18
ATOM     18  C   UNL     1      -7.926   7.591  -8.245  1.00  0.00    -0.000 C 
BRANCH  18  19
ATOM     19  C   UNL     1      -7.690   9.102  -8.125  1.00  0.00    -0.003 C 
ATOM     20  C   UNL     1      -6.322   9.400  -7.518  1.00  0.00     0.004 C 
ENDBRANCH  18  19
ENDBRANCH  17  18
ENDBRANCH  16  17
ENDBRANCH  15  16
ENDBRANCH  14  15
ENDBRANCH  13  14
ENDBRANCH  12  13
ENDBRANCH   1  12
TORSDOF 16
ENDMDL
MODEL 4
REMARK VINA RESULT:    -3.278      4.183      9.616
REMARK INTER + INTRA:          -7.195
REMARK INTER:                  -6.201
REMARK INTRA:                  -0.994
REMARK UNBOUND:                -0.851
REMARK SMILES CCCCCCCCCCCCCCCCCC(=O)[O-]
REMARK SMILES IDX 10 1 11 2 12 3 13 4 14 5 15 6 16 7 17 8 18 9 19 10 20 11
REMARK SMILES IDX 9 12 8 13 7 14 6 15 5 16 4 17 3 18 2 19 1 20
REMARK H PARENT
REMARK Flexibility Score: inf
ROOT
ATOM      1  C   UNL     1      -3.754   5.150  -3.784  1.00  0.00     0.000 C 
ENDROOT
BRANCH   1   2
ATOM      2  C   UNL     1      -3.219   4.370  -2.564  1.00  0.00     0.000 C 
BRANCH   2   3
ATOM      3  C   UNL     1      -3.189   5.162  -1.245  1.00  0.00     0.000 C 
BRANCH   3   4
ATOM      4  C   UNL     1      -3.017   4.263  -0.012  1.00  0.00     0.000 C 
BRANCH   4   5
ATOM      5  C   UNL     1      -2.530   2.866  -0.414  1.00  0.00     0.000 C 
BRANCH   5   6
ATOM      6  C   UNL     1      -3.551   1.791  -0.012  1.00  0.00     0.000 C 
BRANCH   6   7
ATOM      7  C   UNL     1      -3.131   0.376  -0.450  1.00  0.00     0.006 C 
BRANCH   7   8
ATOM      8  C   UNL     1      -4.306  -0.555  -0.793  1.00  0.00     0.053 C 
BRANCH   8   9
ATOM      9  C   UNL     1      -3.882  -1.696  -1.668  1.00  0.00     0.041 C 
ATOM     10  O   UNL     1      -3.626  -1.499  -2.884  1.00  0.00    -0.550 OA
ATOM     11  O   UNL     1      -3.804  -2.980  -1.146  1.00  0.00    -0.550 OA
ENDBRANCH   8   9
ENDBRANCH   7   8
ENDBRANCH   6   7
ENDBRANCH   5   6
ENDBRANCH   4   5
ENDBRANCH   3   4
ENDBRANCH   2   3
ENDBRANCH   1   2
BRANCH   1  12
ATOM     12  C   UNL     1      -5.228   5.587  -3.691  1.00  0.00     0.000 C 
BRANCH  12  13
ATOM     13  C   UNL     1      -5.652   6.503  -4.851  1.00  0.00    -0.000 C 
BRANCH  13  14
ATOM     14  C   UNL     1      -6.892   5.979  -5.594  1.00  0.00    -0.000 C 
BRANCH  14  15
ATOM     15  C   UNL     1      -6.679   5.880  -7.112  1.00  0.00    -0.000 C 
BRANCH  15  16
ATOM     16  C   UNL     1      -7.924   6.365  -7.871  1.00  0.00    -0.000 C 
BRANCH  16  17
ATOM     17  C   UNL     1      -7.805   7.827  -8.332  1.00  0.00    -0.000 C 
BRANCH  17  18
ATOM     18  C   UNL     1      -6.368   8.212  -8.714  1.00  0.00    -0.000 C 
BRANCH  18  19
ATOM     19  C   UNL     1      -6.058   9.654  -8.295  1.00  0.00    -0.003 C 
ATOM     20  C   UNL     1      -6.964  10.103  -7.152  1.00  0.00     0.004 C 
ENDBRANCH  18  19
ENDBRANCH  17  18
ENDBRANCH  16  17
ENDBRANCH  15  16
ENDBRANCH  14  15
ENDBRANCH  13  14
ENDBRANCH  12  13
ENDBRANCH   1  12
TORSDOF 16
ENDMDL
MODEL 5
REMARK VINA RESULT:    -3.085      4.443      9.130
REMARK INTER + INTRA:          -6.821
REMARK INTER:                  -5.818
REMARK INTRA:                  -1.003
REMARK UNBOUND:                -0.851
REMARK SMILES CCCCCCCCCCCCCCCCCC(=O)[O-]
REMARK SMILES IDX 10 1 11 2 12 3 13 4 14 5 15 6 16 7 17 8 18 9 19 10 20 11
REMARK SMILES IDX 9 12 8 13 7 14 6 15 5 16 4 17 3 18 2 19 1 20
REMARK H PARENT
REMARK Flexibility Score: inf
ROOT
ATOM      1  C   UNL     1      -3.238   5.002  -1.150  1.00  0.00     0.000 C 
ENDROOT
BRANCH   1   2
ATOM      2  C   UNL     1      -2.798   4.116   0.034  1.00  0.00     0.000 C 
BRANCH   2   3
ATOM      3  C   UNL     1      -3.923   3.292   0.686  1.00  0.00     0.000 C 
BRANCH   3   4
ATOM      4  C   UNL     1      -3.878   1.807   0.297  1.00  0.00     0.000 C 
BRANCH   4   5
ATOM      5  C   UNL     1      -2.504   1.427  -0.265  1.00  0.00     0.000 C 
BRANCH   5   6
ATOM      6  C   UNL     1      -2.449  -0.066  -0.621  1.00  0.00     0.000 C 
BRANCH   6   7
ATOM      7  C   UNL     1      -3.810  -0.620  -1.081  1.00  0.00     0.006 C 
BRANCH   7   8
ATOM      8  C   UNL     1      -3.761  -1.401  -2.404  1.00  0.00     0.053 C 
BRANCH   8   9
ATOM      9  C   UNL     1      -3.835  -2.882  -2.186  1.00  0.00     0.041 C 
ATOM     10  O   UNL     1      -3.786  -3.353  -1.019  1.00  0.00    -0.550 OA
ATOM     11  O   UNL     1      -3.923  -3.742  -3.272  1.00  0.00    -0.550 OA
ENDBRANCH   8   9
ENDBRANCH   7   8
ENDBRANCH   6   7
ENDBRANCH   5   6
ENDBRANCH   4   5
ENDBRANCH   3   4
ENDBRANCH   2   3
ENDBRANCH   1   2
BRANCH   1  12
ATOM     12  C   UNL     1      -2.988   4.406  -2.547  1.00  0.00     0.000 C 
BRANCH  12  13
ATOM     13  C   UNL     1      -3.745   5.153  -3.658  1.00  0.00    -0.000 C 
BRANCH  13  14
ATOM     14  C   UNL     1      -5.144   5.611  -3.214  1.00  0.00    -0.000 C 
BRANCH  14  15
ATOM     15  C   UNL     1      -5.816   6.544  -4.233  1.00  0.00    -0.000 C 
BRANCH  15  16
ATOM     16  C   UNL     1      -6.138   5.790  -5.532  1.00  0.00    -0.000 C 
BRANCH  16  17
ATOM     17  C   UNL     1      -7.321   6.406  -6.297  1.00  0.00    -0.000 C 
BRANCH  17  18
ATOM     18  C   UNL     1      -7.138   6.343  -7.821  1.00  0.00    -0.000 C 
BRANCH  18  19
ATOM     19  C   UNL     1      -7.536   7.671  -8.476  1.00  0.00    -0.003 C 
ATOM     20  C   UNL     1      -6.769   8.840  -7.863  1.00  0.00     0.004 C 
ENDBRANCH  18  19
ENDBRANCH  17  18
ENDBRANCH  16  17
ENDBRANCH  15  16
ENDBRANCH  14  15
ENDBRANCH  13  14
ENDBRANCH  12  13
ENDBRANCH   1  12
TORSDOF 16
ENDMDL
MODEL 6
REMARK VINA RESULT:    -3.082      0.859      1.664
REMARK INTER + INTRA:          -6.816
REMARK INTER:                  -5.944
REMARK INTRA:                  -0.873
REMARK UNBOUND:                -0.851
REMARK SMILES CCCCCCCCCCCCCCCCCC(=O)[O-]
REMARK SMILES IDX 10 1 11 2 12 3 13 4 14 5 15 6 16 7 17 8 18 9 19 10 20 11
REMARK SMILES IDX 9 12 8 13 7 14 6 15 5 16 4 17 3 18 2 19 1 20
REMARK H PARENT
REMARK Flexibility Score: inf
ROOT
ATOM      1  C   UNL     1      -2.817   4.439   0.063  1.00  0.00     0.000 C 
ENDROOT
BRANCH   1   2
ATOM      2  C   UNL     1      -3.123   5.211  -1.237  1.00  0.00     0.000 C 
BRANCH   2   3
ATOM      3  C   UNL     1      -3.090   4.365  -2.522  1.00  0.00     0.000 C 
BRANCH   3   4
ATOM      4  C   UNL     1      -3.710   5.086  -3.728  1.00  0.00     0.000 C 
BRANCH   4   5
ATOM      5  C   UNL     1      -5.134   5.559  -3.414  1.00  0.00     0.000 C 
BRANCH   5   6
ATOM      6  C   UNL     1      -5.655   6.499  -4.511  1.00  0.00     0.000 C 
BRANCH   6   7
ATOM      7  C   UNL     1      -6.198   5.743  -5.737  1.00  0.00     0.006 C 
BRANCH   7   8
ATOM      8  C   UNL     1      -7.553   6.259  -6.249  1.00  0.00     0.053 C 
BRANCH   8   9
ATOM      9  C   UNL     1      -7.431   6.930  -7.583  1.00  0.00     0.041 C 
ATOM     10  O   UNL     1      -8.195   7.884  -7.883  1.00  0.00    -0.550 OA
ATOM     11  O   UNL     1      -6.499   6.478  -8.507  1.00  0.00    -0.550 OA
ENDBRANCH   8   9
ENDBRANCH   7   8
ENDBRANCH   6   7
ENDBRANCH   5   6
ENDBRANCH   4   5
ENDBRANCH   3   4
ENDBRANCH   2   3
ENDBRANCH   1   2
BRANCH   1  12
ATOM     12  C   UNL     1      -3.748   3.248   0.356  1.00  0.00     0.000 C 
BRANCH  12  13
ATOM     13  C   UNL     1      -3.028   1.891   0.257  1.00  0.00    -0.000 C 
BRANCH  13  14
ATOM     14  C   UNL     1      -4.001   0.724   0.016  1.00  0.00    -0.000 C 
BRANCH  14  15
ATOM     15  C   UNL     1      -3.951   0.197  -1.426  1.00  0.00    -0.000 C 
BRANCH  15  16
ATOM     16  C   UNL     1      -3.232  -1.159  -1.487  1.00  0.00    -0.000 C 
BRANCH  16  17
ATOM     17  C   UNL     1      -3.817  -2.092  -2.561  1.00  0.00    -0.000 C 
BRANCH  17  18
ATOM     18  C   UNL     1      -4.024  -3.526  -2.049  1.00  0.00    -0.000 C 
BRANCH  18  19
ATOM     19  C   UNL     1      -3.531  -3.668  -0.604  1.00  0.00    -0.003 C 
ATOM     20  C   UNL     1      -4.497  -4.507   0.228  1.00  0.00     0.004 C 
ENDBRANCH  18  19
ENDBRANCH  17  18
ENDBRANCH  16  17
ENDBRANCH  15  16
ENDBRANCH  14  15
ENDBRANCH  13  14
ENDBRANCH  12  13
ENDBRANCH   1  12
TORSDOF 16
ENDMDL
MODEL 7
REMARK VINA RESULT:    -2.547      5.101      9.792
REMARK INTER + INTRA:          -5.780
REMARK INTER:                  -5.173
REMARK INTRA:                  -0.607
REMARK UNBOUND:                -0.851
REMARK SMILES CCCCCCCCCCCCCCCCCC(=O)[O-]
REMARK SMILES IDX 10 1 11 2 12 3 13 4 14 5 15 6 16 7 17 8 18 9 19 10 20 11
REMARK SMILES IDX 9 12 8 13 7 14 6 15 5 16 4 17 3 18 2 19 1 20
REMARK H PARENT
REMARK Flexibility Score: inf
ROOT
ATOM      1  C   UNL     1      -3.156   3.935  -0.024  1.00  0.00     0.000 C 
ENDROOT
BRANCH   1   2
ATOM      2  C   UNL     1      -2.954   2.602  -0.774  1.00  0.00     0.000 C 
BRANCH   2   3
ATOM      3  C   UNL     1      -3.441   1.349  -0.024  1.00  0.00     0.000 C 
BRANCH   3   4
ATOM      4  C   UNL     1      -2.974   0.041  -0.680  1.00  0.00     0.000 C 
BRANCH   4   5
ATOM      5  C   UNL     1      -4.165  -0.759  -1.220  1.00  0.00     0.000 C 
BRANCH   5   6
ATOM      6  C   UNL     1      -3.732  -1.677  -2.373  1.00  0.00     0.000 C 
BRANCH   6   7
ATOM      7  C   UNL     1      -3.922  -3.171  -2.050  1.00  0.00     0.006 C 
BRANCH   7   8
ATOM      8  C   UNL     1      -3.499  -3.570  -0.628  1.00  0.00     0.053 C 
BRANCH   8   9
ATOM      9  C   UNL     1      -4.531  -4.419   0.049  1.00  0.00     0.041 C 
ATOM     10  O   UNL     1      -4.994  -4.080   1.169  1.00  0.00    -0.550 OA
ATOM     11  O   UNL     1      -4.954  -5.602  -0.542  1.00  0.00    -0.550 OA
ENDBRANCH   8   9
ENDBRANCH   7   8
ENDBRANCH   6   7
ENDBRANCH   5   6
ENDBRANCH   4   5
ENDBRANCH   3   4
ENDBRANCH   2   3
ENDBRANCH   1   2
BRANCH   1  12
ATOM     12  C   UNL     1      -3.031   5.202  -0.889  1.00  0.00     0.000 C 
BRANCH  12  13
ATOM     13  C   UNL     1      -3.383   4.953  -2.366  1.00  0.00    -0.000 C 
BRANCH  13  14
ATOM     14  C   UNL     1      -4.630   5.733  -2.815  1.00  0.00    -0.000 C 
BRANCH  14  15
ATOM     15  C   UNL     1      -5.160   5.272  -4.181  1.00  0.00    -0.000 C 
BRANCH  15  16
ATOM     16  C   UNL     1      -5.869   6.424  -4.908  1.00  0.00    -0.000 C 
BRANCH  16  17
ATOM     17  C   UNL     1      -6.983   5.936  -5.849  1.00  0.00    -0.000 C 
BRANCH  17  18
ATOM     18  C   UNL     1      -6.727   6.316  -7.315  1.00  0.00    -0.000 C 
BRANCH  18  19
ATOM     19  C   UNL     1      -7.421   7.637  -7.668  1.00  0.00    -0.003 C 
ATOM     20  C   UNL     1      -6.606   8.435  -8.682  1.00  0.00     0.004 C 
ENDBRANCH  18  19
ENDBRANCH  17  18
ENDBRANCH  16  17
ENDBRANCH  15  16
ENDBRANCH  14  15
ENDBRANCH  13  14
ENDBRANCH  12  13
ENDBRANCH   1  12
TORSDOF 16
ENDMDL
MODEL 8
REMARK VINA RESULT:    -2.015      4.236      9.985
REMARK INTER + INTRA:          -4.751
REMARK INTER:                  -3.630
REMARK INTRA:                  -1.121
REMARK UNBOUND:                -0.851
REMARK SMILES CCCCCCCCCCCCCCCCCC(=O)[O-]
REMARK SMILES IDX 10 1 11 2 12 3 13 4 14 5 15 6 16 7 17 8 18 9 19 10 20 11
REMARK SMILES IDX 9 12 8 13 7 14 6 15 5 16 4 17 3 18 2 19 1 20
REMARK H PARENT
REMARK Flexibility Score: inf
ROOT
ATOM      1  C   UNL     1      -6.114   6.367  -4.103  1.00  0.00     0.000 C 
ENDROOT
BRANCH   1   2
ATOM      2  C   UNL     1      -4.882   5.945  -3.275  1.00  0.00     0.000 C 
BRANCH   2   3
ATOM      3  C   UNL     1      -4.021   4.834  -3.904  1.00  0.00     0.000 C 
BRANCH   3   4
ATOM      4  C   UNL     1      -2.961   4.282  -2.941  1.00  0.00     0.000 C 
BRANCH   4   5
ATOM      5  C   UNL     1      -2.747   5.231  -1.756  1.00  0.00     0.000 C 
BRANCH   5   6
ATOM      6  C   UNL     1      -3.321   4.633  -0.462  1.00  0.00     0.000 C 
BRANCH   6   7
ATOM      7  C   UNL     1      -2.627   3.322  -0.052  1.00  0.00     0.006 C 
BRANCH   7   8
ATOM      8  C   UNL     1      -3.576   2.119   0.082  1.00  0.00     0.053 C 
BRANCH   8   9
ATOM      9  C   UNL     1      -2.914   0.835  -0.315  1.00  0.00     0.041 C 
ATOM     10  O   UNL     1      -1.679   0.677  -0.132  1.00  0.00    -0.550 OA
ATOM     11  O   UNL     1      -3.656  -0.172  -0.917  1.00  0.00    -0.550 OA
ENDBRANCH   8   9
ENDBRANCH   7   8
ENDBRANCH   6   7
ENDBRANCH   5   6
ENDBRANCH   4   5
ENDBRANCH   3   4
ENDBRANCH   2   3
ENDBRANCH   1   2
BRANCH   1  12
ATOM     12  C   UNL     1      -6.084   5.952  -5.585  1.00  0.00     0.000 C 
BRANCH  12  13
ATOM     13  C   UNL     1      -7.383   6.306  -6.330  1.00  0.00    -0.000 C 
BRANCH  13  14
ATOM     14  C   UNL     1      -7.245   6.167  -7.855  1.00  0.00    -0.000 C 
BRANCH  14  15
ATOM     15  C   UNL     1      -8.565   6.429  -8.597  1.00  0.00    -0.000 C 
BRANCH  15  16
ATOM     16  C   UNL     1      -8.851   7.936  -8.686  1.00  0.00    -0.000 C 
BRANCH  16  17
ATOM     17  C   UNL     1      -8.247   8.581  -9.944  1.00  0.00    -0.000 C 
BRANCH  17  18
ATOM     18  C   UNL     1      -7.414   9.832  -9.625  1.00  0.00    -0.000 C 
BRANCH  18  19
ATOM     19  C   UNL     1      -6.060   9.449  -9.019  1.00  0.00    -0.003 C 
ATOM     20  C   UNL     1      -6.014   9.765  -7.526  1.00  0.00     0.004 C 
ENDBRANCH  18  19
ENDBRANCH  17  18
ENDBRANCH  16  17
ENDBRANCH  15  16
ENDBRANCH  14  15
ENDBRANCH  13  14
ENDBRANCH  12  13
ENDBRANCH   1  12
TORSDOF 16
ENDMDL
