MODEL 1
REMARK VINA RESULT:    -3.623      0.000      0.000
REMARK INTER + INTRA:          -4.305
REMARK INTER:                  -4.258
REMARK INTRA:                  -0.047
REMARK UNBOUND:                -0.047
REMARK SMILES CCCCC(=O)[O-]
REMARK SMILES IDX 4 1 5 2 6 3 7 4 3 5 2 6 1 7
REMARK H PARENT
REMARK Flexibility Score: inf
ROOT
ATOM      1  C   UNL     1      -3.489  36.178  17.098  1.00  0.00     0.053 C 
ENDROOT
BRANCH   1   2
ATOM      2  C   UNL     1      -3.273  37.011  18.324  1.00  0.00     0.041 C 
ATOM      3  O   UNL     1      -4.212  37.187  19.143  1.00  0.00    -0.550 OA
ATOM      4  O   UNL     1      -2.045  37.622  18.546  1.00  0.00    -0.550 OA
ENDBRANCH   1   2
BRANCH   1   5
ATOM      5  C   UNL     1      -2.341  36.315  16.081  1.00  0.00     0.006 C 
BRANCH   5   6
ATOM      6  C   UNL     1      -2.808  36.350  14.616  1.00  0.00    -0.003 C 
ATOM      7  C   UNL     1      -3.964  37.319  14.375  1.00  0.00     0.004 C 
ENDBRANCH   5   6
ENDBRANCH   1   5
TORSDOF 3
ENDMDL
MODEL 2
REMARK VINA RESULT:    -3.482      1.086      1.512
REMARK INTER + INTRA:          -4.139
REMARK INTER:                  -4.118
REMARK INTRA:                  -0.022
REMARK UNBOUND:                -0.047
REMARK SMILES CCCCC(=O)[O-]
REMARK SMILES IDX 4 1 5 2 6 3 7 4 3 5 2 6 1 7
REMARK H PARENT
REMARK Flexibility Score: inf
ROOT
ATOM      1  C   UNL     1      -3.087  36.877  17.639  1.00  0.00     0.053 C 
ENDROOT
BRANCH   1   2
ATOM      2  C   UNL     1      -3.864  36.527  18.871  1.00  0.00     0.041 C 
ATOM      3  O   UNL     1      -3.809  37.267  19.887  1.00  0.00    -0.550 OA
ATOM      4  O   UNL     1      -4.625  35.364  18.910  1.00  0.00    -0.550 OA
ENDBRANCH   1   2
BRANCH   1   5
ATOM      5  C   UNL     1      -3.303  35.867  16.498  1.00  0.00     0.006 C 
BRANCH   5   6
ATOM      6  C   UNL     1      -2.868  36.387  15.116  1.00  0.00    -0.003 C 
ATOM      7  C   UNL     1      -3.940  37.227  14.424  1.00  0.00     0.004 C 
ENDBRANCH   5   6
ENDBRANCH   1   5
TORSDOF 3
ENDMDL
MODEL 3
REMARK VINA RESULT:    -3.431      1.464      1.953
REMARK INTER + INTRA:          -4.080
REMARK INTER:                  -4.062
REMARK INTRA:                  -0.018
REMARK UNBOUND:                -0.047
REMARK SMILES CCCCC(=O)[O-]
REMARK SMILES IDX 4 1 5 2 6 3 7 4 3 5 2 6 1 7
REMARK H PARENT
REMARK Flexibility Score: inf
ROOT
ATOM      1  C   UNL     1      -3.357  37.073  18.329  1.00  0.00     0.053 C 
ENDROOT
BRANCH   1   2
ATOM      2  C   UNL     1      -4.298  36.694  19.432  1.00  0.00     0.041 C 
ATOM      3  O   UNL     1      -4.253  35.541  19.935  1.00  0.00    -0.550 OA
ATOM      4  O   UNL     1      -5.249  37.602  19.883  1.00  0.00    -0.550 OA
ENDBRANCH   1   2
BRANCH   1   5
ATOM      5  C   UNL     1      -3.415  36.095  17.142  1.00  0.00     0.006 C 
BRANCH   5   6
ATOM      6  C   UNL     1      -2.366  36.377  16.052  1.00  0.00    -0.003 C 
ATOM      7  C   UNL     1      -2.947  36.365  14.639  1.00  0.00     0.004 C 
ENDBRANCH   5   6
ENDBRANCH   1   5
TORSDOF 3
ENDMDL
MODEL 4
REMARK VINA RESULT:    -3.344      2.126      2.728
REMARK INTER + INTRA:          -3.978
REMARK INTER:                  -3.931
REMARK INTRA:                  -0.047
REMARK UNBOUND:                -0.047
REMARK SMILES CCCCC(=O)[O-]
REMARK SMILES IDX 4 1 5 2 6 3 7 4 3 5 2 6 1 7
REMARK H PARENT
REMARK Flexibility Score: inf
ROOT
ATOM      1  C   UNL     1      -4.152  37.088  19.158  1.00  0.00     0.053 C 
ENDROOT
BRANCH   1   2
ATOM      2  C   UNL     1      -4.464  35.726  19.699  1.00  0.00     0.041 C 
ATOM      3  O   UNL     1      -4.270  35.468  20.915  1.00  0.00    -0.550 OA
ATOM      4  O   UNL     1      -4.938  34.730  18.854  1.00  0.00    -0.550 OA
ENDBRANCH   1   2
BRANCH   1   5
ATOM      5  C   UNL     1      -2.883  37.100  18.287  1.00  0.00     0.006 C 
BRANCH   5   6
ATOM      6  C   UNL     1      -3.158  36.921  16.784  1.00  0.00    -0.003 C 
ATOM      7  C   UNL     1      -2.020  36.222  16.043  1.00  0.00     0.004 C 
ENDBRANCH   5   6
ENDBRANCH   1   5
TORSDOF 3
ENDMDL
MODEL 5
REMARK VINA RESULT:    -3.318      2.308      4.102
REMARK INTER + INTRA:          -3.947
REMARK INTER:                  -3.930
REMARK INTRA:                  -0.017
REMARK UNBOUND:                -0.047
REMARK SMILES CCCCC(=O)[O-]
REMARK SMILES IDX 4 1 5 2 6 3 7 4 3 5 2 6 1 7
REMARK H PARENT
REMARK Flexibility Score: inf
ROOT
ATOM      1  C   UNL     1      -2.870  37.187  17.978  1.00  0.00     0.053 C 
ENDROOT
BRANCH   1   2
ATOM      2  C   UNL     1      -2.770  36.772  16.542  1.00  0.00     0.041 C 
ATOM      3  O   UNL     1      -1.977  35.856  16.201  1.00  0.00    -0.550 OA
ATOM      4  O   UNL     1      -3.527  37.419  15.573  1.00  0.00    -0.550 OA
ENDBRANCH   1   2
BRANCH   1   5
ATOM      5  C   UNL     1      -3.933  36.386  18.751  1.00  0.00     0.006 C 
BRANCH   5   6
ATOM      6  C   UNL     1      -4.645  37.195  19.850  1.00  0.00    -0.003 C 
ATOM      7  C   UNL     1      -5.478  36.328  20.792  1.00  0.00     0.004 C 
ENDBRANCH   5   6
ENDBRANCH   1   5
TORSDOF 3
ENDMDL
MODEL 6
REMARK VINA RESULT:    -3.297      2.680      4.546
REMARK INTER + INTRA:          -3.923
REMARK INTER:                  -3.904
REMARK INTRA:                  -0.019
REMARK UNBOUND:                -0.047
REMARK SMILES CCCCC(=O)[O-]
REMARK SMILES IDX 4 1 5 2 6 3 7 4 3 5 2 6 1 7
REMARK H PARENT
REMARK Flexibility Score: inf
ROOT
ATOM      1  C   UNL     1      -4.261  37.154  19.393  1.00  0.00     0.053 C 
ENDROOT
BRANCH   1   2
ATOM      2  C   UNL     1      -3.130  37.161  18.411  1.00  0.00     0.041 C 
ATOM      3  O   UNL     1      -3.299  36.710  17.248  1.00  0.00    -0.550 OA
ATOM      4  O   UNL     1      -1.880  37.635  18.788  1.00  0.00    -0.550 OA
ENDBRANCH   1   2
BRANCH   1   5
ATOM      5  C   UNL     1      -4.366  35.825  20.162  1.00  0.00     0.006 C 
BRANCH   5   6
ATOM      6  C   UNL     1      -5.804  35.447  20.560  1.00  0.00    -0.003 C 
ATOM      7  C   UNL     1      -6.035  35.463  22.070  1.00  0.00     0.004 C 
ENDBRANCH   5   6
ENDBRANCH   1   5
TORSDOF 3
ENDMDL
MODEL 7
REMARK VINA RESULT:    -3.209      4.305      6.393
REMARK INTER + INTRA:          -3.819
REMARK INTER:                  -3.794
REMARK INTRA:                  -0.025
REMARK UNBOUND:                -0.047
REMARK SMILES CCCCC(=O)[O-]
REMARK SMILES IDX 4 1 5 2 6 3 7 4 3 5 2 6 1 7
REMARK H PARENT
REMARK Flexibility Score: inf
ROOT
ATOM      1  C   UNL     1      -5.312  35.534  20.733  1.00  0.00     0.053 C 
ENDROOT
BRANCH   1   2
ATOM      2  C   UNL     1      -4.994  36.842  20.076  1.00  0.00     0.041 C 
ATOM      3  O   UNL     1      -4.110  36.904  19.182  1.00  0.00    -0.550 OA
ATOM      4  O   UNL     1      -5.649  38.001  20.474  1.00  0.00    -0.550 OA
ENDBRANCH   1   2
BRANCH   1   5
ATOM      5  C   UNL     1      -6.124  35.706  22.029  1.00  0.00     0.006 C 
BRANCH   5   6
ATOM      6  C   UNL     1      -5.552  34.933  23.230  1.00  0.00    -0.003 C 
ATOM      7  C   UNL     1      -6.125  35.391  24.570  1.00  0.00     0.004 C 
ENDBRANCH   5   6
ENDBRANCH   1   5
TORSDOF 3
ENDMDL
MODEL 8
REMARK VINA RESULT:    -3.029      2.507      3.949
REMARK INTER + INTRA:          -3.608
REMARK INTER:                  -3.561
REMARK INTRA:                  -0.046
REMARK UNBOUND:                -0.047
REMARK SMILES CCCCC(=O)[O-]
REMARK SMILES IDX 4 1 5 2 6 3 7 4 3 5 2 6 1 7
REMARK H PARENT
REMARK Flexibility Score: inf
ROOT
ATOM      1  C   UNL     1      -2.486  36.486  16.347  1.00  0.00     0.053 C 
ENDROOT
BRANCH   1   2
ATOM      2  C   UNL     1      -3.101  36.903  15.047  1.00  0.00     0.041 C 
ATOM      3  O   UNL     1      -2.876  36.243  13.999  1.00  0.00    -0.550 OA
ATOM      4  O   UNL     1      -3.897  38.041  14.983  1.00  0.00    -0.550 OA
ENDBRANCH   1   2
BRANCH   1   5
ATOM      5  C   UNL     1      -3.539  36.107  17.404  1.00  0.00     0.006 C 
BRANCH   5   6
ATOM      6  C   UNL     1      -3.621  37.093  18.582  1.00  0.00    -0.003 C 
ATOM      7  C   UNL     1      -4.097  36.443  19.880  1.00  0.00     0.004 C 
ENDBRANCH   5   6
ENDBRANCH   1   5
TORSDOF 3
ENDMDL
MODEL 9
REMARK VINA RESULT:    -2.986      2.781      3.484
REMARK INTER + INTRA:          -3.557
REMARK INTER:                  -3.525
REMARK INTRA:                  -0.032
REMARK UNBOUND:                -0.047
REMARK SMILES CCCCC(=O)[O-]
REMARK SMILES IDX 4 1 5 2 6 3 7 4 3 5 2 6 1 7
REMARK H PARENT
REMARK Flexibility Score: inf
ROOT
ATOM      1  C   UNL     1      -3.727  36.721  19.796  1.00  0.00     0.053 C 
ENDROOT
BRANCH   1   2
ATOM      2  C   UNL     1      -5.144  36.853  20.265  1.00  0.00     0.041 C 
ATOM      3  O   UNL     1      -5.814  35.828  20.555  1.00  0.00    -0.550 OA
ATOM      4  O   UNL     1      -5.738  38.107  20.350  1.00  0.00    -0.550 OA
ENDBRANCH   1   2
BRANCH   1   5
ATOM      5  C   UNL     1      -3.591  36.894  18.273  1.00  0.00     0.006 C 
BRANCH   5   6
ATOM      6  C   UNL     1      -2.165  37.241  17.811  1.00  0.00    -0.003 C 
ATOM      7  C   UNL     1      -1.260  37.707  18.950  1.00  0.00     0.004 C 
ENDBRANCH   5   6
ENDBRANCH   1   5
TORSDOF 3
ENDMDL
