MODEL 1
REMARK VINA RESULT:    -3.113      0.000      0.000
REMARK INTER + INTRA:          -5.120
REMARK INTER:                  -4.751
REMARK INTRA:                  -0.368
REMARK UNBOUND:                -0.368
REMARK SMILES CC1=CCC[C@@H](C)C(=O)C[C@H](C(C)C)C(=O)C1
REMARK SMILES IDX 8 1 9 2 6 3 7 4 5 5 4 6 3 7 2 8 1 9 10 11 11 12 15 13 16 14
REMARK SMILES IDX 17 15 12 17 13 18 14 19
REMARK H PARENT
REMARK Flexibility Score: 70.00
ROOT
ATOM      1  C   UNL     1      -7.938  37.790  45.667  1.00  0.00     0.136 C 
ATOM      2  O   UNL     1      -9.137  37.966  45.498  1.00  0.00    -0.299 OA
ENDROOT
BRANCH   1   3
ATOM      3  C   UNL     1      -7.008  38.992  45.734  1.00  0.00     0.053 C 
ATOM      4  C   UNL     1      -7.204  39.815  47.018  1.00  0.00     0.016 C 
BRANCH   3   5
ATOM      5  C   UNL     1      -7.125  39.901  44.480  1.00  0.00     0.015 C 
BRANCH   5   6
ATOM      6  C   UNL     1      -6.316  39.331  43.293  1.00  0.00     0.028 C 
BRANCH   6   7
ATOM      7  C   UNL     1      -4.860  39.068  43.585  1.00  0.00    -0.028 C 
ATOM      8  C   UNL     1      -4.253  37.858  43.720  1.00  0.00    -0.070 CG0
ATOM      9  C   UNL     1      -2.830  37.870  44.228  1.00  0.00     0.039 C 
ATOM     10  G   UNL     1      -4.811  36.523  43.225  1.00  0.00     0.000 G0
ENDBRANCH   6   7
ENDBRANCH   5   6
ENDBRANCH   3   5
ENDBRANCH   1   3
BRANCH   1  11
ATOM     11  C   UNL     1      -7.436  36.361  45.740  1.00  0.00     0.087 C 
BRANCH  11  12
ATOM     12  C   UNL     1      -6.976  35.672  44.418  1.00  0.00     0.066 C 
BRANCH  12  13
ATOM     13  C   UNL     1      -5.459  35.592  44.241  1.00  0.00     0.140 C 
ATOM     14  O   UNL     1      -4.820  34.690  44.763  1.00  0.00    -0.299 OA
BRANCH  13  15
ATOM     15  C   UNL     1      -4.782  36.491  43.230  1.00  0.00     0.106 CG0
ATOM     16  G   UNL     1      -4.248  37.834  43.730  1.00  0.00     0.000 G0
ENDBRANCH  13  15
ENDBRANCH  12  13
BRANCH  12  17
ATOM     17  C   UNL     1      -7.750  34.368  44.016  1.00  0.00    -0.006 C 
ATOM     18  C   UNL     1      -7.941  33.421  45.213  1.00  0.00     0.008 C 
ATOM     19  C   UNL     1      -7.153  33.588  42.834  1.00  0.00     0.008 C 
ENDBRANCH  12  17
ENDBRANCH  11  12
ENDBRANCH   1  11
TORSDOF 1
ENDMDL
MODEL 2
REMARK VINA RESULT:    -2.997      2.098      5.286
REMARK INTER + INTRA:          -4.943
REMARK INTER:                  -4.227
REMARK INTRA:                  -0.716
REMARK UNBOUND:                -0.368
REMARK SMILES CC1=CCC[C@@H](C)C(=O)C[C@H](C(C)C)C(=O)C1
REMARK SMILES IDX 8 1 9 2 6 3 7 4 5 5 4 6 3 7 2 8 1 9 10 11 11 12 15 13 16 14
REMARK SMILES IDX 17 15 12 17 13 18 14 19
REMARK H PARENT
REMARK Flexibility Score: 70.00
ROOT
ATOM      1  C   UNL     1      -3.434  35.316  43.778  1.00  0.00     0.136 C 
ATOM      2  O   UNL     1      -2.288  35.066  43.432  1.00  0.00    -0.299 OA
ENDROOT
BRANCH   1   3
ATOM      3  C   UNL     1      -4.478  34.210  43.762  1.00  0.00     0.053 C 
ATOM      4  C   UNL     1      -5.124  34.032  42.378  1.00  0.00     0.016 C 
BRANCH   3   5
ATOM      5  C   UNL     1      -5.568  34.408  44.851  1.00  0.00     0.015 C 
BRANCH   5   6
ATOM      6  C   UNL     1      -6.925  34.801  44.227  1.00  0.00     0.028 C 
BRANCH   6   7
ATOM      7  C   UNL     1      -7.748  35.762  45.047  1.00  0.00    -0.028 C 
ATOM      8  C   UNL     1      -7.723  37.121  44.994  1.00  0.00    -0.070 CG0
ATOM      9  C   UNL     1      -8.485  37.853  46.074  1.00  0.00     0.039 C 
ATOM     10  G   UNL     1      -7.161  37.955  43.843  1.00  0.00     0.000 G0
ENDBRANCH   6   7
ENDBRANCH   5   6
ENDBRANCH   3   5
ENDBRANCH   1   3
BRANCH   1  11
ATOM     11  C   UNL     1      -3.765  36.748  44.151  1.00  0.00     0.087 C 
BRANCH  11  12
ATOM     12  C   UNL     1      -4.680  37.569  43.191  1.00  0.00     0.066 C 
BRANCH  12  13
ATOM     13  C   UNL     1      -5.737  38.419  43.898  1.00  0.00     0.140 C 
ATOM     14  O   UNL     1      -5.455  39.525  44.332  1.00  0.00    -0.299 OA
BRANCH  13  15
ATOM     15  C   UNL     1      -7.188  37.990  43.849  1.00  0.00     0.106 CG0
ATOM     16  G   UNL     1      -7.703  37.123  44.997  1.00  0.00     0.000 G0
ENDBRANCH  13  15
ENDBRANCH  12  13
BRANCH  12  17
ATOM     17  C   UNL     1      -3.959  38.284  41.996  1.00  0.00    -0.006 C 
ATOM     18  C   UNL     1      -3.974  37.424  40.719  1.00  0.00     0.008 C 
ATOM     19  C   UNL     1      -2.524  38.755  42.281  1.00  0.00     0.008 C 
ENDBRANCH  12  17
ENDBRANCH  11  12
ENDBRANCH   1  11
TORSDOF 1
ENDMDL
MODEL 3
REMARK VINA RESULT:    -2.944      2.050      4.870
REMARK INTER + INTRA:          -4.862
REMARK INTER:                  -4.368
REMARK INTRA:                  -0.494
REMARK UNBOUND:                -0.368
REMARK SMILES CC1=CCC[C@@H](C)C(=O)C[C@H](C(C)C)C(=O)C1
REMARK SMILES IDX 8 1 9 2 6 3 7 4 5 5 4 6 3 7 2 8 1 9 10 11 11 12 15 13 16 14
REMARK SMILES IDX 17 15 12 17 13 18 14 19
REMARK H PARENT
REMARK Flexibility Score: 70.00
ROOT
ATOM      1  C   UNL     1      -5.207  34.329  42.950  1.00  0.00     0.136 C 
ATOM      2  O   UNL     1      -5.009  33.869  41.834  1.00  0.00    -0.299 OA
ENDROOT
BRANCH   1   3
ATOM      3  C   UNL     1      -6.291  33.722  43.826  1.00  0.00     0.053 C 
ATOM      4  C   UNL     1      -7.558  33.364  43.032  1.00  0.00     0.016 C 
BRANCH   3   5
ATOM      5  C   UNL     1      -6.646  34.626  45.040  1.00  0.00     0.015 C 
BRANCH   5   6
ATOM      6  C   UNL     1      -7.734  35.660  44.674  1.00  0.00     0.028 C 
BRANCH   6   7
ATOM      7  C   UNL     1      -7.657  36.960  45.435  1.00  0.00    -0.028 C 
ATOM      8  C   UNL     1      -6.949  38.072  45.097  1.00  0.00    -0.070 CG0
ATOM      9  C   UNL     1      -6.865  39.162  46.140  1.00  0.00     0.039 C 
ATOM     10  G   UNL     1      -6.406  38.390  43.704  1.00  0.00     0.000 G0
ENDBRANCH   6   7
ENDBRANCH   5   6
ENDBRANCH   3   5
ENDBRANCH   1   3
BRANCH   1  11
ATOM     11  C   UNL     1      -4.388  35.532  43.376  1.00  0.00     0.087 C 
BRANCH  11  12
ATOM     12  C   UNL     1      -4.565  36.864  42.584  1.00  0.00     0.066 C 
BRANCH  12  13
ATOM     13  C   UNL     1      -4.920  38.073  43.451  1.00  0.00     0.140 C 
ATOM     14  O   UNL     1      -4.060  38.880  43.772  1.00  0.00    -0.299 OA
BRANCH  13  15
ATOM     15  C   UNL     1      -6.375  38.396  43.712  1.00  0.00     0.106 CG0
ATOM     16  G   UNL     1      -6.927  38.076  45.101  1.00  0.00     0.000 G0
ENDBRANCH  13  15
ENDBRANCH  12  13
BRANCH  12  17
ATOM     17  C   UNL     1      -3.500  37.149  41.469  1.00  0.00    -0.006 C 
ATOM     18  C   UNL     1      -4.012  36.759  40.071  1.00  0.00     0.008 C 
ATOM     19  C   UNL     1      -2.117  36.519  41.704  1.00  0.00     0.008 C 
ENDBRANCH  12  17
ENDBRANCH  11  12
ENDBRANCH   1  11
TORSDOF 1
ENDMDL
MODEL 4
REMARK VINA RESULT:    -2.888      2.066      2.837
REMARK INTER + INTRA:          -4.776
REMARK INTER:                  -4.339
REMARK INTRA:                  -0.438
REMARK UNBOUND:                -0.368
REMARK SMILES CC1=CCC[C@@H](C)C(=O)C[C@H](C(C)C)C(=O)C1
REMARK SMILES IDX 8 1 9 2 6 3 7 4 5 5 4 6 3 7 2 8 1 9 10 11 11 12 15 13 16 14
REMARK SMILES IDX 17 15 12 17 13 18 14 19
REMARK H PARENT
REMARK Flexibility Score: 70.00
ROOT
ATOM      1  C   UNL     1      -5.755  36.174  45.213  1.00  0.00     0.136 C 
ATOM      2  O   UNL     1      -4.759  35.754  45.786  1.00  0.00    -0.299 OA
ENDROOT
BRANCH   1   3
ATOM      3  C   UNL     1      -5.808  37.629  44.774  1.00  0.00     0.053 C 
ATOM      4  C   UNL     1      -7.171  38.015  44.178  1.00  0.00     0.016 C 
BRANCH   3   5
ATOM      5  C   UNL     1      -4.660  37.993  43.791  1.00  0.00     0.015 C 
BRANCH   5   6
ATOM      6  C   UNL     1      -4.743  37.158  42.495  1.00  0.00     0.028 C 
BRANCH   6   7
ATOM      7  C   UNL     1      -3.599  36.197  42.284  1.00  0.00    -0.028 C 
ATOM      8  C   UNL     1      -3.651  34.838  42.309  1.00  0.00    -0.070 CG0
ATOM      9  C   UNL     1      -2.325  34.112  42.286  1.00  0.00     0.039 C 
ATOM     10  G   UNL     1      -4.916  33.993  42.164  1.00  0.00     0.000 G0
ENDBRANCH   6   7
ENDBRANCH   5   6
ENDBRANCH   3   5
ENDBRANCH   1   3
BRANCH   1  11
ATOM     11  C   UNL     1      -6.918  35.219  45.025  1.00  0.00     0.087 C 
BRANCH  11  12
ATOM     12  C   UNL     1      -6.987  34.390  43.706  1.00  0.00     0.066 C 
BRANCH  12  13
ATOM     13  C   UNL     1      -5.710  33.613  43.380  1.00  0.00     0.140 C 
ATOM     14  O   UNL     1      -5.429  32.595  43.996  1.00  0.00    -0.299 OA
BRANCH  13  15
ATOM     15  C   UNL     1      -4.919  33.972  42.142  1.00  0.00     0.106 CG0
ATOM     16  G   UNL     1      -3.657  34.813  42.333  1.00  0.00     0.000 G0
ENDBRANCH  13  15
ENDBRANCH  12  13
BRANCH  12  17
ATOM     17  C   UNL     1      -8.316  33.595  43.461  1.00  0.00    -0.006 C 
ATOM     18  C   UNL     1      -8.525  32.487  44.509  1.00  0.00     0.008 C 
ATOM     19  C   UNL     1      -8.479  33.005  42.050  1.00  0.00     0.008 C 
ENDBRANCH  12  17
ENDBRANCH  11  12
ENDBRANCH   1  11
TORSDOF 1
ENDMDL
MODEL 5
REMARK VINA RESULT:    -2.870     13.428     14.782
REMARK INTER + INTRA:          -4.748
REMARK INTER:                  -4.698
REMARK INTRA:                  -0.050
REMARK UNBOUND:                -0.368
REMARK SMILES CC1=CCC[C@@H](C)C(=O)C[C@H](C(C)C)C(=O)C1
REMARK SMILES IDX 8 1 9 2 6 3 7 4 5 5 4 6 3 7 2 8 1 9 10 11 11 12 15 13 16 14
REMARK SMILES IDX 17 15 12 17 13 18 14 19
REMARK H PARENT
REMARK Flexibility Score: 70.00
ROOT
ATOM      1  C   UNL     1      -6.931  30.032  57.471  1.00  0.00     0.136 C 
ATOM      2  O   UNL     1      -6.476  29.023  57.991  1.00  0.00    -0.299 OA
ENDROOT
BRANCH   1   3
ATOM      3  C   UNL     1      -6.852  31.356  58.214  1.00  0.00     0.053 C 
ATOM      4  C   UNL     1      -5.767  31.356  59.304  1.00  0.00     0.016 C 
BRANCH   3   5
ATOM      5  C   UNL     1      -8.223  31.783  58.809  1.00  0.00     0.015 C 
BRANCH   5   6
ATOM      6  C   UNL     1      -9.130  32.421  57.734  1.00  0.00     0.028 C 
BRANCH   6   7
ATOM      7  C   UNL     1     -10.546  31.900  57.706  1.00  0.00    -0.028 C 
ATOM      8  C   UNL     1     -11.152  31.217  56.698  1.00  0.00    -0.070 CG0
ATOM      9  C   UNL     1     -12.642  31.001  56.830  1.00  0.00     0.039 C 
ATOM     10  G   UNL     1     -10.436  30.492  55.559  1.00  0.00     0.000 G0
ENDBRANCH   6   7
ENDBRANCH   5   6
ENDBRANCH   3   5
ENDBRANCH   1   3
BRANCH   1  11
ATOM     11  C   UNL     1      -7.610  29.888  56.122  1.00  0.00     0.087 C 
BRANCH  11  12
ATOM     12  C   UNL     1      -8.562  28.673  55.901  1.00  0.00     0.066 C 
BRANCH  12  13
ATOM     13  C   UNL     1     -10.042  29.040  55.793  1.00  0.00     0.140 C 
ATOM     14  O   UNL     1     -10.906  28.226  56.086  1.00  0.00    -0.299 OA
BRANCH  13  15
ATOM     15  C   UNL     1     -10.433  30.482  55.553  1.00  0.00     0.106 CG0
ATOM     16  G   UNL     1     -11.129  31.221  56.695  1.00  0.00     0.000 G0
ENDBRANCH  13  15
ENDBRANCH  12  13
BRANCH  12  17
ATOM     17  C   UNL     1      -8.078  27.600  54.864  1.00  0.00    -0.006 C 
ATOM     18  C   UNL     1      -6.736  26.968  55.275  1.00  0.00     0.008 C 
ATOM     19  C   UNL     1      -7.992  28.085  53.407  1.00  0.00     0.008 C 
ENDBRANCH  12  17
ENDBRANCH  11  12
ENDBRANCH   1  11
TORSDOF 1
ENDMDL
MODEL 6
REMARK VINA RESULT:    -2.869      1.941      4.174
REMARK INTER + INTRA:          -4.747
REMARK INTER:                  -4.230
REMARK INTRA:                  -0.517
REMARK UNBOUND:                -0.368
REMARK SMILES CC1=CCC[C@@H](C)C(=O)C[C@H](C(C)C)C(=O)C1
REMARK SMILES IDX 8 1 9 2 6 3 7 4 5 5 4 6 3 7 2 8 1 9 10 11 11 12 15 13 16 14
REMARK SMILES IDX 17 15 12 17 13 18 14 19
REMARK H PARENT
REMARK Flexibility Score: 70.00
ROOT
ATOM      1  C   UNL     1      -7.114  35.367  45.135  1.00  0.00     0.136 C 
ATOM      2  O   UNL     1      -7.528  35.348  46.286  1.00  0.00    -0.299 OA
ENDROOT
BRANCH   1   3
ATOM      3  C   UNL     1      -6.458  34.123  44.556  1.00  0.00     0.053 C 
ATOM      4  C   UNL     1      -5.349  33.567  45.463  1.00  0.00     0.016 C 
BRANCH   3   5
ATOM      5  C   UNL     1      -5.921  34.354  43.116  1.00  0.00     0.015 C 
BRANCH   5   6
ATOM      6  C   UNL     1      -4.436  34.778  43.129  1.00  0.00     0.028 C 
BRANCH   6   7
ATOM      7  C   UNL     1      -3.998  35.597  41.941  1.00  0.00    -0.028 C 
ATOM      8  C   UNL     1      -4.042  36.951  41.813  1.00  0.00    -0.070 CG0
ATOM      9  C   UNL     1      -3.749  37.509  40.440  1.00  0.00     0.039 C 
ATOM     10  G   UNL     1      -4.168  37.949  42.964  1.00  0.00     0.000 G0
ENDBRANCH   6   7
ENDBRANCH   5   6
ENDBRANCH   3   5
ENDBRANCH   1   3
BRANCH   1  11
ATOM     11  C   UNL     1      -7.228  36.668  44.363  1.00  0.00     0.087 C 
BRANCH  11  12
ATOM     12  C   UNL     1      -6.180  37.788  44.646  1.00  0.00     0.066 C 
BRANCH  12  13
ATOM     13  C   UNL     1      -5.544  38.390  43.392  1.00  0.00     0.140 C 
ATOM     14  O   UNL     1      -6.057  39.349  42.835  1.00  0.00    -0.299 OA
BRANCH  13  15
ATOM     15  C   UNL     1      -4.156  37.949  42.981  1.00  0.00     0.106 CG0
ATOM     16  G   UNL     1      -4.048  36.970  41.812  1.00  0.00     0.000 G0
ENDBRANCH  13  15
ENDBRANCH  12  13
BRANCH  12  17
ATOM     17  C   UNL     1      -6.572  38.834  45.747  1.00  0.00    -0.006 C 
ATOM     18  C   UNL     1      -5.992  38.464  47.123  1.00  0.00     0.008 C 
ATOM     19  C   UNL     1      -8.078  39.113  45.882  1.00  0.00     0.008 C 
ENDBRANCH  12  17
ENDBRANCH  11  12
ENDBRANCH   1  11
TORSDOF 1
ENDMDL
MODEL 7
REMARK VINA RESULT:    -2.860     13.127     14.678
REMARK INTER + INTRA:          -4.734
REMARK INTER:                  -4.585
REMARK INTRA:                  -0.149
REMARK UNBOUND:                -0.368
REMARK SMILES CC1=CCC[C@@H](C)C(=O)C[C@H](C(C)C)C(=O)C1
REMARK SMILES IDX 8 1 9 2 6 3 7 4 5 5 4 6 3 7 2 8 1 9 10 11 11 12 15 13 16 14
REMARK SMILES IDX 17 15 12 17 13 18 14 19
REMARK H PARENT
REMARK Flexibility Score: 70.00
ROOT
ATOM      1  C   UNL     1      -7.222  31.490  58.095  1.00  0.00     0.136 C 
ATOM      2  O   UNL     1      -6.776  32.453  57.486  1.00  0.00    -0.299 OA
ENDROOT
BRANCH   1   3
ATOM      3  C   UNL     1      -6.296  30.671  58.981  1.00  0.00     0.053 C 
ATOM      4  C   UNL     1      -5.262  31.541  59.714  1.00  0.00     0.016 C 
BRANCH   3   5
ATOM      5  C   UNL     1      -5.592  29.526  58.201  1.00  0.00     0.015 C 
BRANCH   5   6
ATOM      6  C   UNL     1      -6.579  28.393  57.849  1.00  0.00     0.028 C 
BRANCH   6   7
ATOM      7  C   UNL     1      -6.528  27.927  56.416  1.00  0.00    -0.028 C 
ATOM      8  C   UNL     1      -7.537  27.954  55.504  1.00  0.00    -0.070 CG0
ATOM      9  C   UNL     1      -7.291  27.227  54.202  1.00  0.00     0.039 C 
ATOM     10  G   UNL     1      -8.801  28.808  55.603  1.00  0.00     0.000 G0
ENDBRANCH   6   7
ENDBRANCH   5   6
ENDBRANCH   3   5
ENDBRANCH   1   3
BRANCH   1  11
ATOM     11  C   UNL     1      -8.680  31.130  57.879  1.00  0.00     0.087 C 
BRANCH  11  12
ATOM     12  C   UNL     1      -9.268  31.266  56.441  1.00  0.00     0.066 C 
BRANCH  12  13
ATOM     13  C   UNL     1      -8.645  30.323  55.410  1.00  0.00     0.140 C 
ATOM     14  O   UNL     1      -7.866  30.749  54.571  1.00  0.00    -0.299 OA
BRANCH  13  15
ATOM     15  C   UNL     1      -8.811  28.829  55.578  1.00  0.00     0.106 CG0
ATOM     16  G   UNL     1      -7.549  27.969  55.500  1.00  0.00     0.000 G0
ENDBRANCH  13  15
ENDBRANCH  12  13
BRANCH  12  17
ATOM     17  C   UNL     1     -10.828  31.400  56.346  1.00  0.00    -0.006 C 
ATOM     18  C   UNL     1     -11.296  31.646  54.901  1.00  0.00     0.008 C 
ATOM     19  C   UNL     1     -11.456  32.451  57.275  1.00  0.00     0.008 C 
ENDBRANCH  12  17
ENDBRANCH  11  12
ENDBRANCH   1  11
TORSDOF 1
ENDMDL
MODEL 8
REMARK VINA RESULT:    -2.729      2.057      5.338
REMARK INTER + INTRA:          -4.533
REMARK INTER:                  -4.065
REMARK INTRA:                  -0.468
REMARK UNBOUND:                -0.368
REMARK SMILES CC1=CCC[C@@H](C)C(=O)C[C@H](C(C)C)C(=O)C1
REMARK SMILES IDX 8 1 9 2 6 3 7 4 5 5 4 6 3 7 2 8 1 9 10 11 11 12 15 13 16 14
REMARK SMILES IDX 17 15 12 17 13 18 14 19
REMARK H PARENT
REMARK Flexibility Score: 70.00
ROOT
ATOM      1  C   UNL     1      -4.087  36.798  43.039  1.00  0.00     0.136 C 
ATOM      2  O   UNL     1      -3.926  37.836  42.411  1.00  0.00    -0.299 OA
ENDROOT
BRANCH   1   3
ATOM      3  C   UNL     1      -3.654  35.477  42.422  1.00  0.00     0.053 C 
ATOM      4  C   UNL     1      -4.135  35.321  40.970  1.00  0.00     0.016 C 
BRANCH   3   5
ATOM      5  C   UNL     1      -4.091  34.255  43.276  1.00  0.00     0.015 C 
BRANCH   5   6
ATOM      6  C   UNL     1      -5.319  33.548  42.662  1.00  0.00     0.028 C 
BRANCH   6   7
ATOM      7  C   UNL     1      -6.269  32.939  43.663  1.00  0.00    -0.028 C 
ATOM      8  C   UNL     1      -7.179  33.590  44.437  1.00  0.00    -0.070 CG0
ATOM      9  C   UNL     1      -7.854  32.775  45.516  1.00  0.00     0.039 C 
ATOM     10  G   UNL     1      -7.710  35.002  44.187  1.00  0.00     0.000 G0
ENDBRANCH   6   7
ENDBRANCH   5   6
ENDBRANCH   3   5
ENDBRANCH   1   3
BRANCH   1  11
ATOM     11  C   UNL     1      -4.772  36.887  44.389  1.00  0.00     0.087 C 
BRANCH  11  12
ATOM     12  C   UNL     1      -6.299  37.204  44.423  1.00  0.00     0.066 C 
BRANCH  12  13
ATOM     13  C   UNL     1      -7.157  36.112  45.062  1.00  0.00     0.140 C 
ATOM     14  O   UNL     1      -7.557  36.230  46.211  1.00  0.00    -0.299 OA
BRANCH  13  15
ATOM     15  C   UNL     1      -7.707  34.999  44.197  1.00  0.00     0.106 CG0
ATOM     16  G   UNL     1      -7.193  33.584  44.460  1.00  0.00     0.000 G0
ENDBRANCH  13  15
ENDBRANCH  12  13
BRANCH  12  17
ATOM     17  C   UNL     1      -6.689  38.666  44.833  1.00  0.00    -0.006 C 
ATOM     18  C   UNL     1      -6.930  39.562  43.606  1.00  0.00     0.008 C 
ATOM     19  C   UNL     1      -5.712  39.363  45.794  1.00  0.00     0.008 C 
ENDBRANCH  12  17
ENDBRANCH  11  12
ENDBRANCH   1  11
TORSDOF 1
ENDMDL
MODEL 9
REMARK VINA RESULT:    -2.619      1.992      4.455
REMARK INTER + INTRA:          -4.366
REMARK INTER:                  -4.146
REMARK INTRA:                  -0.220
REMARK UNBOUND:                -0.368
REMARK SMILES CC1=CCC[C@@H](C)C(=O)C[C@H](C(C)C)C(=O)C1
REMARK SMILES IDX 8 1 9 2 6 3 7 4 5 5 4 6 3 7 2 8 1 9 10 11 11 12 15 13 16 14
REMARK SMILES IDX 17 15 12 17 13 18 14 19
REMARK H PARENT
REMARK Flexibility Score: 70.00
ROOT
ATOM      1  C   UNL     1      -4.546  33.410  42.761  1.00  0.00     0.136 C 
ATOM      2  O   UNL     1      -3.898  32.630  43.444  1.00  0.00    -0.299 OA
ENDROOT
BRANCH   1   3
ATOM      3  C   UNL     1      -3.930  33.986  41.496  1.00  0.00     0.053 C 
ATOM      4  C   UNL     1      -2.398  33.855  41.475  1.00  0.00     0.016 C 
BRANCH   3   5
ATOM      5  C   UNL     1      -4.355  35.460  41.249  1.00  0.00     0.015 C 
BRANCH   5   6
ATOM      6  C   UNL     1      -3.721  36.411  42.288  1.00  0.00     0.028 C 
BRANCH   6   7
ATOM      7  C   UNL     1      -4.459  37.710  42.495  1.00  0.00    -0.028 C 
ATOM      8  C   UNL     1      -5.429  37.968  43.413  1.00  0.00    -0.070 CG0
ATOM      9  C   UNL     1      -6.162  39.282  43.269  1.00  0.00     0.039 C 
ATOM     10  G   UNL     1      -5.702  37.146  44.673  1.00  0.00     0.000 G0
ENDBRANCH   6   7
ENDBRANCH   5   6
ENDBRANCH   3   5
ENDBRANCH   1   3
BRANCH   1  11
ATOM     11  C   UNL     1      -5.923  33.809  43.257  1.00  0.00     0.087 C 
BRANCH  11  12
ATOM     12  C   UNL     1      -6.031  34.541  44.630  1.00  0.00     0.066 C 
BRANCH  12  13
ATOM     13  C   UNL     1      -6.623  35.949  44.552  1.00  0.00     0.140 C 
ATOM     14  O   UNL     1      -7.833  36.115  44.570  1.00  0.00    -0.299 OA
BRANCH  13  15
ATOM     15  C   UNL     1      -5.708  37.146  44.689  1.00  0.00     0.106 CG0
ATOM     16  G   UNL     1      -5.418  37.959  43.427  1.00  0.00     0.000 G0
ENDBRANCH  13  15
ENDBRANCH  12  13
BRANCH  12  17
ATOM     17  C   UNL     1      -6.553  33.678  45.831  1.00  0.00    -0.006 C 
ATOM     18  C   UNL     1      -7.830  32.900  45.466  1.00  0.00     0.008 C 
ATOM     19  C   UNL     1      -6.777  34.446  47.143  1.00  0.00     0.008 C 
ENDBRANCH  12  17
ENDBRANCH  11  12
ENDBRANCH   1  11
TORSDOF 1
ENDMDL
