MODEL 1
REMARK VINA RESULT:    -3.438      0.000      0.000
REMARK INTER + INTRA:          -4.094
REMARK INTER:                  -3.739
REMARK INTRA:                  -0.355
REMARK UNBOUND:                -0.355
REMARK SMILES CC(C)c1cc2c(cc1O)[C@@]1(C)CCCC(C)(C)[C@H]1CC2=O
REMARK SMILES IDX 4 1 9 2 8 3 7 4 6 5 5 6 21 7 22 8 20 9 19 10 11 11 13 12
REMARK SMILES IDX 14 13 15 14 16 15 17 16 18 17 12 18 2 19 1 20 3 21 10 22
REMARK H PARENT 10 23
REMARK Flexibility Score: inf
ROOT
ATOM      1  C   UNL     1      26.949  42.220  21.196  1.00  0.00    -0.003 A 
ATOM      2  C   UNL     1      27.448  42.332  19.862  1.00  0.00     0.119 A 
ATOM      3  C   UNL     1      27.381  41.224  19.016  1.00  0.00     0.051 A 
ATOM      4  C   UNL     1      26.845  40.004  19.473  1.00  0.00    -0.027 A 
ATOM      5  C   UNL     1      25.998  40.064  20.583  1.00  0.00     0.022 A 
ATOM      6  C   UNL     1      26.099  41.128  21.485  1.00  0.00     0.020 A 
ATOM      7  C   UNL     1      25.210  38.882  20.874  1.00  0.00     0.163 C 
ATOM      8  O   UNL     1      23.954  38.885  20.777  1.00  0.00    -0.294 OA
ATOM      9  C   UNL     1      25.967  37.603  20.989  1.00  0.00     0.086 C 
ATOM     10  C   UNL     1      26.937  37.392  19.770  1.00  0.00     0.013 C 
ATOM     11  C   UNL     1      27.121  38.644  18.772  1.00  0.00    -0.003 C 
ATOM     12  C   UNL     1      28.564  38.670  18.169  1.00  0.00     0.012 C 
ATOM     13  C   UNL     1      29.101  37.297  17.799  1.00  0.00     0.001 C 
ATOM     14  C   UNL     1      29.125  36.312  18.983  1.00  0.00     0.007 C 
ATOM     15  C   UNL     1      28.281  36.700  20.238  1.00  0.00    -0.031 C 
ATOM     16  C   UNL     1      29.125  37.583  21.208  1.00  0.00     0.011 C 
ATOM     17  C   UNL     1      27.955  35.370  21.002  1.00  0.00     0.011 C 
ATOM     18  C   UNL     1      26.133  38.499  17.580  1.00  0.00     0.017 C 
ENDROOT
BRANCH   1  19
ATOM     19  C   UNL     1      27.643  42.896  22.378  1.00  0.00     0.017 C 
ATOM     20  C   UNL     1      28.931  42.214  22.868  1.00  0.00     0.012 C 
ATOM     21  C   UNL     1      26.609  43.012  23.515  1.00  0.00     0.012 C 
ENDBRANCH   1  19
BRANCH   2  22
ATOM     22  O   UNL     1      28.122  43.441  19.374  1.00  0.00    -0.508 OA
ATOM     23  H   UNL     1      27.670  44.272  19.004  1.00  0.00     0.293 HD
ENDBRANCH   2  22
TORSDOF 2
ENDMDL
MODEL 2
REMARK VINA RESULT:    -2.189      1.984      3.612
REMARK INTER + INTRA:          -2.736
REMARK INTER:                  -2.372
REMARK INTRA:                  -0.364
REMARK UNBOUND:                -0.355
REMARK SMILES CC(C)c1cc2c(cc1O)[C@@]1(C)CCCC(C)(C)[C@H]1CC2=O
REMARK SMILES IDX 4 1 9 2 8 3 7 4 6 5 5 6 21 7 22 8 20 9 19 10 11 11 13 12
REMARK SMILES IDX 14 13 15 14 16 15 17 16 18 17 12 18 2 19 1 20 3 21 10 22
REMARK H PARENT 10 23
REMARK Flexibility Score: inf
ROOT
ATOM      1  C   UNL     1      27.810  42.016  20.071  1.00  0.00    -0.003 A 
ATOM      2  C   UNL     1      28.501  41.377  21.146  1.00  0.00     0.119 A 
ATOM      3  C   UNL     1      28.453  39.987  21.253  1.00  0.00     0.051 A 
ATOM      4  C   UNL     1      27.718  39.221  20.328  1.00  0.00    -0.027 A 
ATOM      5  C   UNL     1      27.443  39.817  19.093  1.00  0.00     0.022 A 
ATOM      6  C   UNL     1      27.414  41.210  18.979  1.00  0.00     0.020 A 
ATOM      7  C   UNL     1      26.964  38.949  18.036  1.00  0.00     0.163 C 
ATOM      8  O   UNL     1      27.649  38.727  17.002  1.00  0.00    -0.294 OA
ATOM      9  C   UNL     1      25.782  38.103  18.368  1.00  0.00     0.086 C 
ATOM     10  C   UNL     1      25.980  37.339  19.728  1.00  0.00     0.013 C 
ATOM     11  C   UNL     1      27.260  37.762  20.611  1.00  0.00    -0.003 C 
ATOM     12  C   UNL     1      26.959  37.615  22.138  1.00  0.00     0.012 C 
ATOM     13  C   UNL     1      26.148  36.378  22.489  1.00  0.00     0.001 C 
ATOM     14  C   UNL     1      24.797  36.305  21.753  1.00  0.00     0.007 C 
ATOM     15  C   UNL     1      24.614  37.247  20.522  1.00  0.00    -0.031 C 
ATOM     16  C   UNL     1      24.071  38.637  20.977  1.00  0.00     0.011 C 
ATOM     17  C   UNL     1      23.512  36.604  19.610  1.00  0.00     0.011 C 
ATOM     18  C   UNL     1      28.444  36.807  20.288  1.00  0.00     0.017 C 
ENDROOT
BRANCH   1  19
ATOM     19  C   UNL     1      27.083  43.347  20.255  1.00  0.00     0.017 C 
ATOM     20  C   UNL     1      25.903  43.326  21.240  1.00  0.00     0.012 C 
ATOM     21  C   UNL     1      26.633  43.825  18.860  1.00  0.00     0.012 C 
ENDBRANCH   1  19
BRANCH   2  22
ATOM     22  O   UNL     1      29.124  42.056  22.182  1.00  0.00    -0.508 OA
ATOM     23  H   UNL     1      30.120  42.019  22.376  1.00  0.00     0.293 HD
ENDBRANCH   2  22
TORSDOF 2
ENDMDL
