MODEL 1
REMARK VINA RESULT:    -4.218      0.000      0.000
REMARK INTER + INTRA:          -8.365
REMARK INTER:                  -6.684
REMARK INTRA:                  -1.681
REMARK UNBOUND:                -1.681
REMARK SMILES CCCCCCCCCCCC(=O)[O-]
REMARK SMILES IDX 7 1 8 2 9 3 10 4 11 5 12 6 13 7 14 8 6 9 5 10 4 11 3 12 2 13
REMARK SMILES IDX 1 14
REMARK H PARENT
REMARK Flexibility Score: inf
ROOT
ATOM      1  C   UNL     1      63.116  15.777  39.903  1.00  0.00     0.000 C 
ENDROOT
BRANCH   1   2
ATOM      2  C   UNL     1      62.016  15.079  39.088  1.00  0.00     0.000 C 
BRANCH   2   3
ATOM      3  C   UNL     1      62.160  15.314  37.574  1.00  0.00     0.000 C 
BRANCH   3   4
ATOM      4  C   UNL     1      63.617  15.565  37.148  1.00  0.00     0.006 C 
BRANCH   4   5
ATOM      5  C   UNL     1      63.872  16.965  36.565  1.00  0.00     0.053 C 
BRANCH   5   6
ATOM      6  C   UNL     1      65.276  17.427  36.806  1.00  0.00     0.041 C 
ATOM      7  O   UNL     1      65.779  17.351  37.958  1.00  0.00    -0.550 OA
ATOM      8  O   UNL     1      66.018  17.973  35.765  1.00  0.00    -0.550 OA
ENDBRANCH   5   6
ENDBRANCH   4   5
ENDBRANCH   3   4
ENDBRANCH   2   3
ENDBRANCH   1   2
BRANCH   1   9
ATOM      9  C   UNL     1      62.590  16.992  40.683  1.00  0.00     0.000 C 
BRANCH   9  10
ATOM     10  C   UNL     1      63.472  18.226  40.441  1.00  0.00    -0.000 C 
BRANCH  10  11
ATOM     11  C   UNL     1      62.821  19.228  39.464  1.00  0.00    -0.000 C 
BRANCH  11  12
ATOM     12  C   UNL     1      61.293  19.075  39.344  1.00  0.00    -0.000 C 
BRANCH  12  13
ATOM     13  C   UNL     1      60.785  18.782  37.923  1.00  0.00    -0.003 C 
ATOM     14  C   UNL     1      59.573  17.851  37.906  1.00  0.00     0.004 C 
ENDBRANCH  12  13
ENDBRANCH  11  12
ENDBRANCH  10  11
ENDBRANCH   9  10
ENDBRANCH   1   9
TORSDOF 10
ENDMDL
MODEL 2
REMARK VINA RESULT:    -4.147      1.458      2.597
REMARK INTER + INTRA:          -8.252
REMARK INTER:                  -6.962
REMARK INTRA:                  -1.290
REMARK UNBOUND:                -1.681
REMARK SMILES CCCCCCCCCCCC(=O)[O-]
REMARK SMILES IDX 7 1 8 2 9 3 10 4 11 5 12 6 13 7 14 8 6 9 5 10 4 11 3 12 2 13
REMARK SMILES IDX 1 14
REMARK H PARENT
REMARK Flexibility Score: inf
ROOT
ATOM      1  C   UNL     1      63.492  14.696  39.642  1.00  0.00     0.000 C 
ENDROOT
BRANCH   1   2
ATOM      2  C   UNL     1      64.121  13.805  38.558  1.00  0.00     0.000 C 
BRANCH   2   3
ATOM      3  C   UNL     1      64.824  14.619  37.457  1.00  0.00     0.000 C 
BRANCH   3   4
ATOM      4  C   UNL     1      64.340  16.078  37.396  1.00  0.00     0.006 C 
BRANCH   4   5
ATOM      5  C   UNL     1      65.472  17.119  37.371  1.00  0.00     0.053 C 
BRANCH   5   6
ATOM      6  C   UNL     1      65.754  17.609  35.985  1.00  0.00     0.041 C 
ATOM      7  O   UNL     1      66.701  18.413  35.778  1.00  0.00    -0.550 OA
ATOM      8  O   UNL     1      64.950  17.204  34.926  1.00  0.00    -0.550 OA
ENDBRANCH   5   6
ENDBRANCH   4   5
ENDBRANCH   3   4
ENDBRANCH   2   3
ENDBRANCH   1   2
BRANCH   1   9
ATOM      9  C   UNL     1      61.991  14.427  39.828  1.00  0.00     0.000 C 
BRANCH   9  10
ATOM     10  C   UNL     1      61.148  15.525  39.161  1.00  0.00    -0.000 C 
BRANCH  10  11
ATOM     11  C   UNL     1      61.176  16.848  39.956  1.00  0.00    -0.000 C 
BRANCH  11  12
ATOM     12  C   UNL     1      61.723  18.043  39.153  1.00  0.00    -0.000 C 
BRANCH  12  13
ATOM     13  C   UNL     1      62.701  18.944  39.925  1.00  0.00    -0.003 C 
ATOM     14  C   UNL     1      63.735  18.151  40.724  1.00  0.00     0.004 C 
ENDBRANCH  12  13
ENDBRANCH  11  12
ENDBRANCH  10  11
ENDBRANCH   9  10
ENDBRANCH   1   9
TORSDOF 10
ENDMDL
MODEL 3
REMARK VINA RESULT:    -4.054      3.201      4.419
REMARK INTER + INTRA:          -8.104
REMARK INTER:                  -6.635
REMARK INTRA:                  -1.469
REMARK UNBOUND:                -1.681
REMARK SMILES CCCCCCCCCCCC(=O)[O-]
REMARK SMILES IDX 7 1 8 2 9 3 10 4 11 5 12 6 13 7 14 8 6 9 5 10 4 11 3 12 2 13
REMARK SMILES IDX 1 14
REMARK H PARENT
REMARK Flexibility Score: inf
ROOT
ATOM      1  C   UNL     1      63.021  17.033  40.745  1.00  0.00     0.000 C 
ENDROOT
BRANCH   1   2
ATOM      2  C   UNL     1      61.814  16.489  39.965  1.00  0.00     0.000 C 
BRANCH   2   3
ATOM      3  C   UNL     1      61.977  15.007  39.581  1.00  0.00     0.000 C 
BRANCH   3   4
ATOM      4  C   UNL     1      63.394  14.474  39.857  1.00  0.00     0.006 C 
BRANCH   4   5
ATOM      5  C   UNL     1      63.742  13.184  39.095  1.00  0.00     0.053 C 
BRANCH   5   6
ATOM      6  C   UNL     1      62.820  12.058  39.448  1.00  0.00     0.041 C 
ATOM      7  O   UNL     1      62.906  11.497  40.572  1.00  0.00    -0.550 OA
ATOM      8  O   UNL     1      61.890  11.603  38.521  1.00  0.00    -0.550 OA
ENDBRANCH   5   6
ENDBRANCH   4   5
ENDBRANCH   3   4
ENDBRANCH   2   3
ENDBRANCH   1   2
BRANCH   1   9
ATOM      9  C   UNL     1      63.614  18.297  40.106  1.00  0.00     0.000 C 
BRANCH   9  10
ATOM     10  C   UNL     1      62.934  18.609  38.764  1.00  0.00    -0.000 C 
BRANCH  10  11
ATOM     11  C   UNL     1      63.916  18.524  37.577  1.00  0.00    -0.000 C 
BRANCH  11  12
ATOM     12  C   UNL     1      65.004  17.446  37.746  1.00  0.00    -0.000 C 
BRANCH  12  13
ATOM     13  C   UNL     1      64.995  16.348  36.671  1.00  0.00    -0.003 C 
ATOM     14  C   UNL     1      63.594  15.805  36.388  1.00  0.00     0.004 C 
ENDBRANCH  12  13
ENDBRANCH  11  12
ENDBRANCH  10  11
ENDBRANCH   9  10
ENDBRANCH   1   9
TORSDOF 10
ENDMDL
MODEL 4
REMARK VINA RESULT:    -4.023      2.206      4.559
REMARK INTER + INTRA:          -8.056
REMARK INTER:                  -6.891
REMARK INTRA:                  -1.165
REMARK UNBOUND:                -1.681
REMARK SMILES CCCCCCCCCCCC(=O)[O-]
REMARK SMILES IDX 7 1 8 2 9 3 10 4 11 5 12 6 13 7 14 8 6 9 5 10 4 11 3 12 2 13
REMARK SMILES IDX 1 14
REMARK H PARENT
REMARK Flexibility Score: inf
ROOT
ATOM      1  C   UNL     1      63.367  14.519  39.657  1.00  0.00     0.000 C 
ENDROOT
BRANCH   1   2
ATOM      2  C   UNL     1      62.337  15.654  39.550  1.00  0.00     0.000 C 
BRANCH   2   3
ATOM      3  C   UNL     1      62.578  16.773  40.578  1.00  0.00     0.000 C 
BRANCH   3   4
ATOM      4  C   UNL     1      63.474  17.899  40.032  1.00  0.00     0.006 C 
BRANCH   4   5
ATOM      5  C   UNL     1      62.756  19.246  39.853  1.00  0.00     0.053 C 
BRANCH   5   6
ATOM      6  C   UNL     1      61.485  19.106  39.074  1.00  0.00     0.041 C 
ATOM      7  O   UNL     1      60.377  19.358  39.617  1.00  0.00    -0.550 OA
ATOM      8  O   UNL     1      61.521  18.663  37.757  1.00  0.00    -0.550 OA
ENDBRANCH   5   6
ENDBRANCH   4   5
ENDBRANCH   3   4
ENDBRANCH   2   3
ENDBRANCH   1   2
BRANCH   1   9
ATOM      9  C   UNL     1      64.061  14.224  38.319  1.00  0.00     0.000 C 
BRANCH   9  10
ATOM     10  C   UNL     1      63.321  14.899  37.154  1.00  0.00    -0.000 C 
BRANCH  10  11
ATOM     11  C   UNL     1      64.198  15.006  35.888  1.00  0.00    -0.000 C 
BRANCH  11  12
ATOM     12  C   UNL     1      64.589  16.451  35.525  1.00  0.00    -0.000 C 
BRANCH  12  13
ATOM     13  C   UNL     1      64.697  17.409  36.723  1.00  0.00    -0.003 C 
ATOM     14  C   UNL     1      66.058  17.343  37.415  1.00  0.00     0.004 C 
ENDBRANCH  12  13
ENDBRANCH  11  12
ENDBRANCH  10  11
ENDBRANCH   9  10
ENDBRANCH   1   9
TORSDOF 10
ENDMDL
MODEL 5
REMARK VINA RESULT:    -3.998      2.689      4.746
REMARK INTER + INTRA:          -8.017
REMARK INTER:                  -6.408
REMARK INTRA:                  -1.609
REMARK UNBOUND:                -1.681
REMARK SMILES CCCCCCCCCCCC(=O)[O-]
REMARK SMILES IDX 7 1 8 2 9 3 10 4 11 5 12 6 13 7 14 8 6 9 5 10 4 11 3 12 2 13
REMARK SMILES IDX 1 14
REMARK H PARENT
REMARK Flexibility Score: inf
ROOT
ATOM      1  C   UNL     1      62.614  16.928  40.631  1.00  0.00     0.000 C 
ENDROOT
BRANCH   1   2
ATOM      2  C   UNL     1      63.486  18.172  40.400  1.00  0.00     0.000 C 
BRANCH   2   3
ATOM      3  C   UNL     1      62.747  19.278  39.627  1.00  0.00     0.000 C 
BRANCH   3   4
ATOM      4  C   UNL     1      61.229  19.035  39.548  1.00  0.00     0.006 C 
BRANCH   4   5
ATOM      5  C   UNL     1      60.698  18.826  38.120  1.00  0.00     0.053 C 
BRANCH   5   6
ATOM      6  C   UNL     1      59.585  17.824  38.076  1.00  0.00     0.041 C 
ATOM      7  O   UNL     1      59.391  17.051  39.050  1.00  0.00    -0.550 OA
ATOM      8  O   UNL     1      58.785  17.722  36.945  1.00  0.00    -0.550 OA
ENDBRANCH   5   6
ENDBRANCH   4   5
ENDBRANCH   3   4
ENDBRANCH   2   3
ENDBRANCH   1   2
BRANCH   1   9
ATOM      9  C   UNL     1      63.209  15.663  39.995  1.00  0.00     0.000 C 
BRANCH   9  10
ATOM     10  C   UNL     1      62.449  15.278  38.717  1.00  0.00    -0.000 C 
BRANCH  10  11
ATOM     11  C   UNL     1      63.025  15.969  37.462  1.00  0.00    -0.000 C 
BRANCH  11  12
ATOM     12  C   UNL     1      64.523  15.689  37.233  1.00  0.00    -0.000 C 
BRANCH  12  13
ATOM     13  C   UNL     1      65.434  16.921  37.359  1.00  0.00    -0.003 C 
ATOM     14  C   UNL     1      64.774  18.203  36.852  1.00  0.00     0.004 C 
ENDBRANCH  12  13
ENDBRANCH  11  12
ENDBRANCH  10  11
ENDBRANCH   9  10
ENDBRANCH   1   9
TORSDOF 10
ENDMDL
MODEL 6
REMARK VINA RESULT:    -3.985     11.713     13.638
REMARK INTER + INTRA:          -7.995
REMARK INTER:                  -7.042
REMARK INTRA:                  -0.953
REMARK UNBOUND:                -1.681
REMARK SMILES CCCCCCCCCCCC(=O)[O-]
REMARK SMILES IDX 7 1 8 2 9 3 10 4 11 5 12 6 13 7 14 8 6 9 5 10 4 11 3 12 2 13
REMARK SMILES IDX 1 14
REMARK H PARENT
REMARK Flexibility Score: inf
ROOT
ATOM      1  C   UNL     1      69.602   6.196  34.077  1.00  0.00     0.000 C 
ENDROOT
BRANCH   1   2
ATOM      2  C   UNL     1      71.101   6.106  33.752  1.00  0.00     0.000 C 
BRANCH   2   3
ATOM      3  C   UNL     1      71.436   6.640  32.348  1.00  0.00     0.000 C 
BRANCH   3   4
ATOM      4  C   UNL     1      72.320   7.899  32.387  1.00  0.00     0.006 C 
BRANCH   4   5
ATOM      5  C   UNL     1      72.790   8.383  31.005  1.00  0.00     0.053 C 
BRANCH   5   6
ATOM      6  C   UNL     1      74.264   8.199  30.817  1.00  0.00     0.041 C 
ATOM      7  O   UNL     1      74.832   8.646  29.786  1.00  0.00    -0.550 OA
ATOM      8  O   UNL     1      75.006   7.504  31.765  1.00  0.00    -0.550 OA
ENDBRANCH   5   6
ENDBRANCH   4   5
ENDBRANCH   3   4
ENDBRANCH   2   3
ENDBRANCH   1   2
BRANCH   1   9
ATOM      9  C   UNL     1      68.775   6.736  32.900  1.00  0.00     0.000 C 
BRANCH   9  10
ATOM     10  C   UNL     1      67.940   7.953  33.324  1.00  0.00    -0.000 C 
BRANCH  10  11
ATOM     11  C   UNL     1      68.759   9.261  33.304  1.00  0.00    -0.000 C 
BRANCH  11  12
ATOM     12  C   UNL     1      68.101  10.394  32.494  1.00  0.00    -0.000 C 
BRANCH  12  13
ATOM     13  C   UNL     1      69.087  11.339  31.789  1.00  0.00    -0.003 C 
ATOM     14  C   UNL     1      70.540  11.090  32.192  1.00  0.00     0.004 C 
ENDBRANCH  12  13
ENDBRANCH  11  12
ENDBRANCH  10  11
ENDBRANCH   9  10
ENDBRANCH   1   9
TORSDOF 10
ENDMDL
MODEL 7
REMARK VINA RESULT:    -3.982     11.490     13.743
REMARK INTER + INTRA:          -7.991
REMARK INTER:                  -6.918
REMARK INTRA:                  -1.073
REMARK UNBOUND:                -1.681
REMARK SMILES CCCCCCCCCCCC(=O)[O-]
REMARK SMILES IDX 7 1 8 2 9 3 10 4 11 5 12 6 13 7 14 8 6 9 5 10 4 11 3 12 2 13
REMARK SMILES IDX 1 14
REMARK H PARENT
REMARK Flexibility Score: inf
ROOT
ATOM      1  C   UNL     1      68.105  10.224  32.571  1.00  0.00     0.000 C 
ENDROOT
BRANCH   1   2
ATOM      2  C   UNL     1      69.366  11.032  32.228  1.00  0.00     0.000 C 
BRANCH   2   3
ATOM      3  C   UNL     1      70.642  10.424  32.836  1.00  0.00     0.000 C 
BRANCH   3   4
ATOM      4  C   UNL     1      71.632   9.928  31.767  1.00  0.00     0.006 C 
BRANCH   4   5
ATOM      5  C   UNL     1      72.799   9.097  32.324  1.00  0.00     0.053 C 
BRANCH   5   6
ATOM      6  C   UNL     1      73.441   8.252  31.267  1.00  0.00     0.041 C 
ATOM      7  O   UNL     1      72.892   7.184  30.890  1.00  0.00    -0.550 OA
ATOM      8  O   UNL     1      74.664   8.627  30.724  1.00  0.00    -0.550 OA
ENDBRANCH   5   6
ENDBRANCH   4   5
ENDBRANCH   3   4
ENDBRANCH   2   3
ENDBRANCH   1   2
BRANCH   1   9
ATOM      9  C   UNL     1      68.379   9.107  33.589  1.00  0.00     0.000 C 
BRANCH   9  10
ATOM     10  C   UNL     1      67.964   7.737  33.029  1.00  0.00    -0.000 C 
BRANCH  10  11
ATOM     11  C   UNL     1      68.764   6.579  33.664  1.00  0.00    -0.000 C 
BRANCH  11  12
ATOM     12  C   UNL     1      70.290   6.732  33.529  1.00  0.00    -0.000 C 
BRANCH  12  13
ATOM     13  C   UNL     1      71.111   5.630  34.219  1.00  0.00    -0.003 C 
ATOM     14  C   UNL     1      72.570   6.027  34.442  1.00  0.00     0.004 C 
ENDBRANCH  12  13
ENDBRANCH  11  12
ENDBRANCH  10  11
ENDBRANCH   9  10
ENDBRANCH   1   9
TORSDOF 10
ENDMDL
MODEL 8
REMARK VINA RESULT:    -3.968      1.608      3.556
REMARK INTER + INTRA:          -7.968
REMARK INTER:                  -6.370
REMARK INTRA:                  -1.598
REMARK UNBOUND:                -1.681
REMARK SMILES CCCCCCCCCCCC(=O)[O-]
REMARK SMILES IDX 7 1 8 2 9 3 10 4 11 5 12 6 13 7 14 8 6 9 5 10 4 11 3 12 2 13
REMARK SMILES IDX 1 14
REMARK H PARENT
REMARK Flexibility Score: inf
ROOT
ATOM      1  C   UNL     1      61.887  18.942  39.220  1.00  0.00     0.000 C 
ENDROOT
BRANCH   1   2
ATOM      2  C   UNL     1      63.069  18.731  40.179  1.00  0.00     0.000 C 
BRANCH   2   3
ATOM      3  C   UNL     1      64.180  17.860  39.566  1.00  0.00     0.000 C 
BRANCH   3   4
ATOM      4  C   UNL     1      64.118  17.813  38.029  1.00  0.00     0.006 C 
BRANCH   4   5
ATOM      5  C   UNL     1      65.065  16.783  37.391  1.00  0.00     0.053 C 
BRANCH   5   6
ATOM      6  C   UNL     1      64.621  16.389  36.015  1.00  0.00     0.041 C 
ATOM      7  O   UNL     1      64.897  17.119  35.027  1.00  0.00    -0.550 OA
ATOM      8  O   UNL     1      63.872  15.233  35.830  1.00  0.00    -0.550 OA
ENDBRANCH   5   6
ENDBRANCH   4   5
ENDBRANCH   3   4
ENDBRANCH   2   3
ENDBRANCH   1   2
BRANCH   1   9
ATOM      9  C   UNL     1      60.546  18.509  39.833  1.00  0.00     0.000 C 
BRANCH   9  10
ATOM     10  C   UNL     1      60.400  16.980  39.813  1.00  0.00    -0.000 C 
BRANCH  10  11
ATOM     11  C   UNL     1      60.644  16.387  38.409  1.00  0.00    -0.000 C 
BRANCH  11  12
ATOM     12  C   UNL     1      61.509  15.112  38.415  1.00  0.00    -0.000 C 
BRANCH  12  13
ATOM     13  C   UNL     1      62.257  14.849  39.733  1.00  0.00    -0.003 C 
ATOM     14  C   UNL     1      63.528  14.023  39.540  1.00  0.00     0.004 C 
ENDBRANCH  12  13
ENDBRANCH  11  12
ENDBRANCH  10  11
ENDBRANCH   9  10
ENDBRANCH   1   9
TORSDOF 10
ENDMDL
MODEL 9
REMARK VINA RESULT:    -3.940      2.724      4.380
REMARK INTER + INTRA:          -7.925
REMARK INTER:                  -6.438
REMARK INTRA:                  -1.486
REMARK UNBOUND:                -1.681
REMARK SMILES CCCCCCCCCCCC(=O)[O-]
REMARK SMILES IDX 7 1 8 2 9 3 10 4 11 5 12 6 13 7 14 8 6 9 5 10 4 11 3 12 2 13
REMARK SMILES IDX 1 14
REMARK H PARENT
REMARK Flexibility Score: inf
ROOT
ATOM      1  C   UNL     1      64.292  15.483  36.176  1.00  0.00     0.000 C 
ENDROOT
BRANCH   1   2
ATOM      2  C   UNL     1      64.951  15.098  37.510  1.00  0.00     0.000 C 
BRANCH   2   3
ATOM      3  C   UNL     1      64.232  13.932  38.211  1.00  0.00     0.000 C 
BRANCH   3   4
ATOM      4  C   UNL     1      63.460  14.378  39.465  1.00  0.00     0.006 C 
BRANCH   4   5
ATOM      5  C   UNL     1      62.032  14.873  39.185  1.00  0.00     0.053 C 
BRANCH   5   6
ATOM      6  C   UNL     1      61.332  14.024  38.169  1.00  0.00     0.041 C 
ATOM      7  O   UNL     1      61.020  14.504  37.048  1.00  0.00    -0.550 OA
ATOM      8  O   UNL     1      60.994  12.711  38.474  1.00  0.00    -0.550 OA
ENDBRANCH   5   6
ENDBRANCH   4   5
ENDBRANCH   3   4
ENDBRANCH   2   3
ENDBRANCH   1   2
BRANCH   1   9
ATOM      9  C   UNL     1      64.628  16.919  35.746  1.00  0.00     0.000 C 
BRANCH   9  10
ATOM     10  C   UNL     1      64.695  17.857  36.961  1.00  0.00    -0.000 C 
BRANCH  10  11
ATOM     11  C   UNL     1      63.325  18.485  37.292  1.00  0.00    -0.000 C 
BRANCH  11  12
ATOM     12  C   UNL     1      62.960  18.424  38.787  1.00  0.00    -0.000 C 
BRANCH  12  13
ATOM     13  C   UNL     1      64.118  18.029  39.717  1.00  0.00    -0.003 C 
ATOM     14  C   UNL     1      63.651  17.658  41.125  1.00  0.00     0.004 C 
ENDBRANCH  12  13
ENDBRANCH  11  12
ENDBRANCH  10  11
ENDBRANCH   9  10
ENDBRANCH   1   9
TORSDOF 10
ENDMDL
