MODEL 1
REMARK VINA RESULT:    -3.811      0.000      0.000
REMARK INTER + INTRA:          -4.150
REMARK INTER:                  -4.591
REMARK INTRA:                   0.441
REMARK UNBOUND:                 0.441
REMARK SMILES O=c1c(O)c(-c2ccc(O)c(O)c2)oc2cc(O)cc(O)c12
REMARK SMILES IDX 5 1 3 2 2 3 1 4 22 5 20 6 19 7 17 8 16 9 15 10 14 11 6 12
REMARK SMILES IDX 7 13 8 14 9 15 13 16 11 17 10 18 12 20 4 22 21 24 18 26
REMARK H PARENT 10 19 12 21 4 23 21 25 18 27
REMARK Flexibility Score: inf
ROOT
ATOM      1  C   UNL     1      33.417  25.297  37.615  1.00  0.00     0.180 A 
ATOM      2  C   UNL     1      34.701  24.731  37.548  1.00  0.00     0.208 A 
ATOM      3  C   UNL     1      34.958  23.541  38.249  1.00  0.00     0.238 A 
ATOM      4  O   UNL     1      36.124  23.068  38.230  1.00  0.00    -0.285 OA
ATOM      5  C   UNL     1      33.923  22.926  38.994  1.00  0.00     0.111 A 
ATOM      6  C   UNL     1      34.061  21.699  39.710  1.00  0.00     0.134 A 
ATOM      7  C   UNL     1      33.010  21.250  40.519  1.00  0.00     0.093 A 
ATOM      8  C   UNL     1      31.805  21.948  40.588  1.00  0.00     0.123 A 
ATOM      9  C   UNL     1      31.639  23.119  39.846  1.00  0.00     0.094 A 
ATOM     10  C   UNL     1      32.682  23.611  39.057  1.00  0.00     0.146 A 
ATOM     11  O   UNL     1      32.487  24.732  38.375  1.00  0.00    -0.452 OA
ENDROOT
BRANCH   1  12
ATOM     12  C   UNL     1      33.063  26.536  36.883  1.00  0.00     0.025 A 
ATOM     13  C   UNL     1      31.725  26.878  36.630  1.00  0.00     0.016 A 
ATOM     14  C   UNL     1      31.414  28.063  35.960  1.00  0.00     0.051 A 
ATOM     15  C   UNL     1      32.426  28.935  35.543  1.00  0.00     0.157 A 
ATOM     16  C   UNL     1      34.079  27.419  36.486  1.00  0.00     0.062 A 
ATOM     17  C   UNL     1      33.777  28.610  35.813  1.00  0.00     0.158 A 
BRANCH  15  18
ATOM     18  O   UNL     1      32.050  30.101  34.875  1.00  0.00    -0.504 OA
ATOM     19  H   UNL     1      32.660  30.625  34.265  1.00  0.00     0.293 HD
ENDBRANCH  15  18
BRANCH  17  20
ATOM     20  O   UNL     1      34.840  29.434  35.437  1.00  0.00    -0.504 OA
ATOM     21  H   UNL     1      35.704  29.512  35.954  1.00  0.00     0.293 HD
ENDBRANCH  17  20
ENDBRANCH   1  12
BRANCH   2  22
ATOM     22  O   UNL     1      35.714  25.367  36.824  1.00  0.00    -0.502 OA
ATOM     23  H   UNL     1      36.261  24.887  36.119  1.00  0.00     0.293 HD
ENDBRANCH   2  22
BRANCH   6  24
ATOM     24  O   UNL     1      35.189  20.876  39.638  1.00  0.00    -0.507 OA
ATOM     25  H   UNL     1      35.494  20.389  38.809  1.00  0.00     0.293 HD
ENDBRANCH   6  24
BRANCH   8  26
ATOM     26  O   UNL     1      30.775  21.464  41.391  1.00  0.00    -0.508 OA
ATOM     27  H   UNL     1      30.011  20.921  41.003  1.00  0.00     0.293 HD
ENDBRANCH   8  26
TORSDOF 6
ENDMDL
MODEL 2
REMARK VINA RESULT:    -3.422      0.917      1.642
REMARK INTER + INTRA:          -3.681
REMARK INTER:                  -4.153
REMARK INTRA:                   0.471
REMARK UNBOUND:                 0.441
REMARK SMILES O=c1c(O)c(-c2ccc(O)c(O)c2)oc2cc(O)cc(O)c12
REMARK SMILES IDX 5 1 3 2 2 3 1 4 22 5 20 6 19 7 17 8 16 9 15 10 14 11 6 12
REMARK SMILES IDX 7 13 8 14 9 15 13 16 11 17 10 18 12 20 4 22 21 24 18 26
REMARK H PARENT 10 19 12 21 4 23 21 25 18 27
REMARK Flexibility Score: inf
ROOT
ATOM      1  C   UNL     1      32.978  25.274  37.601  1.00  0.00     0.180 A 
ATOM      2  C   UNL     1      34.266  24.736  37.435  1.00  0.00     0.208 A 
ATOM      3  C   UNL     1      34.599  23.547  38.104  1.00  0.00     0.238 A 
ATOM      4  O   UNL     1      35.769  23.099  37.994  1.00  0.00    -0.285 OA
ATOM      5  C   UNL     1      33.635  22.904  38.917  1.00  0.00     0.111 A 
ATOM      6  C   UNL     1      33.850  21.674  39.609  1.00  0.00     0.134 A 
ATOM      7  C   UNL     1      32.871  21.196  40.489  1.00  0.00     0.093 A 
ATOM      8  C   UNL     1      31.660  21.868  40.653  1.00  0.00     0.123 A 
ATOM      9  C   UNL     1      31.416  23.040  39.936  1.00  0.00     0.094 A 
ATOM     10  C   UNL     1      32.387  23.561  39.078  1.00  0.00     0.146 A 
ATOM     11  O   UNL     1      32.119  24.683  38.422  1.00  0.00    -0.452 OA
ENDROOT
BRANCH   1  12
ATOM     12  C   UNL     1      32.546  26.511  36.910  1.00  0.00     0.025 A 
ATOM     13  C   UNL     1      33.440  27.262  36.129  1.00  0.00     0.016 A 
ATOM     14  C   UNL     1      33.003  28.411  35.467  1.00  0.00     0.051 A 
ATOM     15  C   UNL     1      31.670  28.826  35.558  1.00  0.00     0.157 A 
ATOM     16  C   UNL     1      31.203  26.913  36.984  1.00  0.00     0.062 A 
ATOM     17  C   UNL     1      30.757  28.064  36.323  1.00  0.00     0.158 A 
BRANCH  15  18
ATOM     18  O   UNL     1      31.300  29.986  34.875  1.00  0.00    -0.504 OA
ATOM     19  H   UNL     1      30.456  30.073  34.326  1.00  0.00     0.293 HD
ENDBRANCH  15  18
BRANCH  17  20
ATOM     20  O   UNL     1      29.410  28.408  36.453  1.00  0.00    -0.504 OA
ATOM     21  H   UNL     1      28.670  27.743  36.624  1.00  0.00     0.293 HD
ENDBRANCH  17  20
ENDBRANCH   1  12
BRANCH   2  22
ATOM     22  O   UNL     1      35.209  25.400  36.644  1.00  0.00    -0.502 OA
ATOM     23  H   UNL     1      35.402  26.390  36.744  1.00  0.00     0.293 HD
ENDBRANCH   2  22
BRANCH   6  24
ATOM     24  O   UNL     1      34.987  20.876  39.447  1.00  0.00    -0.507 OA
ATOM     25  H   UNL     1      35.203  20.064  40.004  1.00  0.00     0.293 HD
ENDBRANCH   6  24
BRANCH   8  26
ATOM     26  O   UNL     1      30.703  21.355  41.525  1.00  0.00    -0.508 OA
ATOM     27  H   UNL     1      30.033  21.958  41.991  1.00  0.00     0.293 HD
ENDBRANCH   8  26
TORSDOF 6
ENDMDL
MODEL 3
REMARK VINA RESULT:    -2.884      1.558      7.279
REMARK INTER + INTRA:          -3.032
REMARK INTER:                  -3.139
REMARK INTRA:                   0.106
REMARK UNBOUND:                 0.441
REMARK SMILES O=c1c(O)c(-c2ccc(O)c(O)c2)oc2cc(O)cc(O)c12
REMARK SMILES IDX 5 1 3 2 2 3 1 4 22 5 20 6 19 7 17 8 16 9 15 10 14 11 6 12
REMARK SMILES IDX 7 13 8 14 9 15 13 16 11 17 10 18 12 20 4 22 21 24 18 26
REMARK H PARENT 10 19 12 21 4 23 21 25 18 27
REMARK Flexibility Score: inf
ROOT
ATOM      1  C   UNL     1      32.114  25.495  38.081  1.00  0.00     0.180 A 
ATOM      2  C   UNL     1      30.939  26.206  37.782  1.00  0.00     0.208 A 
ATOM      3  C   UNL     1      31.014  27.315  36.923  1.00  0.00     0.238 A 
ATOM      4  O   UNL     1      29.969  27.979  36.702  1.00  0.00    -0.285 OA
ATOM      5  C   UNL     1      32.259  27.689  36.365  1.00  0.00     0.111 A 
ATOM      6  C   UNL     1      32.444  28.772  35.452  1.00  0.00     0.134 A 
ATOM      7  C   UNL     1      33.741  29.133  35.064  1.00  0.00     0.093 A 
ATOM      8  C   UNL     1      34.851  28.414  35.504  1.00  0.00     0.123 A 
ATOM      9  C   UNL     1      34.677  27.317  36.349  1.00  0.00     0.094 A 
ATOM     10  C   UNL     1      33.399  26.954  36.782  1.00  0.00     0.146 A 
ATOM     11  O   UNL     1      33.277  25.911  37.593  1.00  0.00    -0.452 OA
ENDROOT
BRANCH   1  12
ATOM     12  C   UNL     1      32.111  24.300  38.957  1.00  0.00     0.025 A 
ATOM     13  C   UNL     1      31.377  24.274  40.153  1.00  0.00     0.016 A 
ATOM     14  C   UNL     1      31.370  23.128  40.951  1.00  0.00     0.051 A 
ATOM     15  C   UNL     1      32.080  21.985  40.568  1.00  0.00     0.157 A 
ATOM     16  C   UNL     1      32.807  23.148  38.559  1.00  0.00     0.062 A 
ATOM     17  C   UNL     1      32.805  21.994  39.353  1.00  0.00     0.158 A 
BRANCH  15  18
ATOM     18  O   UNL     1      32.035  20.875  41.412  1.00  0.00    -0.504 OA
ATOM     19  H   UNL     1      31.488  20.832  42.260  1.00  0.00     0.293 HD
ENDBRANCH  15  18
BRANCH  17  20
ATOM     20  O   UNL     1      33.529  20.890  38.899  1.00  0.00    -0.504 OA
ATOM     21  H   UNL     1      34.521  20.903  38.710  1.00  0.00     0.293 HD
ENDBRANCH  17  20
ENDBRANCH   1  12
BRANCH   2  22
ATOM     22  O   UNL     1      29.724  25.831  38.362  1.00  0.00    -0.502 OA
ATOM     23  H   UNL     1      28.984  26.497  38.552  1.00  0.00     0.293 HD
ENDBRANCH   2  22
BRANCH   6  24
ATOM     24  O   UNL     1      31.396  29.499  34.881  1.00  0.00    -0.507 OA
ATOM     25  H   UNL     1      31.486  30.105  34.080  1.00  0.00     0.293 HD
ENDBRANCH   6  24
BRANCH   8  26
ATOM     26  O   UNL     1      36.125  28.793  35.085  1.00  0.00    -0.508 OA
ATOM     27  H   UNL     1      36.591  28.323  34.316  1.00  0.00     0.293 HD
ENDBRANCH   8  26
TORSDOF 6
ENDMDL
MODEL 4
REMARK VINA RESULT:    -2.871      1.126      6.668
REMARK INTER + INTRA:          -3.017
REMARK INTER:                  -3.511
REMARK INTRA:                   0.494
REMARK UNBOUND:                 0.441
REMARK SMILES O=c1c(O)c(-c2ccc(O)c(O)c2)oc2cc(O)cc(O)c12
REMARK SMILES IDX 5 1 3 2 2 3 1 4 22 5 20 6 19 7 17 8 16 9 15 10 14 11 6 12
REMARK SMILES IDX 7 13 8 14 9 15 13 16 11 17 10 18 12 20 4 22 21 24 18 26
REMARK H PARENT 10 19 12 21 4 23 21 25 18 27
REMARK Flexibility Score: inf
ROOT
ATOM      1  C   UNL     1      33.042  24.836  37.580  1.00  0.00     0.180 A 
ATOM      2  C   UNL     1      34.376  24.704  37.154  1.00  0.00     0.208 A 
ATOM      3  C   UNL     1      34.943  25.718  36.366  1.00  0.00     0.238 A 
ATOM      4  O   UNL     1      36.119  25.568  35.943  1.00  0.00    -0.285 OA
ATOM      5  C   UNL     1      34.175  26.857  36.025  1.00  0.00     0.111 A 
ATOM      6  C   UNL     1      34.661  27.963  35.264  1.00  0.00     0.134 A 
ATOM      7  C   UNL     1      33.776  28.976  34.876  1.00  0.00     0.093 A 
ATOM      8  C   UNL     1      32.440  28.957  35.274  1.00  0.00     0.123 A 
ATOM      9  C   UNL     1      31.968  27.910  36.068  1.00  0.00     0.094 A 
ATOM     10  C   UNL     1      32.819  26.867  36.442  1.00  0.00     0.146 A 
ATOM     11  O   UNL     1      32.329  25.885  37.188  1.00  0.00    -0.452 OA
ENDROOT
BRANCH   1  12
ATOM     12  C   UNL     1      32.383  23.822  38.434  1.00  0.00     0.025 A 
ATOM     13  C   UNL     1      30.987  23.786  38.580  1.00  0.00     0.016 A 
ATOM     14  C   UNL     1      30.386  22.805  39.371  1.00  0.00     0.051 A 
ATOM     15  C   UNL     1      31.159  21.836  40.019  1.00  0.00     0.157 A 
ATOM     16  C   UNL     1      33.160  22.837  39.064  1.00  0.00     0.062 A 
ATOM     17  C   UNL     1      32.565  21.850  39.859  1.00  0.00     0.158 A 
BRANCH  15  18
ATOM     18  O   UNL     1      30.497  20.886  40.798  1.00  0.00    -0.504 OA
ATOM     19  H   UNL     1      30.187  21.048  41.745  1.00  0.00     0.293 HD
ENDBRANCH  15  18
BRANCH  17  20
ATOM     20  O   UNL     1      33.402  20.910  40.465  1.00  0.00    -0.504 OA
ATOM     21  H   UNL     1      34.185  21.148  41.056  1.00  0.00     0.293 HD
ENDBRANCH  17  20
ENDBRANCH   1  12
BRANCH   2  22
ATOM     22  O   UNL     1      35.108  23.560  37.485  1.00  0.00    -0.502 OA
ATOM     23  H   UNL     1      34.845  22.635  37.165  1.00  0.00     0.293 HD
ENDBRANCH   2  22
BRANCH   6  24
ATOM     24  O   UNL     1      35.999  28.126  34.892  1.00  0.00    -0.507 OA
ATOM     25  H   UNL     1      36.562  28.933  35.112  1.00  0.00     0.293 HD
ENDBRANCH   6  24
BRANCH   8  26
ATOM     26  O   UNL     1      31.591  29.990  34.883  1.00  0.00    -0.508 OA
ATOM     27  H   UNL     1      31.715  30.936  35.226  1.00  0.00     0.293 HD
ENDBRANCH   8  26
TORSDOF 6
ENDMDL
MODEL 5
REMARK VINA RESULT:    -2.691      2.279      3.452
REMARK INTER + INTRA:          -2.800
REMARK INTER:                  -2.473
REMARK INTRA:                  -0.327
REMARK UNBOUND:                 0.441
REMARK SMILES O=c1c(O)c(-c2ccc(O)c(O)c2)oc2cc(O)cc(O)c12
REMARK SMILES IDX 5 1 3 2 2 3 1 4 22 5 20 6 19 7 17 8 16 9 15 10 14 11 6 12
REMARK SMILES IDX 7 13 8 14 9 15 13 16 11 17 10 18 12 20 4 22 21 24 18 26
REMARK H PARENT 10 19 12 21 4 23 21 25 18 27
REMARK Flexibility Score: inf
ROOT
ATOM      1  C   UNL     1      33.264  25.832  37.074  1.00  0.00     0.180 A 
ATOM      2  C   UNL     1      32.963  25.694  38.440  1.00  0.00     0.208 A 
ATOM      3  C   UNL     1      32.276  24.548  38.873  1.00  0.00     0.238 A 
ATOM      4  O   UNL     1      31.963  24.455  40.088  1.00  0.00    -0.285 OA
ATOM      5  C   UNL     1      31.913  23.549  37.938  1.00  0.00     0.111 A 
ATOM      6  C   UNL     1      31.250  22.330  38.272  1.00  0.00     0.134 A 
ATOM      7  C   UNL     1      30.823  21.474  37.249  1.00  0.00     0.093 A 
ATOM      8  C   UNL     1      31.090  21.760  35.911  1.00  0.00     0.123 A 
ATOM      9  C   UNL     1      31.790  22.921  35.577  1.00  0.00     0.094 A 
ATOM     10  C   UNL     1      32.198  23.812  36.573  1.00  0.00     0.146 A 
ATOM     11  O   UNL     1      32.851  24.910  36.212  1.00  0.00    -0.452 OA
ENDROOT
BRANCH   1  12
ATOM     12  C   UNL     1      34.006  27.000  36.545  1.00  0.00     0.025 A 
ATOM     13  C   UNL     1      35.410  27.041  36.561  1.00  0.00     0.016 A 
ATOM     14  C   UNL     1      36.089  28.142  36.035  1.00  0.00     0.051 A 
ATOM     15  C   UNL     1      35.386  29.213  35.472  1.00  0.00     0.157 A 
ATOM     16  C   UNL     1      33.300  28.062  35.960  1.00  0.00     0.062 A 
ATOM     17  C   UNL     1      33.973  29.170  35.430  1.00  0.00     0.158 A 
BRANCH  15  18
ATOM     18  O   UNL     1      36.125  30.284  34.967  1.00  0.00    -0.504 OA
ATOM     19  H   UNL     1      36.261  30.462  33.982  1.00  0.00     0.293 HD
ENDBRANCH  15  18
BRANCH  17  20
ATOM     20  O   UNL     1      33.204  30.195  34.875  1.00  0.00    -0.504 OA
ATOM     21  H   UNL     1      32.904  31.015  35.383  1.00  0.00     0.293 HD
ENDBRANCH  17  20
ENDBRANCH   1  12
BRANCH   2  22
ATOM     22  O   UNL     1      33.313  26.703  39.342  1.00  0.00    -0.502 OA
ATOM     23  H   UNL     1      32.875  26.794  40.252  1.00  0.00     0.293 HD
ENDBRANCH   2  22
BRANCH   6  24
ATOM     24  O   UNL     1      31.015  21.903  39.582  1.00  0.00    -0.507 OA
ATOM     25  H   UNL     1      30.359  22.331  40.217  1.00  0.00     0.293 HD
ENDBRANCH   6  24
BRANCH   8  26
ATOM     26  O   UNL     1      30.664  20.878  34.921  1.00  0.00    -0.508 OA
ATOM     27  H   UNL     1      30.923  19.897  34.938  1.00  0.00     0.293 HD
ENDBRANCH   8  26
TORSDOF 6
ENDMDL
MODEL 6
REMARK VINA RESULT:    -2.031      1.203      2.942
REMARK INTER + INTRA:          -2.005
REMARK INTER:                  -2.441
REMARK INTRA:                   0.435
REMARK UNBOUND:                 0.441
REMARK SMILES O=c1c(O)c(-c2ccc(O)c(O)c2)oc2cc(O)cc(O)c12
REMARK SMILES IDX 5 1 3 2 2 3 1 4 22 5 20 6 19 7 17 8 16 9 15 10 14 11 6 12
REMARK SMILES IDX 7 13 8 14 9 15 13 16 11 17 10 18 12 20 4 22 21 24 18 26
REMARK H PARENT 10 19 12 21 4 23 21 25 18 27
REMARK Flexibility Score: inf
ROOT
ATOM      1  C   UNL     1      32.167  25.284  37.767  1.00  0.00     0.180 A 
ATOM      2  C   UNL     1      31.089  24.810  38.535  1.00  0.00     0.208 A 
ATOM      3  C   UNL     1      31.242  23.616  39.259  1.00  0.00     0.238 A 
ATOM      4  O   UNL     1      30.258  23.169  39.902  1.00  0.00    -0.285 OA
ATOM      5  C   UNL     1      32.475  22.921  39.217  1.00  0.00     0.111 A 
ATOM      6  C   UNL     1      32.754  21.724  39.943  1.00  0.00     0.134 A 
ATOM      7  C   UNL     1      33.963  21.050  39.725  1.00  0.00     0.093 A 
ATOM      8  C   UNL     1      34.927  21.564  38.859  1.00  0.00     0.123 A 
ATOM      9  C   UNL     1      34.689  22.765  38.190  1.00  0.00     0.094 A 
ATOM     10  C   UNL     1      33.478  23.441  38.359  1.00  0.00     0.146 A 
ATOM     11  O   UNL     1      33.287  24.575  37.696  1.00  0.00    -0.452 OA
ENDROOT
BRANCH   1  12
ATOM     12  C   UNL     1      32.089  26.547  36.997  1.00  0.00     0.025 A 
ATOM     13  C   UNL     1      30.861  27.185  36.761  1.00  0.00     0.016 A 
ATOM     14  C   UNL     1      30.815  28.388  36.053  1.00  0.00     0.051 A 
ATOM     15  C   UNL     1      31.989  28.983  35.579  1.00  0.00     0.157 A 
ATOM     16  C   UNL     1      33.271  27.154  36.542  1.00  0.00     0.062 A 
ATOM     17  C   UNL     1      33.234  28.360  35.831  1.00  0.00     0.158 A 
BRANCH  15  18
ATOM     18  O   UNL     1      31.874  30.183  34.875  1.00  0.00    -0.504 OA
ATOM     19  H   UNL     1      32.379  31.026  35.109  1.00  0.00     0.293 HD
ENDBRANCH  15  18
BRANCH  17  20
ATOM     20  O   UNL     1      34.448  28.899  35.400  1.00  0.00    -0.504 OA
ATOM     21  H   UNL     1      35.122  29.335  36.012  1.00  0.00     0.293 HD
ENDBRANCH  17  20
ENDBRANCH   1  12
BRANCH   2  22
ATOM     22  O   UNL     1      29.874  25.502  38.544  1.00  0.00    -0.502 OA
ATOM     23  H   UNL     1      28.990  25.050  38.338  1.00  0.00     0.293 HD
ENDBRANCH   2  22
BRANCH   6  24
ATOM     24  O   UNL     1      31.897  21.174  40.901  1.00  0.00    -0.507 OA
ATOM     25  H   UNL     1      32.140  20.419  41.524  1.00  0.00     0.293 HD
ENDBRANCH   6  24
BRANCH   8  26
ATOM     26  O   UNL     1      36.124  20.875  38.679  1.00  0.00    -0.508 OA
ATOM     27  H   UNL     1      36.960  21.344  38.346  1.00  0.00     0.293 HD
ENDBRANCH   8  26
TORSDOF 6
ENDMDL
