MODEL 1
REMARK VINA RESULT:    -3.593      0.000      0.000
REMARK INTER + INTRA:          -4.277
REMARK INTER:                  -4.224
REMARK INTRA:                  -0.053
REMARK UNBOUND:                -0.053
REMARK SMILES CCCCC(=O)[O-]
REMARK SMILES IDX 4 1 5 2 6 3 7 4 3 5 2 6 1 7
REMARK H PARENT
REMARK Flexibility Score: inf
ROOT
ATOM      1  C   UNL     1     122.919 176.259 117.243  1.00  0.00     0.053 C 
ENDROOT
BRANCH   1   2
ATOM      2  C   UNL     1     123.038 176.613 118.692  1.00  0.00     0.041 C 
ATOM      3  O   UNL     1     122.025 176.571 119.438  1.00  0.00    -0.550 OA
ATOM      4  O   UNL     1     124.275 176.939 119.230  1.00  0.00    -0.550 OA
ENDBRANCH   1   2
BRANCH   1   5
ATOM      5  C   UNL     1     122.137 177.341 116.489  1.00  0.00     0.006 C 
BRANCH   5   6
ATOM      6  C   UNL     1     123.047 178.442 115.923  1.00  0.00    -0.003 C 
ATOM      7  C   UNL     1     122.281 179.477 115.100  1.00  0.00     0.004 C 
ENDBRANCH   5   6
ENDBRANCH   1   5
TORSDOF 3
ENDMDL
MODEL 2
REMARK VINA RESULT:    -3.529      2.334      3.772
REMARK INTER + INTRA:          -4.201
REMARK INTER:                  -4.092
REMARK INTRA:                  -0.109
REMARK UNBOUND:                -0.053
REMARK SMILES CCCCC(=O)[O-]
REMARK SMILES IDX 4 1 5 2 6 3 7 4 3 5 2 6 1 7
REMARK H PARENT
REMARK Flexibility Score: inf
ROOT
ATOM      1  C   UNL     1     122.075 177.045 116.600  1.00  0.00     0.053 C 
ENDROOT
BRANCH   1   2
ATOM      2  C   UNL     1     122.668 178.315 116.078  1.00  0.00     0.041 C 
ATOM      3  O   UNL     1     123.858 178.618 116.354  1.00  0.00    -0.550 OA
ATOM      4  O   UNL     1     121.923 179.140 115.245  1.00  0.00    -0.550 OA
ENDBRANCH   1   2
BRANCH   1   5
ATOM      5  C   UNL     1     123.073 176.323 117.514  1.00  0.00     0.006 C 
BRANCH   5   6
ATOM      6  C   UNL     1     122.624 176.308 118.983  1.00  0.00    -0.003 C 
ATOM      7  C   UNL     1     123.296 177.399 119.817  1.00  0.00     0.004 C 
ENDBRANCH   5   6
ENDBRANCH   1   5
TORSDOF 3
ENDMDL
MODEL 3
REMARK VINA RESULT:    -3.474     15.197     15.739
REMARK INTER + INTRA:          -4.136
REMARK INTER:                  -4.092
REMARK INTRA:                  -0.045
REMARK UNBOUND:                -0.053
REMARK SMILES CCCCC(=O)[O-]
REMARK SMILES IDX 4 1 5 2 6 3 7 4 3 5 2 6 1 7
REMARK H PARENT
REMARK Flexibility Score: inf
ROOT
ATOM      1  C   UNL     1     115.261 164.874 121.640  1.00  0.00     0.053 C 
ENDROOT
BRANCH   1   2
ATOM      2  C   UNL     1     114.037 165.507 122.221  1.00  0.00     0.041 C 
ATOM      3  O   UNL     1     113.218 166.104 121.475  1.00  0.00    -0.550 OA
ATOM      4  O   UNL     1     113.773 165.394 123.580  1.00  0.00    -0.550 OA
ENDBRANCH   1   2
BRANCH   1   5
ATOM      5  C   UNL     1     115.151 164.797 120.112  1.00  0.00     0.006 C 
BRANCH   5   6
ATOM      6  C   UNL     1     115.983 163.650 119.518  1.00  0.00    -0.003 C 
ATOM      7  C   UNL     1     116.177 162.492 120.496  1.00  0.00     0.004 C 
ENDBRANCH   5   6
ENDBRANCH   1   5
TORSDOF 3
ENDMDL
MODEL 4
REMARK VINA RESULT:    -3.471     13.783     14.555
REMARK INTER + INTRA:          -4.133
REMARK INTER:                  -4.117
REMARK INTRA:                  -0.016
REMARK UNBOUND:                -0.053
REMARK SMILES CCCCC(=O)[O-]
REMARK SMILES IDX 4 1 5 2 6 3 7 4 3 5 2 6 1 7
REMARK H PARENT
REMARK Flexibility Score: inf
ROOT
ATOM      1  C   UNL     1     115.354 164.751 119.140  1.00  0.00     0.053 C 
ENDROOT
BRANCH   1   2
ATOM      2  C   UNL     1     115.903 164.106 120.373  1.00  0.00     0.041 C 
ATOM      3  O   UNL     1     116.219 164.810 121.368  1.00  0.00    -0.550 OA
ATOM      4  O   UNL     1     116.020 162.725 120.443  1.00  0.00    -0.550 OA
ENDBRANCH   1   2
BRANCH   1   5
ATOM      5  C   UNL     1     116.423 164.804 118.041  1.00  0.00     0.006 C 
BRANCH   5   6
ATOM      6  C   UNL     1     116.031 165.731 116.880  1.00  0.00    -0.003 C 
ATOM      7  C   UNL     1     116.787 165.415 115.590  1.00  0.00     0.004 C 
ENDBRANCH   5   6
ENDBRANCH   1   5
TORSDOF 3
ENDMDL
MODEL 5
REMARK VINA RESULT:    -3.471     13.482     14.467
REMARK INTER + INTRA:          -4.133
REMARK INTER:                  -4.088
REMARK INTRA:                  -0.044
REMARK UNBOUND:                -0.053
REMARK SMILES CCCCC(=O)[O-]
REMARK SMILES IDX 4 1 5 2 6 3 7 4 3 5 2 6 1 7
REMARK H PARENT
REMARK Flexibility Score: inf
ROOT
ATOM      1  C   UNL     1     115.878 163.835 120.020  1.00  0.00     0.053 C 
ENDROOT
BRANCH   1   2
ATOM      2  C   UNL     1     116.129 164.647 121.252  1.00  0.00     0.041 C 
ATOM      3  O   UNL     1     117.301 164.991 121.555  1.00  0.00    -0.550 OA
ATOM      4  O   UNL     1     115.064 165.068 122.037  1.00  0.00    -0.550 OA
ENDBRANCH   1   2
BRANCH   1   5
ATOM      5  C   UNL     1     115.369 164.730 118.882  1.00  0.00     0.006 C 
BRANCH   5   6
ATOM      6  C   UNL     1     116.455 165.032 117.839  1.00  0.00    -0.003 C 
ATOM      7  C   UNL     1     115.984 166.008 116.761  1.00  0.00     0.004 C 
ENDBRANCH   5   6
ENDBRANCH   1   5
TORSDOF 3
ENDMDL
MODEL 6
REMARK VINA RESULT:    -3.327      2.420      3.777
REMARK INTER + INTRA:          -3.963
REMARK INTER:                  -3.868
REMARK INTRA:                  -0.096
REMARK UNBOUND:                -0.053
REMARK SMILES CCCCC(=O)[O-]
REMARK SMILES IDX 4 1 5 2 6 3 7 4 3 5 2 6 1 7
REMARK H PARENT
REMARK Flexibility Score: inf
ROOT
ATOM      1  C   UNL     1     123.984 178.221 117.241  1.00  0.00     0.053 C 
ENDROOT
BRANCH   1   2
ATOM      2  C   UNL     1     122.843 178.075 116.285  1.00  0.00     0.041 C 
ATOM      3  O   UNL     1     122.095 177.064 116.342  1.00  0.00    -0.550 OA
ATOM      4  O   UNL     1     122.575 179.078 115.363  1.00  0.00    -0.550 OA
ENDBRANCH   1   2
BRANCH   1   5
ATOM      5  C   UNL     1     123.972 177.081 118.269  1.00  0.00     0.006 C 
BRANCH   5   6
ATOM      6  C   UNL     1     123.425 177.523 119.634  1.00  0.00    -0.003 C 
ATOM      7  C   UNL     1     122.277 176.642 120.125  1.00  0.00     0.004 C 
ENDBRANCH   5   6
ENDBRANCH   1   5
TORSDOF 3
ENDMDL
MODEL 7
REMARK VINA RESULT:    -3.319     16.811     18.328
REMARK INTER + INTRA:          -3.954
REMARK INTER:                  -3.846
REMARK INTRA:                  -0.108
REMARK UNBOUND:                -0.053
REMARK SMILES CCCCC(=O)[O-]
REMARK SMILES IDX 4 1 5 2 6 3 7 4 3 5 2 6 1 7
REMARK H PARENT
REMARK Flexibility Score: inf
ROOT
ATOM      1  C   UNL     1     123.022 163.569 130.836  1.00  0.00     0.053 C 
ENDROOT
BRANCH   1   2
ATOM      2  C   UNL     1     123.931 162.802 129.929  1.00  0.00     0.041 C 
ATOM      3  O   UNL     1     123.723 161.580 129.709  1.00  0.00    -0.550 OA
ATOM      4  O   UNL     1     124.979 163.447 129.286  1.00  0.00    -0.550 OA
ENDBRANCH   1   2
BRANCH   1   5
ATOM      5  C   UNL     1     122.038 164.416 130.019  1.00  0.00     0.006 C 
BRANCH   5   6
ATOM      6  C   UNL     1     122.327 165.921 130.124  1.00  0.00    -0.003 C 
ATOM      7  C   UNL     1     123.134 166.451 128.939  1.00  0.00     0.004 C 
ENDBRANCH   5   6
ENDBRANCH   1   5
TORSDOF 3
ENDMDL
MODEL 8
REMARK VINA RESULT:    -3.304     14.070     14.985
REMARK INTER + INTRA:          -3.937
REMARK INTER:                  -3.909
REMARK INTRA:                  -0.027
REMARK UNBOUND:                -0.053
REMARK SMILES CCCCC(=O)[O-]
REMARK SMILES IDX 4 1 5 2 6 3 7 4 3 5 2 6 1 7
REMARK H PARENT
REMARK Flexibility Score: inf
ROOT
ATOM      1  C   UNL     1     117.118 164.826 121.816  1.00  0.00     0.053 C 
ENDROOT
BRANCH   1   2
ATOM      2  C   UNL     1     116.916 165.817 122.918  1.00  0.00     0.041 C 
ATOM      3  O   UNL     1     115.757 166.210 123.211  1.00  0.00    -0.550 OA
ATOM      4  O   UNL     1     118.002 166.269 123.656  1.00  0.00    -0.550 OA
ENDBRANCH   1   2
BRANCH   1   5
ATOM      5  C   UNL     1     115.806 164.594 121.056  1.00  0.00     0.006 C 
BRANCH   5   6
ATOM      6  C   UNL     1     115.929 163.495 119.989  1.00  0.00    -0.003 C 
ATOM      7  C   UNL     1     116.274 162.130 120.585  1.00  0.00     0.004 C 
ENDBRANCH   5   6
ENDBRANCH   1   5
TORSDOF 3
ENDMDL
MODEL 9
REMARK VINA RESULT:    -3.292      9.628     10.854
REMARK INTER + INTRA:          -3.922
REMARK INTER:                  -3.817
REMARK INTRA:                  -0.106
REMARK UNBOUND:                -0.053
REMARK SMILES CCCCC(=O)[O-]
REMARK SMILES IDX 4 1 5 2 6 3 7 4 3 5 2 6 1 7
REMARK H PARENT
REMARK Flexibility Score: inf
ROOT
ATOM      1  C   UNL     1     116.151 179.539 126.359  1.00  0.00     0.053 C 
ENDROOT
BRANCH   1   2
ATOM      2  C   UNL     1     115.167 178.529 125.858  1.00  0.00     0.041 C 
ATOM      3  O   UNL     1     114.279 178.075 126.627  1.00  0.00    -0.550 OA
ATOM      4  O   UNL     1     115.198 178.127 124.530  1.00  0.00    -0.550 OA
ENDBRANCH   1   2
BRANCH   1   5
ATOM      5  C   UNL     1     117.515 178.881 126.607  1.00  0.00     0.006 C 
BRANCH   5   6
ATOM      6  C   UNL     1     118.598 179.388 125.642  1.00  0.00    -0.003 C 
ATOM      7  C   UNL     1     118.863 178.420 124.490  1.00  0.00     0.004 C 
ENDBRANCH   5   6
ENDBRANCH   1   5
TORSDOF 3
ENDMDL
