MODEL 1
REMARK VINA RESULT:    -2.976      0.000      0.000
REMARK INTER + INTRA:          -6.432
REMARK INTER:                  -4.542
REMARK INTRA:                  -1.889
REMARK UNBOUND:                -1.889
REMARK SMILES COc1cc(C=CCOC(=O)C=Cc2ccc(O)c(OC)c2)ccc1O
REMARK SMILES IDX 9 1 8 2 7 3 6 4 5 5 3 6 25 7 4 8 24 9 23 10 2 11 1 12 26 13
REMARK SMILES IDX 10 15 11 16 12 17 13 18 14 19 22 20 15 21 19 22 16 23 17 24
REMARK SMILES IDX 20 25 21 26 18 27
REMARK H PARENT 26 14 18 28
REMARK Flexibility Score: inf
ROOT
ATOM      1  O   UNL     1      -7.086   9.377  -0.937  1.00  0.00    -0.458 OA
ENDROOT
BRANCH   1   2
ATOM      2  C   UNL     1      -7.856   8.781   0.105  1.00  0.00     0.261 C 
BRANCH   2   3
ATOM      3  C   UNL     1      -7.047   7.736   0.828  1.00  0.00     0.015 C 
ATOM      4  C   UNL     1      -7.504   6.512   1.126  1.00  0.00     0.007 C 
BRANCH   4   5
ATOM      5  C   UNL     1      -8.836   6.001   0.742  1.00  0.00    -0.022 A 
ATOM      6  C   UNL     1     -11.142   5.490   1.367  1.00  0.00     0.161 A 
ATOM      7  C   UNL     1     -11.367   4.975   0.077  1.00  0.00     0.157 A 
ATOM      8  C   UNL     1      -9.867   5.994   1.693  1.00  0.00     0.058 A 
ATOM      9  C   UNL     1     -10.329   4.957  -0.860  1.00  0.00     0.051 A 
ATOM     10  C   UNL     1      -9.069   5.456  -0.529  1.00  0.00     0.012 A 
BRANCH   6  11
ATOM     11  O   UNL     1     -12.199   5.484   2.291  1.00  0.00    -0.493 OA
ATOM     12  C   UNL     1     -12.035   5.510   3.706  1.00  0.00     0.278 C 
ENDBRANCH   6  11
BRANCH   7  13
ATOM     13  O   UNL     1     -12.614   4.470  -0.291  1.00  0.00    -0.504 OA
ATOM     14  H   UNL     1     -13.468   5.003  -0.172  1.00  0.00     0.293 HD
ENDBRANCH   7  13
ENDBRANCH   4   5
ENDBRANCH   2   3
ENDBRANCH   1   2
BRANCH   1  15
ATOM     15  C   UNL     1      -7.481   9.376  -2.279  1.00  0.00     0.331 C 
ATOM     16  O   UNL     1      -7.273  10.387  -3.004  1.00  0.00    -0.247 OA
BRANCH  15  17
ATOM     17  C   UNL     1      -8.193   8.196  -2.805  1.00  0.00     0.094 C 
ATOM     18  C   UNL     1      -7.618   7.093  -3.310  1.00  0.00     0.016 C 
BRANCH  18  19
ATOM     19  C   UNL     1      -6.173   6.789  -3.271  1.00  0.00    -0.021 A 
ATOM     20  C   UNL     1      -5.609   6.071  -2.200  1.00  0.00     0.058 A 
ATOM     21  C   UNL     1      -5.370   7.136  -4.365  1.00  0.00     0.012 A 
ATOM     22  C   UNL     1      -4.235   5.755  -2.197  1.00  0.00     0.161 A 
ATOM     23  C   UNL     1      -4.009   6.823  -4.368  1.00  0.00     0.051 A 
ATOM     24  C   UNL     1      -3.440   6.139  -3.285  1.00  0.00     0.157 A 
BRANCH  22  25
ATOM     25  O   UNL     1      -3.629   5.062  -1.136  1.00  0.00    -0.493 OA
ATOM     26  C   UNL     1      -3.567   5.538   0.206  1.00  0.00     0.278 C 
ENDBRANCH  22  25
BRANCH  24  27
ATOM     27  O   UNL     1      -2.079   5.831  -3.287  1.00  0.00    -0.504 OA
ATOM     28  H   UNL     1      -1.474   6.112  -4.050  1.00  0.00     0.293 HD
ENDBRANCH  24  27
ENDBRANCH  18  19
ENDBRANCH  15  17
ENDBRANCH   1  15
TORSDOF 10
ENDMDL
MODEL 2
REMARK VINA RESULT:    -2.974      1.053      6.759
REMARK INTER + INTRA:          -6.428
REMARK INTER:                  -4.453
REMARK INTRA:                  -1.976
REMARK UNBOUND:                -1.889
REMARK SMILES COc1cc(C=CCOC(=O)C=Cc2ccc(O)c(OC)c2)ccc1O
REMARK SMILES IDX 9 1 8 2 7 3 6 4 5 5 3 6 25 7 4 8 24 9 23 10 2 11 1 12 26 13
REMARK SMILES IDX 10 15 11 16 12 17 13 18 14 19 22 20 15 21 19 22 16 23 17 24
REMARK SMILES IDX 20 25 21 26 18 27
REMARK H PARENT 26 14 18 28
REMARK Flexibility Score: inf
ROOT
ATOM      1  O   UNL     1      -7.867   9.784  -0.843  1.00  0.00    -0.458 OA
ENDROOT
BRANCH   1   2
ATOM      2  C   UNL     1      -7.427   9.247  -2.089  1.00  0.00     0.261 C 
BRANCH   2   3
ATOM      3  C   UNL     1      -8.283   8.075  -2.491  1.00  0.00     0.015 C 
ATOM      4  C   UNL     1      -7.795   6.928  -2.984  1.00  0.00     0.007 C 
BRANCH   4   5
ATOM      5  C   UNL     1      -6.357   6.634  -3.150  1.00  0.00    -0.022 A 
ATOM      6  C   UNL     1      -4.293   5.693  -2.241  1.00  0.00     0.161 A 
ATOM      7  C   UNL     1      -3.606   6.115  -3.394  1.00  0.00     0.157 A 
ATOM      8  C   UNL     1      -5.671   5.966  -2.125  1.00  0.00     0.058 A 
ATOM      9  C   UNL     1      -4.285   6.807  -4.401  1.00  0.00     0.051 A 
ATOM     10  C   UNL     1      -5.649   7.074  -4.278  1.00  0.00     0.012 A 
BRANCH   6  11
ATOM     11  O   UNL     1      -3.583   5.012  -1.241  1.00  0.00    -0.493 OA
ATOM     12  C   UNL     1      -3.409   5.485   0.092  1.00  0.00     0.278 C 
ENDBRANCH   6  11
BRANCH   7  13
ATOM     13  O   UNL     1      -2.243   5.863  -3.553  1.00  0.00    -0.504 OA
ATOM     14  H   UNL     1      -1.756   6.059  -4.419  1.00  0.00     0.293 HD
ENDBRANCH   7  13
ENDBRANCH   4   5
ENDBRANCH   2   3
ENDBRANCH   1   2
BRANCH   1  15
ATOM     15  C   UNL     1      -7.076   9.793   0.311  1.00  0.00     0.331 C 
ATOM     16  O   UNL     1      -7.169  10.740   1.139  1.00  0.00    -0.247 OA
BRANCH  15  17
ATOM     17  C   UNL     1      -6.096   8.708   0.505  1.00  0.00     0.094 C 
ATOM     18  C   UNL     1      -6.340   7.527   1.095  1.00  0.00     0.016 C 
BRANCH  18  19
ATOM     19  C   UNL     1      -7.672   7.033   1.501  1.00  0.00    -0.021 A 
ATOM     20  C   UNL     1      -8.393   6.137   0.692  1.00  0.00     0.058 A 
ATOM     21  C   UNL     1      -8.182   7.389   2.756  1.00  0.00     0.012 A 
ATOM     22  C   UNL     1      -9.647   5.644   1.112  1.00  0.00     0.161 A 
ATOM     23  C   UNL     1      -9.421   6.902   3.178  1.00  0.00     0.051 A 
ATOM     24  C   UNL     1     -10.155   6.036   2.357  1.00  0.00     0.157 A 
BRANCH  22  25
ATOM     25  O   UNL     1     -10.409   4.767   0.322  1.00  0.00    -0.493 OA
ATOM     26  C   UNL     1     -10.708   4.977  -1.055  1.00  0.00     0.278 C 
ENDBRANCH  22  25
BRANCH  24  27
ATOM     27  O   UNL     1     -11.396   5.555   2.777  1.00  0.00    -0.504 OA
ATOM     28  H   UNL     1     -12.179   6.178   2.936  1.00  0.00     0.293 HD
ENDBRANCH  24  27
ENDBRANCH  18  19
ENDBRANCH  15  17
ENDBRANCH   1  15
TORSDOF 10
ENDMDL
MODEL 3
REMARK VINA RESULT:    -2.973      1.018      2.026
REMARK INTER + INTRA:          -6.427
REMARK INTER:                  -4.489
REMARK INTRA:                  -1.938
REMARK UNBOUND:                -1.889
REMARK SMILES COc1cc(C=CCOC(=O)C=Cc2ccc(O)c(OC)c2)ccc1O
REMARK SMILES IDX 9 1 8 2 7 3 6 4 5 5 3 6 25 7 4 8 24 9 23 10 2 11 1 12 26 13
REMARK SMILES IDX 10 15 11 16 12 17 13 18 14 19 22 20 15 21 19 22 16 23 17 24
REMARK SMILES IDX 20 25 21 26 18 27
REMARK H PARENT 26 14 18 28
REMARK Flexibility Score: inf
ROOT
ATOM      1  O   UNL     1      -6.435   9.470  -0.905  1.00  0.00    -0.458 OA
ENDROOT
BRANCH   1   2
ATOM      2  C   UNL     1      -6.706   9.212   0.471  1.00  0.00     0.261 C 
BRANCH   2   3
ATOM      3  C   UNL     1      -5.767   8.163   1.007  1.00  0.00     0.015 C 
ATOM      4  C   UNL     1      -6.168   7.066   1.664  1.00  0.00     0.007 C 
BRANCH   4   5
ATOM      5  C   UNL     1      -7.581   6.706   1.905  1.00  0.00    -0.022 A 
ATOM      6  C   UNL     1      -9.606   5.559   1.163  1.00  0.00     0.161 A 
ATOM      7  C   UNL     1     -10.287   6.054   2.291  1.00  0.00     0.157 A 
ATOM      8  C   UNL     1      -8.251   5.899   0.975  1.00  0.00     0.058 A 
ATOM      9  C   UNL     1      -9.624   6.882   3.202  1.00  0.00     0.051 A 
ATOM     10  C   UNL     1      -8.283   7.215   3.007  1.00  0.00     0.012 A 
BRANCH   6  11
ATOM     11  O   UNL     1     -10.299   4.740   0.259  1.00  0.00    -0.493 OA
ATOM     12  C   UNL     1     -10.577   5.085  -1.095  1.00  0.00     0.278 C 
ENDBRANCH   6  11
BRANCH   7  13
ATOM     13  O   UNL     1     -11.627   5.739   2.519  1.00  0.00    -0.504 OA
ATOM     14  H   UNL     1     -12.206   5.303   1.812  1.00  0.00     0.293 HD
ENDBRANCH   7  13
ENDBRANCH   4   5
ENDBRANCH   2   3
ENDBRANCH   1   2
BRANCH   1  15
ATOM     15  C   UNL     1      -7.405   9.376  -1.909  1.00  0.00     0.331 C 
ATOM     16  O   UNL     1      -7.660  10.370  -2.643  1.00  0.00    -0.247 OA
BRANCH  15  17
ATOM     17  C   UNL     1      -8.158   8.115  -2.048  1.00  0.00     0.094 C 
ATOM     18  C   UNL     1      -7.666   6.955  -2.510  1.00  0.00     0.016 C 
BRANCH  18  19
ATOM     19  C   UNL     1      -6.242   6.685  -2.799  1.00  0.00    -0.021 A 
ATOM     20  C   UNL     1      -5.426   6.014  -1.870  1.00  0.00     0.058 A 
ATOM     21  C   UNL     1      -5.724   7.016  -4.057  1.00  0.00     0.012 A 
ATOM     22  C   UNL     1      -4.079   5.729  -2.177  1.00  0.00     0.161 A 
ATOM     23  C   UNL     1      -4.392   6.734  -4.368  1.00  0.00     0.051 A 
ATOM     24  C   UNL     1      -3.568   6.097  -3.429  1.00  0.00     0.157 A 
BRANCH  22  25
ATOM     25  O   UNL     1      -3.225   5.084  -1.268  1.00  0.00    -0.493 OA
ATOM     26  C   UNL     1      -3.126   5.411   0.116  1.00  0.00     0.278 C 
ENDBRANCH  22  25
BRANCH  24  27
ATOM     27  O   UNL     1      -2.236   5.820  -3.738  1.00  0.00    -0.504 OA
ATOM     28  H   UNL     1      -1.966   4.951  -4.183  1.00  0.00     0.293 HD
ENDBRANCH  24  27
ENDBRANCH  18  19
ENDBRANCH  15  17
ENDBRANCH   1  15
TORSDOF 10
ENDMDL
MODEL 4
REMARK VINA RESULT:    -2.964      0.736      6.865
REMARK INTER + INTRA:          -6.412
REMARK INTER:                  -4.520
REMARK INTRA:                  -1.892
REMARK UNBOUND:                -1.889
REMARK SMILES COc1cc(C=CCOC(=O)C=Cc2ccc(O)c(OC)c2)ccc1O
REMARK SMILES IDX 9 1 8 2 7 3 6 4 5 5 3 6 25 7 4 8 24 9 23 10 2 11 1 12 26 13
REMARK SMILES IDX 10 15 11 16 12 17 13 18 14 19 22 20 15 21 19 22 16 23 17 24
REMARK SMILES IDX 20 25 21 26 18 27
REMARK H PARENT 26 14 18 28
REMARK Flexibility Score: inf
ROOT
ATOM      1  O   UNL     1      -8.247   9.158  -1.450  1.00  0.00    -0.458 OA
ENDROOT
BRANCH   1   2
ATOM      2  C   UNL     1      -7.402   8.882  -2.565  1.00  0.00     0.261 C 
BRANCH   2   3
ATOM      3  C   UNL     1      -7.977   7.770  -3.401  1.00  0.00     0.015 C 
ATOM      4  C   UNL     1      -7.254   6.751  -3.888  1.00  0.00     0.007 C 
BRANCH   4   5
ATOM      5  C   UNL     1      -5.814   6.550  -3.629  1.00  0.00    -0.022 A 
ATOM      6  C   UNL     1      -4.047   5.703  -2.169  1.00  0.00     0.161 A 
ATOM      7  C   UNL     1      -3.083   6.204  -3.063  1.00  0.00     0.157 A 
ATOM      8  C   UNL     1      -5.414   5.890  -2.458  1.00  0.00     0.058 A 
ATOM      9  C   UNL     1      -3.483   6.888  -4.215  1.00  0.00     0.051 A 
ATOM     10  C   UNL     1      -4.839   7.069  -4.493  1.00  0.00     0.012 A 
BRANCH   6  11
ATOM     11  O   UNL     1      -3.616   5.033  -1.014  1.00  0.00    -0.493 OA
ATOM     12  C   UNL     1      -3.537   5.621   0.281  1.00  0.00     0.278 C 
ENDBRANCH   6  11
BRANCH   7  13
ATOM     13  O   UNL     1      -1.719   6.039  -2.818  1.00  0.00    -0.504 OA
ATOM     14  H   UNL     1      -1.319   6.155  -1.895  1.00  0.00     0.293 HD
ENDBRANCH   7  13
ENDBRANCH   4   5
ENDBRANCH   2   3
ENDBRANCH   1   2
BRANCH   1  15
ATOM     15  C   UNL     1      -7.808   9.110  -0.123  1.00  0.00     0.331 C 
ATOM     16  O   UNL     1      -8.210   9.966   0.712  1.00  0.00    -0.247 OA
BRANCH  15  17
ATOM     17  C   UNL     1      -6.825   8.079   0.258  1.00  0.00     0.094 C 
ATOM     18  C   UNL     1      -7.111   6.818   0.621  1.00  0.00     0.016 C 
BRANCH  18  19
ATOM     19  C   UNL     1      -8.443   6.186   0.535  1.00  0.00    -0.021 A 
ATOM     20  C   UNL     1      -9.329   6.203   1.628  1.00  0.00     0.058 A 
ATOM     21  C   UNL     1      -8.868   5.646  -0.686  1.00  0.00     0.012 A 
ATOM     22  C   UNL     1     -10.612   5.629   1.517  1.00  0.00     0.161 A 
ATOM     23  C   UNL     1     -10.139   5.078  -0.802  1.00  0.00     0.051 A 
ATOM     24  C   UNL     1     -11.008   5.065   0.297  1.00  0.00     0.157 A 
BRANCH  22  25
ATOM     25  O   UNL     1     -11.516   5.604   2.592  1.00  0.00    -0.493 OA
ATOM     26  C   UNL     1     -11.242   6.132   3.887  1.00  0.00     0.278 C 
ENDBRANCH  22  25
BRANCH  24  27
ATOM     27  O   UNL     1     -12.276   4.493   0.183  1.00  0.00    -0.504 OA
ATOM     28  H   UNL     1     -12.933   4.801  -0.525  1.00  0.00     0.293 HD
ENDBRANCH  24  27
ENDBRANCH  18  19
ENDBRANCH  15  17
ENDBRANCH   1  15
TORSDOF 10
ENDMDL
MODEL 5
REMARK VINA RESULT:    -2.943      9.024     11.950
REMARK INTER + INTRA:          -6.380
REMARK INTER:                  -4.292
REMARK INTRA:                  -2.088
REMARK UNBOUND:                -1.889
REMARK SMILES COc1cc(C=CCOC(=O)C=Cc2ccc(O)c(OC)c2)ccc1O
REMARK SMILES IDX 9 1 8 2 7 3 6 4 5 5 3 6 25 7 4 8 24 9 23 10 2 11 1 12 26 13
REMARK SMILES IDX 10 15 11 16 12 17 13 18 14 19 22 20 15 21 19 22 16 23 17 24
REMARK SMILES IDX 20 25 21 26 18 27
REMARK H PARENT 26 14 18 28
REMARK Flexibility Score: inf
ROOT
ATOM      1  O   UNL     1      -7.600  -4.617   4.942  1.00  0.00    -0.458 OA
ENDROOT
BRANCH   1   2
ATOM      2  C   UNL     1      -6.191  -4.715   4.751  1.00  0.00     0.261 C 
BRANCH   2   3
ATOM      3  C   UNL     1      -5.485  -3.566   5.422  1.00  0.00     0.015 C 
ATOM      4  C   UNL     1      -4.703  -2.691   4.776  1.00  0.00     0.007 C 
BRANCH   4   5
ATOM      5  C   UNL     1      -4.467  -2.697   3.318  1.00  0.00    -0.022 A 
ATOM      6  C   UNL     1      -5.204  -2.067   1.075  1.00  0.00     0.161 A 
ATOM      7  C   UNL     1      -4.095  -2.743   0.533  1.00  0.00     0.157 A 
ATOM      8  C   UNL     1      -5.386  -2.058   2.473  1.00  0.00     0.058 A 
ATOM      9  C   UNL     1      -3.197  -3.404   1.375  1.00  0.00     0.051 A 
ATOM     10  C   UNL     1      -3.385  -3.391   2.758  1.00  0.00     0.012 A 
BRANCH   6  11
ATOM     11  O   UNL     1      -6.096  -1.423   0.204  1.00  0.00    -0.493 OA
ATOM     12  C   UNL     1      -7.366  -1.941  -0.180  1.00  0.00     0.278 C 
ENDBRANCH   6  11
BRANCH   7  13
ATOM     13  O   UNL     1      -3.874  -2.775  -0.844  1.00  0.00    -0.504 OA
ATOM     14  H   UNL     1      -4.511  -2.344  -1.503  1.00  0.00     0.293 HD
ENDBRANCH   7  13
ENDBRANCH   4   5
ENDBRANCH   2   3
ENDBRANCH   1   2
BRANCH   1  15
ATOM     15  C   UNL     1      -8.447  -3.919   4.074  1.00  0.00     0.331 C 
ATOM     16  O   UNL     1      -8.135  -3.773   2.861  1.00  0.00    -0.247 OA
BRANCH  15  17
ATOM     17  C   UNL     1      -9.673  -3.310   4.623  1.00  0.00     0.094 C 
ATOM     18  C   UNL     1      -9.724  -2.234   5.424  1.00  0.00     0.016 C 
BRANCH  18  19
ATOM     19  C   UNL     1      -8.579  -1.363   5.759  1.00  0.00    -0.021 A 
ATOM     20  C   UNL     1      -7.987  -1.398   7.034  1.00  0.00     0.058 A 
ATOM     21  C   UNL     1      -8.013  -0.560   4.760  1.00  0.00     0.012 A 
ATOM     22  C   UNL     1      -6.870  -0.588   7.327  1.00  0.00     0.161 A 
ATOM     23  C   UNL     1      -6.905   0.241   5.043  1.00  0.00     0.051 A 
ATOM     24  C   UNL     1      -6.337   0.233   6.324  1.00  0.00     0.157 A 
BRANCH  22  25
ATOM     25  O   UNL     1      -6.266  -0.576   8.595  1.00  0.00    -0.493 OA
ATOM     26  C   UNL     1      -6.740   0.181   9.705  1.00  0.00     0.278 C 
ENDBRANCH  22  25
BRANCH  24  27
ATOM     27  O   UNL     1      -5.233   1.038   6.608  1.00  0.00    -0.504 OA
ATOM     28  H   UNL     1      -4.541   0.763   7.295  1.00  0.00     0.293 HD
ENDBRANCH  24  27
ENDBRANCH  18  19
ENDBRANCH  15  17
ENDBRANCH   1  15
TORSDOF 10
ENDMDL
MODEL 6
REMARK VINA RESULT:    -2.937      9.045     11.045
REMARK INTER + INTRA:          -6.371
REMARK INTER:                  -4.553
REMARK INTRA:                  -1.817
REMARK UNBOUND:                -1.889
REMARK SMILES COc1cc(C=CCOC(=O)C=Cc2ccc(O)c(OC)c2)ccc1O
REMARK SMILES IDX 9 1 8 2 7 3 6 4 5 5 3 6 25 7 4 8 24 9 23 10 2 11 1 12 26 13
REMARK SMILES IDX 10 15 11 16 12 17 13 18 14 19 22 20 15 21 19 22 16 23 17 24
REMARK SMILES IDX 20 25 21 26 18 27
REMARK H PARENT 26 14 18 28
REMARK Flexibility Score: inf
ROOT
ATOM      1  O   UNL     1      -7.340  -4.855   4.691  1.00  0.00    -0.458 OA
ENDROOT
BRANCH   1   2
ATOM      2  C   UNL     1      -8.262  -4.033   5.403  1.00  0.00     0.261 C 
BRANCH   2   3
ATOM      3  C   UNL     1      -9.139  -3.272   4.445  1.00  0.00     0.015 C 
ATOM      4  C   UNL     1      -9.209  -1.934   4.396  1.00  0.00     0.007 C 
BRANCH   4   5
ATOM      5  C   UNL     1      -8.400  -1.024   5.233  1.00  0.00    -0.022 A 
ATOM      6  C   UNL     1      -7.960  -0.027   7.420  1.00  0.00     0.161 A 
ATOM      7  C   UNL     1      -6.931   0.745   6.849  1.00  0.00     0.157 A 
ATOM      8  C   UNL     1      -8.697  -0.905   6.599  1.00  0.00     0.058 A 
ATOM      9  C   UNL     1      -6.657   0.645   5.482  1.00  0.00     0.051 A 
ATOM     10  C   UNL     1      -7.391  -0.226   4.676  1.00  0.00     0.012 A 
BRANCH   6  11
ATOM     11  O   UNL     1      -8.222   0.103   8.792  1.00  0.00    -0.493 OA
ATOM     12  C   UNL     1      -9.228   0.945   9.348  1.00  0.00     0.278 C 
ENDBRANCH   6  11
BRANCH   7  13
ATOM     13  O   UNL     1      -6.174   1.623   7.625  1.00  0.00    -0.504 OA
ATOM     14  H   UNL     1      -5.595   1.303   8.391  1.00  0.00     0.293 HD
ENDBRANCH   7  13
ENDBRANCH   4   5
ENDBRANCH   2   3
ENDBRANCH   1   2
BRANCH   1  15
ATOM     15  C   UNL     1      -5.951  -4.739   4.817  1.00  0.00     0.331 C 
ATOM     16  O   UNL     1      -5.204  -5.723   4.561  1.00  0.00    -0.247 OA
BRANCH  15  17
ATOM     17  C   UNL     1      -5.391  -3.466   5.310  1.00  0.00     0.094 C 
ATOM     18  C   UNL     1      -4.702  -2.577   4.578  1.00  0.00     0.016 C 
BRANCH  18  19
ATOM     19  C   UNL     1      -4.529  -2.628   3.111  1.00  0.00    -0.021 A 
ATOM     20  C   UNL     1      -5.490  -2.074   2.246  1.00  0.00     0.058 A 
ATOM     21  C   UNL     1      -3.344  -3.151   2.578  1.00  0.00     0.012 A 
ATOM     22  C   UNL     1      -5.292  -2.096   0.849  1.00  0.00     0.161 A 
ATOM     23  C   UNL     1      -3.141  -3.172   1.197  1.00  0.00     0.051 A 
ATOM     24  C   UNL     1      -4.114  -2.652   0.332  1.00  0.00     0.157 A 
BRANCH  22  25
ATOM     25  O   UNL     1      -6.238  -1.576  -0.049  1.00  0.00    -0.493 OA
ATOM     26  C   UNL     1      -7.588  -2.023  -0.145  1.00  0.00     0.278 C 
ENDBRANCH  22  25
BRANCH  24  27
ATOM     27  O   UNL     1      -3.913  -2.679  -1.048  1.00  0.00    -0.504 OA
ATOM     28  H   UNL     1      -4.675  -2.515  -1.697  1.00  0.00     0.293 HD
ENDBRANCH  24  27
ENDBRANCH  18  19
ENDBRANCH  15  17
ENDBRANCH   1  15
TORSDOF 10
ENDMDL
MODEL 7
REMARK VINA RESULT:    -2.820      8.975     10.936
REMARK INTER + INTRA:          -6.193
REMARK INTER:                  -3.988
REMARK INTRA:                  -2.206
REMARK UNBOUND:                -1.889
REMARK SMILES COc1cc(C=CCOC(=O)C=Cc2ccc(O)c(OC)c2)ccc1O
REMARK SMILES IDX 9 1 8 2 7 3 6 4 5 5 3 6 25 7 4 8 24 9 23 10 2 11 1 12 26 13
REMARK SMILES IDX 10 15 11 16 12 17 13 18 14 19 22 20 15 21 19 22 16 23 17 24
REMARK SMILES IDX 20 25 21 26 18 27
REMARK H PARENT 26 14 18 28
REMARK Flexibility Score: inf
ROOT
ATOM      1  O   UNL     1      -4.466  -4.973   1.086  1.00  0.00    -0.458 OA
ENDROOT
BRANCH   1   2
ATOM      2  C   UNL     1      -5.716  -5.394   1.628  1.00  0.00     0.261 C 
BRANCH   2   3
ATOM      3  C   UNL     1      -5.545  -5.864   3.048  1.00  0.00     0.015 C 
ATOM      4  C   UNL     1      -6.276  -5.413   4.078  1.00  0.00     0.007 C 
BRANCH   4   5
ATOM      5  C   UNL     1      -7.379  -4.438   3.956  1.00  0.00    -0.022 A 
ATOM      6  C   UNL     1      -8.198  -2.155   4.247  1.00  0.00     0.161 A 
ATOM      7  C   UNL     1      -9.469  -2.565   3.804  1.00  0.00     0.157 A 
ATOM      8  C   UNL     1      -7.159  -3.104   4.328  1.00  0.00     0.058 A 
ATOM      9  C   UNL     1      -9.694  -3.902   3.461  1.00  0.00     0.051 A 
ATOM     10  C   UNL     1      -8.660  -4.836   3.545  1.00  0.00     0.012 A 
BRANCH   6  11
ATOM     11  O   UNL     1      -8.005  -0.810   4.597  1.00  0.00    -0.493 OA
ATOM     12  C   UNL     1      -7.769  -0.344   5.922  1.00  0.00     0.278 C 
ENDBRANCH   6  11
BRANCH   7  13
ATOM     13  O   UNL     1     -10.525  -1.659   3.705  1.00  0.00    -0.504 OA
ATOM     14  H   UNL     1     -10.999  -1.477   2.828  1.00  0.00     0.293 HD
ENDBRANCH   7  13
ENDBRANCH   4   5
ENDBRANCH   2   3
ENDBRANCH   1   2
BRANCH   1  15
ATOM     15  C   UNL     1      -4.224  -3.669   0.640  1.00  0.00     0.331 C 
ATOM     16  O   UNL     1      -3.583  -3.471  -0.428  1.00  0.00    -0.247 OA
BRANCH  15  17
ATOM     17  C   UNL     1      -4.680  -2.541   1.473  1.00  0.00     0.094 C 
ATOM     18  C   UNL     1      -5.747  -1.764   1.226  1.00  0.00     0.016 C 
BRANCH  18  19
ATOM     19  C   UNL     1      -6.755  -2.006   0.172  1.00  0.00    -0.021 A 
ATOM     20  C   UNL     1      -8.006  -2.571   0.478  1.00  0.00     0.058 A 
ATOM     21  C   UNL     1      -6.495  -1.576  -1.135  1.00  0.00     0.012 A 
ATOM     22  C   UNL     1      -8.971  -2.760  -0.532  1.00  0.00     0.161 A 
ATOM     23  C   UNL     1      -7.449  -1.758  -2.139  1.00  0.00     0.051 A 
ATOM     24  C   UNL     1      -8.682  -2.353  -1.842  1.00  0.00     0.157 A 
BRANCH  22  25
ATOM     25  O   UNL     1     -10.222  -3.344  -0.273  1.00  0.00    -0.493 OA
ATOM     26  C   UNL     1     -11.318  -2.664   0.333  1.00  0.00     0.278 C 
ENDBRANCH  22  25
BRANCH  24  27
ATOM     27  O   UNL     1      -9.632  -2.540  -2.846  1.00  0.00    -0.504 OA
ATOM     28  H   UNL     1      -9.838  -1.812  -3.522  1.00  0.00     0.293 HD
ENDBRANCH  24  27
ENDBRANCH  18  19
ENDBRANCH  15  17
ENDBRANCH   1  15
TORSDOF 10
ENDMDL
MODEL 8
REMARK VINA RESULT:    -2.775      2.903      5.473
REMARK INTER + INTRA:          -6.124
REMARK INTER:                  -3.906
REMARK INTRA:                  -2.218
REMARK UNBOUND:                -1.889
REMARK SMILES COc1cc(C=CCOC(=O)C=Cc2ccc(O)c(OC)c2)ccc1O
REMARK SMILES IDX 9 1 8 2 7 3 6 4 5 5 3 6 25 7 4 8 24 9 23 10 2 11 1 12 26 13
REMARK SMILES IDX 10 15 11 16 12 17 13 18 14 19 22 20 15 21 19 22 16 23 17 24
REMARK SMILES IDX 20 25 21 26 18 27
REMARK H PARENT 26 14 18 28
REMARK Flexibility Score: inf
ROOT
ATOM      1  O   UNL     1      -2.390   9.284  -2.121  1.00  0.00    -0.458 OA
ENDROOT
BRANCH   1   2
ATOM      2  C   UNL     1      -2.443   8.568  -3.353  1.00  0.00     0.261 C 
BRANCH   2   3
ATOM      3  C   UNL     1      -2.136   7.110  -3.131  1.00  0.00     0.015 C 
ATOM      4  C   UNL     1      -3.067   6.147  -3.099  1.00  0.00     0.007 C 
BRANCH   4   5
ATOM      5  C   UNL     1      -4.509   6.371  -3.329  1.00  0.00    -0.022 A 
ATOM      6  C   UNL     1      -6.801   6.282  -2.488  1.00  0.00     0.161 A 
ATOM      7  C   UNL     1      -7.267   6.717  -3.743  1.00  0.00     0.157 A 
ATOM      8  C   UNL     1      -5.417   6.103  -2.294  1.00  0.00     0.058 A 
ATOM      9  C   UNL     1      -6.362   6.956  -4.782  1.00  0.00     0.051 A 
ATOM     10  C   UNL     1      -4.993   6.775  -4.581  1.00  0.00     0.012 A 
BRANCH   6  11
ATOM     11  O   UNL     1      -7.733   6.038  -1.468  1.00  0.00    -0.493 OA
ATOM     12  C   UNL     1      -8.099   6.980  -0.464  1.00  0.00     0.278 C 
ENDBRANCH   6  11
BRANCH   7  13
ATOM     13  O   UNL     1      -8.628   6.912  -3.979  1.00  0.00    -0.504 OA
ATOM     14  H   UNL     1      -9.015   6.939  -4.914  1.00  0.00     0.293 HD
ENDBRANCH   7  13
ENDBRANCH   4   5
ENDBRANCH   2   3
ENDBRANCH   1   2
BRANCH   1  15
ATOM     15  C   UNL     1      -3.496   9.449  -1.281  1.00  0.00     0.331 C 
ATOM     16  O   UNL     1      -4.662   9.475  -1.761  1.00  0.00    -0.247 OA
BRANCH  15  17
ATOM     17  C   UNL     1      -3.263   9.650   0.162  1.00  0.00     0.094 C 
ATOM     18  C   UNL     1      -2.843   8.712   1.027  1.00  0.00     0.016 C 
BRANCH  18  19
ATOM     19  C   UNL     1      -2.372   7.361   0.660  1.00  0.00    -0.021 A 
ATOM     20  C   UNL     1      -1.024   7.123   0.337  1.00  0.00     0.058 A 
ATOM     21  C   UNL     1      -3.263   6.282   0.729  1.00  0.00     0.012 A 
ATOM     22  C   UNL     1      -0.582   5.820   0.027  1.00  0.00     0.161 A 
ATOM     23  C   UNL     1      -2.830   4.990   0.426  1.00  0.00     0.051 A 
ATOM     24  C   UNL     1      -1.495   4.758   0.070  1.00  0.00     0.157 A 
BRANCH  22  25
ATOM     25  O   UNL     1       0.750   5.545  -0.325  1.00  0.00    -0.493 OA
ATOM     26  C   UNL     1       1.307   5.779  -1.615  1.00  0.00     0.278 C 
ENDBRANCH  22  25
BRANCH  24  27
ATOM     27  O   UNL     1      -1.064   3.467  -0.238  1.00  0.00    -0.504 OA
ATOM     28  H   UNL     1      -0.469   3.284  -1.038  1.00  0.00     0.293 HD
ENDBRANCH  24  27
ENDBRANCH  18  19
ENDBRANCH  15  17
ENDBRANCH   1  15
TORSDOF 10
ENDMDL
MODEL 9
REMARK VINA RESULT:    -2.765      9.166     11.209
REMARK INTER + INTRA:          -6.109
REMARK INTER:                  -3.764
REMARK INTRA:                  -2.345
REMARK UNBOUND:                -1.889
REMARK SMILES COc1cc(C=CCOC(=O)C=Cc2ccc(O)c(OC)c2)ccc1O
REMARK SMILES IDX 9 1 8 2 7 3 6 4 5 5 3 6 25 7 4 8 24 9 23 10 2 11 1 12 26 13
REMARK SMILES IDX 10 15 11 16 12 17 13 18 14 19 22 20 15 21 19 22 16 23 17 24
REMARK SMILES IDX 20 25 21 26 18 27
REMARK H PARENT 26 14 18 28
REMARK Flexibility Score: inf
ROOT
ATOM      1  O   UNL     1      -5.150  -5.365  -2.119  1.00  0.00    -0.458 OA
ENDROOT
BRANCH   1   2
ATOM      2  C   UNL     1      -5.539  -4.332  -3.021  1.00  0.00     0.261 C 
BRANCH   2   3
ATOM      3  C   UNL     1      -5.115  -2.986  -2.498  1.00  0.00     0.015 C 
ATOM      4  C   UNL     1      -5.972  -2.020  -2.138  1.00  0.00     0.007 C 
BRANCH   4   5
ATOM      5  C   UNL     1      -7.442  -2.159  -2.154  1.00  0.00    -0.022 A 
ATOM      6  C   UNL     1      -9.514  -2.631  -0.947  1.00  0.00     0.161 A 
ATOM      7  C   UNL     1     -10.232  -2.500  -2.150  1.00  0.00     0.157 A 
ATOM      8  C   UNL     1      -8.114  -2.466  -0.961  1.00  0.00     0.058 A 
ATOM      9  C   UNL     1      -9.557  -2.223  -3.342  1.00  0.00     0.051 A 
ATOM     10  C   UNL     1      -8.170  -2.063  -3.348  1.00  0.00     0.012 A 
BRANCH   6  11
ATOM     11  O   UNL     1     -10.216  -2.922   0.232  1.00  0.00    -0.493 OA
ATOM     12  C   UNL     1     -10.413  -4.233   0.754  1.00  0.00     0.278 C 
ENDBRANCH   6  11
BRANCH   7  13
ATOM     13  O   UNL     1     -11.618  -2.651  -2.182  1.00  0.00    -0.504 OA
ATOM     14  H   UNL     1     -12.243  -1.868  -2.332  1.00  0.00     0.293 HD
ENDBRANCH   7  13
ENDBRANCH   4   5
ENDBRANCH   2   3
ENDBRANCH   1   2
BRANCH   1  15
ATOM     15  C   UNL     1      -6.004  -5.899  -1.148  1.00  0.00     0.331 C 
ATOM     16  O   UNL     1      -7.255  -5.836  -1.296  1.00  0.00    -0.247 OA
BRANCH  15  17
ATOM     17  C   UNL     1      -5.411  -6.481   0.071  1.00  0.00     0.094 C 
ATOM     18  C   UNL     1      -5.169  -5.823   1.216  1.00  0.00     0.016 C 
BRANCH  18  19
ATOM     19  C   UNL     1      -5.612  -4.446   1.521  1.00  0.00    -0.021 A 
ATOM     20  C   UNL     1      -6.824  -4.204   2.191  1.00  0.00     0.058 A 
ATOM     21  C   UNL     1      -4.763  -3.372   1.223  1.00  0.00     0.012 A 
ATOM     22  C   UNL     1      -7.214  -2.886   2.510  1.00  0.00     0.161 A 
ATOM     23  C   UNL     1      -5.143  -2.066   1.538  1.00  0.00     0.051 A 
ATOM     24  C   UNL     1      -6.367  -1.821   2.175  1.00  0.00     0.157 A 
BRANCH  22  25
ATOM     25  O   UNL     1      -8.428  -2.600   3.156  1.00  0.00    -0.493 OA
ATOM     26  C   UNL     1      -8.784  -3.080   4.449  1.00  0.00     0.278 C 
ENDBRANCH  22  25
BRANCH  24  27
ATOM     27  O   UNL     1      -6.748  -0.515   2.485  1.00  0.00    -0.504 OA
ATOM     28  H   UNL     1      -7.569  -0.090   2.069  1.00  0.00     0.293 HD
ENDBRANCH  24  27
ENDBRANCH  18  19
ENDBRANCH  15  17
ENDBRANCH   1  15
TORSDOF 10
ENDMDL
