MODEL 1
REMARK VINA RESULT:    -4.781      0.000      0.000
REMARK INTER + INTRA:         -10.249
REMARK INTER:                  -8.694
REMARK INTRA:                  -1.555
REMARK UNBOUND:                -1.555
REMARK SMILES CCCCCCCCCCCCCCCC(=O)[O-]
REMARK SMILES IDX 9 1 10 2 11 3 12 4 13 5 14 6 15 7 16 8 17 9 18 10 8 11 7 12
REMARK SMILES IDX 6 13 5 14 4 15 3 16 2 17 1 18
REMARK H PARENT
REMARK Flexibility Score: inf
ROOT
ATOM      1  C   UNL     1     -13.784  -2.769  35.719  1.00  0.00     0.000 C 
ENDROOT
BRANCH   1   2
ATOM      2  C   UNL     1     -15.087  -3.392  36.250  1.00  0.00     0.000 C 
BRANCH   2   3
ATOM      3  C   UNL     1     -16.387  -2.769  35.701  1.00  0.00     0.000 C 
BRANCH   3   4
ATOM      4  C   UNL     1     -16.801  -1.436  36.350  1.00  0.00     0.000 C 
BRANCH   4   5
ATOM      5  C   UNL     1     -17.579  -0.521  35.389  1.00  0.00     0.000 C 
BRANCH   5   6
ATOM      6  C   UNL     1     -18.490   0.471  36.128  1.00  0.00     0.006 C 
BRANCH   6   7
ATOM      7  C   UNL     1     -17.772   1.778  36.490  1.00  0.00     0.053 C 
BRANCH   7   8
ATOM      8  C   UNL     1     -17.916   2.064  37.952  1.00  0.00     0.041 C 
ATOM      9  O   UNL     1     -16.901   2.324  38.650  1.00  0.00    -0.550 OA
ATOM     10  O   UNL     1     -19.166   1.995  38.555  1.00  0.00    -0.550 OA
ENDBRANCH   7   8
ENDBRANCH   6   7
ENDBRANCH   5   6
ENDBRANCH   4   5
ENDBRANCH   3   4
ENDBRANCH   2   3
ENDBRANCH   1   2
BRANCH   1  11
ATOM     11  C   UNL     1     -13.795  -2.574  34.193  1.00  0.00     0.000 C 
BRANCH  11  12
ATOM     12  C   UNL     1     -13.607  -3.895  33.429  1.00  0.00    -0.000 C 
BRANCH  12  13
ATOM     13  C   UNL     1     -14.465  -3.965  32.153  1.00  0.00    -0.000 C 
BRANCH  13  14
ATOM     14  C   UNL     1     -15.804  -4.686  32.380  1.00  0.00    -0.000 C 
BRANCH  14  15
ATOM     15  C   UNL     1     -17.001  -3.723  32.402  1.00  0.00    -0.000 C 
BRANCH  15  16
ATOM     16  C   UNL     1     -16.644  -2.390  31.728  1.00  0.00    -0.000 C 
BRANCH  16  17
ATOM     17  C   UNL     1     -17.860  -1.707  31.086  1.00  0.00    -0.003 C 
ATOM     18  C   UNL     1     -19.172  -2.051  31.789  1.00  0.00     0.004 C 
ENDBRANCH  16  17
ENDBRANCH  15  16
ENDBRANCH  14  15
ENDBRANCH  13  14
ENDBRANCH  12  13
ENDBRANCH  11  12
ENDBRANCH   1  11
TORSDOF 14
ENDMDL
MODEL 2
REMARK VINA RESULT:    -4.668      1.040      1.647
REMARK INTER + INTRA:         -10.044
REMARK INTER:                  -8.599
REMARK INTRA:                  -1.445
REMARK UNBOUND:                -1.555
REMARK SMILES CCCCCCCCCCCCCCCC(=O)[O-]
REMARK SMILES IDX 9 1 10 2 11 3 12 4 13 5 14 6 15 7 16 8 17 9 18 10 8 11 7 12
REMARK SMILES IDX 6 13 5 14 4 15 3 16 2 17 1 18
REMARK H PARENT
REMARK Flexibility Score: inf
ROOT
ATOM      1  C   UNL     1     -13.942  -2.692  33.298  1.00  0.00     0.000 C 
ENDROOT
BRANCH   1   2
ATOM      2  C   UNL     1     -13.432  -2.657  34.750  1.00  0.00     0.000 C 
BRANCH   2   3
ATOM      3  C   UNL     1     -14.491  -2.966  35.828  1.00  0.00     0.000 C 
BRANCH   3   4
ATOM      4  C   UNL     1     -15.920  -2.497  35.499  1.00  0.00     0.000 C 
BRANCH   4   5
ATOM      5  C   UNL     1     -16.703  -2.051  36.745  1.00  0.00     0.000 C 
BRANCH   5   6
ATOM      6  C   UNL     1     -17.550  -0.795  36.491  1.00  0.00     0.006 C 
BRANCH   6   7
ATOM      7  C   UNL     1     -17.799   0.020  37.767  1.00  0.00     0.053 C 
BRANCH   7   8
ATOM      8  C   UNL     1     -18.113   1.442  37.425  1.00  0.00     0.041 C 
ATOM      9  O   UNL     1     -17.706   1.939  36.341  1.00  0.00    -0.550 OA
ATOM     10  O   UNL     1     -18.811   2.237  38.326  1.00  0.00    -0.550 OA
ENDBRANCH   7   8
ENDBRANCH   6   7
ENDBRANCH   5   6
ENDBRANCH   4   5
ENDBRANCH   3   4
ENDBRANCH   2   3
ENDBRANCH   1   2
BRANCH   1  11
ATOM     11  C   UNL     1     -13.348  -3.855  32.485  1.00  0.00     0.000 C 
BRANCH  11  12
ATOM     12  C   UNL     1     -14.186  -5.139  32.595  1.00  0.00    -0.000 C 
BRANCH  12  13
ATOM     13  C   UNL     1     -15.454  -5.092  31.724  1.00  0.00    -0.000 C 
BRANCH  13  14
ATOM     14  C   UNL     1     -16.745  -5.154  32.556  1.00  0.00    -0.000 C 
BRANCH  14  15
ATOM     15  C   UNL     1     -17.529  -3.833  32.537  1.00  0.00    -0.000 C 
BRANCH  15  16
ATOM     16  C   UNL     1     -16.983  -2.887  31.457  1.00  0.00    -0.000 C 
BRANCH  16  17
ATOM     17  C   UNL     1     -17.968  -1.765  31.100  1.00  0.00    -0.003 C 
ATOM     18  C   UNL     1     -19.396  -2.065  31.555  1.00  0.00     0.004 C 
ENDBRANCH  16  17
ENDBRANCH  15  16
ENDBRANCH  14  15
ENDBRANCH  13  14
ENDBRANCH  12  13
ENDBRANCH  11  12
ENDBRANCH   1  11
TORSDOF 14
ENDMDL
MODEL 3
REMARK VINA RESULT:    -4.647      4.194      7.163
REMARK INTER + INTRA:         -10.005
REMARK INTER:                  -8.361
REMARK INTRA:                  -1.644
REMARK UNBOUND:                -1.555
REMARK SMILES CCCCCCCCCCCCCCCC(=O)[O-]
REMARK SMILES IDX 9 1 10 2 11 3 12 4 13 5 14 6 15 7 16 8 17 9 18 10 8 11 7 12
REMARK SMILES IDX 6 13 5 14 4 15 3 16 2 17 1 18
REMARK H PARENT
REMARK Flexibility Score: inf
ROOT
ATOM      1  C   UNL     1     -17.162  -1.356  33.971  1.00  0.00     0.000 C 
ENDROOT
BRANCH   1   2
ATOM      2  C   UNL     1     -16.713  -1.407  32.500  1.00  0.00     0.000 C 
BRANCH   2   3
ATOM      3  C   UNL     1     -16.479  -2.821  31.931  1.00  0.00     0.000 C 
BRANCH   3   4
ATOM      4  C   UNL     1     -15.060  -3.088  31.397  1.00  0.00     0.000 C 
BRANCH   4   5
ATOM      5  C   UNL     1     -13.967  -2.802  32.439  1.00  0.00     0.000 C 
BRANCH   5   6
ATOM      6  C   UNL     1     -13.507  -4.070  33.175  1.00  0.00     0.006 C 
BRANCH   6   7
ATOM      7  C   UNL     1     -12.623  -4.973  32.304  1.00  0.00     0.053 C 
BRANCH   7   8
ATOM      8  C   UNL     1     -13.212  -6.345  32.209  1.00  0.00     0.041 C 
ATOM      9  O   UNL     1     -14.296  -6.529  31.594  1.00  0.00    -0.550 OA
ATOM     10  O   UNL     1     -12.591  -7.414  32.843  1.00  0.00    -0.550 OA
ENDBRANCH   7   8
ENDBRANCH   6   7
ENDBRANCH   5   6
ENDBRANCH   4   5
ENDBRANCH   3   4
ENDBRANCH   2   3
ENDBRANCH   1   2
BRANCH   1  11
ATOM     11  C   UNL     1     -16.777  -2.623  34.756  1.00  0.00     0.000 C 
BRANCH  11  12
ATOM     12  C   UNL     1     -15.683  -2.358  35.803  1.00  0.00    -0.000 C 
BRANCH  12  13
ATOM     13  C   UNL     1     -16.185  -2.554  37.244  1.00  0.00    -0.000 C 
BRANCH  13  14
ATOM     14  C   UNL     1     -17.548  -1.888  37.491  1.00  0.00    -0.000 C 
BRANCH  14  15
ATOM     15  C   UNL     1     -17.429  -0.393  37.824  1.00  0.00    -0.000 C 
BRANCH  15  16
ATOM     16  C   UNL     1     -18.774   0.322  37.622  1.00  0.00    -0.000 C 
BRANCH  16  17
ATOM     17  C   UNL     1     -18.860   1.052  36.275  1.00  0.00    -0.003 C 
ATOM     18  C   UNL     1     -17.550   1.741  35.890  1.00  0.00     0.004 C 
ENDBRANCH  16  17
ENDBRANCH  15  16
ENDBRANCH  14  15
ENDBRANCH  13  14
ENDBRANCH  12  13
ENDBRANCH  11  12
ENDBRANCH   1  11
TORSDOF 14
ENDMDL
MODEL 4
REMARK VINA RESULT:    -4.631      2.098      3.713
REMARK INTER + INTRA:          -9.977
REMARK INTER:                  -8.510
REMARK INTRA:                  -1.467
REMARK UNBOUND:                -1.555
REMARK SMILES CCCCCCCCCCCCCCCC(=O)[O-]
REMARK SMILES IDX 9 1 10 2 11 3 12 4 13 5 14 6 15 7 16 8 17 9 18 10 8 11 7 12
REMARK SMILES IDX 6 13 5 14 4 15 3 16 2 17 1 18
REMARK H PARENT
REMARK Flexibility Score: inf
ROOT
ATOM      1  C   UNL     1     -15.451  -3.804  32.644  1.00  0.00     0.000 C 
ENDROOT
BRANCH   1   2
ATOM      2  C   UNL     1     -16.138  -3.243  31.386  1.00  0.00     0.000 C 
BRANCH   2   3
ATOM      3  C   UNL     1     -17.269  -2.229  31.649  1.00  0.00     0.000 C 
BRANCH   3   4
ATOM      4  C   UNL     1     -16.991  -1.212  32.772  1.00  0.00     0.000 C 
BRANCH   4   5
ATOM      5  C   UNL     1     -17.842  -1.464  34.028  1.00  0.00     0.000 C 
BRANCH   5   6
ATOM      6  C   UNL     1     -17.002  -1.476  35.315  1.00  0.00     0.006 C 
BRANCH   6   7
ATOM      7  C   UNL     1     -17.680  -0.729  36.471  1.00  0.00     0.053 C 
BRANCH   7   8
ATOM      8  C   UNL     1     -18.114   0.633  36.028  1.00  0.00     0.041 C 
ATOM      9  O   UNL     1     -17.257   1.510  35.740  1.00  0.00    -0.550 OA
ATOM     10  O   UNL     1     -19.466   0.951  35.981  1.00  0.00    -0.550 OA
ENDBRANCH   7   8
ENDBRANCH   6   7
ENDBRANCH   5   6
ENDBRANCH   4   5
ENDBRANCH   3   4
ENDBRANCH   2   3
ENDBRANCH   1   2
BRANCH   1  11
ATOM     11  C   UNL     1     -14.016  -3.278  32.824  1.00  0.00     0.000 C 
BRANCH  11  12
ATOM     12  C   UNL     1     -12.954  -4.324  32.449  1.00  0.00    -0.000 C 
BRANCH  12  13
ATOM     13  C   UNL     1     -12.589  -5.243  33.628  1.00  0.00    -0.000 C 
BRANCH  13  14
ATOM     14  C   UNL     1     -13.063  -6.691  33.418  1.00  0.00    -0.000 C 
BRANCH  14  15
ATOM     15  C   UNL     1     -13.473  -6.977  31.965  1.00  0.00    -0.000 C 
BRANCH  15  16
ATOM     16  C   UNL     1     -14.914  -7.506  31.897  1.00  0.00    -0.000 C 
BRANCH  16  17
ATOM     17  C   UNL     1     -15.729  -6.858  30.768  1.00  0.00    -0.003 C 
ATOM     18  C   UNL     1     -17.167  -7.370  30.708  1.00  0.00     0.004 C 
ENDBRANCH  16  17
ENDBRANCH  15  16
ENDBRANCH  14  15
ENDBRANCH  13  14
ENDBRANCH  12  13
ENDBRANCH  11  12
ENDBRANCH   1  11
TORSDOF 14
ENDMDL
MODEL 5
REMARK VINA RESULT:    -4.598      1.444      3.691
REMARK INTER + INTRA:          -9.916
REMARK INTER:                  -8.269
REMARK INTRA:                  -1.646
REMARK UNBOUND:                -1.555
REMARK SMILES CCCCCCCCCCCCCCCC(=O)[O-]
REMARK SMILES IDX 9 1 10 2 11 3 12 4 13 5 14 6 15 7 16 8 17 9 18 10 8 11 7 12
REMARK SMILES IDX 6 13 5 14 4 15 3 16 2 17 1 18
REMARK H PARENT
REMARK Flexibility Score: inf
ROOT
ATOM      1  C   UNL     1     -17.666  -3.898  32.119  1.00  0.00     0.000 C 
ENDROOT
BRANCH   1   2
ATOM      2  C   UNL     1     -16.676  -2.729  31.966  1.00  0.00     0.000 C 
BRANCH   2   3
ATOM      3  C   UNL     1     -17.132  -1.394  32.588  1.00  0.00     0.000 C 
BRANCH   3   4
ATOM      4  C   UNL     1     -17.936  -1.518  33.895  1.00  0.00     0.000 C 
BRANCH   4   5
ATOM      5  C   UNL     1     -17.057  -1.875  35.104  1.00  0.00     0.000 C 
BRANCH   5   6
ATOM      6  C   UNL     1     -17.206  -0.872  36.259  1.00  0.00     0.006 C 
BRANCH   6   7
ATOM      7  C   UNL     1     -17.912   0.421  35.832  1.00  0.00     0.053 C 
BRANCH   7   8
ATOM      8  C   UNL     1     -18.558   1.077  37.012  1.00  0.00     0.041 C 
ATOM      9  O   UNL     1     -18.140   2.190  37.427  1.00  0.00    -0.550 OA
ATOM     10  O   UNL     1     -19.591   0.435  37.685  1.00  0.00    -0.550 OA
ENDBRANCH   7   8
ENDBRANCH   6   7
ENDBRANCH   5   6
ENDBRANCH   4   5
ENDBRANCH   3   4
ENDBRANCH   2   3
ENDBRANCH   1   2
BRANCH   1  11
ATOM     11  C   UNL     1     -16.965  -5.243  32.376  1.00  0.00     0.000 C 
BRANCH  11  12
ATOM     12  C   UNL     1     -15.649  -5.381  31.594  1.00  0.00    -0.000 C 
BRANCH  12  13
ATOM     13  C   UNL     1     -14.917  -6.700  31.898  1.00  0.00    -0.000 C 
BRANCH  13  14
ATOM     14  C   UNL     1     -13.394  -6.522  31.998  1.00  0.00    -0.000 C 
BRANCH  14  15
ATOM     15  C   UNL     1     -12.990  -5.126  32.496  1.00  0.00    -0.000 C 
BRANCH  15  16
ATOM     16  C   UNL     1     -12.985  -5.073  34.031  1.00  0.00    -0.000 C 
BRANCH  16  17
ATOM     17  C   UNL     1     -13.810  -3.902  34.586  1.00  0.00    -0.003 C 
ATOM     18  C   UNL     1     -13.723  -2.651  33.712  1.00  0.00     0.004 C 
ENDBRANCH  16  17
ENDBRANCH  15  16
ENDBRANCH  14  15
ENDBRANCH  13  14
ENDBRANCH  12  13
ENDBRANCH  11  12
ENDBRANCH   1  11
TORSDOF 14
ENDMDL
MODEL 6
REMARK VINA RESULT:    -4.587      1.437      2.056
REMARK INTER + INTRA:          -9.896
REMARK INTER:                  -8.363
REMARK INTRA:                  -1.534
REMARK UNBOUND:                -1.555
REMARK SMILES CCCCCCCCCCCCCCCC(=O)[O-]
REMARK SMILES IDX 9 1 10 2 11 3 12 4 13 5 14 6 15 7 16 8 17 9 18 10 8 11 7 12
REMARK SMILES IDX 6 13 5 14 4 15 3 16 2 17 1 18
REMARK H PARENT
REMARK Flexibility Score: inf
ROOT
ATOM      1  C   UNL     1     -14.106  -4.173  35.536  1.00  0.00     0.000 C 
ENDROOT
BRANCH   1   2
ATOM      2  C   UNL     1     -14.409  -2.665  35.507  1.00  0.00     0.000 C 
BRANCH   2   3
ATOM      3  C   UNL     1     -15.859  -2.276  35.859  1.00  0.00     0.000 C 
BRANCH   3   4
ATOM      4  C   UNL     1     -16.297  -2.607  37.298  1.00  0.00     0.000 C 
BRANCH   4   5
ATOM      5  C   UNL     1     -17.400  -1.669  37.815  1.00  0.00     0.000 C 
BRANCH   5   6
ATOM      6  C   UNL     1     -17.798  -0.601  36.785  1.00  0.00     0.006 C 
BRANCH   6   7
ATOM      7  C   UNL     1     -18.692   0.494  37.382  1.00  0.00     0.053 C 
BRANCH   7   8
ATOM      8  C   UNL     1     -18.106   1.846  37.123  1.00  0.00     0.041 C 
ATOM      9  O   UNL     1     -17.891   2.637  38.079  1.00  0.00    -0.550 OA
ATOM     10  O   UNL     1     -17.842   2.253  35.821  1.00  0.00    -0.550 OA
ENDBRANCH   7   8
ENDBRANCH   6   7
ENDBRANCH   5   6
ENDBRANCH   4   5
ENDBRANCH   3   4
ENDBRANCH   2   3
ENDBRANCH   1   2
BRANCH   1  11
ATOM     11  C   UNL     1     -12.831  -4.541  34.757  1.00  0.00     0.000 C 
BRANCH  11  12
ATOM     12  C   UNL     1     -13.031  -5.758  33.839  1.00  0.00    -0.000 C 
BRANCH  12  13
ATOM     13  C   UNL     1     -13.195  -5.361  32.361  1.00  0.00    -0.000 C 
BRANCH  13  14
ATOM     14  C   UNL     1     -12.958  -3.860  32.123  1.00  0.00    -0.000 C 
BRANCH  14  15
ATOM     15  C   UNL     1     -14.256  -3.092  31.831  1.00  0.00    -0.000 C 
BRANCH  15  16
ATOM     16  C   UNL     1     -15.465  -4.041  31.827  1.00  0.00    -0.000 C 
BRANCH  16  17
ATOM     17  C   UNL     1     -16.750  -3.364  32.325  1.00  0.00    -0.003 C 
ATOM     18  C   UNL     1     -16.766  -1.858  32.061  1.00  0.00     0.004 C 
ENDBRANCH  16  17
ENDBRANCH  15  16
ENDBRANCH  14  15
ENDBRANCH  13  14
ENDBRANCH  12  13
ENDBRANCH  11  12
ENDBRANCH   1  11
TORSDOF 14
ENDMDL
MODEL 7
REMARK VINA RESULT:    -4.582      2.749      5.548
REMARK INTER + INTRA:          -9.887
REMARK INTER:                  -8.328
REMARK INTRA:                  -1.559
REMARK UNBOUND:                -1.555
REMARK SMILES CCCCCCCCCCCCCCCC(=O)[O-]
REMARK SMILES IDX 9 1 10 2 11 3 12 4 13 5 14 6 15 7 16 8 17 9 18 10 8 11 7 12
REMARK SMILES IDX 6 13 5 14 4 15 3 16 2 17 1 18
REMARK H PARENT
REMARK Flexibility Score: inf
ROOT
ATOM      1  C   UNL     1     -15.034  -5.582  34.723  1.00  0.00     0.000 C 
ENDROOT
BRANCH   1   2
ATOM      2  C   UNL     1     -13.825  -4.959  34.002  1.00  0.00     0.000 C 
BRANCH   2   3
ATOM      3  C   UNL     1     -14.096  -4.466  32.566  1.00  0.00     0.000 C 
BRANCH   3   4
ATOM      4  C   UNL     1     -13.877  -2.960  32.336  1.00  0.00     0.000 C 
BRANCH   4   5
ATOM      5  C   UNL     1     -15.164  -2.136  32.509  1.00  0.00     0.000 C 
BRANCH   5   6
ATOM      6  C   UNL     1     -16.326  -2.673  31.658  1.00  0.00     0.006 C 
BRANCH   6   7
ATOM      7  C   UNL     1     -17.399  -1.611  31.385  1.00  0.00     0.053 C 
BRANCH   7   8
ATOM      8  C   UNL     1     -18.668  -1.957  32.098  1.00  0.00     0.041 C 
ATOM      9  O   UNL     1     -18.721  -1.914  33.356  1.00  0.00    -0.550 OA
ATOM     10  O   UNL     1     -19.780  -2.376  31.377  1.00  0.00    -0.550 OA
ENDBRANCH   7   8
ENDBRANCH   6   7
ENDBRANCH   5   6
ENDBRANCH   4   5
ENDBRANCH   3   4
ENDBRANCH   2   3
ENDBRANCH   1   2
BRANCH   1  11
ATOM     11  C   UNL     1     -16.039  -4.528  35.219  1.00  0.00     0.000 C 
BRANCH  11  12
ATOM     12  C   UNL     1     -15.363  -3.389  35.998  1.00  0.00    -0.000 C 
BRANCH  12  13
ATOM     13  C   UNL     1     -16.218  -2.110  36.035  1.00  0.00    -0.000 C 
BRANCH  13  14
ATOM     14  C   UNL     1     -16.886  -1.885  37.402  1.00  0.00    -0.000 C 
BRANCH  14  15
ATOM     15  C   UNL     1     -17.894  -0.726  37.388  1.00  0.00    -0.000 C 
BRANCH  15  16
ATOM     16  C   UNL     1     -17.783   0.081  36.085  1.00  0.00    -0.000 C 
BRANCH  16  17
ATOM     17  C   UNL     1     -17.676   1.593  36.333  1.00  0.00    -0.003 C 
ATOM     18  C   UNL     1     -17.874   1.966  37.802  1.00  0.00     0.004 C 
ENDBRANCH  16  17
ENDBRANCH  15  16
ENDBRANCH  14  15
ENDBRANCH  13  14
ENDBRANCH  12  13
ENDBRANCH  11  12
ENDBRANCH   1  11
TORSDOF 14
ENDMDL
MODEL 8
REMARK VINA RESULT:    -4.486      3.791      6.442
REMARK INTER + INTRA:          -9.713
REMARK INTER:                  -7.964
REMARK INTRA:                  -1.749
REMARK UNBOUND:                -1.555
REMARK SMILES CCCCCCCCCCCCCCCC(=O)[O-]
REMARK SMILES IDX 9 1 10 2 11 3 12 4 13 5 14 6 15 7 16 8 17 9 18 10 8 11 7 12
REMARK SMILES IDX 6 13 5 14 4 15 3 16 2 17 1 18
REMARK H PARENT
REMARK Flexibility Score: inf
ROOT
ATOM      1  C   UNL     1     -14.806  -5.369  35.045  1.00  0.00     0.000 C 
ENDROOT
BRANCH   1   2
ATOM      2  C   UNL     1     -13.553  -4.615  34.564  1.00  0.00     0.000 C 
BRANCH   2   3
ATOM      3  C   UNL     1     -13.629  -4.061  33.127  1.00  0.00     0.000 C 
BRANCH   3   4
ATOM      4  C   UNL     1     -13.890  -2.547  33.020  1.00  0.00     0.000 C 
BRANCH   4   5
ATOM      5  C   UNL     1     -15.302  -2.221  32.508  1.00  0.00     0.000 C 
BRANCH   5   6
ATOM      6  C   UNL     1     -15.817  -3.258  31.498  1.00  0.00     0.006 C 
BRANCH   6   7
ATOM      7  C   UNL     1     -17.073  -3.991  31.990  1.00  0.00     0.053 C 
BRANCH   7   8
ATOM      8  C   UNL     1     -16.897  -5.471  31.860  1.00  0.00     0.041 C 
ATOM      9  O   UNL     1     -17.654  -6.257  32.489  1.00  0.00    -0.550 OA
ATOM     10  O   UNL     1     -15.864  -5.984  31.084  1.00  0.00    -0.550 OA
ENDBRANCH   7   8
ENDBRANCH   6   7
ENDBRANCH   5   6
ENDBRANCH   4   5
ENDBRANCH   3   4
ENDBRANCH   2   3
ENDBRANCH   1   2
BRANCH   1  11
ATOM     11  C   UNL     1     -15.959  -4.425  35.428  1.00  0.00     0.000 C 
BRANCH  11  12
ATOM     12  C   UNL     1     -15.515  -3.313  36.392  1.00  0.00    -0.000 C 
BRANCH  12  13
ATOM     13  C   UNL     1     -16.410  -2.064  36.304  1.00  0.00    -0.000 C 
BRANCH  13  14
ATOM     14  C   UNL     1     -17.148  -1.772  37.621  1.00  0.00    -0.000 C 
BRANCH  14  15
ATOM     15  C   UNL     1     -17.918  -0.443  37.589  1.00  0.00    -0.000 C 
BRANCH  15  16
ATOM     16  C   UNL     1     -17.829   0.208  36.201  1.00  0.00    -0.000 C 
BRANCH  16  17
ATOM     17  C   UNL     1     -18.010   1.733  36.249  1.00  0.00    -0.003 C 
ATOM     18  C   UNL     1     -17.904   2.295  37.667  1.00  0.00     0.004 C 
ENDBRANCH  16  17
ENDBRANCH  15  16
ENDBRANCH  14  15
ENDBRANCH  13  14
ENDBRANCH  12  13
ENDBRANCH  11  12
ENDBRANCH   1  11
TORSDOF 14
ENDMDL
MODEL 9
REMARK VINA RESULT:    -4.442      2.931      4.628
REMARK INTER + INTRA:          -9.632
REMARK INTER:                  -7.560
REMARK INTRA:                  -2.072
REMARK UNBOUND:                -1.555
REMARK SMILES CCCCCCCCCCCCCCCC(=O)[O-]
REMARK SMILES IDX 9 1 10 2 11 3 12 4 13 5 14 6 15 7 16 8 17 9 18 10 8 11 7 12
REMARK SMILES IDX 6 13 5 14 4 15 3 16 2 17 1 18
REMARK H PARENT
REMARK Flexibility Score: inf
ROOT
ATOM      1  C   UNL     1     -14.303  -7.115  32.006  1.00  0.00     0.000 C 
ENDROOT
BRANCH   1   2
ATOM      2  C   UNL     1     -13.068  -6.223  31.788  1.00  0.00     0.000 C 
BRANCH   2   3
ATOM      3  C   UNL     1     -12.946  -5.021  32.746  1.00  0.00     0.000 C 
BRANCH   3   4
ATOM      4  C   UNL     1     -12.732  -5.380  34.227  1.00  0.00     0.000 C 
BRANCH   4   5
ATOM      5  C   UNL     1     -13.972  -5.101  35.093  1.00  0.00     0.000 C 
BRANCH   5   6
ATOM      6  C   UNL     1     -13.758  -3.936  36.072  1.00  0.00     0.006 C 
BRANCH   6   7
ATOM      7  C   UNL     1     -14.505  -2.664  35.649  1.00  0.00     0.053 C 
BRANCH   7   8
ATOM      8  C   UNL     1     -15.896  -2.668  36.199  1.00  0.00     0.041 C 
ATOM      9  O   UNL     1     -16.836  -2.137  35.551  1.00  0.00    -0.550 OA
ATOM     10  O   UNL     1     -16.147  -3.213  37.453  1.00  0.00    -0.550 OA
ENDBRANCH   7   8
ENDBRANCH   6   7
ENDBRANCH   5   6
ENDBRANCH   4   5
ENDBRANCH   3   4
ENDBRANCH   2   3
ENDBRANCH   1   2
BRANCH   1  11
ATOM     11  C   UNL     1     -15.577  -6.535  31.368  1.00  0.00     0.000 C 
BRANCH  11  12
ATOM     12  C   UNL     1     -16.674  -6.242  32.404  1.00  0.00    -0.000 C 
BRANCH  12  13
ATOM     13  C   UNL     1     -16.760  -4.749  32.767  1.00  0.00    -0.000 C 
BRANCH  13  14
ATOM     14  C   UNL     1     -16.179  -3.840  31.671  1.00  0.00    -0.000 C 
BRANCH  14  15
ATOM     15  C   UNL     1     -15.780  -2.453  32.198  1.00  0.00    -0.000 C 
BRANCH  15  16
ATOM     16  C   UNL     1     -16.942  -1.459  32.057  1.00  0.00    -0.000 C 
BRANCH  16  17
ATOM     17  C   UNL     1     -17.932  -1.858  30.952  1.00  0.00    -0.003 C 
ATOM     18  C   UNL     1     -19.363  -2.006  31.466  1.00  0.00     0.004 C 
ENDBRANCH  16  17
ENDBRANCH  15  16
ENDBRANCH  14  15
ENDBRANCH  13  14
ENDBRANCH  12  13
ENDBRANCH  11  12
ENDBRANCH   1  11
TORSDOF 14
ENDMDL
