MODEL 1
REMARK VINA RESULT:    -3.928      0.000      0.000
REMARK INTER + INTRA:          -4.175
REMARK INTER:                  -4.158
REMARK INTRA:                  -0.017
REMARK UNBOUND:                -0.017
REMARK SMILES O=C([O-])c1cccnc1
REMARK SMILES IDX 4 1 5 2 9 3 6 4 8 5 7 6 2 7 1 8 3 9
REMARK H PARENT
REMARK Flexibility Score: inf
ROOT
ATOM      1  C   UNL     1      24.072   1.935  40.137  1.00  0.00     0.016 A 
ATOM      2  C   UNL     1      25.045   2.787  39.590  1.00  0.00     0.013 A 
ATOM      3  C   UNL     1      23.775   2.053  41.506  1.00  0.00     0.120 A 
ATOM      4  C   UNL     1      25.693   3.722  40.398  1.00  0.00     0.021 A 
ATOM      5  N   UNL     1      24.422   2.973  42.272  1.00  0.00    -0.264 NA
ATOM      6  C   UNL     1      25.365   3.801  41.752  1.00  0.00     0.111 A 
ENDROOT
BRANCH   1   7
ATOM      7  C   UNL     1      23.379   0.941  39.290  1.00  0.00     0.073 C 
ATOM      8  O   UNL     1      23.601  -0.291  39.438  1.00  0.00    -0.545 OA
ATOM      9  O   UNL     1      22.473   1.351  38.320  1.00  0.00    -0.545 OA
ENDBRANCH   1   7
TORSDOF 1
ENDMDL
MODEL 2
REMARK VINA RESULT:    -3.710      0.975      1.613
REMARK INTER + INTRA:          -3.944
REMARK INTER:                  -3.927
REMARK INTRA:                  -0.017
REMARK UNBOUND:                -0.017
REMARK SMILES O=C([O-])c1cccnc1
REMARK SMILES IDX 4 1 5 2 9 3 6 4 8 5 7 6 2 7 1 8 3 9
REMARK H PARENT
REMARK Flexibility Score: inf
ROOT
ATOM      1  C   UNL     1      24.215   2.046  40.129  1.00  0.00     0.016 A 
ATOM      2  C   UNL     1      23.926   2.249  41.488  1.00  0.00     0.013 A 
ATOM      3  C   UNL     1      25.218   2.832  39.535  1.00  0.00     0.120 A 
ATOM      4  C   UNL     1      24.625   3.212  42.218  1.00  0.00     0.021 A 
ATOM      5  N   UNL     1      25.884   3.764  40.268  1.00  0.00    -0.264 NA
ATOM      6  C   UNL     1      25.612   3.968  41.584  1.00  0.00     0.111 A 
ENDROOT
BRANCH   1   7
ATOM      7  C   UNL     1      23.480   1.030  39.346  1.00  0.00     0.073 C 
ATOM      8  O   UNL     1      23.689  -0.198  39.535  1.00  0.00    -0.545 OA
ATOM      9  O   UNL     1      22.547   1.415  38.391  1.00  0.00    -0.545 OA
ENDBRANCH   1   7
TORSDOF 1
ENDMDL
MODEL 3
REMARK VINA RESULT:    -3.680     10.954     11.751
REMARK INTER + INTRA:          -3.912
REMARK INTER:                  -3.895
REMARK INTRA:                  -0.017
REMARK UNBOUND:                -0.017
REMARK SMILES O=C([O-])c1cccnc1
REMARK SMILES IDX 4 1 5 2 9 3 6 4 8 5 7 6 2 7 1 8 3 9
REMARK H PARENT
REMARK Flexibility Score: inf
ROOT
ATOM      1  C   UNL     1      31.294   4.981  49.020  1.00  0.00     0.016 A 
ATOM      2  C   UNL     1      31.818   5.753  47.971  1.00  0.00     0.013 A 
ATOM      3  C   UNL     1      29.949   5.171  49.381  1.00  0.00     0.120 A 
ATOM      4  C   UNL     1      31.011   6.683  47.313  1.00  0.00     0.021 A 
ATOM      5  N   UNL     1      29.184   6.085  48.725  1.00  0.00    -0.264 NA
ATOM      6  C   UNL     1      29.682   6.837  47.709  1.00  0.00     0.111 A 
ENDROOT
BRANCH   1   7
ATOM      7  C   UNL     1      32.139   3.993  49.723  1.00  0.00     0.073 C 
ATOM      8  O   UNL     1      32.410   4.137  50.945  1.00  0.00    -0.545 OA
ATOM      9  O   UNL     1      32.647   2.890  49.046  1.00  0.00    -0.545 OA
ENDBRANCH   1   7
TORSDOF 1
ENDMDL
MODEL 4
REMARK VINA RESULT:    -3.473      2.874      3.587
REMARK INTER + INTRA:          -3.693
REMARK INTER:                  -3.676
REMARK INTRA:                  -0.017
REMARK UNBOUND:                -0.017
REMARK SMILES O=C([O-])c1cccnc1
REMARK SMILES IDX 4 1 5 2 9 3 6 4 8 5 7 6 2 7 1 8 3 9
REMARK H PARENT
REMARK Flexibility Score: inf
ROOT
ATOM      1  C   UNL     1      24.800   3.145  40.793  1.00  0.00     0.016 A 
ATOM      2  C   UNL     1      24.786   2.412  39.595  1.00  0.00     0.013 A 
ATOM      3  C   UNL     1      24.090   2.638  41.895  1.00  0.00     0.120 A 
ATOM      4  C   UNL     1      24.080   1.210  39.517  1.00  0.00     0.021 A 
ATOM      5  N   UNL     1      23.410   1.465  41.792  1.00  0.00    -0.264 NA
ATOM      6  C   UNL     1      23.390   0.747  40.638  1.00  0.00     0.111 A 
ENDROOT
BRANCH   1   7
ATOM      7  C   UNL     1      25.544   4.419  40.887  1.00  0.00     0.073 C 
ATOM      8  O   UNL     1      26.803   4.423  40.943  1.00  0.00    -0.545 OA
ATOM      9  O   UNL     1      24.865   5.632  40.915  1.00  0.00    -0.545 OA
ENDBRANCH   1   7
TORSDOF 1
ENDMDL
MODEL 5
REMARK VINA RESULT:    -3.444      3.202      3.799
REMARK INTER + INTRA:          -3.662
REMARK INTER:                  -3.643
REMARK INTRA:                  -0.019
REMARK UNBOUND:                -0.017
REMARK SMILES O=C([O-])c1cccnc1
REMARK SMILES IDX 4 1 5 2 9 3 6 4 8 5 7 6 2 7 1 8 3 9
REMARK H PARENT
REMARK Flexibility Score: inf
ROOT
ATOM      1  C   UNL     1      22.366   2.585  40.766  1.00  0.00     0.016 A 
ATOM      2  C   UNL     1      22.202   2.477  39.375  1.00  0.00     0.013 A 
ATOM      3  C   UNL     1      23.147   1.619  41.423  1.00  0.00     0.120 A 
ATOM      4  C   UNL     1      22.807   1.431  38.677  1.00  0.00     0.021 A 
ATOM      5  N   UNL     1      23.725   0.609  40.719  1.00  0.00    -0.264 NA
ATOM      6  C   UNL     1      23.573   0.496  39.373  1.00  0.00     0.111 A 
ENDROOT
BRANCH   1   7
ATOM      7  C   UNL     1      21.729   3.689  41.516  1.00  0.00     0.073 C 
ATOM      8  O   UNL     1      20.490   3.898  41.418  1.00  0.00    -0.545 OA
ATOM      9  O   UNL     1      22.489   4.511  42.340  1.00  0.00    -0.545 OA
ENDBRANCH   1   7
TORSDOF 1
ENDMDL
MODEL 6
REMARK VINA RESULT:    -3.404     15.401     16.348
REMARK INTER + INTRA:          -3.620
REMARK INTER:                  -3.596
REMARK INTRA:                  -0.024
REMARK UNBOUND:                -0.017
REMARK SMILES O=C([O-])c1cccnc1
REMARK SMILES IDX 4 1 5 2 9 3 6 4 8 5 7 6 2 7 1 8 3 9
REMARK H PARENT
REMARK Flexibility Score: inf
ROOT
ATOM      1  C   UNL     1      22.900  -2.566  55.470  1.00  0.00     0.016 A 
ATOM      2  C   UNL     1      24.212  -2.823  55.900  1.00  0.00     0.013 A 
ATOM      3  C   UNL     1      21.858  -2.663  56.409  1.00  0.00     0.120 A 
ATOM      4  C   UNL     1      24.459  -3.166  57.230  1.00  0.00     0.021 A 
ATOM      5  N   UNL     1      22.127  -3.001  57.699  1.00  0.00    -0.264 NA
ATOM      6  C   UNL     1      23.392  -3.251  58.125  1.00  0.00     0.111 A 
ENDROOT
BRANCH   1   7
ATOM      7  C   UNL     1      22.626  -2.201  54.063  1.00  0.00     0.073 C 
ATOM      8  O   UNL     1      23.574  -1.974  53.265  1.00  0.00    -0.545 OA
ATOM      9  O   UNL     1      21.318  -2.106  53.602  1.00  0.00    -0.545 OA
ENDBRANCH   1   7
TORSDOF 1
ENDMDL
MODEL 7
REMARK VINA RESULT:    -3.394     16.686     17.646
REMARK INTER + INTRA:          -3.609
REMARK INTER:                  -3.593
REMARK INTRA:                  -0.016
REMARK UNBOUND:                -0.017
REMARK SMILES O=C([O-])c1cccnc1
REMARK SMILES IDX 4 1 5 2 9 3 6 4 8 5 7 6 2 7 1 8 3 9
REMARK H PARENT
REMARK Flexibility Score: inf
ROOT
ATOM      1  C   UNL     1      22.183  -2.143  57.138  1.00  0.00     0.016 A 
ATOM      2  C   UNL     1      23.021  -2.873  57.997  1.00  0.00     0.013 A 
ATOM      3  C   UNL     1      22.664  -1.808  55.861  1.00  0.00     0.120 A 
ATOM      4  C   UNL     1      24.298  -3.249  57.578  1.00  0.00     0.021 A 
ATOM      5  N   UNL     1      23.913  -2.186  55.477  1.00  0.00    -0.264 NA
ATOM      6  C   UNL     1      24.732  -2.892  56.301  1.00  0.00     0.111 A 
ENDROOT
BRANCH   1   7
ATOM      7  C   UNL     1      20.828  -1.740  57.572  1.00  0.00     0.073 C 
ATOM      8  O   UNL     1      20.639  -0.623  58.123  1.00  0.00    -0.545 OA
ATOM      9  O   UNL     1      19.744  -2.588  57.377  1.00  0.00    -0.545 OA
ENDBRANCH   1   7
TORSDOF 1
ENDMDL
MODEL 8
REMARK VINA RESULT:    -3.385     15.432     16.389
REMARK INTER + INTRA:          -3.599
REMARK INTER:                  -3.583
REMARK INTRA:                  -0.016
REMARK UNBOUND:                -0.017
REMARK SMILES O=C([O-])c1cccnc1
REMARK SMILES IDX 4 1 5 2 9 3 6 4 8 5 7 6 2 7 1 8 3 9
REMARK H PARENT
REMARK Flexibility Score: inf
ROOT
ATOM      1  C   UNL     1      23.429  -3.587  55.225  1.00  0.00     0.016 A 
ATOM      2  C   UNL     1      24.478  -3.173  56.063  1.00  0.00     0.013 A 
ATOM      3  C   UNL     1      22.220  -3.990  55.819  1.00  0.00     0.120 A 
ATOM      4  C   UNL     1      24.309  -3.168  57.448  1.00  0.00     0.021 A 
ATOM      5  N   UNL     1      22.081  -3.976  57.172  1.00  0.00    -0.264 NA
ATOM      6  C   UNL     1      23.090  -3.577  57.990  1.00  0.00     0.111 A 
ENDROOT
BRANCH   1   7
ATOM      7  C   UNL     1      23.597  -3.597  53.756  1.00  0.00     0.073 C 
ATOM      8  O   UNL     1      23.846  -4.672  53.148  1.00  0.00    -0.545 OA
ATOM      9  O   UNL     1      23.482  -2.420  53.026  1.00  0.00    -0.545 OA
ENDBRANCH   1   7
TORSDOF 1
ENDMDL
MODEL 9
REMARK VINA RESULT:    -3.261     16.484     17.144
REMARK INTER + INTRA:          -3.468
REMARK INTER:                  -3.452
REMARK INTRA:                  -0.016
REMARK UNBOUND:                -0.017
REMARK SMILES O=C([O-])c1cccnc1
REMARK SMILES IDX 4 1 5 2 9 3 6 4 8 5 7 6 2 7 1 8 3 9
REMARK H PARENT
REMARK Flexibility Score: inf
ROOT
ATOM      1  C   UNL     1      22.946  -2.755  56.428  1.00  0.00     0.016 A 
ATOM      2  C   UNL     1      22.808  -1.383  56.157  1.00  0.00     0.013 A 
ATOM      3  C   UNL     1      22.145  -3.320  57.435  1.00  0.00     0.120 A 
ATOM      4  C   UNL     1      21.894  -0.614  56.879  1.00  0.00     0.021 A 
ATOM      5  N   UNL     1      21.262  -2.548  58.124  1.00  0.00    -0.264 NA
ATOM      6  C   UNL     1      21.121  -1.221  57.870  1.00  0.00     0.111 A 
ENDROOT
BRANCH   1   7
ATOM      7  C   UNL     1      23.911  -3.579  55.669  1.00  0.00     0.073 C 
ATOM      8  O   UNL     1      25.138  -3.556  55.957  1.00  0.00    -0.545 OA
ATOM      9  O   UNL     1      23.479  -4.391  54.628  1.00  0.00    -0.545 OA
ENDBRANCH   1   7
TORSDOF 1
ENDMDL
