MODEL 1
REMARK VINA RESULT:    -6.296      0.000      0.000
REMARK INTER + INTRA:          -6.979
REMARK INTER:                  -6.664
REMARK INTRA:                  -0.315
REMARK UNBOUND:                -0.315
REMARK SMILES C=C1CC[C@]2(C(C)C)C[C@H]12
REMARK SMILES IDX 5 1 4 2 3 3 2 4 1 5 10 6 9 7 6 8 7 9 8 10
REMARK H PARENT
REMARK Flexibility Score: inf
ROOT
ATOM      1  C   UNL     1      -4.541 -15.770   8.107  1.00  0.00    -0.020 C 
ATOM      2  C   UNL     1      -3.080 -15.423   8.462  1.00  0.00     0.012 C 
ATOM      3  C   UNL     1      -2.278 -16.725   8.511  1.00  0.00     0.031 C 
ATOM      4  C   UNL     1      -3.257 -17.788   8.167  1.00  0.00    -0.074 C 
ATOM      5  C   UNL     1      -2.944 -19.086   8.118  1.00  0.00     0.008 C 
ATOM      6  C   UNL     1      -4.629 -17.279   7.912  1.00  0.00     0.021 C 
ATOM      7  C   UNL     1      -5.314 -16.628   9.111  1.00  0.00     0.016 C 
ENDROOT
BRANCH   1   8
ATOM      8  C   UNL     1      -5.309 -14.849   7.106  1.00  0.00    -0.011 C 
ATOM      9  C   UNL     1      -5.147 -15.385   5.675  1.00  0.00     0.008 C 
ATOM     10  C   UNL     1      -4.920 -13.356   7.121  1.00  0.00     0.008 C 
ENDBRANCH   1   8
TORSDOF 1
ENDMDL
MODEL 2
REMARK VINA RESULT:    -6.227      1.485      3.464
REMARK INTER + INTRA:          -6.906
REMARK INTER:                  -6.668
REMARK INTRA:                  -0.238
REMARK UNBOUND:                -0.315
REMARK SMILES C=C1CC[C@]2(C(C)C)C[C@H]12
REMARK SMILES IDX 5 1 4 2 3 3 2 4 1 5 10 6 9 7 6 8 7 9 8 10
REMARK H PARENT
REMARK Flexibility Score: inf
ROOT
ATOM      1  C   UNL     1      -3.440 -16.848   8.971  1.00  0.00    -0.020 C 
ATOM      2  C   UNL     1      -2.492 -15.733   8.481  1.00  0.00     0.012 C 
ATOM      3  C   UNL     1      -3.084 -15.124   7.210  1.00  0.00     0.031 C 
ATOM      4  C   UNL     1      -4.357 -15.860   6.994  1.00  0.00    -0.074 C 
ATOM      5  C   UNL     1      -5.173 -15.628   5.961  1.00  0.00     0.008 C 
ATOM      6  C   UNL     1      -4.627 -16.903   8.017  1.00  0.00     0.021 C 
ATOM      7  C   UNL     1      -3.626 -18.055   8.049  1.00  0.00     0.016 C 
ENDROOT
BRANCH   1   8
ATOM      8  C   UNL     1      -3.717 -16.978  10.503  1.00  0.00    -0.011 C 
ATOM      9  C   UNL     1      -5.170 -16.583  10.807  1.00  0.00     0.008 C 
ATOM     10  C   UNL     1      -2.783 -16.176  11.432  1.00  0.00     0.008 C 
ENDBRANCH   1   8
TORSDOF 1
ENDMDL
MODEL 3
REMARK VINA RESULT:    -6.163      1.449      2.835
REMARK INTER + INTRA:          -6.838
REMARK INTER:                  -6.512
REMARK INTRA:                  -0.326
REMARK UNBOUND:                -0.315
REMARK SMILES C=C1CC[C@]2(C(C)C)C[C@H]12
REMARK SMILES IDX 5 1 4 2 3 3 2 4 1 5 10 6 9 7 6 8 7 9 8 10
REMARK H PARENT
REMARK Flexibility Score: inf
ROOT
ATOM      1  C   UNL     1      -3.810 -16.104   8.111  1.00  0.00    -0.020 C 
ATOM      2  C   UNL     1      -5.000 -16.875   8.722  1.00  0.00     0.012 C 
ATOM      3  C   UNL     1      -4.874 -16.821  10.245  1.00  0.00     0.031 C 
ATOM      4  C   UNL     1      -3.651 -16.015  10.498  1.00  0.00    -0.074 C 
ATOM      5  C   UNL     1      -3.186 -15.750  11.722  1.00  0.00     0.008 C 
ATOM      6  C   UNL     1      -2.972 -15.555   9.260  1.00  0.00     0.021 C 
ATOM      7  C   UNL     1      -2.411 -16.666   8.375  1.00  0.00     0.016 C 
ENDROOT
BRANCH   1   8
ATOM      8  C   UNL     1      -4.067 -15.182   6.877  1.00  0.00    -0.011 C 
ATOM      9  C   UNL     1      -4.625 -13.828   7.344  1.00  0.00     0.008 C 
ATOM     10  C   UNL     1      -5.000 -15.750   5.788  1.00  0.00     0.008 C 
ENDBRANCH   1   8
TORSDOF 1
ENDMDL
MODEL 4
REMARK VINA RESULT:    -6.062      1.800      3.091
REMARK INTER + INTRA:          -6.731
REMARK INTER:                  -6.405
REMARK INTRA:                  -0.326
REMARK UNBOUND:                -0.315
REMARK SMILES C=C1CC[C@]2(C(C)C)C[C@H]12
REMARK SMILES IDX 5 1 4 2 3 3 2 4 1 5 10 6 9 7 6 8 7 9 8 10
REMARK H PARENT
REMARK Flexibility Score: inf
ROOT
ATOM      1  C   UNL     1      -2.902 -15.264   9.136  1.00  0.00    -0.020 C 
ATOM      2  C   UNL     1      -3.345 -15.934  10.454  1.00  0.00     0.012 C 
ATOM      3  C   UNL     1      -3.550 -17.426  10.188  1.00  0.00     0.031 C 
ATOM      4  C   UNL     1      -3.206 -17.606   8.753  1.00  0.00    -0.074 C 
ATOM      5  C   UNL     1      -3.274 -18.784   8.125  1.00  0.00     0.008 C 
ATOM      6  C   UNL     1      -2.807 -16.349   8.071  1.00  0.00     0.021 C 
ATOM      7  C   UNL     1      -3.900 -15.287   7.976  1.00  0.00     0.016 C 
ENDROOT
BRANCH   1   8
ATOM      8  C   UNL     1      -1.780 -14.178   9.187  1.00  0.00    -0.011 C 
ATOM      9  C   UNL     1      -0.400 -14.853   9.213  1.00  0.00     0.008 C 
ATOM     10  C   UNL     1      -1.860 -13.173  10.355  1.00  0.00     0.008 C 
ENDBRANCH   1   8
TORSDOF 1
ENDMDL
MODEL 5
REMARK VINA RESULT:    -6.059      1.803      4.017
REMARK INTER + INTRA:          -6.728
REMARK INTER:                  -6.446
REMARK INTRA:                  -0.282
REMARK UNBOUND:                -0.315
REMARK SMILES C=C1CC[C@]2(C(C)C)C[C@H]12
REMARK SMILES IDX 5 1 4 2 3 3 2 4 1 5 10 6 9 7 6 8 7 9 8 10
REMARK H PARENT
REMARK Flexibility Score: inf
ROOT
ATOM      1  C   UNL     1      -2.517 -16.239   8.936  1.00  0.00    -0.020 C 
ATOM      2  C   UNL     1      -2.562 -16.381  10.472  1.00  0.00     0.012 C 
ATOM      3  C   UNL     1      -2.345 -14.997  11.088  1.00  0.00     0.031 C 
ATOM      4  C   UNL     1      -2.206 -14.082   9.925  1.00  0.00    -0.074 C 
ATOM      5  C   UNL     1      -1.986 -12.769  10.047  1.00  0.00     0.008 C 
ATOM      6  C   UNL     1      -2.303 -14.765   8.610  1.00  0.00     0.021 C 
ATOM      7  C   UNL     1      -1.195 -15.775   8.320  1.00  0.00     0.016 C 
ENDROOT
BRANCH   1   8
ATOM      8  C   UNL     1      -3.545 -17.043   8.078  1.00  0.00    -0.011 C 
ATOM      9  C   UNL     1      -4.975 -16.606   8.430  1.00  0.00     0.008 C 
ATOM     10  C   UNL     1      -3.460 -18.580   8.182  1.00  0.00     0.008 C 
ENDBRANCH   1   8
TORSDOF 1
ENDMDL
MODEL 6
REMARK VINA RESULT:    -5.935      8.695     10.720
REMARK INTER + INTRA:          -6.597
REMARK INTER:                  -6.887
REMARK INTRA:                   0.290
REMARK UNBOUND:                -0.315
REMARK SMILES C=C1CC[C@]2(C(C)C)C[C@H]12
REMARK SMILES IDX 5 1 4 2 3 3 2 4 1 5 10 6 9 7 6 8 7 9 8 10
REMARK H PARENT
REMARK Flexibility Score: inf
ROOT
ATOM      1  C   UNL     1       2.643 -18.378  15.454  1.00  0.00    -0.020 C 
ATOM      2  C   UNL     1       2.103 -18.748  14.057  1.00  0.00     0.012 C 
ATOM      3  C   UNL     1       0.619 -18.380  14.004  1.00  0.00     0.031 C 
ATOM      4  C   UNL     1       0.327 -17.788  15.335  1.00  0.00    -0.074 C 
ATOM      5  C   UNL     1      -0.884 -17.350  15.694  1.00  0.00     0.008 C 
ATOM      6  C   UNL     1       1.499 -17.757  16.247  1.00  0.00     0.021 C 
ATOM      7  C   UNL     1       2.045 -19.125  16.649  1.00  0.00     0.016 C 
ENDROOT
BRANCH   1   8
ATOM      8  C   UNL     1       4.057 -17.725  15.564  1.00  0.00    -0.011 C 
ATOM      9  C   UNL     1       5.142 -18.811  15.480  1.00  0.00     0.008 C 
ATOM     10  C   UNL     1       4.314 -16.867  16.820  1.00  0.00     0.008 C 
ENDBRANCH   1   8
TORSDOF 1
ENDMDL
MODEL 7
REMARK VINA RESULT:    -5.727      2.081      3.114
REMARK INTER + INTRA:          -6.377
REMARK INTER:                  -6.104
REMARK INTRA:                  -0.273
REMARK UNBOUND:                -0.315
REMARK SMILES C=C1CC[C@]2(C(C)C)C[C@H]12
REMARK SMILES IDX 5 1 4 2 3 3 2 4 1 5 10 6 9 7 6 8 7 9 8 10
REMARK H PARENT
REMARK Flexibility Score: inf
ROOT
ATOM      1  C   UNL     1      -4.091 -16.348   9.443  1.00  0.00    -0.020 C 
ATOM      2  C   UNL     1      -3.328 -15.007   9.405  1.00  0.00     0.012 C 
ATOM      3  C   UNL     1      -2.430 -14.932  10.640  1.00  0.00     0.031 C 
ATOM      4  C   UNL     1      -2.658 -16.214  11.355  1.00  0.00    -0.074 C 
ATOM      5  C   UNL     1      -2.059 -16.529  12.508  1.00  0.00     0.008 C 
ATOM      6  C   UNL     1      -3.640 -17.105  10.686  1.00  0.00     0.021 C 
ATOM      7  C   UNL     1      -5.064 -16.559  10.606  1.00  0.00     0.016 C 
ENDROOT
BRANCH   1   8
ATOM      8  C   UNL     1      -4.270 -17.149   8.114  1.00  0.00    -0.011 C 
ATOM      9  C   UNL     1      -3.312 -18.350   8.096  1.00  0.00     0.008 C 
ATOM     10  C   UNL     1      -4.082 -16.348   6.809  1.00  0.00     0.008 C 
ENDBRANCH   1   8
TORSDOF 1
ENDMDL
MODEL 8
REMARK VINA RESULT:    -5.590      1.959      3.768
REMARK INTER + INTRA:          -6.232
REMARK INTER:                  -5.908
REMARK INTRA:                  -0.324
REMARK UNBOUND:                -0.315
REMARK SMILES C=C1CC[C@]2(C(C)C)C[C@H]12
REMARK SMILES IDX 5 1 4 2 3 3 2 4 1 5 10 6 9 7 6 8 7 9 8 10
REMARK H PARENT
REMARK Flexibility Score: inf
ROOT
ATOM      1  C   UNL     1      -3.850 -16.567  10.287  1.00  0.00    -0.020 C 
ATOM      2  C   UNL     1      -3.117 -17.631   9.443  1.00  0.00     0.012 C 
ATOM      3  C   UNL     1      -3.653 -17.560   8.012  1.00  0.00     0.031 C 
ATOM      4  C   UNL     1      -4.652 -16.460   8.035  1.00  0.00    -0.074 C 
ATOM      5  C   UNL     1      -5.363 -16.092   6.965  1.00  0.00     0.008 C 
ATOM      6  C   UNL     1      -4.813 -15.825   9.368  1.00  0.00     0.021 C 
ATOM      7  C   UNL     1      -5.361 -16.739  10.461  1.00  0.00     0.016 C 
ENDROOT
BRANCH   1   8
ATOM      8  C   UNL     1      -3.029 -15.735  11.323  1.00  0.00    -0.011 C 
ATOM      9  C   UNL     1      -2.224 -14.646  10.599  1.00  0.00     0.008 C 
ATOM     10  C   UNL     1      -2.071 -16.536  12.230  1.00  0.00     0.008 C 
ENDBRANCH   1   8
TORSDOF 1
ENDMDL
MODEL 9
REMARK VINA RESULT:    -5.578      2.776      4.451
REMARK INTER + INTRA:          -6.219
REMARK INTER:                  -5.899
REMARK INTRA:                  -0.320
REMARK UNBOUND:                -0.315
REMARK SMILES C=C1CC[C@]2(C(C)C)C[C@H]12
REMARK SMILES IDX 5 1 4 2 3 3 2 4 1 5 10 6 9 7 6 8 7 9 8 10
REMARK H PARENT
REMARK Flexibility Score: inf
ROOT
ATOM      1  C   UNL     1      -3.028 -15.783  10.966  1.00  0.00    -0.020 C 
ATOM      2  C   UNL     1      -4.511 -16.171  11.147  1.00  0.00     0.012 C 
ATOM      3  C   UNL     1      -4.864 -17.220  10.092  1.00  0.00     0.031 C 
ATOM      4  C   UNL     1      -3.602 -17.443   9.340  1.00  0.00    -0.074 C 
ATOM      5  C   UNL     1      -3.500 -18.289   8.311  1.00  0.00     0.008 C 
ATOM      6  C   UNL     1      -2.466 -16.614   9.819  1.00  0.00     0.021 C 
ATOM      7  C   UNL     1      -2.645 -15.107   9.647  1.00  0.00     0.016 C 
ENDROOT
BRANCH   1   8
ATOM      8  C   UNL     1      -2.143 -15.585  12.238  1.00  0.00    -0.011 C 
ATOM      9  C   UNL     1      -1.799 -16.950  12.853  1.00  0.00     0.008 C 
ATOM     10  C   UNL     1      -2.733 -14.682  13.341  1.00  0.00     0.008 C 
ENDBRANCH   1   8
TORSDOF 1
ENDMDL
