MODEL 1
REMARK VINA RESULT:     0.000      0.000      0.000
REMARK INTER + INTRA:          -0.132
REMARK INTER:                   0.000
REMARK INTRA:                  -0.132
REMARK UNBOUND:                -0.132
REMARK SMILES C=C(C)[C@@H]1CC=C(C)CC1
REMARK SMILES IDX 8 1 7 2 6 3 5 4 4 5 10 6 9 7 2 8 1 9 3 10
REMARK H PARENT
REMARK Flexibility Score: inf
ROOT
ATOM      1  C   UNL     1      21.883  12.024  61.442  1.00  0.00     0.039 C 
ATOM      2  C   UNL     1      21.226  13.321  61.061  1.00  0.00    -0.077 C 
ATOM      3  C   UNL     1      22.000  14.399  60.814  1.00  0.00    -0.027 C 
ATOM      4  C   UNL     1      21.440  15.730  60.373  1.00  0.00     0.035 C 
ATOM      5  C   UNL     1      19.961  15.895  60.762  1.00  0.00     0.018 C 
ATOM      6  C   UNL     1      19.171  14.642  60.355  1.00  0.00     0.013 C 
ATOM      7  C   UNL     1      19.712  13.413  61.095  1.00  0.00     0.031 C 
ENDROOT
BRANCH   5   8
ATOM      8  C   UNL     1      19.364  17.157  60.150  1.00  0.00    -0.077 C 
ATOM      9  C   UNL     1      20.146  18.006  59.464  1.00  0.00     0.008 C 
ATOM     10  C   UNL     1      17.897  17.477  60.284  1.00  0.00     0.039 C 
ENDBRANCH   5   8
TORSDOF 1
ENDMDL
MODEL 2
REMARK VINA RESULT:     0.000     19.162     20.995
REMARK INTER + INTRA:          -0.132
REMARK INTER:                   0.000
REMARK INTRA:                  -0.132
REMARK UNBOUND:                -0.132
REMARK SMILES C=C(C)[C@@H]1CC=C(C)CC1
REMARK SMILES IDX 8 1 7 2 6 3 5 4 4 5 10 6 9 7 2 8 1 9 3 10
REMARK H PARENT
REMARK Flexibility Score: inf
ROOT
ATOM      1  C   UNL     1       3.686  14.654  44.454  1.00  0.00     0.039 C 
ATOM      2  C   UNL     1       4.794  15.629  44.741  1.00  0.00    -0.077 C 
ATOM      3  C   UNL     1       6.064  15.177  44.804  1.00  0.00    -0.027 C 
ATOM      4  C   UNL     1       7.249  16.084  45.034  1.00  0.00     0.035 C 
ATOM      5  C   UNL     1       6.848  17.402  45.716  1.00  0.00     0.018 C 
ATOM      6  C   UNL     1       5.636  18.015  44.998  1.00  0.00     0.013 C 
ATOM      7  C   UNL     1       4.437  17.064  45.081  1.00  0.00     0.031 C 
ENDROOT
BRANCH   5   8
ATOM      8  C   UNL     1       8.018  18.377  45.771  1.00  0.00    -0.077 C 
ATOM      9  C   UNL     1       9.233  17.993  45.350  1.00  0.00     0.008 C 
ATOM     10  C   UNL     1       7.844  19.786  46.280  1.00  0.00     0.039 C 
ENDBRANCH   5   8
TORSDOF 1
ENDMDL
MODEL 3
REMARK VINA RESULT:     0.000     10.692     12.621
REMARK INTER + INTRA:          -0.132
REMARK INTER:                   0.000
REMARK INTRA:                  -0.132
REMARK UNBOUND:                -0.132
REMARK SMILES C=C(C)[C@@H]1CC=C(C)CC1
REMARK SMILES IDX 8 1 7 2 6 3 5 4 4 5 10 6 9 7 2 8 1 9 3 10
REMARK H PARENT
REMARK Flexibility Score: inf
ROOT
ATOM      1  C   UNL     1      13.503  15.792  52.615  1.00  0.00     0.039 C 
ATOM      2  C   UNL     1      12.089  15.782  53.124  1.00  0.00    -0.077 C 
ATOM      3  C   UNL     1      11.140  15.140  52.409  1.00  0.00    -0.027 C 
ATOM      4  C   UNL     1       9.704  15.029  52.862  1.00  0.00     0.035 C 
ATOM      5  C   UNL     1       9.323  16.132  53.864  1.00  0.00     0.018 C 
ATOM      6  C   UNL     1      10.391  16.230  54.964  1.00  0.00     0.013 C 
ATOM      7  C   UNL     1      11.746  16.604  54.353  1.00  0.00     0.031 C 
ENDROOT
BRANCH   5   8
ATOM      8  C   UNL     1       7.937  15.895  54.450  1.00  0.00    -0.077 C 
ATOM      9  C   UNL     1       7.179  14.884  53.997  1.00  0.00     0.008 C 
ATOM     10  C   UNL     1       7.387  16.771  55.549  1.00  0.00     0.039 C 
ENDBRANCH   5   8
TORSDOF 1
ENDMDL
MODEL 4
REMARK VINA RESULT:     0.000      9.615     11.351
REMARK INTER + INTRA:          -0.132
REMARK INTER:                   0.000
REMARK INTRA:                  -0.132
REMARK UNBOUND:                -0.132
REMARK SMILES C=C(C)[C@@H]1CC=C(C)CC1
REMARK SMILES IDX 8 1 7 2 6 3 5 4 4 5 10 6 9 7 2 8 1 9 3 10
REMARK H PARENT
REMARK Flexibility Score: inf
ROOT
ATOM      1  C   UNL     1      14.398  18.309  49.993  1.00  0.00     0.039 C 
ATOM      2  C   UNL     1      14.411  17.005  50.741  1.00  0.00    -0.077 C 
ATOM      3  C   UNL     1      14.914  16.974  51.994  1.00  0.00    -0.027 C 
ATOM      4  C   UNL     1      14.924  15.727  52.844  1.00  0.00     0.035 C 
ATOM      5  C   UNL     1      14.837  14.445  51.999  1.00  0.00     0.018 C 
ATOM      6  C   UNL     1      13.703  14.573  50.970  1.00  0.00     0.013 C 
ATOM      7  C   UNL     1      13.983  15.741  50.018  1.00  0.00     0.031 C 
ENDROOT
BRANCH   5   8
ATOM      8  C   UNL     1      14.661  13.212  52.876  1.00  0.00    -0.077 C 
ATOM      9  C   UNL     1      14.702  13.327  54.213  1.00  0.00     0.008 C 
ATOM     10  C   UNL     1      14.426  11.848  52.277  1.00  0.00     0.039 C 
ENDBRANCH   5   8
TORSDOF 1
ENDMDL
MODEL 5
REMARK VINA RESULT:     0.000      7.188      8.935
REMARK INTER + INTRA:          -0.132
REMARK INTER:                   0.000
REMARK INTRA:                  -0.132
REMARK UNBOUND:                -0.132
REMARK SMILES C=C(C)[C@@H]1CC=C(C)CC1
REMARK SMILES IDX 8 1 7 2 6 3 5 4 4 5 10 6 9 7 2 8 1 9 3 10
REMARK H PARENT
REMARK Flexibility Score: inf
ROOT
ATOM      1  C   UNL     1      15.483  18.051  51.126  1.00  0.00     0.039 C 
ATOM      2  C   UNL     1      15.828  17.064  52.206  1.00  0.00    -0.077 C 
ATOM      3  C   UNL     1      16.464  17.501  53.314  1.00  0.00    -0.027 C 
ATOM      4  C   UNL     1      16.806  16.600  54.475  1.00  0.00     0.035 C 
ATOM      5  C   UNL     1      16.870  15.120  54.063  1.00  0.00     0.018 C 
ATOM      6  C   UNL     1      15.624  14.751  53.243  1.00  0.00     0.013 C 
ATOM      7  C   UNL     1      15.569  15.589  51.961  1.00  0.00     0.031 C 
ENDROOT
BRANCH   5   8
ATOM      8  C   UNL     1      17.030  14.212  55.277  1.00  0.00    -0.077 C 
ATOM      9  C   UNL     1      17.198  14.745  56.497  1.00  0.00     0.008 C 
ATOM     10  C   UNL     1      16.993  12.710  55.145  1.00  0.00     0.039 C 
ENDBRANCH   5   8
TORSDOF 1
ENDMDL
MODEL 6
REMARK VINA RESULT:     0.000     13.415     14.622
REMARK INTER + INTRA:          -0.132
REMARK INTER:                   0.000
REMARK INTRA:                  -0.132
REMARK UNBOUND:                -0.132
REMARK SMILES C=C(C)[C@@H]1CC=C(C)CC1
REMARK SMILES IDX 8 1 7 2 6 3 5 4 4 5 10 6 9 7 2 8 1 9 3 10
REMARK H PARENT
REMARK Flexibility Score: inf
ROOT
ATOM      1  C   UNL     1       9.125  18.523  54.299  1.00  0.00     0.039 C 
ATOM      2  C   UNL     1       8.705  19.826  54.919  1.00  0.00    -0.077 C 
ATOM      3  C   UNL     1       9.472  20.920  54.727  1.00  0.00    -0.027 C 
ATOM      4  C   UNL     1       9.109  22.283  55.263  1.00  0.00     0.035 C 
ATOM      5  C   UNL     1       8.142  22.200  56.456  1.00  0.00     0.018 C 
ATOM      6  C   UNL     1       6.978  21.255  56.120  1.00  0.00     0.013 C 
ATOM      7  C   UNL     1       7.506  19.842  55.850  1.00  0.00     0.031 C 
ENDROOT
BRANCH   5   8
ATOM      8  C   UNL     1       7.642  23.581  56.863  1.00  0.00    -0.077 C 
ATOM      9  C   UNL     1       8.133  24.677  56.264  1.00  0.00     0.008 C 
ATOM     10  C   UNL     1       6.587  23.753  57.927  1.00  0.00     0.039 C 
ENDBRANCH   5   8
TORSDOF 1
ENDMDL
MODEL 7
REMARK VINA RESULT:     0.000     13.288     15.412
REMARK INTER + INTRA:          -0.132
REMARK INTER:                   0.000
REMARK INTRA:                  -0.132
REMARK UNBOUND:                -0.132
REMARK SMILES C=C(C)[C@@H]1CC=C(C)CC1
REMARK SMILES IDX 8 1 7 2 6 3 5 4 4 5 10 6 9 7 2 8 1 9 3 10
REMARK H PARENT
REMARK Flexibility Score: inf
ROOT
ATOM      1  C   UNL     1       4.267  14.359  54.294  1.00  0.00     0.039 C 
ATOM      2  C   UNL     1       5.569  14.720  53.634  1.00  0.00    -0.077 C 
ATOM      3  C   UNL     1       6.724  14.294  54.187  1.00  0.00    -0.027 C 
ATOM      4  C   UNL     1       8.077  14.559  53.572  1.00  0.00     0.035 C 
ATOM      5  C   UNL     1       8.058  15.770  52.625  1.00  0.00     0.018 C 
ATOM      6  C   UNL     1       6.867  15.661  51.660  1.00  0.00     0.013 C 
ATOM      7  C   UNL     1       5.550  15.661  52.444  1.00  0.00     0.031 C 
ENDROOT
BRANCH   5   8
ATOM      8  C   UNL     1       9.376  15.909  51.874  1.00  0.00    -0.077 C 
ATOM      9  C   UNL     1      10.402  15.091  52.160  1.00  0.00     0.008 C 
ATOM     10  C   UNL     1       9.561  16.946  50.795  1.00  0.00     0.039 C 
ENDBRANCH   5   8
TORSDOF 1
ENDMDL
MODEL 8
REMARK VINA RESULT:     0.000     13.451     14.277
REMARK INTER + INTRA:          -0.132
REMARK INTER:                   0.000
REMARK INTRA:                  -0.132
REMARK UNBOUND:                -0.132
REMARK SMILES C=C(C)[C@@H]1CC=C(C)CC1
REMARK SMILES IDX 8 1 7 2 6 3 5 4 4 5 10 6 9 7 2 8 1 9 3 10
REMARK H PARENT
REMARK Flexibility Score: inf
ROOT
ATOM      1  C   UNL     1      13.127  15.530  47.798  1.00  0.00     0.039 C 
ATOM      2  C   UNL     1      14.617  15.473  47.608  1.00  0.00    -0.077 C 
ATOM      3  C   UNL     1      15.279  16.602  47.276  1.00  0.00    -0.027 C 
ATOM      4  C   UNL     1      16.778  16.659  47.115  1.00  0.00     0.035 C 
ATOM      5  C   UNL     1      17.384  15.277  46.820  1.00  0.00     0.018 C 
ATOM      6  C   UNL     1      16.833  14.242  47.813  1.00  0.00     0.013 C 
ATOM      7  C   UNL     1      15.312  14.125  47.664  1.00  0.00     0.031 C 
ENDROOT
BRANCH   5   8
ATOM      8  C   UNL     1      18.907  15.321  46.846  1.00  0.00    -0.077 C 
ATOM      9  C   UNL     1      19.543  16.493  47.003  1.00  0.00     0.008 C 
ATOM     10  C   UNL     1      19.733  14.066  46.710  1.00  0.00     0.039 C 
ENDBRANCH   5   8
TORSDOF 1
ENDMDL
MODEL 9
REMARK VINA RESULT:     0.000     11.721     13.525
REMARK INTER + INTRA:          -0.132
REMARK INTER:                   0.000
REMARK INTRA:                  -0.132
REMARK UNBOUND:                -0.132
REMARK SMILES C=C(C)[C@@H]1CC=C(C)CC1
REMARK SMILES IDX 8 1 7 2 6 3 5 4 4 5 10 6 9 7 2 8 1 9 3 10
REMARK H PARENT
REMARK Flexibility Score: inf
ROOT
ATOM      1  C   UNL     1      17.848  19.260  45.676  1.00  0.00     0.039 C 
ATOM      2  C   UNL     1      17.025  19.126  46.927  1.00  0.00    -0.077 C 
ATOM      3  C   UNL     1      16.963  20.166  47.786  1.00  0.00    -0.027 C 
ATOM      4  C   UNL     1      16.124  20.147  49.040  1.00  0.00     0.035 C 
ATOM      5  C   UNL     1      15.816  18.717  49.513  1.00  0.00     0.018 C 
ATOM      6  C   UNL     1      15.315  17.872  48.332  1.00  0.00     0.013 C 
ATOM      7  C   UNL     1      16.397  17.782  47.250  1.00  0.00     0.031 C 
ENDROOT
BRANCH   5   8
ATOM      8  C   UNL     1      14.818  18.716  50.665  1.00  0.00    -0.077 C 
ATOM      9  C   UNL     1      14.408  19.876  51.200  1.00  0.00     0.008 C 
ATOM     10  C   UNL     1      14.261  17.429  51.221  1.00  0.00     0.039 C 
ENDBRANCH   5   8
TORSDOF 1
ENDMDL
