MODEL 1
REMARK VINA RESULT:    -3.500      0.000      0.000
REMARK INTER + INTRA:          -4.660
REMARK INTER:                  -4.932
REMARK INTRA:                   0.273
REMARK UNBOUND:                 0.273
REMARK SMILES CC1=CCC(=C(C)C)C(=O)CC(C)=CCC1
REMARK SMILES IDX 12 1 14 2 13 3 15 4 16 5 2 6 1 7 3 8 11 10 9 11 10 12 5 13
REMARK SMILES IDX 6 14 7 15 8 16 4 17
REMARK H PARENT
REMARK Flexibility Score: 60.00
ROOT
ATOM      1  C   UNL     1       7.100 -33.755  15.016  1.00  0.00    -0.070 C 
ATOM      2  C   UNL     1       6.452 -33.315  16.118  1.00  0.00    -0.027 C 
ATOM      3  C   UNL     1       6.436 -34.826  14.188  1.00  0.00     0.039 C 
ENDROOT
BRANCH   2   4
ATOM      4  C   UNL     1       6.993 -32.323  17.124  1.00  0.00     0.032 C 
BRANCH   4   5
ATOM      5  C   UNL     1       6.659 -30.847  16.822  1.00  0.00     0.034 C 
BRANCH   5   6
ATOM      6  C   UNL     1       7.880 -29.946  16.822  1.00  0.00    -0.077 C 
ATOM      7  C   UNL     1       8.407 -29.479  18.156  1.00  0.00     0.039 C 
ATOM      8  C   UNL     1       8.485 -29.477  15.703  1.00  0.00    -0.023 CG0
ATOM      9  G   UNL     1       8.143 -29.821  14.267  1.00  0.00     0.000 G0
ENDBRANCH   5   6
ENDBRANCH   4   5
ENDBRANCH   2   4
BRANCH   1  10
ATOM     10  C   UNL     1       8.490 -33.293  14.629  1.00  0.00     0.111 C 
BRANCH  10  11
ATOM     11  C   UNL     1       8.449 -32.273  13.523  1.00  0.00     0.163 C 
ATOM     12  O   UNL     1       7.944 -32.613  12.419  1.00  0.00    -0.294 OA
BRANCH  11  13
ATOM     13  C   UNL     1       9.035 -30.908  13.670  1.00  0.00    -0.002 C 
ATOM     14  C   UNL     1      10.351 -30.677  13.376  1.00  0.00    -0.069 C 
ATOM     15  C   UNL     1      11.014 -29.347  13.662  1.00  0.00     0.039 C 
ATOM     16  C   UNL     1      11.213 -31.748  12.746  1.00  0.00     0.039 C 
BRANCH  13  17
ATOM     17  C   UNL     1       8.139 -29.824  14.246  1.00  0.00     0.066 CG0
ATOM     18  G   UNL     1       8.485 -29.492  15.684  1.00  0.00     0.000 G0
ENDBRANCH  13  17
ENDBRANCH  11  13
ENDBRANCH  10  11
ENDBRANCH   1  10
TORSDOF 0
ENDMDL
MODEL 2
REMARK VINA RESULT:    -3.460      1.724      3.794
REMARK INTER + INTRA:          -4.603
REMARK INTER:                  -4.917
REMARK INTRA:                   0.314
REMARK UNBOUND:                 0.273
REMARK SMILES CC1=CCC(=C(C)C)C(=O)CC(C)=CCC1
REMARK SMILES IDX 12 1 14 2 13 3 15 4 16 5 2 6 1 7 3 8 11 10 9 11 10 12 5 13
REMARK SMILES IDX 6 14 7 15 8 16 4 17
REMARK H PARENT
REMARK Flexibility Score: 60.00
ROOT
ATOM      1  C   UNL     1       7.362 -32.692  15.933  1.00  0.00    -0.070 C 
ATOM      2  C   UNL     1       7.962 -33.518  15.047  1.00  0.00    -0.027 C 
ATOM      3  C   UNL     1       7.596 -32.942  17.402  1.00  0.00     0.039 C 
ENDROOT
BRANCH   2   4
ATOM      4  C   UNL     1       7.774 -33.490  13.546  1.00  0.00     0.032 C 
BRANCH   4   5
ATOM      5  C   UNL     1       8.291 -32.213  12.853  1.00  0.00     0.034 C 
BRANCH   5   6
ATOM      6  C   UNL     1       9.608 -31.715  13.421  1.00  0.00    -0.077 C 
ATOM      7  C   UNL     1      10.830 -32.577  13.217  1.00  0.00     0.039 C 
ATOM      8  C   UNL     1       9.745 -30.585  14.156  1.00  0.00    -0.023 CG0
ATOM      9  G   UNL     1       8.671 -29.564  14.473  1.00  0.00     0.000 G0
ENDBRANCH   5   6
ENDBRANCH   4   5
ENDBRANCH   2   4
BRANCH   1  10
ATOM     10  C   UNL     1       6.399 -31.595  15.527  1.00  0.00     0.111 C 
BRANCH  10  11
ATOM     11  C   UNL     1       6.799 -30.263  16.105  1.00  0.00     0.163 C 
ATOM     12  O   UNL     1       5.924 -29.598  16.724  1.00  0.00    -0.294 OA
BRANCH  11  13
ATOM     13  C   UNL     1       8.161 -29.684  15.917  1.00  0.00    -0.002 C 
ATOM     14  C   UNL     1       8.873 -29.210  16.984  1.00  0.00    -0.069 C 
ATOM     15  C   UNL     1      10.185 -28.477  16.810  1.00  0.00     0.039 C 
ATOM     16  C   UNL     1       8.378 -29.397  18.401  1.00  0.00     0.039 C 
BRANCH  13  17
ATOM     17  C   UNL     1       8.674 -29.560  14.492  1.00  0.00     0.066 CG0
ATOM     18  G   UNL     1       9.733 -30.595  14.167  1.00  0.00     0.000 G0
ENDBRANCH  13  17
ENDBRANCH  11  13
ENDBRANCH  10  11
ENDBRANCH   1  10
TORSDOF 0
ENDMDL
MODEL 3
REMARK VINA RESULT:    -3.179      1.934      4.052
REMARK INTER + INTRA:          -4.208
REMARK INTER:                  -4.659
REMARK INTRA:                   0.451
REMARK UNBOUND:                 0.273
REMARK SMILES CC1=CCC(=C(C)C)C(=O)CC(C)=CCC1
REMARK SMILES IDX 12 1 14 2 13 3 15 4 16 5 2 6 1 7 3 8 11 10 9 11 10 12 5 13
REMARK SMILES IDX 6 14 7 15 8 16 4 17
REMARK H PARENT
REMARK Flexibility Score: 60.00
ROOT
ATOM      1  C   UNL     1       9.171 -29.194  16.770  1.00  0.00    -0.070 C 
ATOM      2  C   UNL     1       8.721 -30.034  17.728  1.00  0.00    -0.027 C 
ATOM      3  C   UNL     1      10.217 -28.179  17.156  1.00  0.00     0.039 C 
ENDROOT
BRANCH   2   4
ATOM      4  C   UNL     1       7.611 -31.049  17.562  1.00  0.00     0.032 C 
BRANCH   4   5
ATOM      5  C   UNL     1       8.088 -32.504  17.369  1.00  0.00     0.034 C 
BRANCH   5   6
ATOM      6  C   UNL     1       7.442 -33.191  16.179  1.00  0.00    -0.077 C 
ATOM      7  C   UNL     1       6.162 -33.952  16.418  1.00  0.00     0.039 C 
ATOM      8  C   UNL     1       7.976 -33.224  14.933  1.00  0.00    -0.023 CG0
ATOM      9  G   UNL     1       9.233 -32.523  14.459  1.00  0.00     0.000 G0
ENDBRANCH   5   6
ENDBRANCH   4   5
ENDBRANCH   2   4
BRANCH   1  10
ATOM     10  C   UNL     1       8.611 -29.161  15.362  1.00  0.00     0.111 C 
BRANCH  10  11
ATOM     11  C   UNL     1       9.456 -29.965  14.410  1.00  0.00     0.163 C 
ATOM     12  O   UNL     1      10.604 -29.530  14.122  1.00  0.00    -0.294 OA
BRANCH  11  13
ATOM     13  C   UNL     1       8.960 -31.212  13.756  1.00  0.00    -0.002 C 
ATOM     14  C   UNL     1       8.210 -31.151  12.613  1.00  0.00    -0.069 C 
ATOM     15  C   UNL     1       7.562 -32.381  12.015  1.00  0.00     0.039 C 
ATOM     16  C   UNL     1       7.991 -29.842  11.888  1.00  0.00     0.039 C 
BRANCH  13  17
ATOM     17  C   UNL     1       9.242 -32.527  14.461  1.00  0.00     0.066 CG0
ATOM     18  G   UNL     1       7.973 -33.228  14.906  1.00  0.00     0.000 G0
ENDBRANCH  13  17
ENDBRANCH  11  13
ENDBRANCH  10  11
ENDBRANCH   1  10
TORSDOF 0
ENDMDL
MODEL 4
REMARK VINA RESULT:    -3.123      1.686      3.443
REMARK INTER + INTRA:          -4.128
REMARK INTER:                  -4.433
REMARK INTRA:                   0.305
REMARK UNBOUND:                 0.273
REMARK SMILES CC1=CCC(=C(C)C)C(=O)CC(C)=CCC1
REMARK SMILES IDX 12 1 14 2 13 3 15 4 16 5 2 6 1 7 3 8 11 10 9 11 10 12 5 13
REMARK SMILES IDX 6 14 7 15 8 16 4 17
REMARK H PARENT
REMARK Flexibility Score: 60.00
ROOT
ATOM      1  C   UNL     1       8.513 -29.626  15.316  1.00  0.00    -0.070 C 
ATOM      2  C   UNL     1       8.174 -29.865  16.603  1.00  0.00    -0.027 C 
ATOM      3  C   UNL     1       9.906 -29.119  15.037  1.00  0.00     0.039 C 
ENDROOT
BRANCH   2   4
ATOM      4  C   UNL     1       6.804 -30.281  17.092  1.00  0.00     0.032 C 
BRANCH   4   5
ATOM      5  C   UNL     1       6.203 -31.505  16.370  1.00  0.00     0.034 C 
BRANCH   5   6
ATOM      6  C   UNL     1       7.105 -32.725  16.409  1.00  0.00    -0.077 C 
ATOM      7  C   UNL     1       7.494 -33.267  17.762  1.00  0.00     0.039 C 
ATOM      8  C   UNL     1       7.638 -33.317  15.312  1.00  0.00    -0.023 CG0
ATOM      9  G   UNL     1       7.378 -32.959  13.862  1.00  0.00     0.000 G0
ENDBRANCH   5   6
ENDBRANCH   4   5
ENDBRANCH   2   4
BRANCH   1  10
ATOM     10  C   UNL     1       7.540 -29.753  14.162  1.00  0.00     0.111 C 
BRANCH  10  11
ATOM     11  C   UNL     1       8.094 -30.617  13.061  1.00  0.00     0.163 C 
ATOM     12  O   UNL     1       8.197 -30.116  11.908  1.00  0.00    -0.294 OA
BRANCH  11  13
ATOM     13  C   UNL     1       8.460 -32.048  13.272  1.00  0.00    -0.002 C 
ATOM     14  C   UNL     1       9.681 -32.523  12.881  1.00  0.00    -0.069 C 
ATOM     15  C   UNL     1      10.024 -33.996  12.936  1.00  0.00     0.039 C 
ATOM     16  C   UNL     1      10.757 -31.591  12.369  1.00  0.00     0.039 C 
BRANCH  13  17
ATOM     17  C   UNL     1       7.391 -32.963  13.847  1.00  0.00     0.066 CG0
ATOM     18  G   UNL     1       7.650 -33.313  15.299  1.00  0.00     0.000 G0
ENDBRANCH  13  17
ENDBRANCH  11  13
ENDBRANCH  10  11
ENDBRANCH   1  10
TORSDOF 0
ENDMDL
MODEL 5
REMARK VINA RESULT:    -3.087      2.013      3.737
REMARK INTER + INTRA:          -4.078
REMARK INTER:                  -4.507
REMARK INTRA:                   0.429
REMARK UNBOUND:                 0.273
REMARK SMILES CC1=CCC(=C(C)C)C(=O)CC(C)=CCC1
REMARK SMILES IDX 12 1 14 2 13 3 15 4 16 5 2 6 1 7 3 8 11 10 9 11 10 12 5 13
REMARK SMILES IDX 6 14 7 15 8 16 4 17
REMARK H PARENT
REMARK Flexibility Score: 60.00
ROOT
ATOM      1  C   UNL     1       6.053 -33.190  15.392  1.00  0.00    -0.070 C 
ATOM      2  C   UNL     1       5.996 -33.321  14.048  1.00  0.00    -0.027 C 
ATOM      3  C   UNL     1       5.890 -34.434  16.229  1.00  0.00     0.039 C 
ENDROOT
BRANCH   2   4
ATOM      4  C   UNL     1       6.041 -32.187  13.048  1.00  0.00     0.032 C 
BRANCH   4   5
ATOM      5  C   UNL     1       7.458 -31.776  12.597  1.00  0.00     0.034 C 
BRANCH   5   6
ATOM      6  C   UNL     1       7.798 -30.335  12.934  1.00  0.00    -0.077 C 
ATOM      7  C   UNL     1       7.292 -29.260  12.005  1.00  0.00     0.039 C 
ATOM      8  C   UNL     1       8.582 -29.958  13.973  1.00  0.00    -0.023 CG0
ATOM      9  G   UNL     1       9.183 -30.854  15.038  1.00  0.00     0.000 G0
ENDBRANCH   5   6
ENDBRANCH   4   5
ENDBRANCH   2   4
BRANCH   1  10
ATOM     10  C   UNL     1       6.181 -31.854  16.093  1.00  0.00     0.111 C 
BRANCH  10  11
ATOM     11  C   UNL     1       7.502 -31.721  16.802  1.00  0.00     0.163 C 
ATOM     12  O   UNL     1       7.724 -32.472  17.790  1.00  0.00    -0.294 OA
BRANCH  11  13
ATOM     13  C   UNL     1       8.519 -30.699  16.416  1.00  0.00    -0.002 C 
ATOM     14  C   UNL     1       8.767 -29.620  17.219  1.00  0.00    -0.069 C 
ATOM     15  C   UNL     1       9.673 -28.489  16.786  1.00  0.00     0.039 C 
ATOM     16  C   UNL     1       8.141 -29.505  18.592  1.00  0.00     0.039 C 
BRANCH  13  17
ATOM     17  C   UNL     1       9.189 -30.860  15.061  1.00  0.00     0.066 CG0
ATOM     18  G   UNL     1       8.571 -29.969  14.002  1.00  0.00     0.000 G0
ENDBRANCH  13  17
ENDBRANCH  11  13
ENDBRANCH  10  11
ENDBRANCH   1  10
TORSDOF 0
ENDMDL
MODEL 6
REMARK VINA RESULT:    -3.083      2.061      5.358
REMARK INTER + INTRA:          -4.072
REMARK INTER:                  -4.548
REMARK INTRA:                   0.476
REMARK UNBOUND:                 0.273
REMARK SMILES CC1=CCC(=C(C)C)C(=O)CC(C)=CCC1
REMARK SMILES IDX 12 1 14 2 13 3 15 4 16 5 2 6 1 7 3 8 11 10 9 11 10 12 5 13
REMARK SMILES IDX 6 14 7 15 8 16 4 17
REMARK H PARENT
REMARK Flexibility Score: 60.00
ROOT
ATOM      1  C   UNL     1      10.541 -29.573  13.763  1.00  0.00    -0.070 C 
ATOM      2  C   UNL     1      11.125 -30.441  12.906  1.00  0.00    -0.027 C 
ATOM      3  C   UNL     1      11.439 -28.698  14.601  1.00  0.00     0.039 C 
ENDROOT
BRANCH   2   4
ATOM      4  C   UNL     1      10.403 -31.463  12.056  1.00  0.00     0.032 C 
BRANCH   4   5
ATOM      5  C   UNL     1      10.482 -32.912  12.580  1.00  0.00     0.034 C 
BRANCH   5   6
ATOM      6  C   UNL     1       9.126 -33.493  12.939  1.00  0.00    -0.077 C 
ATOM      7  C   UNL     1       8.413 -34.310  11.892  1.00  0.00     0.039 C 
ATOM      8  C   UNL     1       8.485 -33.267  14.112  1.00  0.00    -0.023 CG0
ATOM      9  G   UNL     1       9.009 -32.497  15.308  1.00  0.00     0.000 G0
ENDBRANCH   5   6
ENDBRANCH   4   5
ENDBRANCH   2   4
BRANCH   1  10
ATOM     10  C   UNL     1       9.044 -29.505  13.987  1.00  0.00     0.111 C 
BRANCH  10  11
ATOM     11  C   UNL     1       8.669 -29.946  15.377  1.00  0.00     0.163 C 
ATOM     12  O   UNL     1       8.873 -29.144  16.329  1.00  0.00    -0.294 OA
BRANCH  11  13
ATOM     13  C   UNL     1       8.129 -31.306  15.668  1.00  0.00    -0.002 C 
ATOM     14  C   UNL     1       6.928 -31.460  16.305  1.00  0.00    -0.069 C 
ATOM     15  C   UNL     1       6.427 -32.815  16.754  1.00  0.00     0.039 C 
ATOM     16  C   UNL     1       6.036 -30.272  16.593  1.00  0.00     0.039 C 
BRANCH  13  17
ATOM     17  C   UNL     1       9.007 -32.494  15.316  1.00  0.00     0.066 CG0
ATOM     18  G   UNL     1       8.483 -33.266  14.121  1.00  0.00     0.000 G0
ENDBRANCH  13  17
ENDBRANCH  11  13
ENDBRANCH  10  11
ENDBRANCH   1  10
TORSDOF 0
ENDMDL
MODEL 7
REMARK VINA RESULT:    -2.998      1.765      3.652
REMARK INTER + INTRA:          -3.952
REMARK INTER:                  -4.238
REMARK INTRA:                   0.286
REMARK UNBOUND:                 0.273
REMARK SMILES CC1=CCC(=C(C)C)C(=O)CC(C)=CCC1
REMARK SMILES IDX 12 1 14 2 13 3 15 4 16 5 2 6 1 7 3 8 11 10 9 11 10 12 5 13
REMARK SMILES IDX 6 14 7 15 8 16 4 17
REMARK H PARENT
REMARK Flexibility Score: 60.00
ROOT
ATOM      1  C   UNL     1       7.751 -31.018  17.548  1.00  0.00    -0.070 C 
ATOM      2  C   UNL     1       7.156 -32.232  17.562  1.00  0.00    -0.027 C 
ATOM      3  C   UNL     1       7.340 -30.019  18.602  1.00  0.00     0.039 C 
ENDROOT
BRANCH   2   4
ATOM      4  C   UNL     1       7.360 -33.327  16.539  1.00  0.00     0.032 C 
BRANCH   4   5
ATOM      5  C   UNL     1       6.558 -33.149  15.232  1.00  0.00     0.034 C 
BRANCH   5   6
ATOM      6  C   UNL     1       7.354 -33.509  13.990  1.00  0.00    -0.077 C 
ATOM      7  C   UNL     1       7.759 -34.950  13.809  1.00  0.00     0.039 C 
ATOM      8  C   UNL     1       7.782 -32.610  13.070  1.00  0.00    -0.023 CG0
ATOM      9  G   UNL     1       7.484 -31.124  13.037  1.00  0.00     0.000 G0
ENDBRANCH   5   6
ENDBRANCH   4   5
ENDBRANCH   2   4
BRANCH   1  10
ATOM     10  C   UNL     1       8.732 -30.585  16.479  1.00  0.00     0.111 C 
BRANCH  10  11
ATOM     11  C   UNL     1       8.029 -29.994  15.285  1.00  0.00     0.163 C 
ATOM     12  O   UNL     1       7.025 -29.260  15.491  1.00  0.00    -0.294 OA
BRANCH  11  13
ATOM     13  C   UNL     1       8.440 -30.297  13.883  1.00  0.00    -0.002 C 
ATOM     14  C   UNL     1       9.597 -29.782  13.367  1.00  0.00    -0.069 C 
ATOM     15  C   UNL     1       9.963 -29.939  11.907  1.00  0.00     0.039 C 
ATOM     16  C   UNL     1      10.575 -29.024  14.237  1.00  0.00     0.039 C 
BRANCH  13  17
ATOM     17  C   UNL     1       7.478 -31.114  13.037  1.00  0.00     0.066 CG0
ATOM     18  G   UNL     1       7.797 -32.595  13.067  1.00  0.00     0.000 G0
ENDBRANCH  13  17
ENDBRANCH  11  13
ENDBRANCH  10  11
ENDBRANCH   1  10
TORSDOF 0
ENDMDL
MODEL 8
REMARK VINA RESULT:    -2.968      1.707      4.108
REMARK INTER + INTRA:          -3.909
REMARK INTER:                  -4.433
REMARK INTRA:                   0.523
REMARK UNBOUND:                 0.273
REMARK SMILES CC1=CCC(=C(C)C)C(=O)CC(C)=CCC1
REMARK SMILES IDX 12 1 14 2 13 3 15 4 16 5 2 6 1 7 3 8 11 10 9 11 10 12 5 13
REMARK SMILES IDX 6 14 7 15 8 16 4 17
REMARK H PARENT
REMARK Flexibility Score: 60.00
ROOT
ATOM      1  C   UNL     1      10.361 -28.886  15.192  1.00  0.00    -0.070 C 
ATOM      2  C   UNL     1      10.405 -28.375  16.443  1.00  0.00    -0.027 C 
ATOM      3  C   UNL     1      11.591 -28.749  14.331  1.00  0.00     0.039 C 
ENDROOT
BRANCH   2   4
ATOM      4  C   UNL     1       9.250 -28.327  17.419  1.00  0.00     0.032 C 
BRANCH   4   5
ATOM      5  C   UNL     1       8.897 -29.680  18.071  1.00  0.00     0.034 C 
BRANCH   5   6
ATOM      6  C   UNL     1       7.484 -30.142  17.759  1.00  0.00    -0.077 C 
ATOM      7  C   UNL     1       6.341 -29.334  18.320  1.00  0.00     0.039 C 
ATOM      8  C   UNL     1       7.184 -31.270  17.069  1.00  0.00    -0.023 CG0
ATOM      9  G   UNL     1       8.159 -32.221  16.403  1.00  0.00     0.000 G0
ENDBRANCH   5   6
ENDBRANCH   4   5
ENDBRANCH   2   4
BRANCH   1  10
ATOM     10  C   UNL     1       9.115 -29.500  14.588  1.00  0.00     0.111 C 
BRANCH  10  11
ATOM     11  C   UNL     1       9.261 -30.987  14.404  1.00  0.00     0.163 C 
ATOM     12  O   UNL     1      10.267 -31.412  13.773  1.00  0.00    -0.294 OA
BRANCH  11  13
ATOM     13  C   UNL     1       8.236 -31.959  14.885  1.00  0.00    -0.002 C 
ATOM     14  C   UNL     1       7.352 -32.531  14.013  1.00  0.00    -0.069 C 
ATOM     15  C   UNL     1       6.204 -33.395  14.488  1.00  0.00     0.039 C 
ATOM     16  C   UNL     1       7.479 -32.326  12.520  1.00  0.00     0.039 C 
BRANCH  13  17
ATOM     17  C   UNL     1       8.159 -32.206  16.383  1.00  0.00     0.066 CG0
ATOM     18  G   UNL     1       7.176 -31.280  17.071  1.00  0.00     0.000 G0
ENDBRANCH  13  17
ENDBRANCH  11  13
ENDBRANCH  10  11
ENDBRANCH   1  10
TORSDOF 0
ENDMDL
MODEL 9
REMARK VINA RESULT:    -2.830      1.409      2.793
REMARK INTER + INTRA:          -3.716
REMARK INTER:                  -4.444
REMARK INTRA:                   0.728
REMARK UNBOUND:                 0.273
REMARK SMILES CC1=CCC(=C(C)C)C(=O)CC(C)=CCC1
REMARK SMILES IDX 12 1 14 2 13 3 15 4 16 5 2 6 1 7 3 8 11 10 9 11 10 12 5 13
REMARK SMILES IDX 6 14 7 15 8 16 4 17
REMARK H PARENT
REMARK Flexibility Score: 60.00
ROOT
ATOM      1  C   UNL     1       8.876 -32.538  13.198  1.00  0.00    -0.070 C 
ATOM      2  C   UNL     1       8.485 -33.590  13.951  1.00  0.00    -0.027 C 
ATOM      3  C   UNL     1      10.355 -32.276  13.065  1.00  0.00     0.039 C 
ENDROOT
BRANCH   2   4
ATOM      4  C   UNL     1       7.056 -33.957  14.282  1.00  0.00     0.032 C 
BRANCH   4   5
ATOM      5  C   UNL     1       6.257 -32.857  15.011  1.00  0.00     0.034 C 
BRANCH   5   6
ATOM      6  C   UNL     1       6.986 -32.290  16.217  1.00  0.00    -0.077 C 
ATOM      7  C   UNL     1       7.260 -33.220  17.372  1.00  0.00     0.039 C 
ATOM      8  C   UNL     1       7.343 -30.989  16.352  1.00  0.00    -0.023 CG0
ATOM      9  G   UNL     1       7.186 -29.886  15.324  1.00  0.00     0.000 G0
ENDBRANCH   5   6
ENDBRANCH   4   5
ENDBRANCH   2   4
BRANCH   1  10
ATOM     10  C   UNL     1       7.905 -31.563  12.564  1.00  0.00     0.111 C 
BRANCH  10  11
ATOM     11  C   UNL     1       8.200 -30.142  12.967  1.00  0.00     0.163 C 
ATOM     12  O   UNL     1       8.351 -29.285  12.054  1.00  0.00    -0.294 OA
BRANCH  11  13
ATOM     13  C   UNL     1       8.380 -29.734  14.392  1.00  0.00    -0.002 C 
ATOM     14  C   UNL     1       9.603 -29.335  14.856  1.00  0.00    -0.069 C 
ATOM     15  C   UNL     1       9.854 -29.067  16.323  1.00  0.00     0.039 C 
ATOM     16  C   UNL     1      10.773 -29.142  13.916  1.00  0.00     0.039 C 
BRANCH  13  17
ATOM     17  C   UNL     1       7.179 -29.873  15.312  1.00  0.00     0.066 CG0
ATOM     18  G   UNL     1       7.353 -30.988  16.324  1.00  0.00     0.000 G0
ENDBRANCH  13  17
ENDBRANCH  11  13
ENDBRANCH  10  11
ENDBRANCH   1  10
TORSDOF 0
ENDMDL
