MODEL 1
REMARK VINA RESULT:    -5.029      0.000      0.000
REMARK INTER + INTRA:         -10.058
REMARK INTER:                  -9.145
REMARK INTRA:                  -0.913
REMARK UNBOUND:                -0.913
REMARK SMILES CCCCCCCCCCCCCCCC(=O)[O-]
REMARK SMILES IDX 9 1 10 2 11 3 12 4 13 5 14 6 15 7 16 8 17 9 18 10 8 11 7 12
REMARK SMILES IDX 6 13 5 14 4 15 3 16 2 17 1 18
REMARK H PARENT
REMARK Flexibility Score: inf
ROOT
ATOM      1  C   UNL     1      -7.436  26.906 -27.286  1.00  0.00     0.000 C 
ENDROOT
BRANCH   1   2
ATOM      2  C   UNL     1      -7.044  27.823 -26.117  1.00  0.00     0.000 C 
BRANCH   2   3
ATOM      3  C   UNL     1      -8.075  27.795 -24.973  1.00  0.00     0.000 C 
BRANCH   3   4
ATOM      4  C   UNL     1      -7.487  28.332 -23.650  1.00  0.00     0.000 C 
BRANCH   4   5
ATOM      5  C   UNL     1      -6.021  28.795 -23.769  1.00  0.00     0.000 C 
BRANCH   5   6
ATOM      6  C   UNL     1      -5.464  29.502 -22.521  1.00  0.00     0.006 C 
BRANCH   6   7
ATOM      7  C   UNL     1      -4.943  28.519 -21.465  1.00  0.00     0.053 C 
BRANCH   7   8
ATOM      8  C   UNL     1      -5.920  28.400 -20.339  1.00  0.00     0.041 C 
ATOM      9  O   UNL     1      -6.552  29.414 -19.941  1.00  0.00    -0.550 OA
ATOM     10  O   UNL     1      -6.171  27.162 -19.762  1.00  0.00    -0.550 OA
ENDBRANCH   7   8
ENDBRANCH   6   7
ENDBRANCH   5   6
ENDBRANCH   4   5
ENDBRANCH   3   4
ENDBRANCH   2   3
ENDBRANCH   1   2
BRANCH   1  11
ATOM     11  C   UNL     1      -8.870  26.367 -27.147  1.00  0.00     0.000 C 
BRANCH  11  12
ATOM     12  C   UNL     1      -8.942  24.832 -27.223  1.00  0.00    -0.000 C 
BRANCH  12  13
ATOM     13  C   UNL     1      -9.851  24.163 -26.172  1.00  0.00    -0.000 C 
BRANCH  13  14
ATOM     14  C   UNL     1      -9.710  22.634 -26.063  1.00  0.00    -0.000 C 
BRANCH  14  15
ATOM     15  C   UNL     1      -9.977  22.109 -24.644  1.00  0.00    -0.000 C 
BRANCH  15  16
ATOM     16  C   UNL     1     -10.015  23.262 -23.631  1.00  0.00    -0.000 C 
BRANCH  16  17
ATOM     17  C   UNL     1      -9.234  22.904 -22.362  1.00  0.00    -0.003 C 
ATOM     18  C   UNL     1     -10.139  22.926 -21.134  1.00  0.00     0.004 C 
ENDBRANCH  16  17
ENDBRANCH  15  16
ENDBRANCH  14  15
ENDBRANCH  13  14
ENDBRANCH  12  13
ENDBRANCH  11  12
ENDBRANCH   1  11
TORSDOF 14
ENDMDL
MODEL 2
REMARK VINA RESULT:    -5.027      1.157      2.688
REMARK INTER + INTRA:         -10.053
REMARK INTER:                  -9.201
REMARK INTRA:                  -0.852
REMARK UNBOUND:                -0.913
REMARK SMILES CCCCCCCCCCCCCCCC(=O)[O-]
REMARK SMILES IDX 9 1 10 2 11 3 12 4 13 5 14 6 15 7 16 8 17 9 18 10 8 11 7 12
REMARK SMILES IDX 6 13 5 14 4 15 3 16 2 17 1 18
REMARK H PARENT
REMARK Flexibility Score: inf
ROOT
ATOM      1  C   UNL     1      -8.148  27.703 -25.022  1.00  0.00     0.000 C 
ENDROOT
BRANCH   1   2
ATOM      2  C   UNL     1      -7.688  28.429 -23.748  1.00  0.00     0.000 C 
BRANCH   2   3
ATOM      3  C   UNL     1      -6.175  28.716 -23.745  1.00  0.00     0.000 C 
BRANCH   3   4
ATOM      4  C   UNL     1      -5.648  29.027 -22.328  1.00  0.00     0.000 C 
BRANCH   4   5
ATOM      5  C   UNL     1      -6.124  28.024 -21.257  1.00  0.00     0.000 C 
BRANCH   5   6
ATOM      6  C   UNL     1      -5.439  28.168 -19.887  1.00  0.00     0.006 C 
BRANCH   6   7
ATOM      7  C   UNL     1      -5.350  29.626 -19.418  1.00  0.00     0.053 C 
BRANCH   7   8
ATOM      8  C   UNL     1      -6.510  29.958 -18.533  1.00  0.00     0.041 C 
ATOM      9  O   UNL     1      -7.001  29.077 -17.778  1.00  0.00    -0.550 OA
ATOM     10  O   UNL     1      -7.016  31.251 -18.505  1.00  0.00    -0.550 OA
ENDBRANCH   7   8
ENDBRANCH   6   7
ENDBRANCH   5   6
ENDBRANCH   4   5
ENDBRANCH   3   4
ENDBRANCH   2   3
ENDBRANCH   1   2
BRANCH   1  11
ATOM     11  C   UNL     1      -7.087  27.755 -26.136  1.00  0.00     0.000 C 
BRANCH  11  12
ATOM     12  C   UNL     1      -7.540  27.048 -27.426  1.00  0.00    -0.000 C 
BRANCH  12  13
ATOM     13  C   UNL     1      -8.948  26.421 -27.372  1.00  0.00    -0.000 C 
BRANCH  13  14
ATOM     14  C   UNL     1      -8.978  24.883 -27.323  1.00  0.00    -0.000 C 
BRANCH  14  15
ATOM     15  C   UNL     1      -9.560  24.339 -26.009  1.00  0.00    -0.000 C 
BRANCH  15  16
ATOM     16  C   UNL     1      -9.696  22.812 -26.060  1.00  0.00    -0.000 C 
BRANCH  16  17
ATOM     17  C   UNL     1     -10.420  22.282 -24.818  1.00  0.00    -0.003 C 
ATOM     18  C   UNL     1      -9.828  22.872 -23.542  1.00  0.00     0.004 C 
ENDBRANCH  16  17
ENDBRANCH  15  16
ENDBRANCH  14  15
ENDBRANCH  13  14
ENDBRANCH  12  13
ENDBRANCH  11  12
ENDBRANCH   1  11
TORSDOF 14
ENDMDL
MODEL 3
REMARK VINA RESULT:    -4.965      1.528      2.427
REMARK INTER + INTRA:          -9.941
REMARK INTER:                  -9.341
REMARK INTRA:                  -0.600
REMARK UNBOUND:                -0.913
REMARK SMILES CCCCCCCCCCCCCCCC(=O)[O-]
REMARK SMILES IDX 9 1 10 2 11 3 12 4 13 5 14 6 15 7 16 8 17 9 18 10 8 11 7 12
REMARK SMILES IDX 6 13 5 14 4 15 3 16 2 17 1 18
REMARK H PARENT
REMARK Flexibility Score: inf
ROOT
ATOM      1  C   UNL     1      -7.329  27.942 -25.547  1.00  0.00     0.000 C 
ENDROOT
BRANCH   1   2
ATOM      2  C   UNL     1      -7.504  28.102 -24.028  1.00  0.00     0.000 C 
BRANCH   2   3
ATOM      3  C   UNL     1      -6.303  28.800 -23.365  1.00  0.00     0.000 C 
BRANCH   3   4
ATOM      4  C   UNL     1      -6.163  28.421 -21.875  1.00  0.00     0.000 C 
BRANCH   4   5
ATOM      5  C   UNL     1      -6.203  29.634 -20.923  1.00  0.00     0.000 C 
BRANCH   5   6
ATOM      6  C   UNL     1      -5.351  29.484 -19.650  1.00  0.00     0.006 C 
BRANCH   6   7
ATOM      7  C   UNL     1      -5.105  28.018 -19.270  1.00  0.00     0.053 C 
BRANCH   7   8
ATOM      8  C   UNL     1      -3.660  27.673 -19.442  1.00  0.00     0.041 C 
ATOM      9  O   UNL     1      -3.330  26.563 -19.938  1.00  0.00    -0.550 OA
ATOM     10  O   UNL     1      -2.679  28.595 -19.102  1.00  0.00    -0.550 OA
ENDBRANCH   7   8
ENDBRANCH   6   7
ENDBRANCH   5   6
ENDBRANCH   4   5
ENDBRANCH   3   4
ENDBRANCH   2   3
ENDBRANCH   1   2
BRANCH   1  11
ATOM     11  C   UNL     1      -8.605  27.414 -26.226  1.00  0.00     0.000 C 
BRANCH  11  12
ATOM     12  C   UNL     1      -8.310  26.583 -27.488  1.00  0.00    -0.000 C 
BRANCH  12  13
ATOM     13  C   UNL     1      -8.909  25.161 -27.492  1.00  0.00    -0.000 C 
BRANCH  13  14
ATOM     14  C   UNL     1      -9.105  24.530 -26.101  1.00  0.00    -0.000 C 
BRANCH  14  15
ATOM     15  C   UNL     1      -9.898  23.215 -26.149  1.00  0.00    -0.000 C 
BRANCH  15  16
ATOM     16  C   UNL     1      -9.702  22.409 -24.859  1.00  0.00    -0.000 C 
BRANCH  16  17
ATOM     17  C   UNL     1     -10.247  23.171 -23.646  1.00  0.00    -0.003 C 
ATOM     18  C   UNL     1      -9.448  22.848 -22.387  1.00  0.00     0.004 C 
ENDBRANCH  16  17
ENDBRANCH  15  16
ENDBRANCH  14  15
ENDBRANCH  13  14
ENDBRANCH  12  13
ENDBRANCH  11  12
ENDBRANCH   1  11
TORSDOF 14
ENDMDL
MODEL 4
REMARK VINA RESULT:    -4.880      5.919      7.936
REMARK INTER + INTRA:          -9.786
REMARK INTER:                  -7.903
REMARK INTRA:                  -1.883
REMARK UNBOUND:                -0.913
REMARK SMILES CCCCCCCCCCCCCCCC(=O)[O-]
REMARK SMILES IDX 9 1 10 2 11 3 12 4 13 5 14 6 15 7 16 8 17 9 18 10 8 11 7 12
REMARK SMILES IDX 6 13 5 14 4 15 3 16 2 17 1 18
REMARK H PARENT
REMARK Flexibility Score: inf
ROOT
ATOM      1  C   UNL     1      -6.997  31.556 -18.004  1.00  0.00     0.000 C 
ENDROOT
BRANCH   1   2
ATOM      2  C   UNL     1      -6.822  31.945 -19.480  1.00  0.00     0.000 C 
BRANCH   2   3
ATOM      3  C   UNL     1      -6.226  33.354 -19.654  1.00  0.00     0.000 C 
BRANCH   3   4
ATOM      4  C   UNL     1      -4.945  33.338 -20.516  1.00  0.00     0.000 C 
BRANCH   4   5
ATOM      5  C   UNL     1      -4.075  32.082 -20.307  1.00  0.00     0.000 C 
BRANCH   5   6
ATOM      6  C   UNL     1      -2.976  31.875 -21.363  1.00  0.00     0.006 C 
BRANCH   6   7
ATOM      7  C   UNL     1      -1.786  32.824 -21.176  1.00  0.00     0.053 C 
BRANCH   7   8
ATOM      8  C   UNL     1      -1.157  32.611 -19.835  1.00  0.00     0.041 C 
ATOM      9  O   UNL     1      -1.347  33.442 -18.909  1.00  0.00    -0.550 OA
ATOM     10  O   UNL     1      -0.405  31.469 -19.593  1.00  0.00    -0.550 OA
ENDBRANCH   7   8
ENDBRANCH   6   7
ENDBRANCH   5   6
ENDBRANCH   4   5
ENDBRANCH   3   4
ENDBRANCH   2   3
ENDBRANCH   1   2
BRANCH   1  11
ATOM     11  C   UNL     1      -7.042  30.031 -17.805  1.00  0.00     0.000 C 
BRANCH  11  12
ATOM     12  C   UNL     1      -5.972  29.290 -18.626  1.00  0.00    -0.000 C 
BRANCH  12  13
ATOM     13  C   UNL     1      -6.369  27.877 -19.102  1.00  0.00    -0.000 C 
BRANCH  13  14
ATOM     14  C   UNL     1      -5.942  27.527 -20.539  1.00  0.00    -0.000 C 
BRANCH  14  15
ATOM     15  C   UNL     1      -5.283  28.707 -21.270  1.00  0.00    -0.000 C 
BRANCH  15  16
ATOM     16  C   UNL     1      -3.821  28.392 -21.612  1.00  0.00    -0.000 C 
BRANCH  16  17
ATOM     17  C   UNL     1      -3.115  27.709 -20.435  1.00  0.00    -0.003 C 
ATOM     18  C   UNL     1      -2.544  28.737 -19.464  1.00  0.00     0.004 C 
ENDBRANCH  16  17
ENDBRANCH  15  16
ENDBRANCH  14  15
ENDBRANCH  13  14
ENDBRANCH  12  13
ENDBRANCH  11  12
ENDBRANCH   1  11
TORSDOF 14
ENDMDL
MODEL 5
REMARK VINA RESULT:    -4.781      2.858      6.788
REMARK INTER + INTRA:          -9.607
REMARK INTER:                  -8.656
REMARK INTRA:                  -0.951
REMARK UNBOUND:                -0.913
REMARK SMILES CCCCCCCCCCCCCCCC(=O)[O-]
REMARK SMILES IDX 9 1 10 2 11 3 12 4 13 5 14 6 15 7 16 8 17 9 18 10 8 11 7 12
REMARK SMILES IDX 6 13 5 14 4 15 3 16 2 17 1 18
REMARK H PARENT
REMARK Flexibility Score: inf
ROOT
ATOM      1  C   UNL     1      -8.022  27.769 -24.729  1.00  0.00     0.000 C 
ENDROOT
BRANCH   1   2
ATOM      2  C   UNL     1      -7.006  27.786 -25.881  1.00  0.00     0.000 C 
BRANCH   2   3
ATOM      3  C   UNL     1      -7.669  27.591 -27.257  1.00  0.00     0.000 C 
BRANCH   3   4
ATOM      4  C   UNL     1      -7.303  26.231 -27.888  1.00  0.00     0.000 C 
BRANCH   4   5
ATOM      5  C   UNL     1      -8.517  25.303 -28.103  1.00  0.00     0.000 C 
BRANCH   5   6
ATOM      6  C   UNL     1      -9.301  24.959 -26.825  1.00  0.00     0.006 C 
BRANCH   6   7
ATOM      7  C   UNL     1      -9.204  23.475 -26.450  1.00  0.00     0.053 C 
BRANCH   7   8
ATOM      8  C   UNL     1      -9.934  23.214 -25.171  1.00  0.00     0.041 C 
ATOM      9  O   UNL     1      -9.293  23.059 -24.098  1.00  0.00    -0.550 OA
ATOM     10  O   UNL     1     -11.322  23.192 -25.153  1.00  0.00    -0.550 OA
ENDBRANCH   7   8
ENDBRANCH   6   7
ENDBRANCH   5   6
ENDBRANCH   4   5
ENDBRANCH   3   4
ENDBRANCH   2   3
ENDBRANCH   1   2
BRANCH   1  11
ATOM     11  C   UNL     1      -7.509  28.524 -23.490  1.00  0.00     0.000 C 
BRANCH  11  12
ATOM     12  C   UNL     1      -5.989  28.765 -23.524  1.00  0.00    -0.000 C 
BRANCH  12  13
ATOM     13  C   UNL     1      -5.356  29.163 -22.175  1.00  0.00    -0.000 C 
BRANCH  13  14
ATOM     14  C   UNL     1      -6.313  29.845 -21.180  1.00  0.00    -0.000 C 
BRANCH  14  15
ATOM     15  C   UNL     1      -6.324  29.166 -19.802  1.00  0.00    -0.000 C 
BRANCH  15  16
ATOM     16  C   UNL     1      -5.159  28.177 -19.668  1.00  0.00    -0.000 C 
BRANCH  16  17
ATOM     17  C   UNL     1      -5.648  26.730 -19.793  1.00  0.00    -0.003 C 
ATOM     18  C   UNL     1      -4.504  25.791 -20.162  1.00  0.00     0.004 C 
ENDBRANCH  16  17
ENDBRANCH  15  16
ENDBRANCH  14  15
ENDBRANCH  13  14
ENDBRANCH  12  13
ENDBRANCH  11  12
ENDBRANCH   1  11
TORSDOF 14
ENDMDL
MODEL 6
REMARK VINA RESULT:    -4.729      5.818      9.443
REMARK INTER + INTRA:          -9.513
REMARK INTER:                  -7.534
REMARK INTRA:                  -1.979
REMARK UNBOUND:                -0.913
REMARK SMILES CCCCCCCCCCCCCCCC(=O)[O-]
REMARK SMILES IDX 9 1 10 2 11 3 12 4 13 5 14 6 15 7 16 8 17 9 18 10 8 11 7 12
REMARK SMILES IDX 6 13 5 14 4 15 3 16 2 17 1 18
REMARK H PARENT
REMARK Flexibility Score: inf
ROOT
ATOM      1  C   UNL     1      -6.249  33.578 -19.571  1.00  0.00     0.000 C 
ENDROOT
BRANCH   1   2
ATOM      2  C   UNL     1      -6.973  32.224 -19.631  1.00  0.00     0.000 C 
BRANCH   2   3
ATOM      3  C   UNL     1      -6.650  31.326 -18.423  1.00  0.00     0.000 C 
BRANCH   3   4
ATOM      4  C   UNL     1      -6.458  29.850 -18.833  1.00  0.00     0.000 C 
BRANCH   4   5
ATOM      5  C   UNL     1      -6.243  29.653 -20.348  1.00  0.00     0.000 C 
BRANCH   5   6
ATOM      6  C   UNL     1      -5.853  28.224 -20.763  1.00  0.00     0.006 C 
BRANCH   6   7
ATOM      7  C   UNL     1      -4.358  28.083 -21.075  1.00  0.00     0.053 C 
BRANCH   7   8
ATOM      8  C   UNL     1      -3.665  27.348 -19.972  1.00  0.00     0.041 C 
ATOM      9  O   UNL     1      -3.279  26.162 -20.148  1.00  0.00    -0.550 OA
ATOM     10  O   UNL     1      -3.399  27.987 -18.768  1.00  0.00    -0.550 OA
ENDBRANCH   7   8
ENDBRANCH   6   7
ENDBRANCH   5   6
ENDBRANCH   4   5
ENDBRANCH   3   4
ENDBRANCH   2   3
ENDBRANCH   1   2
BRANCH   1  11
ATOM     11  C   UNL     1      -4.745  33.446 -19.869  1.00  0.00     0.000 C 
BRANCH  11  12
ATOM     12  C   UNL     1      -4.461  32.893 -21.277  1.00  0.00    -0.000 C 
BRANCH  12  13
ATOM     13  C   UNL     1      -3.301  31.881 -21.364  1.00  0.00    -0.000 C 
BRANCH  13  14
ATOM     14  C   UNL     1      -2.894  31.236 -20.026  1.00  0.00    -0.000 C 
BRANCH  14  15
ATOM     15  C   UNL     1      -1.377  31.267 -19.785  1.00  0.00    -0.000 C 
BRANCH  15  16
ATOM     16  C   UNL     1      -0.793  32.639 -20.146  1.00  0.00    -0.000 C 
BRANCH  16  17
ATOM     17  C   UNL     1       0.373  32.499 -21.130  1.00  0.00    -0.003 C 
ATOM     18  C   UNL     1       1.655  32.090 -20.411  1.00  0.00     0.004 C 
ENDBRANCH  16  17
ENDBRANCH  15  16
ENDBRANCH  14  15
ENDBRANCH  13  14
ENDBRANCH  12  13
ENDBRANCH  11  12
ENDBRANCH   1  11
TORSDOF 14
ENDMDL
MODEL 7
REMARK VINA RESULT:    -4.714      2.924      7.046
REMARK INTER + INTRA:          -9.486
REMARK INTER:                  -8.541
REMARK INTRA:                  -0.945
REMARK UNBOUND:                -0.913
REMARK SMILES CCCCCCCCCCCCCCCC(=O)[O-]
REMARK SMILES IDX 9 1 10 2 11 3 12 4 13 5 14 6 15 7 16 8 17 9 18 10 8 11 7 12
REMARK SMILES IDX 6 13 5 14 4 15 3 16 2 17 1 18
REMARK H PARENT
REMARK Flexibility Score: inf
ROOT
ATOM      1  C   UNL     1      -8.516  27.740 -25.751  1.00  0.00     0.000 C 
ENDROOT
BRANCH   1   2
ATOM      2  C   UNL     1      -7.261  27.475 -26.596  1.00  0.00     0.000 C 
BRANCH   2   3
ATOM      3  C   UNL     1      -7.595  26.930 -27.997  1.00  0.00     0.000 C 
BRANCH   3   4
ATOM      4  C   UNL     1      -8.822  25.993 -27.976  1.00  0.00     0.000 C 
BRANCH   4   5
ATOM      5  C   UNL     1      -8.566  24.656 -27.252  1.00  0.00     0.000 C 
BRANCH   5   6
ATOM      6  C   UNL     1      -9.762  24.120 -26.446  1.00  0.00     0.006 C 
BRANCH   6   7
ATOM      7  C   UNL     1      -9.572  24.269 -24.931  1.00  0.00     0.053 C 
BRANCH   7   8
ATOM      8  C   UNL     1      -9.848  22.970 -24.242  1.00  0.00     0.041 C 
ATOM      9  O   UNL     1      -9.426  22.773 -23.072  1.00  0.00    -0.550 OA
ATOM     10  O   UNL     1     -10.614  21.997 -24.872  1.00  0.00    -0.550 OA
ENDBRANCH   7   8
ENDBRANCH   6   7
ENDBRANCH   5   6
ENDBRANCH   4   5
ENDBRANCH   3   4
ENDBRANCH   2   3
ENDBRANCH   1   2
BRANCH   1  11
ATOM     11  C   UNL     1      -8.184  27.927 -24.260  1.00  0.00     0.000 C 
BRANCH  11  12
ATOM     12  C   UNL     1      -6.764  28.472 -24.028  1.00  0.00    -0.000 C 
BRANCH  12  13
ATOM     13  C   UNL     1      -6.528  29.127 -22.651  1.00  0.00    -0.000 C 
BRANCH  13  14
ATOM     14  C   UNL     1      -5.945  28.193 -21.574  1.00  0.00    -0.000 C 
BRANCH  14  15
ATOM     15  C   UNL     1      -5.812  28.874 -20.203  1.00  0.00    -0.000 C 
BRANCH  15  16
ATOM     16  C   UNL     1      -6.597  30.191 -20.167  1.00  0.00    -0.000 C 
BRANCH  16  17
ATOM     17  C   UNL     1      -5.691  31.360 -19.764  1.00  0.00    -0.003 C 
ATOM     18  C   UNL     1      -6.502  32.631 -19.532  1.00  0.00     0.004 C 
ENDBRANCH  16  17
ENDBRANCH  15  16
ENDBRANCH  14  15
ENDBRANCH  13  14
ENDBRANCH  12  13
ENDBRANCH  11  12
ENDBRANCH   1  11
TORSDOF 14
ENDMDL
MODEL 8
REMARK VINA RESULT:    -4.688      5.783      8.848
REMARK INTER + INTRA:          -9.438
REMARK INTER:                  -7.519
REMARK INTRA:                  -1.919
REMARK UNBOUND:                -0.913
REMARK SMILES CCCCCCCCCCCCCCCC(=O)[O-]
REMARK SMILES IDX 9 1 10 2 11 3 12 4 13 5 14 6 15 7 16 8 17 9 18 10 8 11 7 12
REMARK SMILES IDX 6 13 5 14 4 15 3 16 2 17 1 18
REMARK H PARENT
REMARK Flexibility Score: inf
ROOT
ATOM      1  C   UNL     1      -4.522  27.294 -20.118  1.00  0.00     0.000 C 
ENDROOT
BRANCH   1   2
ATOM      2  C   UNL     1      -5.881  27.721 -20.696  1.00  0.00     0.000 C 
BRANCH   2   3
ATOM      3  C   UNL     1      -5.793  29.027 -21.507  1.00  0.00     0.000 C 
BRANCH   3   4
ATOM      4  C   UNL     1      -6.540  30.188 -20.817  1.00  0.00     0.000 C 
BRANCH   4   5
ATOM      5  C   UNL     1      -6.528  30.103 -19.277  1.00  0.00     0.000 C 
BRANCH   5   6
ATOM      6  C   UNL     1      -6.769  31.439 -18.554  1.00  0.00     0.006 C 
BRANCH   6   7
ATOM      7  C   UNL     1      -6.589  32.653 -19.474  1.00  0.00     0.053 C 
BRANCH   7   8
ATOM      8  C   UNL     1      -6.823  33.920 -18.714  1.00  0.00     0.041 C 
ATOM      9  O   UNL     1      -6.757  33.924 -17.456  1.00  0.00    -0.550 OA
ATOM     10  O   UNL     1      -7.063  35.106 -19.395  1.00  0.00    -0.550 OA
ENDBRANCH   7   8
ENDBRANCH   6   7
ENDBRANCH   5   6
ENDBRANCH   4   5
ENDBRANCH   3   4
ENDBRANCH   2   3
ENDBRANCH   1   2
BRANCH   1  11
ATOM     11  C   UNL     1      -3.374  28.195 -20.605  1.00  0.00     0.000 C 
BRANCH  11  12
ATOM     12  C   UNL     1      -2.593  28.845 -19.449  1.00  0.00    -0.000 C 
BRANCH  12  13
ATOM     13  C   UNL     1      -2.009  30.240 -19.752  1.00  0.00    -0.000 C 
BRANCH  13  14
ATOM     14  C   UNL     1      -3.048  31.322 -20.101  1.00  0.00    -0.000 C 
BRANCH  14  15
ATOM     15  C   UNL     1      -2.668  32.134 -21.349  1.00  0.00    -0.000 C 
BRANCH  15  16
ATOM     16  C   UNL     1      -3.921  32.597 -22.104  1.00  0.00    -0.000 C 
BRANCH  16  17
ATOM     17  C   UNL     1      -3.610  32.845 -23.584  1.00  0.00    -0.003 C 
ATOM     18  C   UNL     1      -2.396  33.754 -23.748  1.00  0.00     0.004 C 
ENDBRANCH  16  17
ENDBRANCH  15  16
ENDBRANCH  14  15
ENDBRANCH  13  14
ENDBRANCH  12  13
ENDBRANCH  11  12
ENDBRANCH   1  11
TORSDOF 14
ENDMDL
MODEL 9
REMARK VINA RESULT:    -4.645      6.766      8.967
REMARK INTER + INTRA:          -9.359
REMARK INTER:                  -7.945
REMARK INTRA:                  -1.414
REMARK UNBOUND:                -0.913
REMARK SMILES CCCCCCCCCCCCCCCC(=O)[O-]
REMARK SMILES IDX 9 1 10 2 11 3 12 4 13 5 14 6 15 7 16 8 17 9 18 10 8 11 7 12
REMARK SMILES IDX 6 13 5 14 4 15 3 16 2 17 1 18
REMARK H PARENT
REMARK Flexibility Score: inf
ROOT
ATOM      1  C   UNL     1      -3.251  27.384 -19.632  1.00  0.00     0.000 C 
ENDROOT
BRANCH   1   2
ATOM      2  C   UNL     1      -2.844  28.817 -19.255  1.00  0.00     0.000 C 
BRANCH   2   3
ATOM      3  C   UNL     1      -3.270  29.851 -20.313  1.00  0.00     0.000 C 
BRANCH   3   4
ATOM      4  C   UNL     1      -2.615  31.228 -20.074  1.00  0.00     0.000 C 
BRANCH   4   5
ATOM      5  C   UNL     1      -1.106  31.149 -19.765  1.00  0.00     0.000 C 
BRANCH   5   6
ATOM      6  C   UNL     1      -0.361  32.493 -19.840  1.00  0.00     0.006 C 
BRANCH   6   7
ATOM      7  C   UNL     1       0.615  32.697 -18.674  1.00  0.00     0.053 C 
BRANCH   7   8
ATOM      8  C   UNL     1       1.974  32.190 -19.040  1.00  0.00     0.041 C 
ATOM      9  O   UNL     1       2.851  32.031 -18.149  1.00  0.00    -0.550 OA
ATOM     10  O   UNL     1       2.258  31.843 -20.355  1.00  0.00    -0.550 OA
ENDBRANCH   7   8
ENDBRANCH   6   7
ENDBRANCH   5   6
ENDBRANCH   4   5
ENDBRANCH   3   4
ENDBRANCH   2   3
ENDBRANCH   1   2
BRANCH   1  11
ATOM     11  C   UNL     1      -4.510  27.351 -20.516  1.00  0.00     0.000 C 
BRANCH  11  12
ATOM     12  C   UNL     1      -5.812  27.285 -19.699  1.00  0.00    -0.000 C 
BRANCH  12  13
ATOM     13  C   UNL     1      -6.556  28.627 -19.538  1.00  0.00    -0.000 C 
BRANCH  13  14
ATOM     14  C   UNL     1      -6.558  29.206 -18.111  1.00  0.00    -0.000 C 
BRANCH  14  15
ATOM     15  C   UNL     1      -6.885  30.706 -18.076  1.00  0.00    -0.000 C 
BRANCH  15  16
ATOM     16  C   UNL     1      -6.633  31.354 -19.444  1.00  0.00    -0.000 C 
BRANCH  16  17
ATOM     17  C   UNL     1      -6.625  32.883 -19.336  1.00  0.00    -0.003 C 
ATOM     18  C   UNL     1      -5.622  33.499 -20.305  1.00  0.00     0.004 C 
ENDBRANCH  16  17
ENDBRANCH  15  16
ENDBRANCH  14  15
ENDBRANCH  13  14
ENDBRANCH  12  13
ENDBRANCH  11  12
ENDBRANCH   1  11
TORSDOF 14
ENDMDL
