MODEL 1
REMARK VINA RESULT:    -3.203      0.000      0.000
REMARK INTER + INTRA:          -3.870
REMARK INTER:                  -3.764
REMARK INTRA:                  -0.106
REMARK UNBOUND:                -0.106
REMARK SMILES O=C([O-])CCC(=O)[O-]
REMARK SMILES IDX 4 1 2 2 1 3 3 4 5 5 6 6 7 7 8 8
REMARK H PARENT
REMARK Flexibility Score: inf
ROOT
ATOM      1  C   UNL     1      -4.442  -6.391  -1.860  1.00  0.00     0.059 C 
ENDROOT
BRANCH   1   2
ATOM      2  C   UNL     1      -5.505  -6.452  -2.915  1.00  0.00     0.042 C 
ATOM      3  O   UNL     1      -5.379  -5.793  -3.981  1.00  0.00    -0.550 OA
ATOM      4  O   UNL     1      -6.615  -7.268  -2.737  1.00  0.00    -0.550 OA
ENDBRANCH   1   2
BRANCH   1   5
ATOM      5  C   UNL     1      -3.041  -6.534  -2.463  1.00  0.00     0.059 C 
BRANCH   5   6
ATOM      6  C   UNL     1      -2.201  -5.321  -2.200  1.00  0.00     0.042 C 
ATOM      7  O   UNL     1      -2.188  -4.367  -3.021  1.00  0.00    -0.550 OA
ATOM      8  O   UNL     1      -1.464  -5.228  -1.026  1.00  0.00    -0.550 OA
ENDBRANCH   5   6
ENDBRANCH   1   5
TORSDOF 3
ENDMDL
MODEL 2
REMARK VINA RESULT:    -3.200      0.044      3.932
REMARK INTER + INTRA:          -3.868
REMARK INTER:                  -3.764
REMARK INTRA:                  -0.104
REMARK UNBOUND:                -0.106
REMARK SMILES O=C([O-])CCC(=O)[O-]
REMARK SMILES IDX 4 1 2 2 1 3 3 4 5 5 6 6 7 7 8 8
REMARK H PARENT
REMARK Flexibility Score: inf
ROOT
ATOM      1  C   UNL     1      -3.004  -6.507  -2.471  1.00  0.00     0.059 C 
ENDROOT
BRANCH   1   2
ATOM      2  C   UNL     1      -2.168  -5.297  -2.187  1.00  0.00     0.042 C 
ATOM      3  O   UNL     1      -2.132  -4.344  -3.010  1.00  0.00    -0.550 OA
ATOM      4  O   UNL     1      -1.461  -5.204  -0.994  1.00  0.00    -0.550 OA
ENDBRANCH   1   2
BRANCH   1   5
ATOM      5  C   UNL     1      -4.405  -6.381  -1.863  1.00  0.00     0.059 C 
BRANCH   5   6
ATOM      6  C   UNL     1      -5.469  -6.436  -2.916  1.00  0.00     0.042 C 
ATOM      7  O   UNL     1      -5.340  -5.784  -3.985  1.00  0.00    -0.550 OA
ATOM      8  O   UNL     1      -6.587  -7.241  -2.732  1.00  0.00    -0.550 OA
ENDBRANCH   5   6
ENDBRANCH   1   5
TORSDOF 3
ENDMDL
MODEL 3
REMARK VINA RESULT:    -3.129     12.624     14.316
REMARK INTER + INTRA:          -3.784
REMARK INTER:                  -3.701
REMARK INTRA:                  -0.082
REMARK UNBOUND:                -0.106
REMARK SMILES O=C([O-])CCC(=O)[O-]
REMARK SMILES IDX 4 1 2 2 1 3 3 4 5 5 6 6 7 7 8 8
REMARK H PARENT
REMARK Flexibility Score: inf
ROOT
ATOM      1  C   UNL     1       3.065   6.659  -2.461  1.00  0.00     0.059 C 
ENDROOT
BRANCH   1   2
ATOM      2  C   UNL     1       2.211   5.532  -1.964  1.00  0.00     0.042 C 
ATOM      3  O   UNL     1       1.803   5.524  -0.772  1.00  0.00    -0.550 OA
ATOM      4  O   UNL     1       1.832   4.513  -2.828  1.00  0.00    -0.550 OA
ENDBRANCH   1   2
BRANCH   1   5
ATOM      5  C   UNL     1       4.476   6.601  -1.868  1.00  0.00     0.059 C 
BRANCH   5   6
ATOM      6  C   UNL     1       5.517   6.452  -2.935  1.00  0.00     0.042 C 
ATOM      7  O   UNL     1       6.626   7.038  -2.828  1.00  0.00    -0.550 OA
ATOM      8  O   UNL     1       5.276   5.633  -4.031  1.00  0.00    -0.550 OA
ENDBRANCH   5   6
ENDBRANCH   1   5
TORSDOF 3
ENDMDL
MODEL 4
REMARK VINA RESULT:    -3.127     12.582     14.621
REMARK INTER + INTRA:          -3.782
REMARK INTER:                  -3.665
REMARK INTRA:                  -0.116
REMARK UNBOUND:                -0.106
REMARK SMILES O=C([O-])CCC(=O)[O-]
REMARK SMILES IDX 4 1 2 2 1 3 3 4 5 5 6 6 7 7 8 8
REMARK H PARENT
REMARK Flexibility Score: inf
ROOT
ATOM      1  C   UNL     1       4.397   6.426  -1.840  1.00  0.00     0.059 C 
ENDROOT
BRANCH   1   2
ATOM      2  C   UNL     1       5.430   6.385  -2.925  1.00  0.00     0.042 C 
ATOM      3  O   UNL     1       5.232   5.698  -3.962  1.00  0.00    -0.550 OA
ATOM      4  O   UNL     1       6.592   7.137  -2.807  1.00  0.00    -0.550 OA
ENDBRANCH   1   2
BRANCH   1   5
ATOM      5  C   UNL     1       2.986   6.600  -2.410  1.00  0.00     0.059 C 
BRANCH   5   6
ATOM      6  C   UNL     1       2.142   5.385  -2.174  1.00  0.00     0.042 C 
ATOM      7  O   UNL     1       2.108   4.459  -3.027  1.00  0.00    -0.550 OA
ATOM      8  O   UNL     1       1.422   5.258  -0.993  1.00  0.00    -0.550 OA
ENDBRANCH   5   6
ENDBRANCH   1   5
TORSDOF 3
ENDMDL
MODEL 5
REMARK VINA RESULT:    -3.127     12.533     14.172
REMARK INTER + INTRA:          -3.782
REMARK INTER:                  -3.672
REMARK INTRA:                  -0.110
REMARK UNBOUND:                -0.106
REMARK SMILES O=C([O-])CCC(=O)[O-]
REMARK SMILES IDX 4 1 2 2 1 3 3 4 5 5 6 6 7 7 8 8
REMARK H PARENT
REMARK Flexibility Score: inf
ROOT
ATOM      1  C   UNL     1       2.957   6.569  -2.446  1.00  0.00     0.059 C 
ENDROOT
BRANCH   1   2
ATOM      2  C   UNL     1       2.128   5.375  -2.082  1.00  0.00     0.042 C 
ATOM      3  O   UNL     1       2.045   4.396  -2.870  1.00  0.00    -0.550 OA
ATOM      4  O   UNL     1       1.478   5.328  -0.855  1.00  0.00    -0.550 OA
ENDBRANCH   1   2
BRANCH   1   5
ATOM      5  C   UNL     1       4.370   6.473  -1.862  1.00  0.00     0.059 C 
BRANCH   5   6
ATOM      6  C   UNL     1       5.408   6.387  -2.939  1.00  0.00     0.042 C 
ATOM      7  O   UNL     1       5.200   5.691  -3.967  1.00  0.00    -0.550 OA
ATOM      8  O   UNL     1       6.590   7.107  -2.824  1.00  0.00    -0.550 OA
ENDBRANCH   5   6
ENDBRANCH   1   5
TORSDOF 3
ENDMDL
MODEL 6
REMARK VINA RESULT:    -2.871     13.582     14.950
REMARK INTER + INTRA:          -3.480
REMARK INTER:                  -3.360
REMARK INTRA:                  -0.120
REMARK UNBOUND:                -0.106
REMARK SMILES O=C([O-])CCC(=O)[O-]
REMARK SMILES IDX 4 1 2 2 1 3 3 4 5 5 6 6 7 7 8 8
REMARK H PARENT
REMARK Flexibility Score: inf
ROOT
ATOM      1  C   UNL     1       4.769   6.152  -1.688  1.00  0.00     0.059 C 
ENDROOT
BRANCH   1   2
ATOM      2  C   UNL     1       3.552   5.879  -2.520  1.00  0.00     0.042 C 
ATOM      3  O   UNL     1       2.662   6.761  -2.648  1.00  0.00    -0.550 OA
ATOM      4  O   UNL     1       3.423   4.667  -3.185  1.00  0.00    -0.550 OA
ENDBRANCH   1   2
BRANCH   1   5
ATOM      5  C   UNL     1       5.896   6.768  -2.522  1.00  0.00     0.059 C 
BRANCH   5   6
ATOM      6  C   UNL     1       6.865   5.727  -2.994  1.00  0.00     0.042 C 
ATOM      7  O   UNL     1       6.970   4.632  -2.382  1.00  0.00    -0.550 OA
ATOM      8  O   UNL     1       7.625   5.952  -4.135  1.00  0.00    -0.550 OA
ENDBRANCH   5   6
ENDBRANCH   1   5
TORSDOF 3
ENDMDL
MODEL 7
REMARK VINA RESULT:    -2.838      1.857      4.332
REMARK INTER + INTRA:          -3.442
REMARK INTER:                  -3.352
REMARK INTRA:                  -0.089
REMARK UNBOUND:                -0.106
REMARK SMILES O=C([O-])CCC(=O)[O-]
REMARK SMILES IDX 4 1 2 2 1 3 3 4 5 5 6 6 7 7 8 8
REMARK H PARENT
REMARK Flexibility Score: inf
ROOT
ATOM      1  C   UNL     1      -4.691  -6.240  -3.172  1.00  0.00     0.059 C 
ENDROOT
BRANCH   1   2
ATOM      2  C   UNL     1      -3.687  -5.906  -2.111  1.00  0.00     0.042 C 
ATOM      3  O   UNL     1      -4.065  -5.670  -0.933  1.00  0.00    -0.550 OA
ATOM      4  O   UNL     1      -2.332  -5.897  -2.414  1.00  0.00    -0.550 OA
ENDBRANCH   1   2
BRANCH   1   5
ATOM      5  C   UNL     1      -6.047  -6.617  -2.568  1.00  0.00     0.059 C 
BRANCH   5   6
ATOM      6  C   UNL     1      -7.126  -5.674  -3.003  1.00  0.00     0.042 C 
ATOM      7  O   UNL     1      -7.539  -4.776  -2.223  1.00  0.00    -0.550 OA
ATOM      8  O   UNL     1      -7.649  -5.761  -4.288  1.00  0.00    -0.550 OA
ENDBRANCH   5   6
ENDBRANCH   1   5
TORSDOF 3
ENDMDL
MODEL 8
REMARK VINA RESULT:    -2.832      2.146      2.749
REMARK INTER + INTRA:          -3.435
REMARK INTER:                  -3.321
REMARK INTRA:                  -0.114
REMARK UNBOUND:                -0.106
REMARK SMILES O=C([O-])CCC(=O)[O-]
REMARK SMILES IDX 4 1 2 2 1 3 3 4 5 5 6 6 7 7 8 8
REMARK H PARENT
REMARK Flexibility Score: inf
ROOT
ATOM      1  C   UNL     1      -6.582  -5.201  -2.374  1.00  0.00     0.059 C 
ENDROOT
BRANCH   1   2
ATOM      2  C   UNL     1      -7.641  -5.249  -3.433  1.00  0.00     0.042 C 
ATOM      3  O   UNL     1      -7.420  -5.836  -4.525  1.00  0.00    -0.550 OA
ATOM      4  O   UNL     1      -8.885  -4.679  -3.197  1.00  0.00    -0.550 OA
ENDBRANCH   1   2
BRANCH   1   5
ATOM      5  C   UNL     1      -5.615  -6.384  -2.490  1.00  0.00     0.059 C 
BRANCH   5   6
ATOM      6  C   UNL     1      -4.234  -5.933  -2.858  1.00  0.00     0.042 C 
ATOM      7  O   UNL     1      -3.236  -6.649  -2.580  1.00  0.00    -0.550 OA
ATOM      8  O   UNL     1      -4.053  -4.738  -3.544  1.00  0.00    -0.550 OA
ENDBRANCH   5   6
ENDBRANCH   1   5
TORSDOF 3
ENDMDL
MODEL 9
REMARK VINA RESULT:    -2.794      7.852      8.964
REMARK INTER + INTRA:          -3.390
REMARK INTER:                  -3.342
REMARK INTRA:                  -0.048
REMARK UNBOUND:                -0.106
REMARK SMILES O=C([O-])CCC(=O)[O-]
REMARK SMILES IDX 4 1 2 2 1 3 3 4 5 5 6 6 7 7 8 8
REMARK H PARENT
REMARK Flexibility Score: inf
ROOT
ATOM      1  C   UNL     1      -4.491  -4.184   4.672  1.00  0.00     0.059 C 
ENDROOT
BRANCH   1   2
ATOM      2  C   UNL     1      -3.225  -4.927   4.368  1.00  0.00     0.042 C 
ATOM      3  O   UNL     1      -2.840  -5.061   3.177  1.00  0.00    -0.550 OA
ATOM      4  O   UNL     1      -2.453  -5.436   5.404  1.00  0.00    -0.550 OA
ENDBRANCH   1   2
BRANCH   1   5
ATOM      5  C   UNL     1      -4.418  -3.476   6.029  1.00  0.00     0.059 C 
BRANCH   5   6
ATOM      6  C   UNL     1      -5.711  -3.584   6.777  1.00  0.00     0.042 C 
ATOM      7  O   UNL     1      -6.642  -2.766   6.559  1.00  0.00    -0.550 OA
ATOM      8  O   UNL     1      -5.901  -4.615   7.690  1.00  0.00    -0.550 OA
ENDBRANCH   5   6
ENDBRANCH   1   5
TORSDOF 3
ENDMDL
