MODEL 1
REMARK VINA RESULT:    -6.223      0.000      0.000
REMARK INTER + INTRA:          -7.325
REMARK INTER:                  -6.768
REMARK INTRA:                  -0.557
REMARK UNBOUND:                -0.557
REMARK SMILES C=C(C)[C@H]1CC[C@@]2(C)CC[C@]3(C)[C@@H](CC[C@H]4[C@@]5(C)CC[C@H](O)C(C)(C)[C@H]5CC[C@]43C)[C@@H]12
REMARK SMILES IDX 4 1 5 2 6 3 7 4 31 5 13 6 14 7 15 8 16 9 17 10 19 11 20 12
REMARK SMILES IDX 21 13 23 14 26 15 27 16 28 17 29 18 11 19 10 20 9 21 12 22
REMARK SMILES IDX 30 23 24 24 25 25 18 26 8 27 2 28 3 29 1 30 22 31
REMARK H PARENT 22 32
REMARK Flexibility Score: inf
ROOT
ATOM      1  C   UNL     1      -4.212 -16.856  -9.170  1.00  0.00     0.018 C 
ATOM      2  C   UNL     1      -4.500 -18.338  -8.860  1.00  0.00     0.009 C 
ATOM      3  C   UNL     1      -4.447 -18.496  -7.332  1.00  0.00     0.008 C 
ATOM      4  C   UNL     1      -4.042 -17.127  -6.735  1.00  0.00    -0.029 C 
ATOM      5  C   UNL     1      -3.449 -16.342  -7.935  1.00  0.00     0.006 C 
ATOM      6  C   UNL     1      -1.874 -16.389  -7.998  1.00  0.00    -0.000 C 
ATOM      7  C   UNL     1      -1.313 -17.784  -8.359  1.00  0.00     0.005 C 
ATOM      8  C   UNL     1       0.212 -17.846  -8.517  1.00  0.00     0.005 C 
ATOM      9  C   UNL     1       1.020 -16.747  -7.761  1.00  0.00     0.002 C 
ATOM     10  C   UNL     1       1.848 -15.722  -8.689  1.00  0.00    -0.026 C 
ATOM     11  C   UNL     1       0.968 -15.168  -9.840  1.00  0.00     0.010 C 
ATOM     12  C   UNL     1       1.672 -14.140 -10.721  1.00  0.00     0.033 C 
ATOM     13  C   UNL     1       2.028 -12.910  -9.886  1.00  0.00     0.120 C 
ATOM     14  C   UNL     1       2.990 -13.215  -8.691  1.00  0.00    -0.006 C 
ATOM     15  C   UNL     1       2.540 -14.524  -7.863  1.00  0.00     0.003 C 
ATOM     16  C   UNL     1       1.806 -14.149  -6.543  1.00  0.00     0.005 C 
ATOM     17  C   UNL     1       1.222 -15.293  -5.704  1.00  0.00     0.008 C 
ATOM     18  C   UNL     1       0.292 -16.285  -6.443  1.00  0.00    -0.024 C 
ATOM     19  C   UNL     1      -1.227 -15.743  -6.699  1.00  0.00    -0.024 C 
ATOM     20  C   UNL     1      -2.174 -15.977  -5.443  1.00  0.00     0.008 C 
ATOM     21  C   UNL     1      -3.042 -17.242  -5.543  1.00  0.00     0.007 C 
ATOM     22  C   UNL     1      -1.283 -14.189  -6.891  1.00  0.00     0.012 C 
ATOM     23  C   UNL     1       0.280 -17.547  -5.491  1.00  0.00     0.012 C 
ATOM     24  C   UNL     1       3.019 -11.909  -7.825  1.00  0.00     0.014 C 
ATOM     25  C   UNL     1       4.475 -13.392  -9.142  1.00  0.00     0.014 C 
ATOM     26  C   UNL     1       2.981 -16.596  -9.352  1.00  0.00     0.012 C 
ATOM     27  C   UNL     1      -5.325 -16.413  -6.225  1.00  0.00     0.011 C 
ENDROOT
BRANCH   1  28
ATOM     28  C   UNL     1      -3.584 -16.497 -10.518  1.00  0.00    -0.077 C 
ATOM     29  C   UNL     1      -3.439 -15.037 -10.901  1.00  0.00     0.039 C 
ATOM     30  C   UNL     1      -3.270 -17.424 -11.441  1.00  0.00     0.008 C 
ENDBRANCH   1  28
BRANCH  13  31
ATOM     31  O   UNL     1       2.510 -11.875 -10.715  1.00  0.00    -0.393 OA
ATOM     32  H   UNL     1       2.052 -11.036 -10.448  1.00  0.00     0.210 HD
ENDBRANCH  13  31
TORSDOF 2
ENDMDL
MODEL 2
REMARK VINA RESULT:    -6.130      6.269      9.535
REMARK INTER + INTRA:          -7.225
REMARK INTER:                  -6.732
REMARK INTRA:                  -0.494
REMARK UNBOUND:                -0.557
REMARK SMILES C=C(C)[C@H]1CC[C@@]2(C)CC[C@]3(C)[C@@H](CC[C@H]4[C@@]5(C)CC[C@H](O)C(C)(C)[C@H]5CC[C@]43C)[C@@H]12
REMARK SMILES IDX 4 1 5 2 6 3 7 4 31 5 13 6 14 7 15 8 16 9 17 10 19 11 20 12
REMARK SMILES IDX 21 13 23 14 26 15 27 16 28 17 29 18 11 19 10 20 9 21 12 22
REMARK SMILES IDX 30 23 24 24 25 25 18 26 8 27 2 28 3 29 1 30 22 31
REMARK H PARENT 22 32
REMARK Flexibility Score: inf
ROOT
ATOM      1  C   UNL     1     -12.123 -14.272 -10.990  1.00  0.00     0.018 C 
ATOM      2  C   UNL     1     -13.283 -14.938 -11.756  1.00  0.00     0.009 C 
ATOM      3  C   UNL     1     -13.141 -16.456 -11.553  1.00  0.00     0.008 C 
ATOM      4  C   UNL     1     -11.847 -16.699 -10.740  1.00  0.00    -0.029 C 
ATOM      5  C   UNL     1     -11.052 -15.372 -10.871  1.00  0.00     0.006 C 
ATOM      6  C   UNL     1      -9.943 -15.414 -11.990  1.00  0.00    -0.000 C 
ATOM      7  C   UNL     1     -10.516 -15.460 -13.424  1.00  0.00     0.005 C 
ATOM      8  C   UNL     1      -9.465 -15.411 -14.542  1.00  0.00     0.005 C 
ATOM      9  C   UNL     1      -8.037 -15.901 -14.154  1.00  0.00     0.002 C 
ATOM     10  C   UNL     1      -6.872 -14.788 -14.216  1.00  0.00    -0.026 C 
ATOM     11  C   UNL     1      -7.302 -13.485 -13.493  1.00  0.00     0.010 C 
ATOM     12  C   UNL     1      -6.220 -12.409 -13.457  1.00  0.00     0.033 C 
ATOM     13  C   UNL     1      -5.023 -12.914 -12.653  1.00  0.00     0.120 C 
ATOM     14  C   UNL     1      -4.361 -14.202 -13.248  1.00  0.00    -0.006 C 
ATOM     15  C   UNL     1      -5.452 -15.313 -13.665  1.00  0.00     0.003 C 
ATOM     16  C   UNL     1      -5.557 -16.446 -12.603  1.00  0.00     0.005 C 
ATOM     17  C   UNL     1      -6.634 -17.519 -12.811  1.00  0.00     0.008 C 
ATOM     18  C   UNL     1      -8.078 -17.011 -13.036  1.00  0.00    -0.024 C 
ATOM     19  C   UNL     1      -8.860 -16.536 -11.684  1.00  0.00    -0.024 C 
ATOM     20  C   UNL     1      -9.536 -17.754 -10.916  1.00  0.00     0.008 C 
ATOM     21  C   UNL     1     -11.031 -17.936 -11.229  1.00  0.00     0.007 C 
ATOM     22  C   UNL     1      -7.887 -15.944 -10.608  1.00  0.00     0.012 C 
ATOM     23  C   UNL     1      -8.802 -18.255 -13.690  1.00  0.00     0.012 C 
ATOM     24  C   UNL     1      -3.347 -14.698 -12.161  1.00  0.00     0.014 C 
ATOM     25  C   UNL     1      -3.456 -13.898 -14.485  1.00  0.00     0.014 C 
ATOM     26  C   UNL     1      -6.720 -14.441 -15.747  1.00  0.00     0.012 C 
ATOM     27  C   UNL     1     -12.237 -16.932  -9.253  1.00  0.00     0.011 C 
ENDROOT
BRANCH   1  28
ATOM     28  C   UNL     1     -11.608 -12.915 -11.475  1.00  0.00    -0.077 C 
ATOM     29  C   UNL     1     -12.114 -12.359 -12.792  1.00  0.00     0.039 C 
ATOM     30  C   UNL     1     -10.623 -12.248 -10.847  1.00  0.00     0.008 C 
ENDBRANCH   1  28
BRANCH  13  31
ATOM     31  O   UNL     1      -4.091 -11.875 -12.450  1.00  0.00    -0.393 OA
ATOM     32  H   UNL     1      -3.931 -11.436 -13.326  1.00  0.00     0.210 HD
ENDBRANCH  13  31
TORSDOF 2
ENDMDL
MODEL 3
REMARK VINA RESULT:    -6.081      2.127      6.530
REMARK INTER + INTRA:          -7.171
REMARK INTER:                  -6.623
REMARK INTRA:                  -0.549
REMARK UNBOUND:                -0.557
REMARK SMILES C=C(C)[C@H]1CC[C@@]2(C)CC[C@]3(C)[C@@H](CC[C@H]4[C@@]5(C)CC[C@H](O)C(C)(C)[C@H]5CC[C@]43C)[C@@H]12
REMARK SMILES IDX 4 1 5 2 6 3 7 4 31 5 13 6 14 7 15 8 16 9 17 10 19 11 20 12
REMARK SMILES IDX 21 13 23 14 26 15 27 16 28 17 29 18 11 19 10 20 9 21 12 22
REMARK SMILES IDX 30 23 24 24 25 25 18 26 8 27 2 28 3 29 1 30 22 31
REMARK H PARENT 22 32
REMARK Flexibility Score: inf
ROOT
ATOM      1  C   UNL     1       3.345 -13.559  -9.026  1.00  0.00     0.018 C 
ATOM      2  C   UNL     1       3.276 -12.207  -8.291  1.00  0.00     0.009 C 
ATOM      3  C   UNL     1       2.928 -12.509  -6.825  1.00  0.00     0.008 C 
ATOM      4  C   UNL     1       2.704 -14.036  -6.704  1.00  0.00    -0.029 C 
ATOM      5  C   UNL     1       2.495 -14.514  -8.166  1.00  0.00     0.006 C 
ATOM      6  C   UNL     1       0.978 -14.673  -8.562  1.00  0.00    -0.000 C 
ATOM      7  C   UNL     1       0.224 -13.328  -8.669  1.00  0.00     0.005 C 
ATOM      8  C   UNL     1      -1.233 -13.439  -9.140  1.00  0.00     0.005 C 
ATOM      9  C   UNL     1      -1.926 -14.813  -8.889  1.00  0.00     0.002 C 
ATOM     10  C   UNL     1      -2.361 -15.630 -10.209  1.00  0.00    -0.026 C 
ATOM     11  C   UNL     1      -1.203 -15.695 -11.238  1.00  0.00     0.010 C 
ATOM     12  C   UNL     1      -1.526 -16.511 -12.486  1.00  0.00     0.033 C 
ATOM     13  C   UNL     1      -1.771 -17.967 -12.095  1.00  0.00     0.120 C 
ATOM     14  C   UNL     1      -2.967 -18.163 -11.105  1.00  0.00    -0.006 C 
ATOM     15  C   UNL     1      -2.936 -17.102  -9.892  1.00  0.00     0.003 C 
ATOM     16  C   UNL     1      -2.382 -17.737  -8.583  1.00  0.00     0.005 C 
ATOM     17  C   UNL     1      -2.190 -16.816  -7.371  1.00  0.00     0.008 C 
ATOM     18  C   UNL     1      -1.361 -15.531  -7.606  1.00  0.00    -0.024 C 
ATOM     19  C   UNL     1       0.256 -15.754  -7.649  1.00  0.00    -0.024 C 
ATOM     20  C   UNL     1       0.905 -15.764  -6.197  1.00  0.00     0.008 C 
ATOM     21  C   UNL     1       1.510 -14.415  -5.774  1.00  0.00     0.007 C 
ATOM     22  C   UNL     1       0.650 -17.161  -8.215  1.00  0.00     0.012 C 
ATOM     23  C   UNL     1      -1.764 -14.612  -6.384  1.00  0.00     0.012 C 
ATOM     24  C   UNL     1      -2.887 -19.655 -10.633  1.00  0.00     0.014 C 
ATOM     25  C   UNL     1      -4.357 -18.074 -11.814  1.00  0.00     0.014 C 
ATOM     26  C   UNL     1      -3.512 -14.771 -10.860  1.00  0.00     0.012 C 
ATOM     27  C   UNL     1       3.995 -14.678  -6.122  1.00  0.00     0.011 C 
ENDROOT
BRANCH   1  28
ATOM     28  C   UNL     1       3.044 -13.596 -10.526  1.00  0.00    -0.077 C 
ATOM     29  C   UNL     1       3.377 -14.846 -11.317  1.00  0.00     0.039 C 
ATOM     30  C   UNL     1       2.614 -12.517 -11.205  1.00  0.00     0.008 C 
ENDBRANCH   1  28
BRANCH  13  31
ATOM     31  O   UNL     1      -1.888 -18.774 -13.247  1.00  0.00    -0.393 OA
ATOM     32  H   UNL     1      -1.003 -19.190 -13.417  1.00  0.00     0.210 HD
ENDBRANCH  13  31
TORSDOF 2
ENDMDL
MODEL 4
REMARK VINA RESULT:    -6.009      2.447      6.632
REMARK INTER + INTRA:          -7.093
REMARK INTER:                  -6.536
REMARK INTRA:                  -0.557
REMARK UNBOUND:                -0.557
REMARK SMILES C=C(C)[C@H]1CC[C@@]2(C)CC[C@]3(C)[C@@H](CC[C@H]4[C@@]5(C)CC[C@H](O)C(C)(C)[C@H]5CC[C@]43C)[C@@H]12
REMARK SMILES IDX 4 1 5 2 6 3 7 4 31 5 13 6 14 7 15 8 16 9 17 10 19 11 20 12
REMARK SMILES IDX 21 13 23 14 26 15 27 16 28 17 29 18 11 19 10 20 9 21 12 22
REMARK SMILES IDX 30 23 24 24 25 25 18 26 8 27 2 28 3 29 1 30 22 31
REMARK H PARENT 22 32
REMARK Flexibility Score: inf
ROOT
ATOM      1  C   UNL     1       3.402 -14.068 -10.249  1.00  0.00     0.018 C 
ATOM      2  C   UNL     1       3.050 -12.607 -10.589  1.00  0.00     0.009 C 
ATOM      3  C   UNL     1       2.830 -11.875  -9.255  1.00  0.00     0.008 C 
ATOM      4  C   UNL     1       2.964 -12.920  -8.122  1.00  0.00    -0.029 C 
ATOM      5  C   UNL     1       2.821 -14.289  -8.839  1.00  0.00     0.006 C 
ATOM      6  C   UNL     1       1.367 -14.894  -8.752  1.00  0.00    -0.000 C 
ATOM      7  C   UNL     1       0.324 -14.111  -9.581  1.00  0.00     0.005 C 
ATOM      8  C   UNL     1      -1.084 -14.723  -9.591  1.00  0.00     0.005 C 
ATOM      9  C   UNL     1      -1.437 -15.638  -8.380  1.00  0.00     0.002 C 
ATOM     10  C   UNL     1      -1.718 -17.186  -8.728  1.00  0.00    -0.026 C 
ATOM     11  C   UNL     1      -0.610 -17.766  -9.646  1.00  0.00     0.010 C 
ATOM     12  C   UNL     1      -0.780 -19.249  -9.964  1.00  0.00     0.033 C 
ATOM     13  C   UNL     1      -0.674 -20.063  -8.676  1.00  0.00     0.120 C 
ATOM     14  C   UNL     1      -1.760 -19.702  -7.609  1.00  0.00    -0.006 C 
ATOM     15  C   UNL     1      -1.932 -18.109  -7.426  1.00  0.00     0.003 C 
ATOM     16  C   UNL     1      -1.204 -17.593  -6.150  1.00  0.00     0.005 C 
ATOM     17  C   UNL     1      -1.188 -16.079  -5.903  1.00  0.00     0.008 C 
ATOM     18  C   UNL     1      -0.681 -15.197  -7.069  1.00  0.00    -0.024 C 
ATOM     19  C   UNL     1       0.942 -15.152  -7.244  1.00  0.00    -0.024 C 
ATOM     20  C   UNL     1       1.623 -14.076  -6.291  1.00  0.00     0.008 C 
ATOM     21  C   UNL     1       1.918 -12.733  -6.979  1.00  0.00     0.007 C 
ATOM     22  C   UNL     1       1.627 -16.490  -6.803  1.00  0.00     0.012 C 
ATOM     23  C   UNL     1      -1.242 -13.763  -6.709  1.00  0.00     0.012 C 
ATOM     24  C   UNL     1      -1.327 -20.439  -6.295  1.00  0.00     0.014 C 
ATOM     25  C   UNL     1      -3.156 -20.323  -7.937  1.00  0.00     0.014 C 
ATOM     26  C   UNL     1      -3.056 -17.179  -9.564  1.00  0.00     0.012 C 
ATOM     27  C   UNL     1       4.385 -12.798  -7.505  1.00  0.00     0.011 C 
ENDROOT
BRANCH   1  28
ATOM     28  C   UNL     1       3.067 -15.160 -11.267  1.00  0.00    -0.077 C 
ATOM     29  C   UNL     1       3.545 -16.577 -11.017  1.00  0.00     0.039 C 
ATOM     30  C   UNL     1       2.476 -14.893 -12.446  1.00  0.00     0.008 C 
ENDBRANCH   1  28
BRANCH  13  31
ATOM     31  O   UNL     1      -0.642 -21.443  -8.966  1.00  0.00    -0.393 OA
ATOM     32  H   UNL     1      -1.571 -21.788  -8.900  1.00  0.00     0.210 HD
ENDBRANCH  13  31
TORSDOF 2
ENDMDL
MODEL 5
REMARK VINA RESULT:    -5.968      2.688      6.532
REMARK INTER + INTRA:          -7.048
REMARK INTER:                  -6.490
REMARK INTRA:                  -0.558
REMARK UNBOUND:                -0.557
REMARK SMILES C=C(C)[C@H]1CC[C@@]2(C)CC[C@]3(C)[C@@H](CC[C@H]4[C@@]5(C)CC[C@H](O)C(C)(C)[C@H]5CC[C@]43C)[C@@H]12
REMARK SMILES IDX 4 1 5 2 6 3 7 4 31 5 13 6 14 7 15 8 16 9 17 10 19 11 20 12
REMARK SMILES IDX 21 13 23 14 26 15 27 16 28 17 29 18 11 19 10 20 9 21 12 22
REMARK SMILES IDX 30 23 24 24 25 25 18 26 8 27 2 28 3 29 1 30 22 31
REMARK H PARENT 22 32
REMARK Flexibility Score: inf
ROOT
ATOM      1  C   UNL     1       2.179 -14.888 -11.946  1.00  0.00     0.018 C 
ATOM      2  C   UNL     1       1.994 -13.389 -12.252  1.00  0.00     0.009 C 
ATOM      3  C   UNL     1       2.894 -12.617 -11.273  1.00  0.00     0.008 C 
ATOM      4  C   UNL     1       3.549 -13.651 -10.327  1.00  0.00    -0.029 C 
ATOM      5  C   UNL     1       2.685 -14.929 -10.492  1.00  0.00     0.006 C 
ATOM      6  C   UNL     1       1.598 -15.101  -9.363  1.00  0.00    -0.000 C 
ATOM      7  C   UNL     1       0.457 -14.062  -9.442  1.00  0.00     0.005 C 
ATOM      8  C   UNL     1      -0.665 -14.255  -8.413  1.00  0.00     0.005 C 
ATOM      9  C   UNL     1      -0.274 -15.027  -7.116  1.00  0.00     0.002 C 
ATOM     10  C   UNL     1      -1.021 -16.437  -6.886  1.00  0.00    -0.026 C 
ATOM     11  C   UNL     1      -0.982 -17.310  -8.168  1.00  0.00     0.010 C 
ATOM     12  C   UNL     1      -1.617 -18.688  -8.001  1.00  0.00     0.033 C 
ATOM     13  C   UNL     1      -0.829 -19.491  -6.968  1.00  0.00     0.120 C 
ATOM     14  C   UNL     1      -0.796 -18.834  -5.548  1.00  0.00    -0.006 C 
ATOM     15  C   UNL     1      -0.471 -17.256  -5.613  1.00  0.00     0.003 C 
ATOM     16  C   UNL     1       1.014 -16.956  -5.253  1.00  0.00     0.005 C 
ATOM     17  C   UNL     1       1.498 -15.506  -5.378  1.00  0.00     0.008 C 
ATOM     18  C   UNL     1       1.239 -14.808  -6.735  1.00  0.00    -0.024 C 
ATOM     19  C   UNL     1       2.273 -15.221  -7.929  1.00  0.00    -0.024 C 
ATOM     20  C   UNL     1       3.618 -14.374  -7.886  1.00  0.00     0.008 C 
ATOM     21  C   UNL     1       3.629 -13.171  -8.844  1.00  0.00     0.007 C 
ATOM     22  C   UNL     1       2.786 -16.695  -7.792  1.00  0.00     0.012 C 
ATOM     23  C   UNL     1       1.378 -13.273  -6.384  1.00  0.00     0.012 C 
ATOM     24  C   UNL     1       0.255 -19.655  -4.725  1.00  0.00     0.014 C 
ATOM     25  C   UNL     1      -2.127 -19.040  -4.757  1.00  0.00     0.014 C 
ATOM     26  C   UNL     1      -2.531 -16.061  -6.628  1.00  0.00     0.012 C 
ATOM     27  C   UNL     1       4.995 -13.928 -10.825  1.00  0.00     0.011 C 
ENDROOT
BRANCH   1  28
ATOM     28  C   UNL     1       1.031 -15.848 -12.262  1.00  0.00    -0.077 C 
ATOM     29  C   UNL     1       1.266 -17.343 -12.160  1.00  0.00     0.039 C 
ATOM     30  C   UNL     1      -0.149 -15.429 -12.754  1.00  0.00     0.008 C 
ENDBRANCH   1  28
BRANCH  13  31
ATOM     31  O   UNL     1      -1.282 -20.826  -6.932  1.00  0.00    -0.393 OA
ATOM     32  H   UNL     1      -2.070 -20.863  -6.329  1.00  0.00     0.210 HD
ENDBRANCH  13  31
TORSDOF 2
ENDMDL
MODEL 6
REMARK VINA RESULT:    -5.943      2.468      7.174
REMARK INTER + INTRA:          -7.021
REMARK INTER:                  -6.485
REMARK INTRA:                  -0.536
REMARK UNBOUND:                -0.557
REMARK SMILES C=C(C)[C@H]1CC[C@@]2(C)CC[C@]3(C)[C@@H](CC[C@H]4[C@@]5(C)CC[C@H](O)C(C)(C)[C@H]5CC[C@]43C)[C@@H]12
REMARK SMILES IDX 4 1 5 2 6 3 7 4 31 5 13 6 14 7 15 8 16 9 17 10 19 11 20 12
REMARK SMILES IDX 21 13 23 14 26 15 27 16 28 17 29 18 11 19 10 20 9 21 12 22
REMARK SMILES IDX 30 23 24 24 25 25 18 26 8 27 2 28 3 29 1 30 22 31
REMARK H PARENT 22 32
REMARK Flexibility Score: inf
ROOT
ATOM      1  C   UNL     1       4.000 -14.744  -6.073  1.00  0.00     0.018 C 
ATOM      2  C   UNL     1       5.100 -14.932  -7.137  1.00  0.00     0.009 C 
ATOM      3  C   UNL     1       4.765 -13.984  -8.300  1.00  0.00     0.008 C 
ATOM      4  C   UNL     1       3.420 -13.296  -7.969  1.00  0.00    -0.029 C 
ATOM      5  C   UNL     1       2.799 -14.176  -6.851  1.00  0.00     0.006 C 
ATOM      6  C   UNL     1       1.739 -15.213  -7.387  1.00  0.00    -0.000 C 
ATOM      7  C   UNL     1       2.360 -16.349  -8.231  1.00  0.00     0.005 C 
ATOM      8  C   UNL     1       1.369 -17.426  -8.693  1.00  0.00     0.005 C 
ATOM      9  C   UNL     1      -0.123 -16.984  -8.784  1.00  0.00     0.002 C 
ATOM     10  C   UNL     1      -1.139 -17.730  -7.780  1.00  0.00    -0.026 C 
ATOM     11  C   UNL     1      -0.583 -17.754  -6.332  1.00  0.00     0.010 C 
ATOM     12  C   UNL     1      -1.526 -18.391  -5.315  1.00  0.00     0.033 C 
ATOM     13  C   UNL     1      -2.807 -17.564  -5.218  1.00  0.00     0.120 C 
ATOM     14  C   UNL     1      -3.597 -17.464  -6.565  1.00  0.00    -0.006 C 
ATOM     15  C   UNL     1      -2.634 -17.130  -7.815  1.00  0.00     0.003 C 
ATOM     16  C   UNL     1      -2.712 -15.630  -8.220  1.00  0.00     0.005 C 
ATOM     17  C   UNL     1      -1.767 -15.141  -9.325  1.00  0.00     0.008 C 
ATOM     18  C   UNL     1      -0.263 -15.454  -9.134  1.00  0.00    -0.024 C 
ATOM     19  C   UNL     1       0.515 -14.477  -8.083  1.00  0.00    -0.024 C 
ATOM     20  C   UNL     1       1.006 -13.125  -8.762  1.00  0.00     0.008 C 
ATOM     21  C   UNL     1       2.478 -13.147  -9.205  1.00  0.00     0.007 C 
ATOM     22  C   UNL     1      -0.421 -13.968  -6.934  1.00  0.00     0.012 C 
ATOM     23  C   UNL     1       0.328 -15.288 -10.591  1.00  0.00     0.012 C 
ATOM     24  C   UNL     1      -4.708 -16.384  -6.327  1.00  0.00     0.014 C 
ATOM     25  C   UNL     1      -4.407 -18.761  -6.887  1.00  0.00     0.014 C 
ATOM     26  C   UNL     1      -1.185 -19.225  -8.283  1.00  0.00     0.012 C 
ATOM     27  C   UNL     1       3.717 -11.875  -7.412  1.00  0.00     0.011 C 
ENDROOT
BRANCH   1  28
ATOM     28  C   UNL     1       3.675 -15.913  -5.140  1.00  0.00    -0.077 C 
ATOM     29  C   UNL     1       2.855 -15.656  -3.891  1.00  0.00     0.039 C 
ATOM     30  C   UNL     1       4.197 -17.141  -5.310  1.00  0.00     0.008 C 
ENDBRANCH   1  28
BRANCH  13  31
ATOM     31  O   UNL     1      -3.612 -18.025  -4.155  1.00  0.00    -0.393 OA
ATOM     32  H   UNL     1      -3.029 -18.531  -3.531  1.00  0.00     0.210 HD
ENDBRANCH  13  31
TORSDOF 2
ENDMDL
MODEL 7
REMARK VINA RESULT:    -5.897      2.454      6.460
REMARK INTER + INTRA:          -6.971
REMARK INTER:                  -6.599
REMARK INTRA:                  -0.372
REMARK UNBOUND:                -0.557
REMARK SMILES C=C(C)[C@H]1CC[C@@]2(C)CC[C@]3(C)[C@@H](CC[C@H]4[C@@]5(C)CC[C@H](O)C(C)(C)[C@H]5CC[C@]43C)[C@@H]12
REMARK SMILES IDX 4 1 5 2 6 3 7 4 31 5 13 6 14 7 15 8 16 9 17 10 19 11 20 12
REMARK SMILES IDX 21 13 23 14 26 15 27 16 28 17 29 18 11 19 10 20 9 21 12 22
REMARK SMILES IDX 30 23 24 24 25 25 18 26 8 27 2 28 3 29 1 30 22 31
REMARK H PARENT 22 32
REMARK Flexibility Score: inf
ROOT
ATOM      1  C   UNL     1       1.143 -14.074 -11.393  1.00  0.00     0.018 C 
ATOM      2  C   UNL     1       1.598 -12.613 -11.214  1.00  0.00     0.009 C 
ATOM      3  C   UNL     1       2.851 -12.638 -10.324  1.00  0.00     0.008 C 
ATOM      4  C   UNL     1       3.092 -14.106  -9.900  1.00  0.00    -0.029 C 
ATOM      5  C   UNL     1       1.743 -14.819 -10.186  1.00  0.00     0.006 C 
ATOM      6  C   UNL     1       0.829 -14.966  -8.910  1.00  0.00    -0.000 C 
ATOM      7  C   UNL     1       0.256 -13.622  -8.405  1.00  0.00     0.005 C 
ATOM      8  C   UNL     1      -0.711 -13.738  -7.218  1.00  0.00     0.005 C 
ATOM      9  C   UNL     1      -0.550 -15.009  -6.331  1.00  0.00     0.002 C 
ATOM     10  C   UNL     1      -1.806 -16.020  -6.317  1.00  0.00    -0.026 C 
ATOM     11  C   UNL     1      -2.300 -16.322  -7.756  1.00  0.00     0.010 C 
ATOM     12  C   UNL     1      -3.449 -17.324  -7.821  1.00  0.00     0.033 C 
ATOM     13  C   UNL     1      -2.978 -18.676  -7.287  1.00  0.00     0.120 C 
ATOM     14  C   UNL     1      -2.498 -18.635  -5.798  1.00  0.00    -0.006 C 
ATOM     15  C   UNL     1      -1.526 -17.382  -5.504  1.00  0.00     0.003 C 
ATOM     16  C   UNL     1      -0.029 -17.808  -5.467  1.00  0.00     0.005 C 
ATOM     17  C   UNL     1       1.022 -16.703  -5.305  1.00  0.00     0.008 C 
ATOM     18  C   UNL     1       0.939 -15.523  -6.303  1.00  0.00    -0.024 C 
ATOM     19  C   UNL     1       1.544 -15.834  -7.788  1.00  0.00    -0.024 C 
ATOM     20  C   UNL     1       3.119 -15.625  -7.856  1.00  0.00     0.008 C 
ATOM     21  C   UNL     1       3.544 -14.257  -8.414  1.00  0.00     0.007 C 
ATOM     22  C   UNL     1       1.374 -17.336  -8.200  1.00  0.00     0.012 C 
ATOM     23  C   UNL     1       1.775 -14.386  -5.589  1.00  0.00     0.012 C 
ATOM     24  C   UNL     1      -1.824 -20.024  -5.530  1.00  0.00     0.014 C 
ATOM     25  C   UNL     1      -3.685 -18.598  -4.783  1.00  0.00     0.014 C 
ATOM     26  C   UNL     1      -2.959 -15.227  -5.588  1.00  0.00     0.012 C 
ATOM     27  C   UNL     1       4.203 -14.705 -10.808  1.00  0.00     0.011 C 
ENDROOT
BRANCH   1  28
ATOM     28  C   UNL     1      -0.338 -14.355 -11.658  1.00  0.00    -0.077 C 
ATOM     29  C   UNL     1      -1.370 -13.315 -11.266  1.00  0.00     0.039 C 
ATOM     30  C   UNL     1      -0.781 -15.543 -12.107  1.00  0.00     0.008 C 
ENDBRANCH   1  28
BRANCH  13  31
ATOM     31  O   UNL     1      -3.962 -19.663  -7.508  1.00  0.00    -0.393 OA
ATOM     32  H   UNL     1      -4.827 -19.308  -7.173  1.00  0.00     0.210 HD
ENDBRANCH  13  31
TORSDOF 2
ENDMDL
MODEL 8
REMARK VINA RESULT:    -5.855      6.456     11.129
REMARK INTER + INTRA:          -6.926
REMARK INTER:                  -6.436
REMARK INTRA:                  -0.490
REMARK UNBOUND:                -0.557
REMARK SMILES C=C(C)[C@H]1CC[C@@]2(C)CC[C@]3(C)[C@@H](CC[C@H]4[C@@]5(C)CC[C@H](O)C(C)(C)[C@H]5CC[C@]43C)[C@@H]12
REMARK SMILES IDX 4 1 5 2 6 3 7 4 31 5 13 6 14 7 15 8 16 9 17 10 19 11 20 12
REMARK SMILES IDX 21 13 23 14 26 15 27 16 28 17 29 18 11 19 10 20 9 21 12 22
REMARK SMILES IDX 30 23 24 24 25 25 18 26 8 27 2 28 3 29 1 30 22 31
REMARK H PARENT 22 32
REMARK Flexibility Score: inf
ROOT
ATOM      1  C   UNL     1      -4.353 -15.384 -11.391  1.00  0.00     0.018 C 
ATOM      2  C   UNL     1      -3.476 -15.998 -12.499  1.00  0.00     0.009 C 
ATOM      3  C   UNL     1      -3.265 -14.906 -13.561  1.00  0.00     0.008 C 
ATOM      4  C   UNL     1      -4.088 -13.670 -13.129  1.00  0.00    -0.029 C 
ATOM      5  C   UNL     1      -5.090 -14.219 -12.078  1.00  0.00     0.006 C 
ATOM      6  C   UNL     1      -6.517 -14.528 -12.674  1.00  0.00    -0.000 C 
ATOM      7  C   UNL     1      -6.534 -15.737 -13.636  1.00  0.00     0.005 C 
ATOM      8  C   UNL     1      -7.923 -16.122 -14.164  1.00  0.00     0.005 C 
ATOM      9  C   UNL     1      -8.988 -14.984 -14.171  1.00  0.00     0.002 C 
ATOM     10  C   UNL     1     -10.262 -15.209 -13.209  1.00  0.00    -0.026 C 
ATOM     11  C   UNL     1      -9.822 -15.644 -11.787  1.00  0.00     0.010 C 
ATOM     12  C   UNL     1     -10.978 -15.813 -10.804  1.00  0.00     0.033 C 
ATOM     13  C   UNL     1     -11.671 -14.468 -10.595  1.00  0.00     0.120 C 
ATOM     14  C   UNL     1     -12.276 -13.859 -11.903  1.00  0.00    -0.006 C 
ATOM     15  C   UNL     1     -11.251 -13.940 -13.145  1.00  0.00     0.003 C 
ATOM     16  C   UNL     1     -10.555 -12.573 -13.409  1.00  0.00     0.005 C 
ATOM     17  C   UNL     1      -9.470 -12.524 -14.493  1.00  0.00     0.008 C 
ATOM     18  C   UNL     1      -8.333 -13.566 -14.376  1.00  0.00    -0.024 C 
ATOM     19  C   UNL     1      -7.190 -13.215 -13.264  1.00  0.00    -0.024 C 
ATOM     20  C   UNL     1      -6.073 -12.236 -13.832  1.00  0.00     0.008 C 
ATOM     21  C   UNL     1      -4.802 -12.954 -14.318  1.00  0.00     0.007 C 
ATOM     22  C   UNL     1      -7.766 -12.415 -12.046  1.00  0.00     0.012 C 
ATOM     23  C   UNL     1      -7.709 -13.585 -15.829  1.00  0.00     0.012 C 
ATOM     24  C   UNL     1     -12.698 -12.395 -11.535  1.00  0.00     0.014 C 
ATOM     25  C   UNL     1     -13.621 -14.537 -12.318  1.00  0.00     0.014 C 
ATOM     26  C   UNL     1     -11.043 -16.424 -13.844  1.00  0.00     0.012 C 
ATOM     27  C   UNL     1      -3.128 -12.650 -12.454  1.00  0.00     0.011 C 
ENDROOT
BRANCH   1  28
ATOM     28  C   UNL     1      -5.241 -16.312 -10.559  1.00  0.00    -0.077 C 
ATOM     29  C   UNL     1      -5.309 -17.785 -10.914  1.00  0.00     0.039 C 
ATOM     30  C   UNL     1      -6.069 -15.856  -9.601  1.00  0.00     0.008 C 
ENDBRANCH   1  28
BRANCH  13  31
ATOM     31  O   UNL     1     -12.620 -14.559  -9.555  1.00  0.00    -0.393 OA
ATOM     32  H   UNL     1     -12.689 -13.665  -9.129  1.00  0.00     0.210 HD
ENDBRANCH  13  31
TORSDOF 2
ENDMDL
MODEL 9
REMARK VINA RESULT:    -5.768      6.072     10.328
REMARK INTER + INTRA:          -6.831
REMARK INTER:                  -6.273
REMARK INTRA:                  -0.557
REMARK UNBOUND:                -0.557
REMARK SMILES C=C(C)[C@H]1CC[C@@]2(C)CC[C@]3(C)[C@@H](CC[C@H]4[C@@]5(C)CC[C@H](O)C(C)(C)[C@H]5CC[C@]43C)[C@@H]12
REMARK SMILES IDX 4 1 5 2 6 3 7 4 31 5 13 6 14 7 15 8 16 9 17 10 19 11 20 12
REMARK SMILES IDX 21 13 23 14 26 15 27 16 28 17 29 18 11 19 10 20 9 21 12 22
REMARK SMILES IDX 30 23 24 24 25 25 18 26 8 27 2 28 3 29 1 30 22 31
REMARK H PARENT 22 32
REMARK Flexibility Score: inf
ROOT
ATOM      1  C   UNL     1      -4.550 -16.972  -2.947  1.00  0.00     0.018 C 
ATOM      2  C   UNL     1      -5.051 -15.948  -1.909  1.00  0.00     0.009 C 
ATOM      3  C   UNL     1      -5.730 -16.745  -0.783  1.00  0.00     0.008 C 
ATOM      4  C   UNL     1      -5.711 -18.237  -1.191  1.00  0.00    -0.029 C 
ATOM      5  C   UNL     1      -5.425 -18.219  -2.716  1.00  0.00     0.006 C 
ATOM      6  C   UNL     1      -6.725 -18.353  -3.599  1.00  0.00    -0.000 C 
ATOM      7  C   UNL     1      -7.640 -17.109  -3.540  1.00  0.00     0.005 C 
ATOM      8  C   UNL     1      -8.870 -17.168  -4.457  1.00  0.00     0.005 C 
ATOM      9  C   UNL     1      -9.357 -18.595  -4.851  1.00  0.00     0.002 C 
ATOM     10  C   UNL     1      -9.266 -18.961  -6.418  1.00  0.00    -0.026 C 
ATOM     11  C   UNL     1      -7.877 -18.593  -7.001  1.00  0.00     0.010 C 
ATOM     12  C   UNL     1      -7.699 -18.973  -8.469  1.00  0.00     0.033 C 
ATOM     13  C   UNL     1      -7.786 -20.490  -8.619  1.00  0.00     0.120 C 
ATOM     14  C   UNL     1      -9.156 -21.093  -8.159  1.00  0.00    -0.006 C 
ATOM     15  C   UNL     1      -9.642 -20.493  -6.743  1.00  0.00     0.003 C 
ATOM     16  C   UNL     1      -9.368 -21.482  -5.573  1.00  0.00     0.005 C 
ATOM     17  C   UNL     1      -9.678 -21.003  -4.149  1.00  0.00     0.008 C 
ATOM     18  C   UNL     1      -9.051 -19.653  -3.724  1.00  0.00    -0.024 C 
ATOM     19  C   UNL     1      -7.471 -19.727  -3.318  1.00  0.00    -0.024 C 
ATOM     20  C   UNL     1      -7.254 -20.167  -1.806  1.00  0.00     0.008 C 
ATOM     21  C   UNL     1      -7.031 -18.992  -0.839  1.00  0.00     0.007 C 
ATOM     22  C   UNL     1      -6.700 -20.832  -4.116  1.00  0.00     0.012 C 
ATOM     23  C   UNL     1      -9.926 -19.224  -2.479  1.00  0.00     0.012 C 
ATOM     24  C   UNL     1      -8.953 -22.646  -8.143  1.00  0.00     0.014 C 
ATOM     25  C   UNL     1     -10.291 -20.880  -9.211  1.00  0.00     0.014 C 
ATOM     26  C   UNL     1     -10.325 -18.024  -7.118  1.00  0.00     0.012 C 
ATOM     27  C   UNL     1      -4.539 -18.936  -0.447  1.00  0.00     0.011 C 
ENDROOT
BRANCH   1  28
ATOM     28  C   UNL     1      -4.417 -16.533  -4.406  1.00  0.00    -0.077 C 
ATOM     29  C   UNL     1      -3.732 -17.455  -5.397  1.00  0.00     0.039 C 
ATOM     30  C   UNL     1      -4.767 -15.304  -4.827  1.00  0.00     0.008 C 
ENDBRANCH   1  28
BRANCH  13  31
ATOM     31  O   UNL     1      -7.442 -20.877  -9.931  1.00  0.00    -0.393 OA
ATOM     32  H   UNL     1      -8.284 -20.993 -10.443  1.00  0.00     0.210 HD
ENDBRANCH  13  31
TORSDOF 2
ENDMDL
