MODEL 1
REMARK VINA RESULT:    -7.011      0.000      0.000
REMARK INTER + INTRA:          -8.526
REMARK INTER:                  -8.241
REMARK INTRA:                  -0.285
REMARK UNBOUND:                -0.285
REMARK SMILES O=c1cc(-c2ccc(O)c(O)c2)oc2cc(O)cc(O)c12
REMARK SMILES IDX 4 1 3 2 2 3 1 4 21 5 19 6 18 7 16 8 15 9 14 10 13 11 5 12
REMARK SMILES IDX 6 13 7 14 8 15 12 16 10 17 9 18 11 20 20 22 17 24
REMARK H PARENT 9 19 11 21 20 23 17 25
REMARK Flexibility Score: inf
ROOT
ATOM      1  C   UNL     1      23.571  29.926  18.098  1.00  0.00     0.138 A 
ATOM      2  C   UNL     1      23.371  30.147  19.468  1.00  0.00     0.100 A 
ATOM      3  C   UNL     1      22.709  31.301  19.891  1.00  0.00     0.197 A 
ATOM      4  O   UNL     1      22.599  31.503  21.128  1.00  0.00    -0.289 OA
ATOM      5  C   UNL     1      22.218  32.221  18.934  1.00  0.00     0.107 A 
ATOM      6  C   UNL     1      21.492  33.409  19.247  1.00  0.00     0.134 A 
ATOM      7  C   UNL     1      21.158  34.303  18.222  1.00  0.00     0.093 A 
ATOM      8  C   UNL     1      21.468  34.022  16.889  1.00  0.00     0.123 A 
ATOM      9  C   UNL     1      22.129  32.838  16.568  1.00  0.00     0.094 A 
ATOM     10  C   UNL     1      22.506  31.943  17.571  1.00  0.00     0.146 A 
ATOM     11  O   UNL     1      23.148  30.832  17.223  1.00  0.00    -0.456 OA
ENDROOT
BRANCH   1  12
ATOM     12  C   UNL     1      24.268  28.715  17.593  1.00  0.00     0.021 A 
ATOM     13  C   UNL     1      23.974  28.166  16.329  1.00  0.00     0.016 A 
ATOM     14  C   UNL     1      24.653  27.032  15.875  1.00  0.00     0.051 A 
ATOM     15  C   UNL     1      25.636  26.432  16.669  1.00  0.00     0.157 A 
ATOM     16  C   UNL     1      25.268  28.113  18.378  1.00  0.00     0.062 A 
ATOM     17  C   UNL     1      25.946  26.974  17.922  1.00  0.00     0.158 A 
BRANCH  15  18
ATOM     18  O   UNL     1      26.314  25.300  16.220  1.00  0.00    -0.504 OA
ATOM     19  H   UNL     1      25.860  24.395  16.173  1.00  0.00     0.293 HD
ENDBRANCH  15  18
BRANCH  17  20
ATOM     20  O   UNL     1      26.930  26.377  18.709  1.00  0.00    -0.504 OA
ATOM     21  H   UNL     1      27.210  26.773  19.598  1.00  0.00     0.293 HD
ENDBRANCH  17  20
ENDBRANCH   1  12
BRANCH   6  22
ATOM     22  O   UNL     1      21.058  33.744  20.534  1.00  0.00    -0.507 OA
ATOM     23  H   UNL     1      21.087  33.126  21.330  1.00  0.00     0.293 HD
ENDBRANCH   6  22
BRANCH   8  24
ATOM     24  O   UNL     1      21.117  34.910  15.875  1.00  0.00    -0.508 OA
ATOM     25  H   UNL     1      20.521  34.628  15.107  1.00  0.00     0.293 HD
ENDBRANCH   8  24
TORSDOF 5
ENDMDL
MODEL 2
REMARK VINA RESULT:    -6.606     10.283     12.299
REMARK INTER + INTRA:          -8.050
REMARK INTER:                  -7.760
REMARK INTRA:                  -0.290
REMARK UNBOUND:                -0.285
REMARK SMILES O=c1cc(-c2ccc(O)c(O)c2)oc2cc(O)cc(O)c12
REMARK SMILES IDX 4 1 3 2 2 3 1 4 21 5 19 6 18 7 16 8 15 9 14 10 13 11 5 12
REMARK SMILES IDX 6 13 7 14 8 15 12 16 10 17 9 18 11 20 20 22 17 24
REMARK H PARENT 9 19 11 21 20 23 17 25
REMARK Flexibility Score: inf
ROOT
ATOM      1  C   UNL     1      18.241  20.690  20.911  1.00  0.00     0.138 A 
ATOM      2  C   UNL     1      18.512  19.476  20.263  1.00  0.00     0.100 A 
ATOM      3  C   UNL     1      18.588  19.440  18.870  1.00  0.00     0.197 A 
ATOM      4  O   UNL     1      18.770  18.326  18.314  1.00  0.00    -0.289 OA
ATOM      5  C   UNL     1      18.422  20.632  18.125  1.00  0.00     0.107 A 
ATOM      6  C   UNL     1      18.520  20.722  16.704  1.00  0.00     0.134 A 
ATOM      7  C   UNL     1      18.222  21.934  16.068  1.00  0.00     0.093 A 
ATOM      8  C   UNL     1      17.890  23.073  16.805  1.00  0.00     0.123 A 
ATOM      9  C   UNL     1      17.845  23.009  18.196  1.00  0.00     0.094 A 
ATOM     10  C   UNL     1      18.103  21.806  18.858  1.00  0.00     0.146 A 
ATOM     11  O   UNL     1      18.036  21.784  20.186  1.00  0.00    -0.456 OA
ENDROOT
BRANCH   1  12
ATOM     12  C   UNL     1      18.151  20.786  22.390  1.00  0.00     0.021 A 
ATOM     13  C   UNL     1      19.143  20.242  23.229  1.00  0.00     0.016 A 
ATOM     14  C   UNL     1      19.038  20.357  24.617  1.00  0.00     0.051 A 
ATOM     15  C   UNL     1      17.946  21.019  25.191  1.00  0.00     0.157 A 
ATOM     16  C   UNL     1      17.065  21.463  22.975  1.00  0.00     0.062 A 
ATOM     17  C   UNL     1      16.959  21.575  24.369  1.00  0.00     0.158 A 
BRANCH  15  18
ATOM     18  O   UNL     1      17.838  21.134  26.576  1.00  0.00    -0.504 OA
ATOM     19  H   UNL     1      18.348  21.842  27.091  1.00  0.00     0.293 HD
ENDBRANCH  15  18
BRANCH  17  20
ATOM     20  O   UNL     1      15.876  22.238  24.943  1.00  0.00    -0.504 OA
ATOM     21  H   UNL     1      15.102  21.732  25.356  1.00  0.00     0.293 HD
ENDBRANCH  17  20
ENDBRANCH   1  12
BRANCH   6  22
ATOM     22  O   UNL     1      18.925  19.668  15.880  1.00  0.00    -0.507 OA
ATOM     23  H   UNL     1      18.649  19.549  14.918  1.00  0.00     0.293 HD
ENDBRANCH   6  22
BRANCH   8  24
ATOM     24  O   UNL     1      17.610  24.278  16.164  1.00  0.00    -0.508 OA
ATOM     25  H   UNL     1      16.658  24.594  16.023  1.00  0.00     0.293 HD
ENDBRANCH   8  24
TORSDOF 5
ENDMDL
MODEL 3
REMARK VINA RESULT:    -6.451     15.275     18.527
REMARK INTER + INTRA:          -7.867
REMARK INTER:                  -7.565
REMARK INTRA:                  -0.302
REMARK UNBOUND:                -0.285
REMARK SMILES O=c1cc(-c2ccc(O)c(O)c2)oc2cc(O)cc(O)c12
REMARK SMILES IDX 4 1 3 2 2 3 1 4 21 5 19 6 18 7 16 8 15 9 14 10 13 11 5 12
REMARK SMILES IDX 6 13 7 14 8 15 12 16 10 17 9 18 11 20 20 22 17 24
REMARK H PARENT 9 19 11 21 20 23 17 25
REMARK Flexibility Score: inf
ROOT
ATOM      1  C   UNL     1      29.056  16.436  27.289  1.00  0.00     0.138 A 
ATOM      2  C   UNL     1      30.328  16.539  27.870  1.00  0.00     0.100 A 
ATOM      3  C   UNL     1      30.456  16.498  29.259  1.00  0.00     0.197 A 
ATOM      4  O   UNL     1      31.602  16.656  29.755  1.00  0.00    -0.289 OA
ATOM      5  C   UNL     1      29.308  16.324  30.068  1.00  0.00     0.107 A 
ATOM      6  C   UNL     1      29.323  16.227  31.492  1.00  0.00     0.134 A 
ATOM      7  C   UNL     1      28.111  16.171  32.192  1.00  0.00     0.093 A 
ATOM      8  C   UNL     1      26.888  16.146  31.517  1.00  0.00     0.123 A 
ATOM      9  C   UNL     1      26.866  16.186  30.124  1.00  0.00     0.094 A 
ATOM     10  C   UNL     1      28.055  16.276  29.399  1.00  0.00     0.146 A 
ATOM     11  O   UNL     1      27.988  16.326  28.072  1.00  0.00    -0.456 OA
ENDROOT
BRANCH   1  12
ATOM     12  C   UNL     1      28.862  16.470  25.817  1.00  0.00     0.021 A 
ATOM     13  C   UNL     1      29.785  15.875  24.935  1.00  0.00     0.016 A 
ATOM     14  C   UNL     1      29.571  15.914  23.554  1.00  0.00     0.051 A 
ATOM     15  C   UNL     1      28.433  16.541  23.032  1.00  0.00     0.157 A 
ATOM     16  C   UNL     1      27.714  17.085  25.284  1.00  0.00     0.062 A 
ATOM     17  C   UNL     1      27.503  17.125  23.899  1.00  0.00     0.158 A 
BRANCH  15  18
ATOM     18  O   UNL     1      28.218  16.582  21.656  1.00  0.00    -0.504 OA
ATOM     19  H   UNL     1      27.338  16.900  21.267  1.00  0.00     0.293 HD
ENDBRANCH  15  18
BRANCH  17  20
ATOM     20  O   UNL     1      26.368  17.744  23.376  1.00  0.00    -0.504 OA
ATOM     21  H   UNL     1      26.085  17.608  22.413  1.00  0.00     0.293 HD
ENDBRANCH  17  20
ENDBRANCH   1  12
BRANCH   6  22
ATOM     22  O   UNL     1      30.491  16.158  32.257  1.00  0.00    -0.507 OA
ATOM     23  H   UNL     1      30.526  16.229  33.263  1.00  0.00     0.293 HD
ENDBRANCH   6  22
BRANCH   8  24
ATOM     24  O   UNL     1      25.689  16.075  32.222  1.00  0.00    -0.508 OA
ATOM     25  H   UNL     1      25.130  15.231  32.233  1.00  0.00     0.293 HD
ENDBRANCH   8  24
TORSDOF 5
ENDMDL
MODEL 4
REMARK VINA RESULT:    -6.436     10.413     12.657
REMARK INTER + INTRA:          -7.849
REMARK INTER:                  -7.571
REMARK INTRA:                  -0.278
REMARK UNBOUND:                -0.285
REMARK SMILES O=c1cc(-c2ccc(O)c(O)c2)oc2cc(O)cc(O)c12
REMARK SMILES IDX 4 1 3 2 2 3 1 4 21 5 19 6 18 7 16 8 15 9 14 10 13 11 5 12
REMARK SMILES IDX 6 13 7 14 8 15 12 16 10 17 9 18 11 20 20 22 17 24
REMARK H PARENT 9 19 11 21 20 23 17 25
REMARK Flexibility Score: inf
ROOT
ATOM      1  C   UNL     1      18.129  21.151  20.937  1.00  0.00     0.138 A 
ATOM      2  C   UNL     1      17.775  22.338  20.279  1.00  0.00     0.100 A 
ATOM      3  C   UNL     1      17.822  22.395  18.886  1.00  0.00     0.197 A 
ATOM      4  O   UNL     1      17.560  23.492  18.327  1.00  0.00    -0.289 OA
ATOM      5  C   UNL     1      18.195  21.247  18.147  1.00  0.00     0.107 A 
ATOM      6  C   UNL     1      18.239  21.177  16.721  1.00  0.00     0.134 A 
ATOM      7  C   UNL     1      18.735  20.022  16.103  1.00  0.00     0.093 A 
ATOM      8  C   UNL     1      19.131  18.914  16.856  1.00  0.00     0.123 A 
ATOM      9  C   UNL     1      19.041  18.953  18.246  1.00  0.00     0.094 A 
ATOM     10  C   UNL     1      18.583  20.103  18.894  1.00  0.00     0.146 A 
ATOM     11  O   UNL     1      18.527  20.104  20.222  1.00  0.00    -0.456 OA
ENDROOT
BRANCH   1  12
ATOM     12  C   UNL     1      18.095  21.034  22.417  1.00  0.00     0.021 A 
ATOM     13  C   UNL     1      19.127  20.396  23.132  1.00  0.00     0.016 A 
ATOM     14  C   UNL     1      19.074  20.310  24.526  1.00  0.00     0.051 A 
ATOM     15  C   UNL     1      17.997  20.863  25.228  1.00  0.00     0.157 A 
ATOM     16  C   UNL     1      17.023  21.599  23.132  1.00  0.00     0.062 A 
ATOM     17  C   UNL     1      16.971  21.510  24.530  1.00  0.00     0.158 A 
BRANCH  15  18
ATOM     18  O   UNL     1      17.941  20.777  26.618  1.00  0.00    -0.504 OA
ATOM     19  H   UNL     1      17.455  20.019  27.083  1.00  0.00     0.293 HD
ENDBRANCH  15  18
BRANCH  17  20
ATOM     20  O   UNL     1      15.901  22.064  25.232  1.00  0.00    -0.504 OA
ATOM     21  H   UNL     1      15.092  22.443  24.754  1.00  0.00     0.293 HD
ENDBRANCH  17  20
ENDBRANCH   1  12
BRANCH   6  22
ATOM     22  O   UNL     1      17.787  22.194  15.875  1.00  0.00    -0.507 OA
ATOM     23  H   UNL     1      17.375  23.060  16.184  1.00  0.00     0.293 HD
ENDBRANCH   6  22
BRANCH   8  24
ATOM     24  O   UNL     1      19.609  17.764  16.231  1.00  0.00    -0.508 OA
ATOM     25  H   UNL     1      19.244  17.455  15.339  1.00  0.00     0.293 HD
ENDBRANCH   8  24
TORSDOF 5
ENDMDL
MODEL 5
REMARK VINA RESULT:    -6.401     10.046     11.269
REMARK INTER + INTRA:          -7.808
REMARK INTER:                  -7.535
REMARK INTRA:                  -0.274
REMARK UNBOUND:                -0.285
REMARK SMILES O=c1cc(-c2ccc(O)c(O)c2)oc2cc(O)cc(O)c12
REMARK SMILES IDX 4 1 3 2 2 3 1 4 21 5 19 6 18 7 16 8 15 9 14 10 13 11 5 12
REMARK SMILES IDX 6 13 7 14 8 15 12 16 10 17 9 18 11 20 20 22 17 24
REMARK H PARENT 9 19 11 21 20 23 17 25
REMARK Flexibility Score: inf
ROOT
ATOM      1  C   UNL     1      32.027  35.153  21.204  1.00  0.00     0.138 A 
ATOM      2  C   UNL     1      33.279  34.942  20.609  1.00  0.00     0.100 A 
ATOM      3  C   UNL     1      33.399  34.989  19.219  1.00  0.00     0.197 A 
ATOM      4  O   UNL     1      34.521  34.733  18.710  1.00  0.00    -0.289 OA
ATOM      5  C   UNL     1      32.264  35.279  18.425  1.00  0.00     0.107 A 
ATOM      6  C   UNL     1      32.275  35.392  17.002  1.00  0.00     0.134 A 
ATOM      7  C   UNL     1      31.068  35.568  16.315  1.00  0.00     0.093 A 
ATOM      8  C   UNL     1      29.858  35.696  17.002  1.00  0.00     0.123 A 
ATOM      9  C   UNL     1      29.844  35.640  18.394  1.00  0.00     0.094 A 
ATOM     10  C   UNL     1      31.027  35.431  19.106  1.00  0.00     0.146 A 
ATOM     11  O   UNL     1      30.967  35.370  20.433  1.00  0.00    -0.456 OA
ENDROOT
BRANCH   1  12
ATOM     12  C   UNL     1      31.844  35.116  22.677  1.00  0.00     0.021 A 
ATOM     13  C   UNL     1      32.436  36.078  23.521  1.00  0.00     0.016 A 
ATOM     14  C   UNL     1      32.237  36.025  24.903  1.00  0.00     0.051 A 
ATOM     15  C   UNL     1      31.443  35.019  25.465  1.00  0.00     0.157 A 
ATOM     16  C   UNL     1      31.036  34.118  23.250  1.00  0.00     0.062 A 
ATOM     17  C   UNL     1      30.840  34.065  24.637  1.00  0.00     0.158 A 
BRANCH  15  18
ATOM     18  O   UNL     1      31.245  34.963  26.844  1.00  0.00    -0.504 OA
ATOM     19  H   UNL     1      31.934  35.324  27.493  1.00  0.00     0.293 HD
ENDBRANCH  15  18
BRANCH  17  20
ATOM     20  O   UNL     1      30.045  33.067  25.200  1.00  0.00    -0.504 OA
ATOM     21  H   UNL     1      30.398  32.454  25.925  1.00  0.00     0.293 HD
ENDBRANCH  17  20
ENDBRANCH   1  12
BRANCH   6  22
ATOM     22  O   UNL     1      33.438  35.365  16.225  1.00  0.00    -0.507 OA
ATOM     23  H   UNL     1      33.938  34.528  15.966  1.00  0.00     0.293 HD
ENDBRANCH   6  22
BRANCH   8  24
ATOM     24  O   UNL     1      28.664  35.886  16.310  1.00  0.00    -0.508 OA
ATOM     25  H   UNL     1      28.502  36.715  15.751  1.00  0.00     0.293 HD
ENDBRANCH   8  24
TORSDOF 5
ENDMDL
MODEL 6
REMARK VINA RESULT:    -6.313     10.376     11.797
REMARK INTER + INTRA:          -7.705
REMARK INTER:                  -7.438
REMARK INTRA:                  -0.267
REMARK UNBOUND:                -0.285
REMARK SMILES O=c1cc(-c2ccc(O)c(O)c2)oc2cc(O)cc(O)c12
REMARK SMILES IDX 4 1 3 2 2 3 1 4 21 5 19 6 18 7 16 8 15 9 14 10 13 11 5 12
REMARK SMILES IDX 6 13 7 14 8 15 12 16 10 17 9 18 11 20 20 22 17 24
REMARK H PARENT 9 19 11 21 20 23 17 25
REMARK Flexibility Score: inf
ROOT
ATOM      1  C   UNL     1      31.779  35.135  21.134  1.00  0.00     0.138 A 
ATOM      2  C   UNL     1      30.639  35.198  20.320  1.00  0.00     0.100 A 
ATOM      3  C   UNL     1      30.782  35.211  18.932  1.00  0.00     0.197 A 
ATOM      4  O   UNL     1      29.746  35.332  18.229  1.00  0.00    -0.289 OA
ATOM      5  C   UNL     1      32.073  35.128  18.357  1.00  0.00     0.107 A 
ATOM      6  C   UNL     1      32.337  35.092  16.955  1.00  0.00     0.134 A 
ATOM      7  C   UNL     1      33.662  35.126  16.502  1.00  0.00     0.093 A 
ATOM      8  C   UNL     1      34.732  35.134  17.400  1.00  0.00     0.123 A 
ATOM      9  C   UNL     1      34.484  35.115  18.771  1.00  0.00     0.094 A 
ATOM     10  C   UNL     1      33.174  35.115  19.255  1.00  0.00     0.146 A 
ATOM     11  O   UNL     1      32.982  35.112  20.570  1.00  0.00    -0.456 OA
ENDROOT
BRANCH   1  12
ATOM     12  C   UNL     1      31.685  35.116  22.616  1.00  0.00     0.021 A 
ATOM     13  C   UNL     1      32.314  36.096  23.410  1.00  0.00     0.016 A 
ATOM     14  C   UNL     1      32.199  36.060  24.802  1.00  0.00     0.051 A 
ATOM     15  C   UNL     1      31.453  35.052  25.424  1.00  0.00     0.157 A 
ATOM     16  C   UNL     1      30.925  34.116  23.249  1.00  0.00     0.062 A 
ATOM     17  C   UNL     1      30.813  34.080  24.646  1.00  0.00     0.158 A 
BRANCH  15  18
ATOM     18  O   UNL     1      31.338  35.013  26.812  1.00  0.00    -0.504 OA
ATOM     19  H   UNL     1      30.442  35.123  27.273  1.00  0.00     0.293 HD
ENDBRANCH  15  18
BRANCH  17  20
ATOM     20  O   UNL     1      30.066  33.080  25.268  1.00  0.00    -0.504 OA
ATOM     21  H   UNL     1      30.039  32.989  26.277  1.00  0.00     0.293 HD
ENDBRANCH  17  20
ENDBRANCH   1  12
BRANCH   6  22
ATOM     22  O   UNL     1      31.344  34.997  15.975  1.00  0.00    -0.507 OA
ATOM     23  H   UNL     1      30.536  35.597  15.914  1.00  0.00     0.293 HD
ENDBRANCH   6  22
BRANCH   8  24
ATOM     24  O   UNL     1      36.047  35.153  16.940  1.00  0.00    -0.508 OA
ATOM     25  H   UNL     1      36.303  35.640  16.089  1.00  0.00     0.293 HD
ENDBRANCH   8  24
TORSDOF 5
ENDMDL
MODEL 7
REMARK VINA RESULT:    -6.250     19.103     19.913
REMARK INTER + INTRA:          -7.631
REMARK INTER:                  -7.336
REMARK INTRA:                  -0.294
REMARK UNBOUND:                -0.285
REMARK SMILES O=c1cc(-c2ccc(O)c(O)c2)oc2cc(O)cc(O)c12
REMARK SMILES IDX 4 1 3 2 2 3 1 4 21 5 19 6 18 7 16 8 15 9 14 10 13 11 5 12
REMARK SMILES IDX 6 13 7 14 8 15 12 16 10 17 9 18 11 20 20 22 17 24
REMARK H PARENT 9 19 11 21 20 23 17 25
REMARK Flexibility Score: inf
ROOT
ATOM      1  C   UNL     1      31.149  26.699  35.013  1.00  0.00     0.138 A 
ATOM      2  C   UNL     1      32.131  25.911  34.396  1.00  0.00     0.100 A 
ATOM      3  C   UNL     1      33.403  26.441  34.175  1.00  0.00     0.197 A 
ATOM      4  O   UNL     1      34.244  25.733  33.562  1.00  0.00    -0.289 OA
ATOM      5  C   UNL     1      33.701  27.757  34.602  1.00  0.00     0.107 A 
ATOM      6  C   UNL     1      34.974  28.387  34.466  1.00  0.00     0.134 A 
ATOM      7  C   UNL     1      35.118  29.735  34.821  1.00  0.00     0.093 A 
ATOM      8  C   UNL     1      34.052  30.456  35.364  1.00  0.00     0.123 A 
ATOM      9  C   UNL     1      32.820  29.833  35.550  1.00  0.00     0.094 A 
ATOM     10  C   UNL     1      32.635  28.501  35.174  1.00  0.00     0.146 A 
ATOM     11  O   UNL     1      31.439  27.950  35.357  1.00  0.00    -0.456 OA
ENDROOT
BRANCH   1  12
ATOM     12  C   UNL     1      29.781  26.185  35.275  1.00  0.00     0.021 A 
ATOM     13  C   UNL     1      28.752  27.025  35.745  1.00  0.00     0.016 A 
ATOM     14  C   UNL     1      27.471  26.516  35.973  1.00  0.00     0.051 A 
ATOM     15  C   UNL     1      27.194  25.165  35.731  1.00  0.00     0.157 A 
ATOM     16  C   UNL     1      29.489  24.833  35.021  1.00  0.00     0.062 A 
ATOM     17  C   UNL     1      28.204  24.323  35.252  1.00  0.00     0.158 A 
BRANCH  15  18
ATOM     18  O   UNL     1      25.917  24.654  35.958  1.00  0.00    -0.504 OA
ATOM     19  H   UNL     1      25.138  24.886  35.353  1.00  0.00     0.293 HD
ENDBRANCH  15  18
BRANCH  17  20
ATOM     20  O   UNL     1      27.923  22.979  35.007  1.00  0.00    -0.504 OA
ATOM     21  H   UNL     1      28.333  22.486  34.222  1.00  0.00     0.293 HD
ENDBRANCH  17  20
ENDBRANCH   1  12
BRANCH   6  22
ATOM     22  O   UNL     1      36.125  27.734  34.015  1.00  0.00    -0.507 OA
ATOM     23  H   UNL     1      37.038  28.156  33.945  1.00  0.00     0.293 HD
ENDBRANCH   6  22
BRANCH   8  24
ATOM     24  O   UNL     1      34.210  31.791  35.728  1.00  0.00    -0.508 OA
ATOM     25  H   UNL     1      34.918  32.079  36.391  1.00  0.00     0.293 HD
ENDBRANCH   8  24
TORSDOF 5
ENDMDL
MODEL 8
REMARK VINA RESULT:    -4.391      1.599      2.237
REMARK INTER + INTRA:          -5.446
REMARK INTER:                  -5.154
REMARK INTRA:                  -0.292
REMARK UNBOUND:                -0.285
REMARK SMILES O=c1cc(-c2ccc(O)c(O)c2)oc2cc(O)cc(O)c12
REMARK SMILES IDX 4 1 3 2 2 3 1 4 21 5 19 6 18 7 16 8 15 9 14 10 13 11 5 12
REMARK SMILES IDX 6 13 7 14 8 15 12 16 10 17 9 18 11 20 20 22 17 24
REMARK H PARENT 9 19 11 21 20 23 17 25
REMARK Flexibility Score: inf
ROOT
ATOM      1  C   UNL     1      22.454  31.697  18.567  1.00  0.00     0.138 A 
ATOM      2  C   UNL     1      22.520  32.019  19.931  1.00  0.00     0.100 A 
ATOM      3  C   UNL     1      21.811  33.119  20.414  1.00  0.00     0.197 A 
ATOM      4  O   UNL     1      21.939  33.421  21.629  1.00  0.00    -0.289 OA
ATOM      5  C   UNL     1      21.007  33.882  19.533  1.00  0.00     0.107 A 
ATOM      6  C   UNL     1      20.209  34.999  19.922  1.00  0.00     0.134 A 
ATOM      7  C   UNL     1      19.546  35.747  18.941  1.00  0.00     0.093 A 
ATOM      8  C   UNL     1      19.603  35.383  17.594  1.00  0.00     0.123 A 
ATOM      9  C   UNL     1      20.336  34.261  17.211  1.00  0.00     0.094 A 
ATOM     10  C   UNL     1      21.036  33.515  18.161  1.00  0.00     0.146 A 
ATOM     11  O   UNL     1      21.735  32.461  17.751  1.00  0.00    -0.456 OA
ENDROOT
BRANCH   1  12
ATOM     12  C   UNL     1      23.186  30.537  18.000  1.00  0.00     0.021 A 
ATOM     13  C   UNL     1      23.414  30.411  16.615  1.00  0.00     0.016 A 
ATOM     14  C   UNL     1      24.115  29.313  16.109  1.00  0.00     0.051 A 
ATOM     15  C   UNL     1      24.605  28.328  16.975  1.00  0.00     0.157 A 
ATOM     16  C   UNL     1      23.695  29.549  18.863  1.00  0.00     0.062 A 
ATOM     17  C   UNL     1      24.397  28.447  18.354  1.00  0.00     0.158 A 
BRANCH  15  18
ATOM     18  O   UNL     1      25.304  27.231  16.473  1.00  0.00    -0.504 OA
ATOM     19  H   UNL     1      25.067  26.815  15.580  1.00  0.00     0.293 HD
ENDBRANCH  15  18
BRANCH  17  20
ATOM     20  O   UNL     1      24.890  27.467  19.214  1.00  0.00    -0.504 OA
ATOM     21  H   UNL     1      25.405  27.707  20.053  1.00  0.00     0.293 HD
ENDBRANCH  17  20
ENDBRANCH   1  12
BRANCH   6  22
ATOM     22  O   UNL     1      20.016  35.397  21.249  1.00  0.00    -0.507 OA
ATOM     23  H   UNL     1      20.543  35.053  22.036  1.00  0.00     0.293 HD
ENDBRANCH   6  22
BRANCH   8  24
ATOM     24  O   UNL     1      18.927  36.125  16.627  1.00  0.00    -0.508 OA
ATOM     25  H   UNL     1      18.670  37.091  16.786  1.00  0.00     0.293 HD
ENDBRANCH   8  24
TORSDOF 5
ENDMDL
