MODEL 1
REMARK VINA RESULT:    -3.343      0.000      0.000
REMARK INTER + INTRA:          -3.742
REMARK INTER:                  -3.734
REMARK INTRA:                  -0.008
REMARK UNBOUND:                -0.008
REMARK SMILES CCCC(=O)[O-]
REMARK SMILES IDX 3 1 4 2 5 3 6 4 2 5 1 6
REMARK H PARENT
REMARK Flexibility Score: inf
ROOT
ATOM      1  C   UNL     1      -2.563  37.843  17.494  1.00  0.00     0.052 C 
ENDROOT
BRANCH   1   2
ATOM      2  C   UNL     1      -1.802  38.048  18.768  1.00  0.00     0.041 C 
ATOM      3  O   UNL     1      -2.396  37.987  19.877  1.00  0.00    -0.550 OA
ATOM      4  O   UNL     1      -0.432  38.274  18.732  1.00  0.00    -0.550 OA
ENDBRANCH   1   2
BRANCH   1   5
ATOM      5  C   UNL     1      -1.730  37.090  16.449  1.00  0.00     0.003 C 
ATOM      6  C   UNL     1      -2.450  36.973  15.105  1.00  0.00     0.004 C 
ENDBRANCH   1   5
TORSDOF 2
ENDMDL
MODEL 2
REMARK VINA RESULT:    -3.313      1.089      1.698
REMARK INTER + INTRA:          -3.708
REMARK INTER:                  -3.671
REMARK INTRA:                  -0.037
REMARK UNBOUND:                -0.008
REMARK SMILES CCCC(=O)[O-]
REMARK SMILES IDX 3 1 4 2 5 3 6 4 2 5 1 6
REMARK H PARENT
REMARK Flexibility Score: inf
ROOT
ATOM      1  C   UNL     1      -1.729  37.347  16.716  1.00  0.00     0.052 C 
ENDROOT
BRANCH   1   2
ATOM      2  C   UNL     1      -2.173  37.931  18.022  1.00  0.00     0.041 C 
ATOM      3  O   UNL     1      -1.326  38.408  18.822  1.00  0.00    -0.550 OA
ATOM      4  O   UNL     1      -3.523  37.975  18.342  1.00  0.00    -0.550 OA
ENDBRANCH   1   2
BRANCH   1   5
ATOM      5  C   UNL     1      -2.892  36.685  15.965  1.00  0.00     0.003 C 
ATOM      6  C   UNL     1      -3.273  37.445  14.694  1.00  0.00     0.004 C 
ENDBRANCH   1   5
TORSDOF 2
ENDMDL
MODEL 3
REMARK VINA RESULT:    -3.119      2.501      3.491
REMARK INTER + INTRA:          -3.491
REMARK INTER:                  -3.429
REMARK INTRA:                  -0.062
REMARK UNBOUND:                -0.008
REMARK SMILES CCCC(=O)[O-]
REMARK SMILES IDX 3 1 4 2 5 3 6 4 2 5 1 6
REMARK H PARENT
REMARK Flexibility Score: inf
ROOT
ATOM      1  C   UNL     1      -3.167  36.814  17.345  1.00  0.00     0.052 C 
ENDROOT
BRANCH   1   2
ATOM      2  C   UNL     1      -2.640  37.315  16.036  1.00  0.00     0.041 C 
ATOM      3  O   UNL     1      -1.583  36.832  15.552  1.00  0.00    -0.550 OA
ATOM      4  O   UNL     1      -3.334  38.292  15.334  1.00  0.00    -0.550 OA
ENDBRANCH   1   2
BRANCH   1   5
ATOM      5  C   UNL     1      -3.094  37.890  18.437  1.00  0.00     0.003 C 
ATOM      6  C   UNL     1      -1.655  38.272  18.782  1.00  0.00     0.004 C 
ENDBRANCH   1   5
TORSDOF 2
ENDMDL
MODEL 4
REMARK VINA RESULT:    -3.064      5.170      6.321
REMARK INTER + INTRA:          -3.430
REMARK INTER:                  -3.407
REMARK INTRA:                  -0.023
REMARK UNBOUND:                -0.008
REMARK SMILES CCCC(=O)[O-]
REMARK SMILES IDX 3 1 4 2 5 3 6 4 2 5 1 6
REMARK H PARENT
REMARK Flexibility Score: inf
ROOT
ATOM      1  C   UNL     1      -6.118  35.907  21.664  1.00  0.00     0.052 C 
ENDROOT
BRANCH   1   2
ATOM      2  C   UNL     1      -4.978  36.536  20.923  1.00  0.00     0.041 C 
ATOM      3  O   UNL     1      -5.151  37.609  20.289  1.00  0.00    -0.550 OA
ATOM      4  O   UNL     1      -3.718  35.953  20.960  1.00  0.00    -0.550 OA
ENDBRANCH   1   2
BRANCH   1   5
ATOM      5  C   UNL     1      -5.934  36.011  23.184  1.00  0.00     0.003 C 
ATOM      6  C   UNL     1      -6.098  34.661  23.883  1.00  0.00     0.004 C 
ENDBRANCH   1   5
TORSDOF 2
ENDMDL
MODEL 5
REMARK VINA RESULT:    -3.058      2.147      2.393
REMARK INTER + INTRA:          -3.423
REMARK INTER:                  -3.409
REMARK INTRA:                  -0.014
REMARK UNBOUND:                -0.008
REMARK SMILES CCCC(=O)[O-]
REMARK SMILES IDX 3 1 4 2 5 3 6 4 2 5 1 6
REMARK H PARENT
REMARK Flexibility Score: inf
ROOT
ATOM      1  C   UNL     1      -2.807  37.740  18.148  1.00  0.00     0.052 C 
ENDROOT
BRANCH   1   2
ATOM      2  C   UNL     1      -3.955  37.371  19.037  1.00  0.00     0.041 C 
ATOM      3  O   UNL     1      -4.644  38.271  19.586  1.00  0.00    -0.550 OA
ATOM      4  O   UNL     1      -4.284  36.037  19.233  1.00  0.00    -0.550 OA
ENDBRANCH   1   2
BRANCH   1   5
ATOM      5  C   UNL     1      -2.970  37.155  16.739  1.00  0.00     0.003 C 
ATOM      6  C   UNL     1      -1.631  36.752  16.118  1.00  0.00     0.004 C 
ENDBRANCH   1   5
TORSDOF 2
ENDMDL
MODEL 6
REMARK VINA RESULT:    -3.033      2.138      3.218
REMARK INTER + INTRA:          -3.395
REMARK INTER:                  -3.376
REMARK INTRA:                  -0.019
REMARK UNBOUND:                -0.008
REMARK SMILES CCCC(=O)[O-]
REMARK SMILES IDX 3 1 4 2 5 3 6 4 2 5 1 6
REMARK H PARENT
REMARK Flexibility Score: inf
ROOT
ATOM      1  C   UNL     1      -2.507  37.906  19.780  1.00  0.00     0.052 C 
ENDROOT
BRANCH   1   2
ATOM      2  C   UNL     1      -1.600  38.073  18.600  1.00  0.00     0.041 C 
ATOM      3  O   UNL     1      -0.371  38.280  18.771  1.00  0.00    -0.550 OA
ATOM      4  O   UNL     1      -2.108  37.969  17.311  1.00  0.00    -0.550 OA
ENDBRANCH   1   2
BRANCH   1   5
ATOM      5  C   UNL     1      -3.901  37.420  19.362  1.00  0.00     0.003 C 
ATOM      6  C   UNL     1      -5.018  38.126  20.131  1.00  0.00     0.004 C 
ENDBRANCH   1   5
TORSDOF 2
ENDMDL
MODEL 7
REMARK VINA RESULT:    -3.014      2.745      3.502
REMARK INTER + INTRA:          -3.375
REMARK INTER:                  -3.336
REMARK INTRA:                  -0.039
REMARK UNBOUND:                -0.008
REMARK SMILES CCCC(=O)[O-]
REMARK SMILES IDX 3 1 4 2 5 3 6 4 2 5 1 6
REMARK H PARENT
REMARK Flexibility Score: inf
ROOT
ATOM      1  C   UNL     1      -4.238  37.847  19.431  1.00  0.00     0.052 C 
ENDROOT
BRANCH   1   2
ATOM      2  C   UNL     1      -4.544  36.560  20.135  1.00  0.00     0.041 C 
ATOM      3  O   UNL     1      -5.660  36.001  19.975  1.00  0.00    -0.550 OA
ATOM      4  O   UNL     1      -3.584  35.963  20.941  1.00  0.00    -0.550 OA
ENDBRANCH   1   2
BRANCH   1   5
ATOM      5  C   UNL     1      -3.208  37.651  18.311  1.00  0.00     0.003 C 
ATOM      6  C   UNL     1      -1.830  38.197  18.686  1.00  0.00     0.004 C 
ENDBRANCH   1   5
TORSDOF 2
ENDMDL
MODEL 8
REMARK VINA RESULT:    -2.994      2.492      3.383
REMARK INTER + INTRA:          -3.352
REMARK INTER:                  -3.324
REMARK INTRA:                  -0.028
REMARK UNBOUND:                -0.008
REMARK SMILES CCCC(=O)[O-]
REMARK SMILES IDX 3 1 4 2 5 3 6 4 2 5 1 6
REMARK H PARENT
REMARK Flexibility Score: inf
ROOT
ATOM      1  C   UNL     1      -3.964  37.839  19.110  1.00  0.00     0.052 C 
ENDROOT
BRANCH   1   2
ATOM      2  C   UNL     1      -2.830  37.936  18.137  1.00  0.00     0.041 C 
ATOM      3  O   UNL     1      -3.029  37.735  16.910  1.00  0.00    -0.550 OA
ATOM      4  O   UNL     1      -1.560  38.280  18.581  1.00  0.00    -0.550 OA
ENDBRANCH   1   2
BRANCH   1   5
ATOM      5  C   UNL     1      -4.293  36.381  19.456  1.00  0.00     0.003 C 
ATOM      6  C   UNL     1      -3.821  35.996  20.859  1.00  0.00     0.004 C 
ENDBRANCH   1   5
TORSDOF 2
ENDMDL
MODEL 9
REMARK VINA RESULT:    -2.863      3.984      5.223
REMARK INTER + INTRA:          -3.205
REMARK INTER:                  -3.169
REMARK INTRA:                  -0.036
REMARK UNBOUND:                -0.008
REMARK SMILES CCCC(=O)[O-]
REMARK SMILES IDX 3 1 4 2 5 3 6 4 2 5 1 6
REMARK H PARENT
REMARK Flexibility Score: inf
ROOT
ATOM      1  C   UNL     1      -4.431  36.364  20.608  1.00  0.00     0.052 C 
ENDROOT
BRANCH   1   2
ATOM      2  C   UNL     1      -4.470  37.590  19.748  1.00  0.00     0.041 C 
ATOM      3  O   UNL     1      -3.737  37.671  18.728  1.00  0.00    -0.550 OA
ATOM      4  O   UNL     1      -5.339  38.628  20.056  1.00  0.00    -0.550 OA
ENDBRANCH   1   2
BRANCH   1   5
ATOM      5  C   UNL     1      -5.801  36.062  21.230  1.00  0.00     0.003 C 
ATOM      6  C   UNL     1      -5.766  36.089  22.758  1.00  0.00     0.004 C 
ENDBRANCH   1   5
TORSDOF 2
ENDMDL
