MODEL 1
REMARK VINA RESULT:    -5.666      0.000      0.000
REMARK INTER + INTRA:          -5.997
REMARK INTER:                  -5.997
REMARK INTRA:                   0.000
REMARK UNBOUND:                 0.000
REMARK SMILES O=c1ccc2cc(O)c(O)cc2o1
REMARK SMILES IDX 4 1 3 2 2 3 1 4 13 5 12 6 11 7 9 8 7 9 6 10 5 11 8 12 10 14
REMARK H PARENT 8 13 10 15
REMARK Flexibility Score: inf
ROOT
ATOM      1  C   UNL     1      21.547  18.478  23.170  1.00  0.00     0.019 A 
ATOM      2  C   UNL     1      21.224  19.795  22.845  1.00  0.00     0.094 A 
ATOM      3  C   UNL     1      20.131  20.402  23.474  1.00  0.00     0.336 A 
ATOM      4  O   UNL     1      19.825  21.589  23.194  1.00  0.00    -0.246 OA
ATOM      5  O   UNL     1      19.412  19.729  24.368  1.00  0.00    -0.423 OA
ATOM      6  C   UNL     1      19.684  18.471  24.708  1.00  0.00     0.142 A 
ATOM      7  C   UNL     1      18.893  17.814  25.655  1.00  0.00     0.098 A 
ATOM      8  C   UNL     1      19.177  16.489  26.016  1.00  0.00     0.161 A 
ATOM      9  C   UNL     1      20.258  15.817  25.427  1.00  0.00     0.158 A 
ATOM     10  C   UNL     1      21.055  16.471  24.476  1.00  0.00     0.062 A 
ATOM     11  C   UNL     1      20.773  17.795  24.114  1.00  0.00     0.022 A 
ENDROOT
BRANCH   9  12
ATOM     12  O   UNL     1      20.533  14.500  25.791  1.00  0.00    -0.504 OA
ATOM     13  H   UNL     1      20.153  14.094  26.637  1.00  0.00     0.293 HD
ENDBRANCH   9  12
BRANCH   8  14
ATOM     14  O   UNL     1      18.388  15.832  26.960  1.00  0.00    -0.504 OA
ATOM     15  H   UNL     1      17.903  16.340  27.690  1.00  0.00     0.293 HD
ENDBRANCH   8  14
TORSDOF 2
ENDMDL
MODEL 2
REMARK VINA RESULT:    -5.558      3.303      6.345
REMARK INTER + INTRA:          -5.883
REMARK INTER:                  -5.883
REMARK INTRA:                   0.000
REMARK UNBOUND:                 0.000
REMARK SMILES O=c1ccc2cc(O)c(O)cc2o1
REMARK SMILES IDX 4 1 3 2 2 3 1 4 13 5 12 6 11 7 9 8 7 9 6 10 5 11 8 12 10 14
REMARK H PARENT 8 13 10 15
REMARK Flexibility Score: inf
ROOT
ATOM      1  C   UNL     1      21.501  14.610  29.412  1.00  0.00     0.019 A 
ATOM      2  C   UNL     1      21.083  13.326  29.762  1.00  0.00     0.094 A 
ATOM      3  C   UNL     1      19.936  12.799  29.159  1.00  0.00     0.336 A 
ATOM      4  O   UNL     1      19.543  11.643  29.462  1.00  0.00    -0.246 OA
ATOM      5  O   UNL     1      19.256  13.513  28.266  1.00  0.00    -0.423 OA
ATOM      6  C   UNL     1      19.620  14.741  27.902  1.00  0.00     0.142 A 
ATOM      7  C   UNL     1      18.867  15.444  26.959  1.00  0.00     0.098 A 
ATOM      8  C   UNL     1      19.247  16.738  26.573  1.00  0.00     0.161 A 
ATOM      9  C   UNL     1      20.386  17.332  27.135  1.00  0.00     0.158 A 
ATOM     10  C   UNL     1      21.146  16.631  28.084  1.00  0.00     0.062 A 
ATOM     11  C   UNL     1      20.768  15.337  28.470  1.00  0.00     0.022 A 
ENDROOT
BRANCH   9  12
ATOM     12  O   UNL     1      20.757  18.618  26.747  1.00  0.00    -0.504 OA
ATOM     13  H   UNL     1      20.286  19.100  25.992  1.00  0.00     0.293 HD
ENDBRANCH   9  12
BRANCH   8  14
ATOM     14  O   UNL     1      18.496  17.441  25.632  1.00  0.00    -0.504 OA
ATOM     15  H   UNL     1      18.315  17.063  24.710  1.00  0.00     0.293 HD
ENDBRANCH   8  14
TORSDOF 2
ENDMDL
MODEL 3
REMARK VINA RESULT:    -5.539      1.348      5.041
REMARK INTER + INTRA:          -5.862
REMARK INTER:                  -5.862
REMARK INTRA:                   0.000
REMARK UNBOUND:                 0.000
REMARK SMILES O=c1ccc2cc(O)c(O)cc2o1
REMARK SMILES IDX 4 1 3 2 2 3 1 4 13 5 12 6 11 7 9 8 7 9 6 10 5 11 8 12 10 14
REMARK H PARENT 8 13 10 15
REMARK Flexibility Score: inf
ROOT
ATOM      1  C   UNL     1      18.999  17.478  25.564  1.00  0.00     0.019 A 
ATOM      2  C   UNL     1      19.633  16.248  25.744  1.00  0.00     0.094 A 
ATOM      3  C   UNL     1      20.830  15.996  25.064  1.00  0.00     0.336 A 
ATOM      4  O   UNL     1      21.417  14.894  25.214  1.00  0.00    -0.246 OA
ATOM      5  O   UNL     1      21.353  16.917  24.259  1.00  0.00    -0.423 OA
ATOM      6  C   UNL     1      20.782  18.103  24.059  1.00  0.00     0.142 A 
ATOM      7  C   UNL     1      21.377  19.032  23.201  1.00  0.00     0.098 A 
ATOM      8  C   UNL     1      20.779  20.282  22.988  1.00  0.00     0.161 A 
ATOM      9  C   UNL     1      19.578  20.605  23.635  1.00  0.00     0.158 A 
ATOM     10  C   UNL     1      18.975  19.676  24.497  1.00  0.00     0.062 A 
ATOM     11  C   UNL     1      19.572  18.426  24.712  1.00  0.00     0.022 A 
ENDROOT
BRANCH   9  12
ATOM     12  O   UNL     1      18.989  21.849  23.418  1.00  0.00    -0.504 OA
ATOM     13  H   UNL     1      18.516  22.349  24.161  1.00  0.00     0.293 HD
ENDBRANCH   9  12
BRANCH   8  14
ATOM     14  O   UNL     1      21.372  21.209  22.132  1.00  0.00    -0.504 OA
ATOM     15  H   UNL     1      20.951  22.114  21.957  1.00  0.00     0.293 HD
ENDBRANCH   8  14
TORSDOF 2
ENDMDL
MODEL 4
REMARK VINA RESULT:    -5.512      4.109      5.755
REMARK INTER + INTRA:          -5.835
REMARK INTER:                  -5.835
REMARK INTRA:                   0.000
REMARK UNBOUND:                 0.000
REMARK SMILES O=c1ccc2cc(O)c(O)cc2o1
REMARK SMILES IDX 4 1 3 2 2 3 1 4 13 5 12 6 11 7 9 8 7 9 6 10 5 11 8 12 10 14
REMARK H PARENT 8 13 10 15
REMARK Flexibility Score: inf
ROOT
ATOM      1  C   UNL     1      19.103  15.543  27.430  1.00  0.00     0.019 A 
ATOM      2  C   UNL     1      19.783  16.754  27.307  1.00  0.00     0.094 A 
ATOM      3  C   UNL     1      20.993  16.924  27.988  1.00  0.00     0.336 A 
ATOM      4  O   UNL     1      21.622  18.009  27.891  1.00  0.00    -0.246 OA
ATOM      5  O   UNL     1      21.486  15.943  28.741  1.00  0.00    -0.423 OA
ATOM      6  C   UNL     1      20.870  14.772  28.885  1.00  0.00     0.142 A 
ATOM      7  C   UNL     1      21.435  13.778  29.689  1.00  0.00     0.098 A 
ATOM      8  C   UNL     1      20.789  12.542  29.842  1.00  0.00     0.161 A 
ATOM      9  C   UNL     1      19.572  12.300  29.190  1.00  0.00     0.158 A 
ATOM     10  C   UNL     1      19.000  13.294  28.382  1.00  0.00     0.062 A 
ATOM     11  C   UNL     1      19.644  14.530  28.227  1.00  0.00     0.022 A 
ENDROOT
BRANCH   9  12
ATOM     12  O   UNL     1      18.937  11.070  29.349  1.00  0.00    -0.504 OA
ATOM     13  H   UNL     1      18.522  10.798  30.231  1.00  0.00     0.293 HD
ENDBRANCH   9  12
BRANCH   8  14
ATOM     14  O   UNL     1      21.352  11.550  30.645  1.00  0.00    -0.504 OA
ATOM     15  H   UNL     1      21.733  10.700  30.247  1.00  0.00     0.293 HD
ENDBRANCH   8  14
TORSDOF 2
ENDMDL
MODEL 5
REMARK VINA RESULT:    -5.464      1.190      4.535
REMARK INTER + INTRA:          -5.784
REMARK INTER:                  -5.784
REMARK INTRA:                   0.000
REMARK UNBOUND:                 0.000
REMARK SMILES O=c1ccc2cc(O)c(O)cc2o1
REMARK SMILES IDX 4 1 3 2 2 3 1 4 13 5 12 6 11 7 9 8 7 9 6 10 5 11 8 12 10 14
REMARK H PARENT 8 13 10 15
REMARK Flexibility Score: inf
ROOT
ATOM      1  C   UNL     1      21.431  15.766  24.618  1.00  0.00     0.019 A 
ATOM      2  C   UNL     1      20.879  14.893  25.555  1.00  0.00     0.094 A 
ATOM      3  C   UNL     1      19.788  15.320  26.320  1.00  0.00     0.336 A 
ATOM      4  O   UNL     1      19.276  14.548  27.170  1.00  0.00    -0.246 OA
ATOM      5  O   UNL     1      19.288  16.542  26.155  1.00  0.00    -0.423 OA
ATOM      6  C   UNL     1      19.785  17.407  25.272  1.00  0.00     0.142 A 
ATOM      7  C   UNL     1      19.218  18.678  25.143  1.00  0.00     0.098 A 
ATOM      8  C   UNL     1      19.737  19.591  24.214  1.00  0.00     0.161 A 
ATOM      9  C   UNL     1      20.830  19.233  23.412  1.00  0.00     0.158 A 
ATOM     10  C   UNL     1      21.404  17.958  23.538  1.00  0.00     0.062 A 
ATOM     11  C   UNL     1      20.885  17.044  24.466  1.00  0.00     0.022 A 
ENDROOT
BRANCH   9  12
ATOM     12  O   UNL     1      21.341  20.146  22.492  1.00  0.00    -0.504 OA
ATOM     13  H   UNL     1      21.123  21.134  22.549  1.00  0.00     0.293 HD
ENDBRANCH   9  12
BRANCH   8  14
ATOM     14  O   UNL     1      19.173  20.860  24.083  1.00  0.00    -0.504 OA
ATOM     15  H   UNL     1      18.523  21.077  23.338  1.00  0.00     0.293 HD
ENDBRANCH   8  14
TORSDOF 2
ENDMDL
MODEL 6
REMARK VINA RESULT:    -5.417      3.348      4.585
REMARK INTER + INTRA:          -5.733
REMARK INTER:                  -5.733
REMARK INTRA:                   0.000
REMARK UNBOUND:                 0.000
REMARK SMILES O=c1ccc2cc(O)c(O)cc2o1
REMARK SMILES IDX 4 1 3 2 2 3 1 4 13 5 12 6 11 7 9 8 7 9 6 10 5 11 8 12 10 14
REMARK H PARENT 8 13 10 15
REMARK Flexibility Score: inf
ROOT
ATOM      1  C   UNL     1      21.486  17.037  28.193  1.00  0.00     0.019 A 
ATOM      2  C   UNL     1      20.915  17.898  27.256  1.00  0.00     0.094 A 
ATOM      3  C   UNL     1      19.797  17.467  26.532  1.00  0.00     0.336 A 
ATOM      4  O   UNL     1      19.268  18.228  25.682  1.00  0.00    -0.246 OA
ATOM      5  O   UNL     1      19.290  16.254  26.736  1.00  0.00    -0.423 OA
ATOM      6  C   UNL     1      19.803  15.401  27.620  1.00  0.00     0.142 A 
ATOM      7  C   UNL     1      19.228  14.139  27.792  1.00  0.00     0.098 A 
ATOM      8  C   UNL     1      19.765  13.239  28.723  1.00  0.00     0.161 A 
ATOM      9  C   UNL     1      20.885  13.601  29.485  1.00  0.00     0.158 A 
ATOM     10  C   UNL     1      21.468  14.866  29.316  1.00  0.00     0.062 A 
ATOM     11  C   UNL     1      20.931  15.768  28.387  1.00  0.00     0.022 A 
ENDROOT
BRANCH   9  12
ATOM     12  O   UNL     1      21.414  12.700  30.407  1.00  0.00    -0.504 OA
ATOM     13  H   UNL     1      21.018  11.776  30.532  1.00  0.00     0.293 HD
ENDBRANCH   9  12
BRANCH   8  14
ATOM     14  O   UNL     1      19.192  11.979  28.895  1.00  0.00    -0.504 OA
ATOM     15  H   UNL     1      19.757  11.164  29.102  1.00  0.00     0.293 HD
ENDBRANCH   8  14
TORSDOF 2
ENDMDL
MODEL 7
REMARK VINA RESULT:    -5.343      3.436      6.417
REMARK INTER + INTRA:          -5.656
REMARK INTER:                  -5.656
REMARK INTRA:                   0.000
REMARK UNBOUND:                 0.000
REMARK SMILES O=c1ccc2cc(O)c(O)cc2o1
REMARK SMILES IDX 4 1 3 2 2 3 1 4 13 5 12 6 11 7 9 8 7 9 6 10 5 11 8 12 10 14
REMARK H PARENT 8 13 10 15
REMARK Flexibility Score: inf
ROOT
ATOM      1  C   UNL     1      19.515  13.371  28.466  1.00  0.00     0.019 A 
ATOM      2  C   UNL     1      20.397  12.821  29.396  1.00  0.00     0.094 A 
ATOM      3  C   UNL     1      21.460  13.601  29.867  1.00  0.00     0.336 A 
ATOM      4  O   UNL     1      22.265  13.123  30.706  1.00  0.00    -0.246 OA
ATOM      5  O   UNL     1      21.624  14.847  29.432  1.00  0.00    -0.423 OA
ATOM      6  C   UNL     1      20.806  15.411  28.545  1.00  0.00     0.142 A 
ATOM      7  C   UNL     1      21.029  16.725  28.124  1.00  0.00     0.098 A 
ATOM      8  C   UNL     1      20.169  17.323  27.191  1.00  0.00     0.161 A 
ATOM      9  C   UNL     1      19.083  16.602  26.675  1.00  0.00     0.158 A 
ATOM     10  C   UNL     1      18.855  15.282  27.093  1.00  0.00     0.062 A 
ATOM     11  C   UNL     1      19.713  14.684  28.026  1.00  0.00     0.022 A 
ENDROOT
BRANCH   9  12
ATOM     12  O   UNL     1      18.234  17.203  25.747  1.00  0.00    -0.504 OA
ATOM     13  H   UNL     1      18.539  17.981  25.175  1.00  0.00     0.293 HD
ENDBRANCH   9  12
BRANCH   8  14
ATOM     14  O   UNL     1      20.390  18.633  26.769  1.00  0.00    -0.504 OA
ATOM     15  H   UNL     1      19.689  19.354  26.890  1.00  0.00     0.293 HD
ENDBRANCH   8  14
TORSDOF 2
ENDMDL
MODEL 8
REMARK VINA RESULT:    -5.195      1.569      2.690
REMARK INTER + INTRA:          -5.499
REMARK INTER:                  -5.499
REMARK INTRA:                   0.000
REMARK UNBOUND:                 0.000
REMARK SMILES O=c1ccc2cc(O)c(O)cc2o1
REMARK SMILES IDX 4 1 3 2 2 3 1 4 13 5 12 6 11 7 9 8 7 9 6 10 5 11 8 12 10 14
REMARK H PARENT 8 13 10 15
REMARK Flexibility Score: inf
ROOT
ATOM      1  C   UNL     1      19.000  18.164  25.236  1.00  0.00     0.019 A 
ATOM      2  C   UNL     1      19.513  19.119  24.359  1.00  0.00     0.094 A 
ATOM      3  C   UNL     1      20.789  18.927  23.818  1.00  0.00     0.336 A 
ATOM      4  O   UNL     1      21.270  19.776  23.025  1.00  0.00    -0.246 OA
ATOM      5  O   UNL     1      21.500  17.849  24.139  1.00  0.00    -0.423 OA
ATOM      6  C   UNL     1      21.049  16.913  24.971  1.00  0.00     0.142 A 
ATOM      7  C   UNL     1      21.841  15.801  25.271  1.00  0.00     0.098 A 
ATOM      8  C   UNL     1      21.368  14.813  26.147  1.00  0.00     0.161 A 
ATOM      9  C   UNL     1      20.098  14.938  26.727  1.00  0.00     0.158 A 
ATOM     10  C   UNL     1      19.299  16.052  26.431  1.00  0.00     0.062 A 
ATOM     11  C   UNL     1      19.769  17.041  25.555  1.00  0.00     0.022 A 
ENDROOT
BRANCH   9  12
ATOM     12  O   UNL     1      19.636  13.952  27.598  1.00  0.00    -0.504 OA
ATOM     13  H   UNL     1      20.087  13.048  27.661  1.00  0.00     0.293 HD
ENDBRANCH   9  12
BRANCH   8  14
ATOM     14  O   UNL     1      22.158  13.703  26.448  1.00  0.00    -0.504 OA
ATOM     15  H   UNL     1      23.150  13.688  26.245  1.00  0.00     0.293 HD
ENDBRANCH   8  14
TORSDOF 2
ENDMDL
MODEL 9
REMARK VINA RESULT:    -4.958      3.544      5.344
REMARK INTER + INTRA:          -5.248
REMARK INTER:                  -5.248
REMARK INTRA:                   0.000
REMARK UNBOUND:                 0.000
REMARK SMILES O=c1ccc2cc(O)c(O)cc2o1
REMARK SMILES IDX 4 1 3 2 2 3 1 4 13 5 12 6 11 7 9 8 7 9 6 10 5 11 8 12 10 14
REMARK H PARENT 8 13 10 15
REMARK Flexibility Score: inf
ROOT
ATOM      1  C   UNL     1      18.942  15.278  27.565  1.00  0.00     0.019 A 
ATOM      2  C   UNL     1      19.098  16.247  26.573  1.00  0.00     0.094 A 
ATOM      3  C   UNL     1      20.375  16.486  26.054  1.00  0.00     0.336 A 
ATOM      4  O   UNL     1      20.536  17.355  25.159  1.00  0.00    -0.246 OA
ATOM      5  O   UNL     1      21.423  15.799  26.501  1.00  0.00    -0.423 OA
ATOM      6  C   UNL     1      21.319  14.866  27.446  1.00  0.00     0.142 A 
ATOM      7  C   UNL     1      22.456  14.177  27.877  1.00  0.00     0.098 A 
ATOM      8  C   UNL     1      22.350  13.193  28.871  1.00  0.00     0.161 A 
ATOM      9  C   UNL     1      21.102  12.900  29.439  1.00  0.00     0.158 A 
ATOM     10  C   UNL     1      19.957  13.589  29.011  1.00  0.00     0.062 A 
ATOM     11  C   UNL     1      20.061  14.572  28.016  1.00  0.00     0.022 A 
ENDROOT
BRANCH   9  12
ATOM     12  O   UNL     1      21.005  11.922  30.427  1.00  0.00    -0.504 OA
ATOM     13  H   UNL     1      21.780  11.715  31.046  1.00  0.00     0.293 HD
ENDBRANCH   9  12
BRANCH   8  14
ATOM     14  O   UNL     1      23.483  12.504  29.303  1.00  0.00    -0.504 OA
ATOM     15  H   UNL     1      23.468  11.504  29.458  1.00  0.00     0.293 HD
ENDBRANCH   8  14
TORSDOF 2
ENDMDL
