MODEL 1
REMARK VINA RESULT:    -4.558      0.000      0.000
REMARK INTER + INTRA:          -7.448
REMARK INTER:                  -6.957
REMARK INTRA:                  -0.491
REMARK UNBOUND:                -0.491
REMARK SMILES O=C([O-])CCCCCCCCC(=O)[O-]
REMARK SMILES IDX 7 1 6 2 5 3 4 4 2 5 1 6 3 7 8 8 9 9 10 10 11 11 12 12 13 13
REMARK SMILES IDX 14 14
REMARK H PARENT
REMARK Flexibility Score: inf
ROOT
ATOM      1  C   UNL     1      31.502  19.418  11.780  1.00  0.00     0.000 C 
ENDROOT
BRANCH   1   2
ATOM      2  C   UNL     1      32.736  20.313  11.580  1.00  0.00     0.000 C 
BRANCH   2   3
ATOM      3  C   UNL     1      33.757  20.097  12.703  1.00  0.00     0.006 C 
BRANCH   3   4
ATOM      4  C   UNL     1      33.155  20.440  14.068  1.00  0.00     0.053 C 
BRANCH   4   5
ATOM      5  C   UNL     1      33.793  21.672  14.629  1.00  0.00     0.041 C 
ATOM      6  O   UNL     1      34.646  21.580  15.550  1.00  0.00    -0.550 OA
ATOM      7  O   UNL     1      33.409  22.924  14.168  1.00  0.00    -0.550 OA
ENDBRANCH   4   5
ENDBRANCH   3   4
ENDBRANCH   2   3
ENDBRANCH   1   2
BRANCH   1   8
ATOM      8  C   UNL     1      31.244  18.487  10.585  1.00  0.00     0.000 C 
BRANCH   8   9
ATOM      9  C   UNL     1      29.749  18.182  10.385  1.00  0.00     0.000 C 
BRANCH   9  10
ATOM     10  C   UNL     1      28.874  18.755  11.511  1.00  0.00     0.006 C 
BRANCH  10  11
ATOM     11  C   UNL     1      27.610  19.447  10.986  1.00  0.00     0.053 C 
BRANCH  11  12
ATOM     12  C   UNL     1      27.587  20.881  11.410  1.00  0.00     0.041 C 
ATOM     13  O   UNL     1      28.644  21.443  11.800  1.00  0.00    -0.550 OA
ATOM     14  O   UNL     1      26.408  21.613  11.331  1.00  0.00    -0.550 OA
ENDBRANCH  11  12
ENDBRANCH  10  11
ENDBRANCH   9  10
ENDBRANCH   8   9
ENDBRANCH   1   8
TORSDOF 9
ENDMDL
MODEL 2
REMARK VINA RESULT:    -4.440      1.352      1.904
REMARK INTER + INTRA:          -7.268
REMARK INTER:                  -6.680
REMARK INTRA:                  -0.587
REMARK UNBOUND:                -0.491
REMARK SMILES O=C([O-])CCCCCCCCC(=O)[O-]
REMARK SMILES IDX 7 1 6 2 5 3 4 4 2 5 1 6 3 7 8 8 9 9 10 10 11 11 12 12 13 13
REMARK SMILES IDX 14 14
REMARK H PARENT
REMARK Flexibility Score: inf
ROOT
ATOM      1  C   UNL     1      31.980  19.009  12.705  1.00  0.00     0.000 C 
ENDROOT
BRANCH   1   2
ATOM      2  C   UNL     1      31.798  20.233  13.616  1.00  0.00     0.000 C 
BRANCH   2   3
ATOM      3  C   UNL     1      32.735  21.372  13.196  1.00  0.00     0.006 C 
BRANCH   3   4
ATOM      4  C   UNL     1      33.056  22.287  14.381  1.00  0.00     0.053 C 
BRANCH   4   5
ATOM      5  C   UNL     1      34.378  21.925  14.981  1.00  0.00     0.041 C 
ATOM      6  O   UNL     1      34.809  22.546  15.988  1.00  0.00    -0.550 OA
ATOM      7  O   UNL     1      35.158  20.936  14.397  1.00  0.00    -0.550 OA
ENDBRANCH   4   5
ENDBRANCH   3   4
ENDBRANCH   2   3
ENDBRANCH   1   2
BRANCH   1   8
ATOM      8  C   UNL     1      32.240  19.393  11.240  1.00  0.00     0.000 C 
BRANCH   8   9
ATOM      9  C   UNL     1      31.736  18.327  10.251  1.00  0.00     0.000 C 
BRANCH   9  10
ATOM     10  C   UNL     1      30.242  18.484   9.925  1.00  0.00     0.006 C 
BRANCH  10  11
ATOM     11  C   UNL     1      29.767  19.941  10.008  1.00  0.00     0.053 C 
BRANCH  11  12
ATOM     12  C   UNL     1      28.781  20.104  11.121  1.00  0.00     0.041 C 
ATOM     13  O   UNL     1      28.167  19.103  11.575  1.00  0.00    -0.550 OA
ATOM     14  O   UNL     1      28.574  21.354  11.690  1.00  0.00    -0.550 OA
ENDBRANCH  11  12
ENDBRANCH  10  11
ENDBRANCH   9  10
ENDBRANCH   8   9
ENDBRANCH   1   8
TORSDOF 9
ENDMDL
MODEL 3
REMARK VINA RESULT:    -4.401      0.728      5.964
REMARK INTER + INTRA:          -7.209
REMARK INTER:                  -6.682
REMARK INTRA:                  -0.527
REMARK UNBOUND:                -0.491
REMARK SMILES O=C([O-])CCCCCCCCC(=O)[O-]
REMARK SMILES IDX 7 1 6 2 5 3 4 4 2 5 1 6 3 7 8 8 9 9 10 10 11 11 12 12 13 13
REMARK SMILES IDX 14 14
REMARK H PARENT
REMARK Flexibility Score: inf
ROOT
ATOM      1  C   UNL     1      31.408  18.556  10.767  1.00  0.00     0.000 C 
ENDROOT
BRANCH   1   2
ATOM      2  C   UNL     1      30.141  18.496   9.899  1.00  0.00     0.000 C 
BRANCH   2   3
ATOM      3  C   UNL     1      28.889  18.779  10.738  1.00  0.00     0.006 C 
BRANCH   3   4
ATOM      4  C   UNL     1      27.928  19.711   9.995  1.00  0.00     0.053 C 
BRANCH   4   5
ATOM      5  C   UNL     1      27.531  20.860  10.868  1.00  0.00     0.041 C 
ATOM      6  O   UNL     1      28.371  21.385  11.646  1.00  0.00    -0.550 OA
ATOM      7  O   UNL     1      26.220  21.318  10.860  1.00  0.00    -0.550 OA
ENDBRANCH   4   5
ENDBRANCH   3   4
ENDBRANCH   2   3
ENDBRANCH   1   2
BRANCH   1   8
ATOM      8  C   UNL     1      31.683  19.965  11.316  1.00  0.00     0.000 C 
BRANCH   8   9
ATOM      9  C   UNL     1      31.447  20.064  12.833  1.00  0.00     0.000 C 
BRANCH   9  10
ATOM     10  C   UNL     1      32.613  19.487  13.652  1.00  0.00     0.006 C 
BRANCH  10  11
ATOM     11  C   UNL     1      33.917  20.275  13.463  1.00  0.00     0.053 C 
BRANCH  11  12
ATOM     12  C   UNL     1      33.954  21.449  14.389  1.00  0.00     0.041 C 
ATOM     13  O   UNL     1      34.608  21.387  15.463  1.00  0.00    -0.550 OA
ATOM     14  O   UNL     1      33.306  22.628  14.044  1.00  0.00    -0.550 OA
ENDBRANCH  11  12
ENDBRANCH  10  11
ENDBRANCH   9  10
ENDBRANCH   8   9
ENDBRANCH   1   8
TORSDOF 9
ENDMDL
MODEL 4
REMARK VINA RESULT:    -4.196      1.902      2.567
REMARK INTER + INTRA:          -6.895
REMARK INTER:                  -6.167
REMARK INTRA:                  -0.728
REMARK UNBOUND:                -0.491
REMARK SMILES O=C([O-])CCCCCCCCC(=O)[O-]
REMARK SMILES IDX 7 1 6 2 5 3 4 4 2 5 1 6 3 7 8 8 9 9 10 10 11 11 12 12 13 13
REMARK SMILES IDX 14 14
REMARK H PARENT
REMARK Flexibility Score: inf
ROOT
ATOM      1  C   UNL     1      30.786  21.687  12.880  1.00  0.00     0.000 C 
ENDROOT
BRANCH   1   2
ATOM      2  C   UNL     1      31.669  20.500  12.465  1.00  0.00     0.000 C 
BRANCH   2   3
ATOM      3  C   UNL     1      32.467  19.966  13.661  1.00  0.00     0.006 C 
BRANCH   3   4
ATOM      4  C   UNL     1      33.910  20.478  13.632  1.00  0.00     0.053 C 
BRANCH   4   5
ATOM      5  C   UNL     1      34.112  21.538  14.668  1.00  0.00     0.041 C 
ATOM      6  O   UNL     1      33.627  22.688  14.501  1.00  0.00    -0.550 OA
ATOM      7  O   UNL     1      34.879  21.272  15.794  1.00  0.00    -0.550 OA
ENDBRANCH   4   5
ENDBRANCH   3   4
ENDBRANCH   2   3
ENDBRANCH   1   2
BRANCH   1   8
ATOM      8  C   UNL     1      30.103  22.366  11.682  1.00  0.00     0.000 C 
BRANCH   8   9
ATOM      9  C   UNL     1      30.296  21.585  10.370  1.00  0.00     0.000 C 
BRANCH   9  10
ATOM     10  C   UNL     1      28.996  20.932   9.875  1.00  0.00     0.006 C 
BRANCH  10  11
ATOM     11  C   UNL     1      28.991  19.408  10.056  1.00  0.00     0.053 C 
BRANCH  11  12
ATOM     12  C   UNL     1      28.368  19.041  11.365  1.00  0.00     0.041 C 
ATOM     13  O   UNL     1      27.224  19.472  11.665  1.00  0.00    -0.550 OA
ATOM     14  O   UNL     1      29.031  18.184  12.236  1.00  0.00    -0.550 OA
ENDBRANCH  11  12
ENDBRANCH  10  11
ENDBRANCH   9  10
ENDBRANCH   8   9
ENDBRANCH   1   8
TORSDOF 9
ENDMDL
MODEL 5
REMARK VINA RESULT:    -4.174      2.442      3.452
REMARK INTER + INTRA:          -6.862
REMARK INTER:                  -5.793
REMARK INTRA:                  -1.068
REMARK UNBOUND:                -0.491
REMARK SMILES O=C([O-])CCCCCCCCC(=O)[O-]
REMARK SMILES IDX 7 1 6 2 5 3 4 4 2 5 1 6 3 7 8 8 9 9 10 10 11 11 12 12 13 13
REMARK SMILES IDX 14 14
REMARK H PARENT
REMARK Flexibility Score: inf
ROOT
ATOM      1  C   UNL     1      30.060  22.017  12.336  1.00  0.00     0.000 C 
ENDROOT
BRANCH   1   2
ATOM      2  C   UNL     1      31.186  22.849  11.701  1.00  0.00     0.000 C 
BRANCH   2   3
ATOM      3  C   UNL     1      32.354  23.026  12.679  1.00  0.00     0.006 C 
BRANCH   3   4
ATOM      4  C   UNL     1      32.149  22.181  13.940  1.00  0.00     0.053 C 
BRANCH   4   5
ATOM      5  C   UNL     1      33.462  21.883  14.592  1.00  0.00     0.041 C 
ATOM      6  O   UNL     1      34.149  20.898  14.214  1.00  0.00    -0.550 OA
ATOM      7  O   UNL     1      33.905  22.665  15.651  1.00  0.00    -0.550 OA
ENDBRANCH   4   5
ENDBRANCH   3   4
ENDBRANCH   2   3
ENDBRANCH   1   2
BRANCH   1   8
ATOM      8  C   UNL     1      29.191  21.301  11.290  1.00  0.00     0.000 C 
BRANCH   8   9
ATOM      9  C   UNL     1      30.013  20.759  10.108  1.00  0.00     0.000 C 
BRANCH   9  10
ATOM     10  C   UNL     1      30.156  19.229  10.141  1.00  0.00     0.006 C 
BRANCH  10  11
ATOM     11  C   UNL     1      31.620  18.769  10.106  1.00  0.00     0.053 C 
BRANCH  11  12
ATOM     12  C   UNL     1      32.360  19.300  11.292  1.00  0.00     0.041 C 
ATOM     13  O   UNL     1      33.373  20.030  11.132  1.00  0.00    -0.550 OA
ATOM     14  O   UNL     1      31.905  19.028  12.577  1.00  0.00    -0.550 OA
ENDBRANCH  11  12
ENDBRANCH  10  11
ENDBRANCH   9  10
ENDBRANCH   8   9
ENDBRANCH   1   8
TORSDOF 9
ENDMDL
MODEL 6
REMARK VINA RESULT:    -4.158     14.021     15.247
REMARK INTER + INTRA:          -6.837
REMARK INTER:                  -5.761
REMARK INTRA:                  -1.076
REMARK UNBOUND:                -0.491
REMARK SMILES O=C([O-])CCCCCCCCC(=O)[O-]
REMARK SMILES IDX 7 1 6 2 5 3 4 4 2 5 1 6 3 7 8 8 9 9 10 10 11 11 12 12 13 13
REMARK SMILES IDX 14 14
REMARK H PARENT
REMARK Flexibility Score: inf
ROOT
ATOM      1  C   UNL     1      30.662   4.079  10.812  1.00  0.00     0.000 C 
ENDROOT
BRANCH   1   2
ATOM      2  C   UNL     1      29.555   3.403  11.636  1.00  0.00     0.000 C 
BRANCH   2   3
ATOM      3  C   UNL     1      29.843   3.518  13.138  1.00  0.00     0.006 C 
BRANCH   3   4
ATOM      4  C   UNL     1      31.312   3.872  13.391  1.00  0.00     0.053 C 
BRANCH   4   5
ATOM      5  C   UNL     1      31.421   4.962  14.410  1.00  0.00     0.041 C 
ATOM      6  O   UNL     1      31.249   6.163  14.075  1.00  0.00    -0.550 OA
ATOM      7  O   UNL     1      31.762   4.655  15.721  1.00  0.00    -0.550 OA
ENDBRANCH   4   5
ENDBRANCH   3   4
ENDBRANCH   2   3
ENDBRANCH   1   2
BRANCH   1   8
ATOM      8  C   UNL     1      30.140   5.252   9.968  1.00  0.00     0.000 C 
BRANCH   8   9
ATOM      9  C   UNL     1      30.321   6.611  10.667  1.00  0.00     0.000 C 
BRANCH   9  10
ATOM     10  C   UNL     1      29.028   7.441  10.688  1.00  0.00     0.006 C 
BRANCH  10  11
ATOM     11  C   UNL     1      28.514   7.704  12.110  1.00  0.00     0.053 C 
BRANCH  11  12
ATOM     12  C   UNL     1      27.692   6.550  12.588  1.00  0.00     0.041 C 
ATOM     13  O   UNL     1      27.027   5.864  11.768  1.00  0.00    -0.550 OA
ATOM     14  O   UNL     1      27.696   6.201  13.933  1.00  0.00    -0.550 OA
ENDBRANCH  11  12
ENDBRANCH  10  11
ENDBRANCH   9  10
ENDBRANCH   8   9
ENDBRANCH   1   8
TORSDOF 9
ENDMDL
MODEL 7
REMARK VINA RESULT:    -4.136     13.908     15.593
REMARK INTER + INTRA:          -6.804
REMARK INTER:                  -5.978
REMARK INTRA:                  -0.826
REMARK UNBOUND:                -0.491
REMARK SMILES O=C([O-])CCCCCCCCC(=O)[O-]
REMARK SMILES IDX 7 1 6 2 5 3 4 4 2 5 1 6 3 7 8 8 9 9 10 10 11 11 12 12 13 13
REMARK SMILES IDX 14 14
REMARK H PARENT
REMARK Flexibility Score: inf
ROOT
ATOM      1  C   UNL     1      27.914   5.916  13.703  1.00  0.00     0.000 C 
ENDROOT
BRANCH   1   2
ATOM      2  C   UNL     1      28.037   7.274  12.995  1.00  0.00     0.000 C 
BRANCH   2   3
ATOM      3  C   UNL     1      27.787   7.132  11.489  1.00  0.00     0.006 C 
BRANCH   3   4
ATOM      4  C   UNL     1      28.923   7.766  10.680  1.00  0.00     0.053 C 
BRANCH   4   5
ATOM      5  C   UNL     1      29.895   6.721  10.233  1.00  0.00     0.041 C 
ATOM      6  O   UNL     1      29.486   5.585   9.876  1.00  0.00    -0.550 OA
ATOM      7  O   UNL     1      31.258   6.985  10.257  1.00  0.00    -0.550 OA
ENDBRANCH   4   5
ENDBRANCH   3   4
ENDBRANCH   2   3
ENDBRANCH   1   2
BRANCH   1   8
ATOM      8  C   UNL     1      28.002   4.730  12.729  1.00  0.00     0.000 C 
BRANCH   8   9
ATOM      9  C   UNL     1      29.014   3.664  13.185  1.00  0.00     0.000 C 
BRANCH   9  10
ATOM     10  C   UNL     1      30.425   3.915  12.630  1.00  0.00     0.006 C 
BRANCH  10  11
ATOM     11  C   UNL     1      31.518   3.761  13.697  1.00  0.00     0.053 C 
BRANCH  11  12
ATOM     12  C   UNL     1      31.516   4.939  14.618  1.00  0.00     0.041 C 
ATOM     13  O   UNL     1      31.612   4.771  15.862  1.00  0.00    -0.550 OA
ATOM     14  O   UNL     1      31.457   6.227  14.100  1.00  0.00    -0.550 OA
ENDBRANCH  11  12
ENDBRANCH  10  11
ENDBRANCH   9  10
ENDBRANCH   8   9
ENDBRANCH   1   8
TORSDOF 9
ENDMDL
MODEL 8
REMARK VINA RESULT:    -4.076     14.096     15.787
REMARK INTER + INTRA:          -6.712
REMARK INTER:                  -5.664
REMARK INTRA:                  -1.048
REMARK UNBOUND:                -0.491
REMARK SMILES O=C([O-])CCCCCCCCC(=O)[O-]
REMARK SMILES IDX 7 1 6 2 5 3 4 4 2 5 1 6 3 7 8 8 9 9 10 10 11 11 12 12 13 13
REMARK SMILES IDX 14 14
REMARK H PARENT
REMARK Flexibility Score: inf
ROOT
ATOM      1  C   UNL     1      30.199   5.161  10.071  1.00  0.00     0.000 C 
ENDROOT
BRANCH   1   2
ATOM      2  C   UNL     1      30.347   6.438  10.912  1.00  0.00     0.000 C 
BRANCH   2   3
ATOM      3  C   UNL     1      29.141   7.365  10.718  1.00  0.00     0.006 C 
BRANCH   3   4
ATOM      4  C   UNL     1      28.465   7.675  12.056  1.00  0.00     0.053 C 
BRANCH   4   5
ATOM      5  C   UNL     1      27.693   6.489  12.542  1.00  0.00     0.041 C 
ATOM      6  O   UNL     1      27.781   6.124  13.744  1.00  0.00    -0.550 OA
ATOM      7  O   UNL     1      26.917   5.754  11.655  1.00  0.00    -0.550 OA
ENDBRANCH   4   5
ENDBRANCH   3   4
ENDBRANCH   2   3
ENDBRANCH   1   2
BRANCH   1   8
ATOM      8  C   UNL     1      30.613   3.894  10.836  1.00  0.00     0.000 C 
BRANCH   8   9
ATOM      9  C   UNL     1      29.520   3.400  11.799  1.00  0.00     0.000 C 
BRANCH   9  10
ATOM     10  C   UNL     1      29.981   3.398  13.265  1.00  0.00     0.006 C 
BRANCH  10  11
ATOM     11  C   UNL     1      31.418   3.910  13.435  1.00  0.00     0.053 C 
BRANCH  11  12
ATOM     12  C   UNL     1      31.478   4.941  14.517  1.00  0.00     0.041 C 
ATOM     13  O   UNL     1      31.103   6.121  14.289  1.00  0.00    -0.550 OA
ATOM     14  O   UNL     1      31.904   4.588  15.792  1.00  0.00    -0.550 OA
ENDBRANCH  11  12
ENDBRANCH  10  11
ENDBRANCH   9  10
ENDBRANCH   8   9
ENDBRANCH   1   8
TORSDOF 9
ENDMDL
MODEL 9
REMARK VINA RESULT:    -4.043      2.540      5.607
REMARK INTER + INTRA:          -6.662
REMARK INTER:                  -5.848
REMARK INTRA:                  -0.814
REMARK UNBOUND:                -0.491
REMARK SMILES O=C([O-])CCCCCCCCC(=O)[O-]
REMARK SMILES IDX 7 1 6 2 5 3 4 4 2 5 1 6 3 7 8 8 9 9 10 10 11 11 12 12 13 13
REMARK SMILES IDX 14 14
REMARK H PARENT
REMARK Flexibility Score: inf
ROOT
ATOM      1  C   UNL     1      28.407  20.901  11.644  1.00  0.00     0.000 C 
ENDROOT
BRANCH   1   2
ATOM      2  C   UNL     1      27.788  19.868  10.689  1.00  0.00     0.000 C 
BRANCH   2   3
ATOM      3  C   UNL     1      28.876  19.150   9.881  1.00  0.00     0.006 C 
BRANCH   3   4
ATOM      4  C   UNL     1      29.785  18.322  10.794  1.00  0.00     0.053 C 
BRANCH   4   5
ATOM      5  C   UNL     1      31.202  18.384  10.320  1.00  0.00     0.041 C 
ATOM      6  O   UNL     1      31.809  19.486  10.278  1.00  0.00    -0.550 OA
ATOM      7  O   UNL     1      31.837  17.232   9.875  1.00  0.00    -0.550 OA
ENDBRANCH   4   5
ENDBRANCH   3   4
ENDBRANCH   2   3
ENDBRANCH   1   2
BRANCH   1   8
ATOM      8  C   UNL     1      29.318  21.905  10.921  1.00  0.00     0.000 C 
BRANCH   8   9
ATOM      9  C   UNL     1      30.284  22.624  11.880  1.00  0.00     0.000 C 
BRANCH   9  10
ATOM     10  C   UNL     1      30.951  21.663  12.876  1.00  0.00     0.006 C 
BRANCH  10  11
ATOM     11  C   UNL     1      32.484  21.738  12.837  1.00  0.00     0.053 C 
BRANCH  11  12
ATOM     12  C   UNL     1      33.080  20.653  13.675  1.00  0.00     0.041 C 
ATOM     13  O   UNL     1      32.568  19.502  13.679  1.00  0.00    -0.550 OA
ATOM     14  O   UNL     1      34.229  20.897  14.417  1.00  0.00    -0.550 OA
ENDBRANCH  11  12
ENDBRANCH  10  11
ENDBRANCH   9  10
ENDBRANCH   8   9
ENDBRANCH   1   8
TORSDOF 9
ENDMDL
