MODEL 1
REMARK VINA RESULT:    -3.665      0.000      0.000
REMARK INTER + INTRA:          -3.665
REMARK INTER:                  -3.665
REMARK INTRA:                   0.000
REMARK UNBOUND:                 0.000
REMARK SMILES CC1=CC=CC(C)(C)[C@H]1C
REMARK SMILES IDX 10 1 9 2 2 3 3 4 4 5 5 6 6 7 7 8 8 9 1 10
REMARK H PARENT
REMARK Flexibility Score: inf
ROOT
ATOM      1  C   UNL     1     136.554 137.538 135.232  1.00  0.00     0.013 C 
ATOM      2  C   UNL     1     136.420 138.970 135.783  1.00  0.00     0.021 C 
ATOM      3  C   UNL     1     137.577 139.801 135.246  1.00  0.00    -0.070 C 
ATOM      4  C   UNL     1     137.446 140.458 134.083  1.00  0.00    -0.001 C 
ATOM      5  C   UNL     1     136.153 140.491 133.375  1.00  0.00    -0.004 C 
ATOM      6  C   UNL     1     135.033 140.075 133.977  1.00  0.00    -0.020 C 
ATOM      7  C   UNL     1     135.045 139.649 135.435  1.00  0.00    -0.011 C 
ATOM      8  C   UNL     1     134.861 140.912 136.308  1.00  0.00     0.016 C 
ATOM      9  C   UNL     1     133.852 138.707 135.704  1.00  0.00     0.016 C 
ATOM     10  C   UNL     1     138.896 139.818 135.965  1.00  0.00     0.040 C 
ENDROOT
TORSDOF 0
ENDMDL
MODEL 2
REMARK VINA RESULT:    -3.664      3.374      5.230
REMARK INTER + INTRA:          -3.664
REMARK INTER:                  -3.664
REMARK INTRA:                   0.000
REMARK UNBOUND:                 0.000
REMARK SMILES CC1=CC=CC(C)(C)[C@H]1C
REMARK SMILES IDX 10 1 9 2 2 3 3 4 4 5 5 6 6 7 7 8 8 9 1 10
REMARK H PARENT
REMARK Flexibility Score: inf
ROOT
ATOM      1  C   UNL     1     135.059 136.820 135.188  1.00  0.00     0.013 C 
ATOM      2  C   UNL     1     133.642 136.617 135.760  1.00  0.00     0.021 C 
ATOM      3  C   UNL     1     132.753 137.741 135.245  1.00  0.00    -0.070 C 
ATOM      4  C   UNL     1     132.085 137.589 134.090  1.00  0.00    -0.001 C 
ATOM      5  C   UNL     1     132.099 136.302 133.372  1.00  0.00    -0.004 C 
ATOM      6  C   UNL     1     132.574 135.197 133.957  1.00  0.00    -0.020 C 
ATOM      7  C   UNL     1     133.021 135.217 135.409  1.00  0.00    -0.011 C 
ATOM      8  C   UNL     1     131.781 134.969 136.299  1.00  0.00     0.016 C 
ATOM      9  C   UNL     1     134.019 134.065 135.654  1.00  0.00     0.016 C 
ATOM     10  C   UNL     1     132.688 139.052 135.975  1.00  0.00     0.040 C 
ENDROOT
TORSDOF 0
ENDMDL
MODEL 3
REMARK VINA RESULT:    -3.662      2.928      4.601
REMARK INTER + INTRA:          -3.662
REMARK INTER:                  -3.662
REMARK INTRA:                   0.000
REMARK UNBOUND:                 0.000
REMARK SMILES CC1=CC=CC(C)(C)[C@H]1C
REMARK SMILES IDX 10 1 9 2 2 3 3 4 4 5 5 6 6 7 7 8 8 9 1 10
REMARK H PARENT
REMARK Flexibility Score: inf
ROOT
ATOM      1  C   UNL     1     140.348 137.666 132.641  1.00  0.00     0.013 C 
ATOM      2  C   UNL     1     139.377 137.205 133.745  1.00  0.00     0.021 C 
ATOM      3  C   UNL     1     140.182 136.490 134.822  1.00  0.00    -0.070 C 
ATOM      4  C   UNL     1     140.692 137.187 135.850  1.00  0.00    -0.001 C 
ATOM      5  C   UNL     1     140.380 138.618 136.021  1.00  0.00    -0.004 C 
ATOM      6  C   UNL     1     139.410 139.197 135.305  1.00  0.00    -0.020 C 
ATOM      7  C   UNL     1     138.538 138.377 134.371  1.00  0.00    -0.011 C 
ATOM      8  C   UNL     1     137.368 137.788 135.193  1.00  0.00     0.016 C 
ATOM      9  C   UNL     1     137.939 139.300 133.287  1.00  0.00     0.016 C 
ATOM     10  C   UNL     1     140.485 135.024 134.695  1.00  0.00     0.040 C 
ENDROOT
TORSDOF 0
ENDMDL
MODEL 4
REMARK VINA RESULT:    -3.657      4.949      7.496
REMARK INTER + INTRA:          -3.657
REMARK INTER:                  -3.657
REMARK INTRA:                   0.000
REMARK UNBOUND:                 0.000
REMARK SMILES CC1=CC=CC(C)(C)[C@H]1C
REMARK SMILES IDX 10 1 9 2 2 3 3 4 4 5 5 6 6 7 7 8 8 9 1 10
REMARK H PARENT
REMARK Flexibility Score: inf
ROOT
ATOM      1  C   UNL     1     136.092 135.099 135.231  1.00  0.00     0.013 C 
ATOM      2  C   UNL     1     136.222 133.665 135.777  1.00  0.00     0.021 C 
ATOM      3  C   UNL     1     135.072 132.836 135.222  1.00  0.00    -0.070 C 
ATOM      4  C   UNL     1     135.218 132.184 134.058  1.00  0.00    -0.001 C 
ATOM      5  C   UNL     1     136.519 132.156 133.365  1.00  0.00    -0.004 C 
ATOM      6  C   UNL     1     137.631 132.571 133.982  1.00  0.00    -0.020 C 
ATOM      7  C   UNL     1     137.601 132.989 135.442  1.00  0.00    -0.011 C 
ATOM      8  C   UNL     1     137.776 131.722 136.311  1.00  0.00     0.016 C 
ATOM      9  C   UNL     1     138.790 133.931 135.729  1.00  0.00     0.016 C 
ATOM     10  C   UNL     1     133.744 132.814 135.925  1.00  0.00     0.040 C 
ENDROOT
TORSDOF 0
ENDMDL
MODEL 5
REMARK VINA RESULT:    -3.651      3.435      5.250
REMARK INTER + INTRA:          -3.651
REMARK INTER:                  -3.651
REMARK INTRA:                   0.000
REMARK UNBOUND:                 0.000
REMARK SMILES CC1=CC=CC(C)(C)[C@H]1C
REMARK SMILES IDX 10 1 9 2 2 3 3 4 4 5 5 6 6 7 7 8 8 9 1 10
REMARK H PARENT
REMARK Flexibility Score: inf
ROOT
ATOM      1  C   UNL     1     137.530 136.115 135.279  1.00  0.00     0.013 C 
ATOM      2  C   UNL     1     138.976 136.240 135.796  1.00  0.00     0.021 C 
ATOM      3  C   UNL     1     139.800 135.113 135.188  1.00  0.00    -0.070 C 
ATOM      4  C   UNL     1     140.423 135.298 134.013  1.00  0.00    -0.001 C 
ATOM      5  C   UNL     1     140.426 136.620 133.360  1.00  0.00    -0.004 C 
ATOM      6  C   UNL     1     140.018 137.710 134.019  1.00  0.00    -0.020 C 
ATOM      7  C   UNL     1     139.634 137.633 135.486  1.00  0.00    -0.011 C 
ATOM      8  C   UNL     1     140.919 137.792 136.331  1.00  0.00     0.016 C 
ATOM      9  C   UNL     1     138.690 138.806 135.831  1.00  0.00     0.016 C 
ATOM     10  C   UNL     1     139.847 133.765 135.850  1.00  0.00     0.040 C 
ENDROOT
TORSDOF 0
ENDMDL
MODEL 6
REMARK VINA RESULT:    -3.625      3.959      6.059
REMARK INTER + INTRA:          -3.625
REMARK INTER:                  -3.625
REMARK INTRA:                   0.000
REMARK UNBOUND:                 0.000
REMARK SMILES CC1=CC=CC(C)(C)[C@H]1C
REMARK SMILES IDX 10 1 9 2 2 3 3 4 4 5 5 6 6 7 7 8 8 9 1 10
REMARK H PARENT
REMARK Flexibility Score: inf
ROOT
ATOM      1  C   UNL     1     131.585 137.164 134.131  1.00  0.00     0.013 C 
ATOM      2  C   UNL     1     132.928 136.513 134.515  1.00  0.00     0.021 C 
ATOM      3  C   UNL     1     133.090 136.610 136.026  1.00  0.00    -0.070 C 
ATOM      4  C   UNL     1     132.625 135.626 136.813  1.00  0.00    -0.001 C 
ATOM      5  C   UNL     1     132.068 134.392 136.230  1.00  0.00    -0.004 C 
ATOM      6  C   UNL     1     132.223 134.118 134.930  1.00  0.00    -0.020 C 
ATOM      7  C   UNL     1     133.059 135.021 134.040  1.00  0.00    -0.011 C 
ATOM      8  C   UNL     1     134.536 134.576 134.151  1.00  0.00     0.016 C 
ATOM      9  C   UNL     1     132.619 134.842 132.571  1.00  0.00     0.016 C 
ATOM     10  C   UNL     1     133.689 137.839 136.648  1.00  0.00     0.040 C 
ENDROOT
TORSDOF 0
ENDMDL
MODEL 7
REMARK VINA RESULT:    -3.618      5.680      7.520
REMARK INTER + INTRA:          -3.618
REMARK INTER:                  -3.618
REMARK INTRA:                   0.000
REMARK UNBOUND:                 0.000
REMARK SMILES CC1=CC=CC(C)(C)[C@H]1C
REMARK SMILES IDX 10 1 9 2 2 3 3 4 4 5 5 6 6 7 7 8 8 9 1 10
REMARK H PARENT
REMARK Flexibility Score: inf
ROOT
ATOM      1  C   UNL     1     135.434 131.743 134.291  1.00  0.00     0.013 C 
ATOM      2  C   UNL     1     136.154 133.053 134.662  1.00  0.00     0.021 C 
ATOM      3  C   UNL     1     136.055 133.243 136.170  1.00  0.00    -0.070 C 
ATOM      4  C   UNL     1     137.006 132.736 136.971  1.00  0.00    -0.001 C 
ATOM      5  C   UNL     1     138.212 132.103 136.407  1.00  0.00    -0.004 C 
ATOM      6  C   UNL     1     138.504 132.223 135.108  1.00  0.00    -0.020 C 
ATOM      7  C   UNL     1     137.656 133.095 134.198  1.00  0.00    -0.011 C 
ATOM      8  C   UNL     1     138.181 134.546 134.292  1.00  0.00     0.016 C 
ATOM      9  C   UNL     1     137.821 132.624 132.737  1.00  0.00     0.016 C 
ATOM     10  C   UNL     1     134.856 133.917 136.773  1.00  0.00     0.040 C 
ENDROOT
TORSDOF 0
ENDMDL
MODEL 8
REMARK VINA RESULT:    -3.577      1.304      3.669
REMARK INTER + INTRA:          -3.577
REMARK INTER:                  -3.577
REMARK INTRA:                   0.000
REMARK UNBOUND:                 0.000
REMARK SMILES CC1=CC=CC(C)(C)[C@H]1C
REMARK SMILES IDX 10 1 9 2 2 3 3 4 4 5 5 6 6 7 7 8 8 9 1 10
REMARK H PARENT
REMARK Flexibility Score: inf
ROOT
ATOM      1  C   UNL     1     135.444 137.302 135.749  1.00  0.00     0.013 C 
ATOM      2  C   UNL     1     134.849 138.259 134.699  1.00  0.00     0.021 C 
ATOM      3  C   UNL     1     133.453 138.662 135.157  1.00  0.00    -0.070 C 
ATOM      4  C   UNL     1     133.291 139.745 135.934  1.00  0.00    -0.001 C 
ATOM      5  C   UNL     1     134.431 140.625 136.251  1.00  0.00    -0.004 C 
ATOM      6  C   UNL     1     135.590 140.508 135.594  1.00  0.00    -0.020 C 
ATOM      7  C   UNL     1     135.733 139.532 134.438  1.00  0.00    -0.011 C 
ATOM      8  C   UNL     1     135.251 140.236 133.149  1.00  0.00     0.016 C 
ATOM      9  C   UNL     1     137.223 139.171 134.255  1.00  0.00     0.016 C 
ATOM     10  C   UNL     1     132.267 137.806 134.818  1.00  0.00     0.040 C 
ENDROOT
TORSDOF 0
ENDMDL
MODEL 9
REMARK VINA RESULT:    -3.549      4.126      6.269
REMARK INTER + INTRA:          -3.549
REMARK INTER:                  -3.549
REMARK INTRA:                   0.000
REMARK UNBOUND:                 0.000
REMARK SMILES CC1=CC=CC(C)(C)[C@H]1C
REMARK SMILES IDX 10 1 9 2 2 3 3 4 4 5 5 6 6 7 7 8 8 9 1 10
REMARK H PARENT
REMARK Flexibility Score: inf
ROOT
ATOM      1  C   UNL     1     135.340 135.429 135.646  1.00  0.00     0.013 C 
ATOM      2  C   UNL     1     134.352 134.886 134.596  1.00  0.00     0.021 C 
ATOM      3  C   UNL     1     133.882 133.510 135.048  1.00  0.00    -0.070 C 
ATOM      4  C   UNL     1     132.794 133.398 135.827  1.00  0.00    -0.001 C 
ATOM      5  C   UNL     1     131.972 134.578 136.152  1.00  0.00    -0.004 C 
ATOM      6  C   UNL     1     132.145 135.733 135.500  1.00  0.00    -0.020 C 
ATOM      7  C   UNL     1     133.123 135.834 134.343  1.00  0.00    -0.011 C 
ATOM      8  C   UNL     1     132.393 135.394 133.053  1.00  0.00     0.016 C 
ATOM      9  C   UNL     1     133.557 137.305 134.166  1.00  0.00     0.016 C 
ATOM     10  C   UNL     1     134.678 132.285 134.701  1.00  0.00     0.040 C 
ENDROOT
TORSDOF 0
ENDMDL
