MODEL 1
REMARK VINA RESULT:    16.171      0.000      0.000
REMARK INTER + INTRA:          23.729
REMARK INTER:                  21.843
REMARK INTRA:                   1.886
REMARK UNBOUND:                 1.886
REMARK SMILES O=c1c(-c2ccc(O)cc2)coc2c([C@@H]3O[C@@H](CO)[C@@H](O)[C@@H](O)[C@@H]3O)c(O)ccc12
REMARK SMILES IDX 3 1 11 2 12 3 13 4 30 5 2 6 1 7 29 8 28 9 26 10 14 11 4 12
REMARK SMILES IDX 5 13 6 14 7 15 10 16 9 17 8 18 15 20 24 21 16 22 22 23 17 24
REMARK SMILES IDX 20 25 25 26 23 28 18 30 19 31 21 33 27 35
REMARK H PARENT 8 19 25 27 23 29 19 32 21 34 27 36
REMARK Flexibility Score: inf
ROOT
ATOM      1  C   UNL     1      42.002  13.091  10.847  1.00  0.00     0.065 A 
ATOM      2  C   UNL     1      40.971  12.305  11.380  1.00  0.00     0.208 A 
ATOM      3  O   UNL     1      41.066  10.981  11.404  1.00  0.00    -0.463 OA
ATOM      4  C   UNL     1      42.120  10.317  10.937  1.00  0.00     0.147 A 
ATOM      5  C   UNL     1      43.206  11.032  10.380  1.00  0.00     0.066 A 
ATOM      6  C   UNL     1      43.143  12.436  10.346  1.00  0.00     0.200 A 
ATOM      7  O   UNL     1      44.109  13.106   9.886  1.00  0.00    -0.288 OA
ATOM      8  C   UNL     1      44.312  10.331   9.875  1.00  0.00     0.020 A 
ATOM      9  C   UNL     1      44.332   8.938   9.907  1.00  0.00     0.047 A 
ATOM     10  C   UNL     1      43.261   8.218  10.450  1.00  0.00     0.125 A 
ATOM     11  C   UNL     1      42.149   8.903  10.997  1.00  0.00     0.069 A 
ENDROOT
BRANCH   1  12
ATOM     12  C   UNL     1      41.871  14.569  10.825  1.00  0.00    -0.011 A 
ATOM     13  C   UNL     1      42.585  15.358  11.745  1.00  0.00     0.013 A 
ATOM     14  C   UNL     1      42.457  16.750  11.733  1.00  0.00     0.047 A 
ATOM     15  C   UNL     1      41.610  17.371  10.806  1.00  0.00     0.115 A 
ATOM     16  C   UNL     1      41.018  15.201   9.902  1.00  0.00     0.013 A 
ATOM     17  C   UNL     1      40.892  16.593   9.893  1.00  0.00     0.047 A 
BRANCH  15  18
ATOM     18  O   UNL     1      41.475  18.757  10.785  1.00  0.00    -0.508 OA
ATOM     19  H   UNL     1      41.085  19.238   9.984  1.00  0.00     0.293 HD
ENDBRANCH  15  18
ENDBRANCH   1  12
BRANCH  11  20
ATOM     20  C   UNL     1      40.959   8.147  11.576  1.00  0.00     0.188 C 
ATOM     21  C   UNL     1      41.249   6.632  11.598  1.00  0.00     0.179 C 
ATOM     22  O   UNL     1      40.650   8.636  12.874  1.00  0.00    -0.362 OA
ATOM     23  C   UNL     1      40.029   5.875  12.144  1.00  0.00     0.177 C 
ATOM     24  C   UNL     1      39.479   8.042  13.421  1.00  0.00     0.176 C 
ATOM     25  C   UNL     1      39.582   6.491  13.483  1.00  0.00     0.177 C 
BRANCH  21  26
ATOM     26  O   UNL     1      42.373   6.369  12.401  1.00  0.00    -0.387 OA
ATOM     27  H   UNL     1      43.172   6.455  11.816  1.00  0.00     0.211 HD
ENDBRANCH  21  26
BRANCH  23  28
ATOM     28  O   UNL     1      38.992   5.913  11.196  1.00  0.00    -0.387 OA
ATOM     29  H   UNL     1      39.080   6.770  10.700  1.00  0.00     0.211 HD
ENDBRANCH  23  28
BRANCH  24  30
ATOM     30  C   UNL     1      38.192   8.591  12.758  1.00  0.00     0.191 C 
BRANCH  30  31
ATOM     31  O   UNL     1      38.485   9.668  11.907  1.00  0.00    -0.394 OA
ATOM     32  H   UNL     1      38.061  10.472  12.308  1.00  0.00     0.210 HD
ENDBRANCH  30  31
ENDBRANCH  24  30
BRANCH  25  33
ATOM     33  O   UNL     1      38.371   5.913  13.899  1.00  0.00    -0.388 OA
ATOM     34  H   UNL     1      37.773   5.897  13.107  1.00  0.00     0.211 HD
ENDBRANCH  25  33
ENDBRANCH  11  20
BRANCH  10  35
ATOM     35  O   UNL     1      43.303   6.824  10.439  1.00  0.00    -0.507 OA
ATOM     36  H   UNL     1      42.785   6.269  11.110  1.00  0.00     0.293 HD
ENDBRANCH  10  35
TORSDOF 9
ENDMDL
MODEL 2
REMARK VINA RESULT:    16.914      1.254      2.238
REMARK INTER + INTRA:          24.733
REMARK INTER:                  23.560
REMARK INTRA:                   1.174
REMARK UNBOUND:                 1.886
REMARK SMILES O=c1c(-c2ccc(O)cc2)coc2c([C@@H]3O[C@@H](CO)[C@@H](O)[C@@H](O)[C@@H]3O)c(O)ccc12
REMARK SMILES IDX 3 1 11 2 12 3 13 4 30 5 2 6 1 7 29 8 28 9 26 10 14 11 4 12
REMARK SMILES IDX 5 13 6 14 7 15 10 16 9 17 8 18 15 20 24 21 16 22 22 23 17 24
REMARK SMILES IDX 20 25 25 26 23 28 18 30 19 31 21 33 27 35
REMARK H PARENT 8 19 25 27 23 29 19 32 21 34 27 36
REMARK Flexibility Score: inf
ROOT
ATOM      1  C   UNL     1      41.990  13.323  10.724  1.00  0.00     0.065 A 
ATOM      2  C   UNL     1      41.162  12.251  11.087  1.00  0.00     0.208 A 
ATOM      3  O   UNL     1      41.612  11.002  11.060  1.00  0.00    -0.463 OA
ATOM      4  C   UNL     1      42.851  10.681  10.696  1.00  0.00     0.147 A 
ATOM      5  C   UNL     1      43.752  11.701  10.312  1.00  0.00     0.066 A 
ATOM      6  C   UNL     1      43.312  13.036  10.337  1.00  0.00     0.200 A 
ATOM      7  O   UNL     1      44.102  13.974  10.033  1.00  0.00    -0.288 OA
ATOM      8  C   UNL     1      45.055  11.362   9.915  1.00  0.00     0.020 A 
ATOM      9  C   UNL     1      45.452  10.027   9.883  1.00  0.00     0.047 A 
ATOM     10  C   UNL     1      44.567   9.008  10.255  1.00  0.00     0.125 A 
ATOM     11  C   UNL     1      43.259   9.326  10.692  1.00  0.00     0.069 A 
ENDROOT
BRANCH   1  12
ATOM     12  C   UNL     1      41.462  14.709  10.756  1.00  0.00    -0.011 A 
ATOM     13  C   UNL     1      40.397  15.082   9.918  1.00  0.00     0.013 A 
ATOM     14  C   UNL     1      39.903  16.390   9.939  1.00  0.00     0.047 A 
ATOM     15  C   UNL     1      40.471  17.343  10.794  1.00  0.00     0.115 A 
ATOM     16  C   UNL     1      42.031  15.674  11.607  1.00  0.00     0.013 A 
ATOM     17  C   UNL     1      41.535  16.981  11.625  1.00  0.00     0.047 A 
BRANCH  15  18
ATOM     18  O   UNL     1      39.988  18.649  10.824  1.00  0.00    -0.508 OA
ATOM     19  H   UNL     1      40.496  19.391  11.289  1.00  0.00     0.293 HD
ENDBRANCH  15  18
ENDBRANCH   1  12
BRANCH  11  20
ATOM     20  C   UNL     1      42.267   8.237  11.082  1.00  0.00     0.188 C 
ATOM     21  C   UNL     1      41.936   8.331  12.587  1.00  0.00     0.179 C 
ATOM     22  O   UNL     1      41.094   8.332  10.285  1.00  0.00    -0.362 OA
ATOM     23  C   UNL     1      40.968   7.204  12.978  1.00  0.00     0.177 C 
ATOM     24  C   UNL     1      40.176   7.274  10.529  1.00  0.00     0.176 C 
ATOM     25  C   UNL     1      39.757   7.194  12.025  1.00  0.00     0.177 C 
BRANCH  21  26
ATOM     26  O   UNL     1      41.358   9.580  12.875  1.00  0.00    -0.387 OA
ATOM     27  H   UNL     1      40.537   9.653  12.320  1.00  0.00     0.211 HD
ENDBRANCH  21  26
BRANCH  23  28
ATOM     28  O   UNL     1      41.646   5.974  12.952  1.00  0.00    -0.387 OA
ATOM     29  H   UNL     1      40.968   5.270  12.776  1.00  0.00     0.211 HD
ENDBRANCH  23  28
BRANCH  24  30
ATOM     30  C   UNL     1      40.656   5.940   9.907  1.00  0.00     0.191 C 
BRANCH  30  31
ATOM     31  O   UNL     1      42.057   5.875   9.877  1.00  0.00    -0.394 OA
ATOM     32  H   UNL     1      42.390   6.792  10.065  1.00  0.00     0.210 HD
ENDBRANCH  30  31
ENDBRANCH  24  30
BRANCH  25  33
ATOM     33  O   UNL     1      38.958   6.066  12.275  1.00  0.00    -0.388 OA
ATOM     34  H   UNL     1      38.054   6.270  11.918  1.00  0.00     0.211 HD
ENDBRANCH  25  33
ENDBRANCH  11  20
BRANCH  10  35
ATOM     35  O   UNL     1      44.990   7.679  10.183  1.00  0.00    -0.507 OA
ATOM     36  H   UNL     1      45.827   7.360  10.655  1.00  0.00     0.293 HD
ENDBRANCH  10  35
TORSDOF 9
ENDMDL
