MODEL 1
REMARK VINA RESULT:    -3.394      0.000      0.000
REMARK INTER + INTRA:          -5.345
REMARK INTER:                  -4.188
REMARK INTRA:                  -1.157
REMARK UNBOUND:                -1.157
REMARK SMILES OC[C@@H]1O[C@H](O[C@@H]2[C@@H](O)[C@@H](O)[C@@H](O[C@H]3[C@H](O)[C@@H](O)[C@H](O)O[C@H]3CO)O[C@H]2CO)[C@H](O)[C@H](O)[C@@H]1O
REMARK SMILES IDX 7 1 26 2 25 3 12 4 10 5 8 6 6 7 5 8 3 9 33 10 4 11 31 12
REMARK SMILES IDX 29 13 2 14 1 15 34 17 32 19 30 21 27 23 28 24 9 26 11 28
REMARK SMILES IDX 13 30 14 31 22 32 15 33 21 34 17 35 19 36 23 37 24 38 16 40
REMARK SMILES IDX 18 42 20 44
REMARK H PARENT 1 16 34 18 32 20 30 22 28 25 9 27 11 29 24 39 16 41 18 43
REMARK H PARENT 20 45
REMARK Flexibility Score: inf
ROOT
ATOM      1  C   UNL     1       9.325  35.987  33.908  1.00  0.00     0.184 C 
ATOM      2  C   UNL     1       9.370  38.176  34.487  1.00  0.00     0.178 C 
ATOM      3  O   UNL     1      11.687  39.074  34.331  1.00  0.00    -0.341 OA
ATOM      4  C   UNL     1      13.412  37.822  34.231  1.00  0.00     0.282 C 
ATOM      5  C   UNL     1      13.684  35.926  34.309  1.00  0.00     0.202 C 
ATOM      6  C   UNL     1      11.346  35.548  33.151  1.00  0.00     0.180 C 
ENDROOT
BRANCH   1   7
ATOM      7  O   UNL     1       9.170  34.689  34.821  1.00  0.00    -0.341 OA
BRANCH   7   8
ATOM      8  C   UNL     1       8.318  33.248  34.181  1.00  0.00     0.282 C 
ATOM      9  C   UNL     1       5.861  33.421  34.819  1.00  0.00     0.178 C 
ATOM     10  C   UNL     1       6.590  31.407  34.389  1.00  0.00     0.177 C 
ATOM     11  O   UNL     1       6.660  33.965  33.783  1.00  0.00    -0.341 OA
ATOM     12  C   UNL     1       7.373  31.683  33.073  1.00  0.00     0.179 C 
ATOM     13  C   UNL     1       8.887  31.859  33.347  1.00  0.00     0.202 C 
BRANCH   9  14
ATOM     14  C   UNL     1       4.375  33.248  35.097  1.00  0.00     0.191 C 
BRANCH  14  15
ATOM     15  O   UNL     1       4.015  32.485  33.948  1.00  0.00    -0.394 OA
ATOM     16  H   UNL     1       3.405  31.745  34.304  1.00  0.00     0.210 HD
ENDBRANCH  14  15
ENDBRANCH   9  14
BRANCH  10  17
ATOM     17  O   UNL     1       5.478  29.927  33.968  1.00  0.00    -0.387 OA
ATOM     18  H   UNL     1       4.485  29.788  34.417  1.00  0.00     0.211 HD
ENDBRANCH  10  17
BRANCH  12  19
ATOM     19  O   UNL     1       6.524  32.440  32.391  1.00  0.00    -0.387 OA
ATOM     20  H   UNL     1       7.311  32.978  32.662  1.00  0.00     0.211 HD
ENDBRANCH  12  19
BRANCH  13  21
ATOM     21  O   UNL     1       8.832  32.867  32.251  1.00  0.00    -0.385 OA
ATOM     22  H   UNL     1       8.027  33.340  32.160  1.00  0.00     0.211 HD
ENDBRANCH  13  21
ENDBRANCH   7   8
ENDBRANCH   1   7
BRANCH   2  23
ATOM     23  C   UNL     1       6.263  38.241  34.616  1.00  0.00     0.191 C 
BRANCH  23  24
ATOM     24  O   UNL     1       5.777  36.933  34.898  1.00  0.00    -0.394 OA
ATOM     25  H   UNL     1       4.829  37.112  35.320  1.00  0.00     0.210 HD
ENDBRANCH  23  24
ENDBRANCH   2  23
BRANCH   6  26
ATOM     26  O   UNL     1      10.773  35.141  31.353  1.00  0.00    -0.387 OA
ATOM     27  H   UNL     1      10.712  34.539  30.121  1.00  0.00     0.211 HD
ENDBRANCH   6  26
BRANCH   5  28
ATOM     28  O   UNL     1      15.946  35.493  35.123  1.00  0.00    -0.385 OA
ATOM     29  H   UNL     1      16.740  35.413  34.311  1.00  0.00     0.211 HD
ENDBRANCH   5  28
BRANCH   4  30
ATOM     30  O   UNL     1      15.341  38.132  33.663  1.00  0.00    -0.341 OA
BRANCH  30  31
ATOM     31  C   UNL     1      15.989  37.527  32.317  1.00  0.00     0.184 C 
ATOM     32  C   UNL     1      17.885  36.550  31.270  1.00  0.00     0.178 C 
ATOM     33  C   UNL     1      17.557  37.821  32.879  1.00  0.00     0.180 C 
ATOM     34  O   UNL     1      18.158  37.620  30.391  1.00  0.00    -0.342 OA
ATOM     35  C   UNL     1      18.023  39.048  32.568  1.00  0.00     0.201 C 
ATOM     36  C   UNL     1      17.385  39.002  30.899  1.00  0.00     0.279 C 
BRANCH  32  37
ATOM     37  C   UNL     1      19.901  35.300  31.630  1.00  0.00     0.191 C 
BRANCH  37  38
ATOM     38  O   UNL     1      20.690  35.508  32.947  1.00  0.00    -0.394 OA
ATOM     39  H   UNL     1      20.318  36.187  34.022  1.00  0.00     0.210 HD
ENDBRANCH  37  38
ENDBRANCH  32  37
BRANCH  33  40
ATOM     40  O   UNL     1      17.804  36.582  33.691  1.00  0.00    -0.387 OA
ATOM     41  H   UNL     1      17.886  35.541  32.929  1.00  0.00     0.211 HD
ENDBRANCH  33  40
BRANCH  35  42
ATOM     42  O   UNL     1      19.575  39.085  32.849  1.00  0.00    -0.385 OA
ATOM     43  H   UNL     1      20.355  39.930  32.853  1.00  0.00     0.211 HD
ENDBRANCH  35  42
BRANCH  36  44
ATOM     44  O   UNL     1      15.762  39.000  30.340  1.00  0.00    -0.366 OA
ATOM     45  H   UNL     1      15.550  40.099  30.230  1.00  0.00     0.213 HD
ENDBRANCH  36  44
ENDBRANCH  30  31
ENDBRANCH   4  30
TORSDOF 18
ENDMDL
