MODEL 1
REMARK VINA RESULT:    -4.293      0.000      0.000
REMARK INTER + INTRA:          -7.205
REMARK INTER:                  -6.552
REMARK INTRA:                  -0.653
REMARK UNBOUND:                -0.653
REMARK SMILES CCCCCCCCCC=CC(=O)[O-]
REMARK SMILES IDX 7 1 8 2 9 3 10 4 11 5 12 6 13 7 14 8 6 9 5 10 4 11 3 12 2 13
REMARK SMILES IDX 1 14
REMARK H PARENT
REMARK Flexibility Score: inf
ROOT
ATOM      1  C   UNL     1      45.945  26.371   5.285  1.00  0.00     0.000 C 
ENDROOT
BRANCH   1   2
ATOM      2  C   UNL     1      46.352  27.829   5.567  1.00  0.00     0.004 C 
BRANCH   2   3
ATOM      3  C   UNL     1      46.815  28.051   7.016  1.00  0.00     0.027 C 
BRANCH   3   4
ATOM      4  C   UNL     1      45.771  28.781   7.816  1.00  0.00    -0.025 C 
ATOM      5  C   UNL     1      45.276  28.396   9.005  1.00  0.00     0.020 C 
BRANCH   5   6
ATOM      6  C   UNL     1      45.631  27.172   9.752  1.00  0.00     0.064 C 
ATOM      7  O   UNL     1      45.198  26.036   9.425  1.00  0.00    -0.545 OA
ATOM      8  O   UNL     1      46.457  27.281  10.864  1.00  0.00    -0.545 OA
ENDBRANCH   5   6
ENDBRANCH   3   4
ENDBRANCH   2   3
ENDBRANCH   1   2
BRANCH   1   9
ATOM      9  C   UNL     1      45.803  26.012   3.795  1.00  0.00     0.000 C 
BRANCH   9  10
ATOM     10  C   UNL     1      46.294  27.130   2.860  1.00  0.00     0.000 C 
BRANCH  10  11
ATOM     11  C   UNL     1      45.208  27.601   1.881  1.00  0.00    -0.000 C 
BRANCH  11  12
ATOM     12  C   UNL     1      43.792  27.208   2.330  1.00  0.00    -0.000 C 
BRANCH  12  13
ATOM     13  C   UNL     1      42.840  28.407   2.250  1.00  0.00    -0.003 C 
ATOM     14  C   UNL     1      41.406  27.996   2.573  1.00  0.00     0.004 C 
ENDBRANCH  12  13
ENDBRANCH  11  12
ENDBRANCH  10  11
ENDBRANCH   9  10
ENDBRANCH   1   9
TORSDOF 9
ENDMDL
MODEL 2
REMARK VINA RESULT:    -4.025      3.623      6.484
REMARK INTER + INTRA:          -6.796
REMARK INTER:                  -5.996
REMARK INTRA:                  -0.801
REMARK UNBOUND:                -0.653
REMARK SMILES CCCCCCCCCC=CC(=O)[O-]
REMARK SMILES IDX 7 1 8 2 9 3 10 4 11 5 12 6 13 7 14 8 6 9 5 10 4 11 3 12 2 13
REMARK SMILES IDX 1 14
REMARK H PARENT
REMARK Flexibility Score: inf
ROOT
ATOM      1  C   UNL     1      46.359  26.752   5.986  1.00  0.00     0.000 C 
ENDROOT
BRANCH   1   2
ATOM      2  C   UNL     1      47.013  25.989   4.820  1.00  0.00     0.004 C 
BRANCH   2   3
ATOM      3  C   UNL     1      46.403  26.346   3.455  1.00  0.00     0.027 C 
BRANCH   3   4
ATOM      4  C   UNL     1      44.900  26.373   3.520  1.00  0.00    -0.025 C 
ATOM      5  C   UNL     1      44.087  27.048   2.689  1.00  0.00     0.020 C 
BRANCH   5   6
ATOM      6  C   UNL     1      44.498  27.920   1.569  1.00  0.00     0.064 C 
ATOM      7  O   UNL     1      44.359  29.170   1.605  1.00  0.00    -0.545 OA
ATOM      8  O   UNL     1      45.040  27.336   0.431  1.00  0.00    -0.545 OA
ENDBRANCH   5   6
ENDBRANCH   3   4
ENDBRANCH   2   3
ENDBRANCH   1   2
BRANCH   1   9
ATOM      9  C   UNL     1      47.011  28.105   6.325  1.00  0.00     0.000 C 
BRANCH   9  10
ATOM     10  C   UNL     1      46.001  29.264   6.359  1.00  0.00     0.000 C 
BRANCH  10  11
ATOM     11  C   UNL     1      45.612  29.666   7.791  1.00  0.00    -0.000 C 
BRANCH  11  12
ATOM     12  C   UNL     1      46.241  28.755   8.856  1.00  0.00    -0.000 C 
BRANCH  12  13
ATOM     13  C   UNL     1      45.175  27.890   9.536  1.00  0.00    -0.003 C 
ATOM     14  C   UNL     1      45.618  26.432   9.621  1.00  0.00     0.004 C 
ENDBRANCH  12  13
ENDBRANCH  11  12
ENDBRANCH  10  11
ENDBRANCH   9  10
ENDBRANCH   1   9
TORSDOF 9
ENDMDL
MODEL 3
REMARK VINA RESULT:    -4.013      3.697      6.688
REMARK INTER + INTRA:          -6.777
REMARK INTER:                  -6.082
REMARK INTRA:                  -0.695
REMARK UNBOUND:                -0.653
REMARK SMILES CCCCCCCCCC=CC(=O)[O-]
REMARK SMILES IDX 7 1 8 2 9 3 10 4 11 5 12 6 13 7 14 8 6 9 5 10 4 11 3 12 2 13
REMARK SMILES IDX 1 14
REMARK H PARENT
REMARK Flexibility Score: inf
ROOT
ATOM      1  C   UNL     1      46.995  27.334   5.914  1.00  0.00     0.000 C 
ENDROOT
BRANCH   1   2
ATOM      2  C   UNL     1      46.275  27.692   4.602  1.00  0.00     0.004 C 
BRANCH   2   3
ATOM      3  C   UNL     1      45.949  26.459   3.744  1.00  0.00     0.027 C 
BRANCH   3   4
ATOM      4  C   UNL     1      44.488  26.413   3.387  1.00  0.00    -0.025 C 
ATOM      5  C   UNL     1      43.906  27.057   2.361  1.00  0.00     0.020 C 
BRANCH   5   6
ATOM      6  C   UNL     1      44.569  27.959   1.396  1.00  0.00     0.064 C 
ATOM      7  O   UNL     1      44.456  29.211   1.461  1.00  0.00    -0.545 OA
ATOM      8  O   UNL     1      45.331  27.405   0.375  1.00  0.00    -0.545 OA
ENDBRANCH   5   6
ENDBRANCH   3   4
ENDBRANCH   2   3
ENDBRANCH   1   2
BRANCH   1   9
ATOM      9  C   UNL     1      46.107  26.672   6.984  1.00  0.00     0.000 C 
BRANCH   9  10
ATOM     10  C   UNL     1      46.919  25.959   8.078  1.00  0.00     0.000 C 
BRANCH  10  11
ATOM     11  C   UNL     1      46.498  26.380   9.495  1.00  0.00    -0.000 C 
BRANCH  11  12
ATOM     12  C   UNL     1      45.242  27.266   9.504  1.00  0.00    -0.000 C 
BRANCH  12  13
ATOM     13  C   UNL     1      45.587  28.701   9.919  1.00  0.00    -0.003 C 
ATOM     14  C   UNL     1      45.064  29.710   8.901  1.00  0.00     0.004 C 
ENDBRANCH  12  13
ENDBRANCH  11  12
ENDBRANCH  10  11
ENDBRANCH   9  10
ENDBRANCH   1   9
TORSDOF 9
ENDMDL
MODEL 4
REMARK VINA RESULT:    -3.972      1.301      1.488
REMARK INTER + INTRA:          -6.714
REMARK INTER:                  -5.965
REMARK INTRA:                  -0.750
REMARK UNBOUND:                -0.653
REMARK SMILES CCCCCCCCCC=CC(=O)[O-]
REMARK SMILES IDX 7 1 8 2 9 3 10 4 11 5 12 6 13 7 14 8 6 9 5 10 4 11 3 12 2 13
REMARK SMILES IDX 1 14
REMARK H PARENT
REMARK Flexibility Score: inf
ROOT
ATOM      1  C   UNL     1      45.623  26.126   5.202  1.00  0.00     0.000 C 
ENDROOT
BRANCH   1   2
ATOM      2  C   UNL     1      46.420  27.312   5.776  1.00  0.00     0.004 C 
BRANCH   2   3
ATOM      3  C   UNL     1      47.066  26.996   7.134  1.00  0.00     0.027 C 
BRANCH   3   4
ATOM      4  C   UNL     1      46.072  26.381   8.082  1.00  0.00    -0.025 C 
ATOM      5  C   UNL     1      45.429  27.020   9.074  1.00  0.00     0.020 C 
BRANCH   5   6
ATOM      6  C   UNL     1      45.584  28.439   9.455  1.00  0.00     0.064 C 
ATOM      7  O   UNL     1      44.992  29.367   8.844  1.00  0.00    -0.545 OA
ATOM      8  O   UNL     1      46.425  28.760  10.513  1.00  0.00    -0.545 OA
ENDBRANCH   5   6
ENDBRANCH   3   4
ENDBRANCH   2   3
ENDBRANCH   1   2
BRANCH   1   9
ATOM      9  C   UNL     1      45.290  26.231   3.703  1.00  0.00     0.000 C 
BRANCH   9  10
ATOM     10  C   UNL     1      45.709  27.578   3.089  1.00  0.00     0.000 C 
BRANCH  10  11
ATOM     11  C   UNL     1      44.533  28.320   2.434  1.00  0.00    -0.000 C 
BRANCH  11  12
ATOM     12  C   UNL     1      43.385  27.380   2.036  1.00  0.00    -0.000 C 
BRANCH  12  13
ATOM     13  C   UNL     1      42.032  27.950   2.477  1.00  0.00    -0.003 C 
ATOM     14  C   UNL     1      42.058  29.475   2.506  1.00  0.00     0.004 C 
ENDBRANCH  12  13
ENDBRANCH  11  12
ENDBRANCH  10  11
ENDBRANCH   9  10
ENDBRANCH   1   9
TORSDOF 9
ENDMDL
MODEL 5
REMARK VINA RESULT:    -3.964      3.274      6.250
REMARK INTER + INTRA:          -6.703
REMARK INTER:                  -5.847
REMARK INTRA:                  -0.856
REMARK UNBOUND:                -0.653
REMARK SMILES CCCCCCCCCC=CC(=O)[O-]
REMARK SMILES IDX 7 1 8 2 9 3 10 4 11 5 12 6 13 7 14 8 6 9 5 10 4 11 3 12 2 13
REMARK SMILES IDX 1 14
REMARK H PARENT
REMARK Flexibility Score: inf
ROOT
ATOM      1  C   UNL     1      46.320  26.835   5.183  1.00  0.00     0.000 C 
ENDROOT
BRANCH   1   2
ATOM      2  C   UNL     1      46.293  28.374   5.180  1.00  0.00     0.004 C 
BRANCH   2   3
ATOM      3  C   UNL     1      46.418  28.971   3.769  1.00  0.00     0.027 C 
BRANCH   3   4
ATOM      4  C   UNL     1      45.089  29.465   3.266  1.00  0.00    -0.025 C 
ATOM      5  C   UNL     1      44.272  28.811   2.424  1.00  0.00     0.020 C 
BRANCH   5   6
ATOM      6  C   UNL     1      44.519  27.494   1.801  1.00  0.00     0.064 C 
ATOM      7  O   UNL     1      45.060  27.377   0.670  1.00  0.00    -0.545 OA
ATOM      8  O   UNL     1      44.126  26.347   2.480  1.00  0.00    -0.545 OA
ENDBRANCH   5   6
ENDBRANCH   3   4
ENDBRANCH   2   3
ENDBRANCH   1   2
BRANCH   1   9
ATOM      9  C   UNL     1      47.125  26.200   6.331  1.00  0.00     0.000 C 
BRANCH   9  10
ATOM     10  C   UNL     1      47.083  27.034   7.623  1.00  0.00     0.000 C 
BRANCH  10  11
ATOM     11  C   UNL     1      46.321  26.329   8.756  1.00  0.00    -0.000 C 
BRANCH  11  12
ATOM     12  C   UNL     1      45.268  27.233   9.416  1.00  0.00    -0.000 C 
BRANCH  12  13
ATOM     13  C   UNL     1      45.247  28.619   8.761  1.00  0.00    -0.003 C 
ATOM     14  C   UNL     1      44.853  29.698   9.765  1.00  0.00     0.004 C 
ENDBRANCH  12  13
ENDBRANCH  11  12
ENDBRANCH  10  11
ENDBRANCH   9  10
ENDBRANCH   1   9
TORSDOF 9
ENDMDL
MODEL 6
REMARK VINA RESULT:    -3.809      1.252      2.047
REMARK INTER + INTRA:          -6.466
REMARK INTER:                  -5.944
REMARK INTRA:                  -0.522
REMARK UNBOUND:                -0.653
REMARK SMILES CCCCCCCCCC=CC(=O)[O-]
REMARK SMILES IDX 7 1 8 2 9 3 10 4 11 5 12 6 13 7 14 8 6 9 5 10 4 11 3 12 2 13
REMARK SMILES IDX 1 14
REMARK H PARENT
REMARK Flexibility Score: inf
ROOT
ATOM      1  C   UNL     1      46.389  28.882   6.080  1.00  0.00     0.000 C 
ENDROOT
BRANCH   1   2
ATOM      2  C   UNL     1      45.730  29.600   7.271  1.00  0.00     0.004 C 
BRANCH   2   3
ATOM      3  C   UNL     1      46.225  29.081   8.630  1.00  0.00     0.027 C 
BRANCH   3   4
ATOM      4  C   UNL     1      45.142  28.327   9.354  1.00  0.00    -0.025 C 
ATOM      5  C   UNL     1      45.165  27.020   9.665  1.00  0.00     0.020 C 
BRANCH   5   6
ATOM      6  C   UNL     1      46.234  26.054   9.339  1.00  0.00     0.064 C 
ATOM      7  O   UNL     1      46.724  25.960   8.183  1.00  0.00    -0.545 OA
ATOM      8  O   UNL     1      46.704  25.212  10.338  1.00  0.00    -0.545 OA
ENDBRANCH   5   6
ENDBRANCH   3   4
ENDBRANCH   2   3
ENDBRANCH   1   2
BRANCH   1   9
ATOM      9  C   UNL     1      45.923  29.359   4.693  1.00  0.00     0.000 C 
BRANCH   9  10
ATOM     10  C   UNL     1      46.265  28.364   3.571  1.00  0.00     0.000 C 
BRANCH  10  11
ATOM     11  C   UNL     1      45.886  26.918   3.929  1.00  0.00    -0.000 C 
BRANCH  11  12
ATOM     12  C   UNL     1      44.539  26.490   3.325  1.00  0.00    -0.000 C 
BRANCH  12  13
ATOM     13  C   UNL     1      44.126  27.428   2.185  1.00  0.00    -0.003 C 
ATOM     14  C   UNL     1      42.650  27.802   2.285  1.00  0.00     0.004 C 
ENDBRANCH  12  13
ENDBRANCH  11  12
ENDBRANCH  10  11
ENDBRANCH   9  10
ENDBRANCH   1   9
TORSDOF 9
ENDMDL
MODEL 7
REMARK VINA RESULT:    -3.792      3.461      6.558
REMARK INTER + INTRA:          -6.440
REMARK INTER:                  -5.855
REMARK INTRA:                  -0.585
REMARK UNBOUND:                -0.653
REMARK SMILES CCCCCCCCCC=CC(=O)[O-]
REMARK SMILES IDX 7 1 8 2 9 3 10 4 11 5 12 6 13 7 14 8 6 9 5 10 4 11 3 12 2 13
REMARK SMILES IDX 1 14
REMARK H PARENT
REMARK Flexibility Score: inf
ROOT
ATOM      1  C   UNL     1      46.355  27.361   5.787  1.00  0.00     0.000 C 
ENDROOT
BRANCH   1   2
ATOM      2  C   UNL     1      46.040  26.793   4.391  1.00  0.00     0.004 C 
BRANCH   2   3
ATOM      3  C   UNL     1      45.204  27.753   3.530  1.00  0.00     0.027 C 
BRANCH   3   4
ATOM      4  C   UNL     1      44.547  27.029   2.386  1.00  0.00    -0.025 C 
ATOM      5  C   UNL     1      43.340  27.307   1.864  1.00  0.00     0.020 C 
BRANCH   5   6
ATOM      6  C   UNL     1      42.403  28.355   2.321  1.00  0.00     0.064 C 
ATOM      7  O   UNL     1      41.241  28.087   2.723  1.00  0.00    -0.545 OA
ATOM      8  O   UNL     1      42.815  29.681   2.290  1.00  0.00    -0.545 OA
ENDBRANCH   5   6
ENDBRANCH   3   4
ENDBRANCH   2   3
ENDBRANCH   1   2
BRANCH   1   9
ATOM      9  C   UNL     1      46.478  28.894   5.853  1.00  0.00     0.000 C 
BRANCH   9  10
ATOM     10  C   UNL     1      45.942  29.482   7.169  1.00  0.00     0.000 C 
BRANCH  10  11
ATOM     11  C   UNL     1      46.357  28.655   8.397  1.00  0.00    -0.000 C 
BRANCH  11  12
ATOM     12  C   UNL     1      45.170  28.304   9.306  1.00  0.00    -0.000 C 
BRANCH  12  13
ATOM     13  C   UNL     1      45.221  26.832   9.731  1.00  0.00    -0.003 C 
ATOM     14  C   UNL     1      46.408  26.115   9.093  1.00  0.00     0.004 C 
ENDBRANCH  12  13
ENDBRANCH  11  12
ENDBRANCH  10  11
ENDBRANCH   9  10
ENDBRANCH   1   9
TORSDOF 9
ENDMDL
MODEL 8
REMARK VINA RESULT:    -3.787      5.697      7.673
REMARK INTER + INTRA:          -6.433
REMARK INTER:                  -5.741
REMARK INTRA:                  -0.691
REMARK UNBOUND:                -0.653
REMARK SMILES CCCCCCCCCC=CC(=O)[O-]
REMARK SMILES IDX 7 1 8 2 9 3 10 4 11 5 12 6 13 7 14 8 6 9 5 10 4 11 3 12 2 13
REMARK SMILES IDX 1 14
REMARK H PARENT
REMARK Flexibility Score: inf
ROOT
ATOM      1  C   UNL     1      45.945  28.997  -2.780  1.00  0.00     0.000 C 
ENDROOT
BRANCH   1   2
ATOM      2  C   UNL     1      46.429  29.526  -1.417  1.00  0.00     0.004 C 
BRANCH   2   3
ATOM      3  C   UNL     1      46.054  28.599  -0.250  1.00  0.00     0.027 C 
BRANCH   3   4
ATOM      4  C   UNL     1      45.251  29.331   0.792  1.00  0.00    -0.025 C 
ATOM      5  C   UNL     1      44.518  28.763   1.764  1.00  0.00     0.020 C 
BRANCH   5   6
ATOM      6  C   UNL     1      44.326  27.316   1.993  1.00  0.00     0.064 C 
ATOM      7  O   UNL     1      44.989  26.679   2.853  1.00  0.00    -0.545 OA
ATOM      8  O   UNL     1      43.394  26.634   1.221  1.00  0.00    -0.545 OA
ENDBRANCH   5   6
ENDBRANCH   3   4
ENDBRANCH   2   3
ENDBRANCH   1   2
BRANCH   1   9
ATOM      9  C   UNL     1      45.966  27.465  -2.928  1.00  0.00     0.000 C 
BRANCH   9  10
ATOM     10  C   UNL     1      45.543  26.994  -4.330  1.00  0.00     0.000 C 
BRANCH  10  11
ATOM     11  C   UNL     1      44.683  28.032  -5.068  1.00  0.00    -0.000 C 
BRANCH  11  12
ATOM     12  C   UNL     1      43.341  27.459  -5.547  1.00  0.00    -0.000 C 
BRANCH  12  13
ATOM     13  C   UNL     1      42.264  28.549  -5.590  1.00  0.00    -0.003 C 
ATOM     14  C   UNL     1      42.785  29.863  -5.014  1.00  0.00     0.004 C 
ENDBRANCH  12  13
ENDBRANCH  11  12
ENDBRANCH  10  11
ENDBRANCH   9  10
ENDBRANCH   1   9
TORSDOF 9
ENDMDL
MODEL 9
REMARK VINA RESULT:    -3.787      7.311     10.147
REMARK INTER + INTRA:          -6.432
REMARK INTER:                  -5.829
REMARK INTRA:                  -0.602
REMARK UNBOUND:                -0.653
REMARK SMILES CCCCCCCCCC=CC(=O)[O-]
REMARK SMILES IDX 7 1 8 2 9 3 10 4 11 5 12 6 13 7 14 8 6 9 5 10 4 11 3 12 2 13
REMARK SMILES IDX 1 14
REMARK H PARENT
REMARK Flexibility Score: inf
ROOT
ATOM      1  C   UNL     1      46.141  28.799  -1.831  1.00  0.00     0.000 C 
ENDROOT
BRANCH   1   2
ATOM      2  C   UNL     1      45.944  27.495  -2.625  1.00  0.00     0.004 C 
BRANCH   2   3
ATOM      3  C   UNL     1      45.606  27.742  -4.104  1.00  0.00     0.027 C 
BRANCH   3   4
ATOM      4  C   UNL     1      45.005  29.106  -4.307  1.00  0.00    -0.025 C 
ATOM      5  C   UNL     1      43.889  29.381  -5.003  1.00  0.00     0.020 C 
BRANCH   5   6
ATOM      6  C   UNL     1      43.044  28.413  -5.732  1.00  0.00     0.064 C 
ATOM      7  O   UNL     1      43.467  27.767  -6.725  1.00  0.00    -0.545 OA
ATOM      8  O   UNL     1      41.732  28.222  -5.315  1.00  0.00    -0.545 OA
ENDBRANCH   5   6
ENDBRANCH   3   4
ENDBRANCH   2   3
ENDBRANCH   1   2
BRANCH   1   9
ATOM      9  C   UNL     1      46.074  28.645  -0.301  1.00  0.00     0.000 C 
BRANCH   9  10
ATOM     10  C   UNL     1      45.334  29.806   0.385  1.00  0.00     0.000 C 
BRANCH  10  11
ATOM     11  C   UNL     1      44.555  29.355   1.631  1.00  0.00    -0.000 C 
BRANCH  11  12
ATOM     12  C   UNL     1      44.713  27.855   1.921  1.00  0.00    -0.000 C 
BRANCH  12  13
ATOM     13  C   UNL     1      43.348  27.160   1.972  1.00  0.00    -0.003 C 
ATOM     14  C   UNL     1      42.249  28.131   2.393  1.00  0.00     0.004 C 
ENDBRANCH  12  13
ENDBRANCH  11  12
ENDBRANCH  10  11
ENDBRANCH   9  10
ENDBRANCH   1   9
TORSDOF 9
ENDMDL
