MODEL 1
REMARK VINA RESULT:    -6.264      0.000      0.000
REMARK INTER + INTRA:          -8.011
REMARK INTER:                  -7.729
REMARK INTRA:                  -0.282
REMARK UNBOUND:                -0.282
REMARK SMILES Oc1cc(O)c2cc(O)c(-c3cc(O)c(O)c(O)c3)[o+]c2c1
REMARK SMILES IDX 10 1 20 2 21 3 22 4 2 5 3 6 4 7 6 8 7 9 8 10 11 11 12 12
REMARK SMILES IDX 13 13 19 14 15 15 17 16 14 17 16 19 18 21 9 23 1 25 5 27
REMARK H PARENT 14 18 16 20 18 22 9 24 1 26 5 28
REMARK Flexibility Score: inf
ROOT
ATOM      1  C   UNL     1     -13.412 -33.355  32.484  1.00  0.00     0.402 A 
ATOM      2  O   UNL     1     -12.339 -33.214  33.258  1.00  0.00    -0.202 OA
ATOM      3  C   UNL     1     -12.292 -32.386  34.297  1.00  0.00     0.368 A 
ATOM      4  C   UNL     1     -11.120 -32.310  35.053  1.00  0.00     0.162 A 
ATOM      5  C   UNL     1     -11.044 -31.450  36.152  1.00  0.00     0.128 A 
ATOM      6  C   UNL     1     -12.145 -30.662  36.496  1.00  0.00     0.093 A 
ATOM      7  C   UNL     1     -13.331 -30.720  35.754  1.00  0.00     0.136 A 
ATOM      8  C   UNL     1     -13.412 -31.590  34.636  1.00  0.00     0.125 A 
ATOM      9  C   UNL     1     -14.556 -31.704  33.827  1.00  0.00     0.078 A 
ATOM     10  C   UNL     1     -14.559 -32.581  32.738  1.00  0.00     0.223 A 
ENDROOT
BRANCH   1  11
ATOM     11  C   UNL     1     -13.345 -34.319  31.362  1.00  0.00     0.091 A 
ATOM     12  C   UNL     1     -13.293 -33.885  30.026  1.00  0.00     0.068 A 
ATOM     13  C   UNL     1     -13.252 -34.813  28.976  1.00  0.00     0.162 A 
ATOM     14  C   UNL     1     -13.391 -35.696  31.631  1.00  0.00     0.068 A 
ATOM     15  C   UNL     1     -13.276 -36.189  29.258  1.00  0.00     0.200 A 
ATOM     16  C   UNL     1     -13.349 -36.628  30.585  1.00  0.00     0.162 A 
BRANCH  13  17
ATOM     17  O   UNL     1     -13.195 -34.373  27.655  1.00  0.00    -0.504 OA
ATOM     18  H   UNL     1     -14.036 -34.217  27.110  1.00  0.00     0.293 HD
ENDBRANCH  13  17
BRANCH  15  19
ATOM     19  O   UNL     1     -13.233 -37.133  28.230  1.00  0.00    -0.502 OA
ATOM     20  H   UNL     1     -13.882 -37.910  28.184  1.00  0.00     0.293 HD
ENDBRANCH  15  19
BRANCH  16  21
ATOM     21  O   UNL     1     -13.381 -37.995  30.860  1.00  0.00    -0.504 OA
ATOM     22  H   UNL     1     -13.823 -38.653  30.230  1.00  0.00     0.293 HD
ENDBRANCH  16  21
ENDBRANCH   1  11
BRANCH  10  23
ATOM     23  O   UNL     1     -15.675 -32.658  31.905  1.00  0.00    -0.500 OA
ATOM     24  H   UNL     1     -15.630 -33.097  30.992  1.00  0.00     0.294 HD
ENDBRANCH  10  23
BRANCH   5  25
ATOM     25  O   UNL     1      -9.879 -31.369  36.911  1.00  0.00    -0.507 OA
ATOM     26  H   UNL     1      -9.337 -30.513  36.961  1.00  0.00     0.293 HD
ENDBRANCH   5  25
BRANCH   7  27
ATOM     27  O   UNL     1     -14.388 -29.902  36.165  1.00  0.00    -0.507 OA
ATOM     28  H   UNL     1     -14.401 -28.897  36.070  1.00  0.00     0.293 HD
ENDBRANCH   7  27
TORSDOF 7
ENDMDL
MODEL 2
REMARK VINA RESULT:    -5.888      1.087      3.174
REMARK INTER + INTRA:          -7.547
REMARK INTER:                  -7.386
REMARK INTRA:                  -0.161
REMARK UNBOUND:                -0.282
REMARK SMILES Oc1cc(O)c2cc(O)c(-c3cc(O)c(O)c(O)c3)[o+]c2c1
REMARK SMILES IDX 10 1 20 2 21 3 22 4 2 5 3 6 4 7 6 8 7 9 8 10 11 11 12 12
REMARK SMILES IDX 13 13 19 14 15 15 17 16 14 17 16 19 18 21 9 23 1 25 5 27
REMARK H PARENT 14 18 16 20 18 22 9 24 1 26 5 28
REMARK Flexibility Score: inf
ROOT
ATOM      1  C   UNL     1     -12.068 -34.025  32.600  1.00  0.00     0.402 A 
ATOM      2  O   UNL     1     -12.938 -33.161  33.116  1.00  0.00    -0.202 OA
ATOM      3  C   UNL     1     -12.655 -32.365  34.142  1.00  0.00     0.368 A 
ATOM      4  C   UNL     1     -13.635 -31.487  34.611  1.00  0.00     0.162 A 
ATOM      5  C   UNL     1     -13.363 -30.637  35.688  1.00  0.00     0.128 A 
ATOM      6  C   UNL     1     -12.106 -30.665  36.296  1.00  0.00     0.093 A 
ATOM      7  C   UNL     1     -11.107 -31.536  35.844  1.00  0.00     0.136 A 
ATOM      8  C   UNL     1     -11.380 -32.403  34.753  1.00  0.00     0.125 A 
ATOM      9  C   UNL     1     -10.443 -33.317  34.241  1.00  0.00     0.078 A 
ATOM     10  C   UNL     1     -10.786 -34.143  33.166  1.00  0.00     0.223 A 
ENDROOT
BRANCH   1  11
ATOM     11  C   UNL     1     -12.500 -34.850  31.448  1.00  0.00     0.091 A 
ATOM     12  C   UNL     1     -12.506 -36.254  31.515  1.00  0.00     0.068 A 
ATOM     13  C   UNL     1     -12.897 -37.019  30.407  1.00  0.00     0.162 A 
ATOM     14  C   UNL     1     -12.856 -34.223  30.244  1.00  0.00     0.068 A 
ATOM     15  C   UNL     1     -13.273 -36.380  29.214  1.00  0.00     0.200 A 
ATOM     16  C   UNL     1     -13.248 -34.983  29.134  1.00  0.00     0.162 A 
BRANCH  13  17
ATOM     17  O   UNL     1     -12.905 -38.411  30.486  1.00  0.00    -0.504 OA
ATOM     18  H   UNL     1     -13.505 -38.902  31.140  1.00  0.00     0.293 HD
ENDBRANCH  13  17
BRANCH  15  19
ATOM     19  O   UNL     1     -13.669 -37.120  28.098  1.00  0.00    -0.502 OA
ATOM     20  H   UNL     1     -14.299 -36.745  27.400  1.00  0.00     0.293 HD
ENDBRANCH  15  19
BRANCH  16  21
ATOM     21  O   UNL     1     -13.614 -34.352  27.945  1.00  0.00    -0.504 OA
ATOM     22  H   UNL     1     -12.928 -34.098  27.245  1.00  0.00     0.293 HD
ENDBRANCH  16  21
ENDBRANCH   1  11
BRANCH  10  23
ATOM     23  O   UNL     1      -9.875 -35.086  32.691  1.00  0.00    -0.500 OA
ATOM     24  H   UNL     1     -10.167 -35.860  32.104  1.00  0.00     0.294 HD
ENDBRANCH  10  23
BRANCH   5  25
ATOM     25  O   UNL     1     -14.335 -29.759  36.161  1.00  0.00    -0.507 OA
ATOM     26  H   UNL     1     -14.983 -30.029  36.892  1.00  0.00     0.293 HD
ENDBRANCH   5  25
BRANCH   7  27
ATOM     27  O   UNL     1      -9.876 -31.501  36.504  1.00  0.00    -0.507 OA
ATOM     28  H   UNL     1      -9.704 -31.000  37.365  1.00  0.00     0.293 HD
ENDBRANCH   7  27
TORSDOF 7
ENDMDL
MODEL 3
REMARK VINA RESULT:    -5.219      3.068      7.927
REMARK INTER + INTRA:          -6.721
REMARK INTER:                  -7.045
REMARK INTRA:                   0.323
REMARK UNBOUND:                -0.282
REMARK SMILES Oc1cc(O)c2cc(O)c(-c3cc(O)c(O)c(O)c3)[o+]c2c1
REMARK SMILES IDX 10 1 20 2 21 3 22 4 2 5 3 6 4 7 6 8 7 9 8 10 11 11 12 12
REMARK SMILES IDX 13 13 19 14 15 15 17 16 14 17 16 19 18 21 9 23 1 25 5 27
REMARK H PARENT 14 18 16 20 18 22 9 24 1 26 5 28
REMARK Flexibility Score: inf
ROOT
ATOM      1  C   UNL     1     -10.304 -33.069  33.807  1.00  0.00     0.402 A 
ATOM      2  O   UNL     1     -10.515 -32.693  32.549  1.00  0.00    -0.202 OA
ATOM      3  C   UNL     1     -10.630 -33.551  31.540  1.00  0.00     0.368 A 
ATOM      4  C   UNL     1     -10.855 -33.059  30.252  1.00  0.00     0.162 A 
ATOM      5  C   UNL     1     -10.983 -33.939  29.173  1.00  0.00     0.128 A 
ATOM      6  C   UNL     1     -10.885 -35.316  29.384  1.00  0.00     0.093 A 
ATOM      7  C   UNL     1     -10.659 -35.834  30.666  1.00  0.00     0.136 A 
ATOM      8  C   UNL     1     -10.527 -34.944  31.763  1.00  0.00     0.125 A 
ATOM      9  C   UNL     1     -10.287 -35.373  33.080  1.00  0.00     0.078 A 
ATOM     10  C   UNL     1     -10.163 -34.436  34.110  1.00  0.00     0.223 A 
ENDROOT
BRANCH   1  11
ATOM     11  C   UNL     1     -10.204 -32.017  34.845  1.00  0.00     0.091 A 
ATOM     12  C   UNL     1     -10.285 -32.329  36.213  1.00  0.00     0.068 A 
ATOM     13  C   UNL     1     -10.211 -31.318  37.181  1.00  0.00     0.162 A 
ATOM     14  C   UNL     1     -10.085 -30.674  34.458  1.00  0.00     0.068 A 
ATOM     15  C   UNL     1     -10.069 -29.978  36.782  1.00  0.00     0.200 A 
ATOM     16  C   UNL     1     -10.010 -29.658  35.420  1.00  0.00     0.162 A 
BRANCH  13  17
ATOM     17  O   UNL     1     -10.286 -31.638  38.535  1.00  0.00    -0.504 OA
ATOM     18  H   UNL     1     -10.762 -31.037  39.198  1.00  0.00     0.293 HD
ENDBRANCH  13  17
BRANCH  15  19
ATOM     19  O   UNL     1      -9.989 -28.953  37.727  1.00  0.00    -0.502 OA
ATOM     20  H   UNL     1     -10.501 -28.985  38.600  1.00  0.00     0.293 HD
ENDBRANCH  15  19
BRANCH  16  21
ATOM     21  O   UNL     1      -9.876 -28.327  35.029  1.00  0.00    -0.504 OA
ATOM     22  H   UNL     1      -9.771 -28.067  34.055  1.00  0.00     0.293 HD
ENDBRANCH  16  21
ENDBRANCH   1  11
BRANCH  10  23
ATOM     23  O   UNL     1      -9.875 -34.857  35.408  1.00  0.00    -0.500 OA
ATOM     24  H   UNL     1      -9.133 -35.521  35.600  1.00  0.00     0.294 HD
ENDBRANCH  10  23
BRANCH   5  25
ATOM     25  O   UNL     1     -11.207 -33.456  27.886  1.00  0.00    -0.507 OA
ATOM     26  H   UNL     1     -10.788 -32.591  27.563  1.00  0.00     0.293 HD
ENDBRANCH   5  25
BRANCH   7  27
ATOM     27  O   UNL     1     -10.577 -37.223  30.792  1.00  0.00    -0.507 OA
ATOM     28  H   UNL     1      -9.758 -37.720  31.113  1.00  0.00     0.293 HD
ENDBRANCH   7  27
TORSDOF 7
ENDMDL
MODEL 4
REMARK VINA RESULT:    -4.909      2.097      7.439
REMARK INTER + INTRA:          -6.339
REMARK INTER:                  -5.959
REMARK INTRA:                  -0.379
REMARK UNBOUND:                -0.282
REMARK SMILES Oc1cc(O)c2cc(O)c(-c3cc(O)c(O)c(O)c3)[o+]c2c1
REMARK SMILES IDX 10 1 20 2 21 3 22 4 2 5 3 6 4 7 6 8 7 9 8 10 11 11 12 12
REMARK SMILES IDX 13 13 19 14 15 15 17 16 14 17 16 19 18 21 9 23 1 25 5 27
REMARK H PARENT 14 18 16 20 18 22 9 24 1 26 5 28
REMARK Flexibility Score: inf
ROOT
ATOM      1  C   UNL     1     -11.910 -32.377  34.328  1.00  0.00     0.402 A 
ATOM      2  O   UNL     1     -11.072 -33.220  33.731  1.00  0.00    -0.202 OA
ATOM      3  C   UNL     1     -11.428 -34.013  32.726  1.00  0.00     0.368 A 
ATOM      4  C   UNL     1     -10.474 -34.863  32.161  1.00  0.00     0.162 A 
ATOM      5  C   UNL     1     -10.820 -35.706  31.101  1.00  0.00     0.128 A 
ATOM      6  C   UNL     1     -12.126 -35.699  30.604  1.00  0.00     0.093 A 
ATOM      7  C   UNL     1     -13.100 -34.855  31.154  1.00  0.00     0.136 A 
ATOM      8  C   UNL     1     -12.754 -34.000  32.232  1.00  0.00     0.125 A 
ATOM      9  C   UNL     1     -13.667 -33.131  32.852  1.00  0.00     0.078 A 
ATOM     10  C   UNL     1     -13.253 -32.321  33.913  1.00  0.00     0.223 A 
ENDROOT
BRANCH   1  11
ATOM     11  C   UNL     1     -11.391 -31.536  35.432  1.00  0.00     0.091 A 
ATOM     12  C   UNL     1     -11.453 -31.963  36.769  1.00  0.00     0.068 A 
ATOM     13  C   UNL     1     -10.977 -31.144  37.803  1.00  0.00     0.162 A 
ATOM     14  C   UNL     1     -10.877 -30.262  35.146  1.00  0.00     0.068 A 
ATOM     15  C   UNL     1     -10.444 -29.879  37.503  1.00  0.00     0.200 A 
ATOM     16  C   UNL     1     -10.398 -29.439  36.174  1.00  0.00     0.162 A 
BRANCH  13  17
ATOM     17  O   UNL     1     -11.038 -31.580  39.125  1.00  0.00    -0.504 OA
ATOM     18  H   UNL     1     -11.896 -31.526  39.663  1.00  0.00     0.293 HD
ENDBRANCH  13  17
BRANCH  15  19
ATOM     19  O   UNL     1      -9.960 -29.047  38.513  1.00  0.00    -0.502 OA
ATOM     20  H   UNL     1     -10.186 -29.197  39.489  1.00  0.00     0.293 HD
ENDBRANCH  15  19
BRANCH  16  21
ATOM     21  O   UNL     1      -9.875 -28.180  35.882  1.00  0.00    -0.504 OA
ATOM     22  H   UNL     1      -9.781 -27.852  34.928  1.00  0.00     0.293 HD
ENDBRANCH  16  21
ENDBRANCH   1  11
BRANCH  10  23
ATOM     23  O   UNL     1     -14.171 -31.496  34.563  1.00  0.00    -0.500 OA
ATOM     24  H   UNL     1     -14.386 -31.610  35.548  1.00  0.00     0.294 HD
ENDBRANCH  10  23
BRANCH   5  25
ATOM     25  O   UNL     1      -9.875 -36.556  30.532  1.00  0.00    -0.507 OA
ATOM     26  H   UNL     1      -8.896 -36.511  30.792  1.00  0.00     0.293 HD
ENDBRANCH   5  25
BRANCH   7  27
ATOM     27  O   UNL     1     -14.382 -34.906  30.598  1.00  0.00    -0.507 OA
ATOM     28  H   UNL     1     -14.640 -34.478  29.719  1.00  0.00     0.293 HD
ENDBRANCH   7  27
TORSDOF 7
ENDMDL
MODEL 5
REMARK VINA RESULT:    -4.447      2.113      7.477
REMARK INTER + INTRA:          -5.769
REMARK INTER:                  -5.571
REMARK INTRA:                  -0.198
REMARK UNBOUND:                -0.282
REMARK SMILES Oc1cc(O)c2cc(O)c(-c3cc(O)c(O)c(O)c3)[o+]c2c1
REMARK SMILES IDX 10 1 20 2 21 3 22 4 2 5 3 6 4 7 6 8 7 9 8 10 11 11 12 12
REMARK SMILES IDX 13 13 19 14 15 15 17 16 14 17 16 19 18 21 9 23 1 25 5 27
REMARK H PARENT 14 18 16 20 18 22 9 24 1 26 5 28
REMARK Flexibility Score: inf
ROOT
ATOM      1  C   UNL     1     -11.214 -33.177  33.518  1.00  0.00     0.402 A 
ATOM      2  O   UNL     1     -11.833 -32.971  32.359  1.00  0.00    -0.202 OA
ATOM      3  C   UNL     1     -11.920 -33.892  31.404  1.00  0.00     0.368 A 
ATOM      4  C   UNL     1     -12.594 -33.581  30.220  1.00  0.00     0.162 A 
ATOM      5  C   UNL     1     -12.703 -34.532  29.201  1.00  0.00     0.128 A 
ATOM      6  C   UNL     1     -12.135 -35.797  29.366  1.00  0.00     0.093 A 
ATOM      7  C   UNL     1     -11.454 -36.132  30.543  1.00  0.00     0.136 A 
ATOM      8  C   UNL     1     -11.339 -35.170  31.579  1.00  0.00     0.125 A 
ATOM      9  C   UNL     1     -10.664 -35.413  32.788  1.00  0.00     0.078 A 
ATOM     10  C   UNL     1     -10.588 -34.414  33.762  1.00  0.00     0.223 A 
ENDROOT
BRANCH   1  11
ATOM     11  C   UNL     1     -11.194 -32.075  34.508  1.00  0.00     0.091 A 
ATOM     12  C   UNL     1     -10.545 -30.859  34.236  1.00  0.00     0.068 A 
ATOM     13  C   UNL     1     -10.517 -29.836  35.193  1.00  0.00     0.162 A 
ATOM     14  C   UNL     1     -11.786 -32.267  35.765  1.00  0.00     0.068 A 
ATOM     15  C   UNL     1     -11.132 -30.030  36.442  1.00  0.00     0.200 A 
ATOM     16  C   UNL     1     -11.763 -31.247  36.727  1.00  0.00     0.162 A 
BRANCH  13  17
ATOM     17  O   UNL     1      -9.875 -28.631  34.912  1.00  0.00    -0.504 OA
ATOM     18  H   UNL     1     -10.382 -27.753  34.883  1.00  0.00     0.293 HD
ENDBRANCH  13  17
BRANCH  15  19
ATOM     19  O   UNL     1     -11.122 -29.025  37.410  1.00  0.00    -0.502 OA
ATOM     20  H   UNL     1     -11.684 -28.187  37.324  1.00  0.00     0.293 HD
ENDBRANCH  15  19
BRANCH  16  21
ATOM     21  O   UNL     1     -12.365 -31.438  37.969  1.00  0.00    -0.504 OA
ATOM     22  H   UNL     1     -12.052 -32.161  38.607  1.00  0.00     0.293 HD
ENDBRANCH  16  21
ENDBRANCH   1  11
BRANCH  10  23
ATOM     23  O   UNL     1      -9.875 -34.637  34.940  1.00  0.00    -0.500 OA
ATOM     24  H   UNL     1      -9.216 -35.403  35.027  1.00  0.00     0.294 HD
ENDBRANCH  10  23
BRANCH   5  25
ATOM     25  O   UNL     1     -13.374 -34.230  28.018  1.00  0.00    -0.507 OA
ATOM     26  H   UNL     1     -14.336 -33.912  28.020  1.00  0.00     0.293 HD
ENDBRANCH   5  25
BRANCH   7  27
ATOM     27  O   UNL     1     -10.917 -37.420  30.631  1.00  0.00    -0.507 OA
ATOM     28  H   UNL     1     -11.361 -38.191  31.110  1.00  0.00     0.293 HD
ENDBRANCH   7  27
TORSDOF 7
ENDMDL
MODEL 6
REMARK VINA RESULT:    -4.348      1.567      7.333
REMARK INTER + INTRA:          -5.647
REMARK INTER:                  -5.605
REMARK INTRA:                  -0.041
REMARK UNBOUND:                -0.282
REMARK SMILES Oc1cc(O)c2cc(O)c(-c3cc(O)c(O)c(O)c3)[o+]c2c1
REMARK SMILES IDX 10 1 20 2 21 3 22 4 2 5 3 6 4 7 6 8 7 9 8 10 11 11 12 12
REMARK SMILES IDX 13 13 19 14 15 15 17 16 14 17 16 19 18 21 9 23 1 25 5 27
REMARK H PARENT 14 18 16 20 18 22 9 24 1 26 5 28
REMARK Flexibility Score: inf
ROOT
ATOM      1  C   UNL     1     -12.675 -33.723  31.872  1.00  0.00     0.402 A 
ATOM      2  O   UNL     1     -13.091 -33.027  30.818  1.00  0.00    -0.202 OA
ATOM      3  C   UNL     1     -13.334 -33.574  29.631  1.00  0.00     0.368 A 
ATOM      4  C   UNL     1     -13.772 -32.759  28.584  1.00  0.00     0.162 A 
ATOM      5  C   UNL     1     -14.037 -33.308  27.326  1.00  0.00     0.128 A 
ATOM      6  C   UNL     1     -13.863 -34.678  27.115  1.00  0.00     0.093 A 
ATOM      7  C   UNL     1     -13.425 -35.516  28.148  1.00  0.00     0.136 A 
ATOM      8  C   UNL     1     -13.152 -34.962  29.426  1.00  0.00     0.125 A 
ATOM      9  C   UNL     1     -12.697 -35.723  30.516  1.00  0.00     0.078 A 
ATOM     10  C   UNL     1     -12.445 -35.106  31.745  1.00  0.00     0.223 A 
ENDROOT
BRANCH   1  11
ATOM     11  C   UNL     1     -12.449 -33.001  33.145  1.00  0.00     0.091 A 
ATOM     12  C   UNL     1     -11.254 -33.148  33.868  1.00  0.00     0.068 A 
ATOM     13  C   UNL     1     -11.067 -32.474  35.083  1.00  0.00     0.162 A 
ATOM     14  C   UNL     1     -13.471 -32.196  33.672  1.00  0.00     0.068 A 
ATOM     15  C   UNL     1     -12.088 -31.652  35.590  1.00  0.00     0.200 A 
ATOM     16  C   UNL     1     -13.290 -31.518  34.885  1.00  0.00     0.162 A 
BRANCH  13  17
ATOM     17  O   UNL     1      -9.876 -32.622  35.790  1.00  0.00    -0.504 OA
ATOM     18  H   UNL     1      -9.189 -33.323  35.534  1.00  0.00     0.293 HD
ENDBRANCH  13  17
BRANCH  15  19
ATOM     19  O   UNL     1     -11.925 -30.967  36.795  1.00  0.00    -0.502 OA
ATOM     20  H   UNL     1     -12.714 -30.657  37.350  1.00  0.00     0.293 HD
ENDBRANCH  15  19
BRANCH  16  21
ATOM     21  O   UNL     1     -14.304 -30.708  35.396  1.00  0.00    -0.504 OA
ATOM     22  H   UNL     1     -14.164 -30.141  36.224  1.00  0.00     0.293 HD
ENDBRANCH  16  21
ENDBRANCH   1  11
BRANCH  10  23
ATOM     23  O   UNL     1     -11.945 -35.851  32.813  1.00  0.00    -0.500 OA
ATOM     24  H   UNL     1     -12.552 -36.212  33.541  1.00  0.00     0.294 HD
ENDBRANCH  10  23
BRANCH   5  25
ATOM     25  O   UNL     1     -14.474 -32.503  26.278  1.00  0.00    -0.507 OA
ATOM     26  H   UNL     1     -14.123 -31.561  26.151  1.00  0.00     0.293 HD
ENDBRANCH   5  25
BRANCH   7  27
ATOM     27  O   UNL     1     -13.279 -36.875  27.856  1.00  0.00    -0.507 OA
ATOM     28  H   UNL     1     -12.452 -37.285  27.446  1.00  0.00     0.293 HD
ENDBRANCH   7  27
TORSDOF 7
ENDMDL
MODEL 7
REMARK VINA RESULT:    -4.245      1.619      7.331
REMARK INTER + INTRA:          -5.519
REMARK INTER:                  -5.198
REMARK INTRA:                  -0.321
REMARK UNBOUND:                -0.282
REMARK SMILES Oc1cc(O)c2cc(O)c(-c3cc(O)c(O)c(O)c3)[o+]c2c1
REMARK SMILES IDX 10 1 20 2 21 3 22 4 2 5 3 6 4 7 6 8 7 9 8 10 11 11 12 12
REMARK SMILES IDX 13 13 19 14 15 15 17 16 14 17 16 19 18 21 9 23 1 25 5 27
REMARK H PARENT 14 18 16 20 18 22 9 24 1 26 5 28
REMARK Flexibility Score: inf
ROOT
ATOM      1  C   UNL     1     -11.621 -33.143  33.094  1.00  0.00     0.402 A 
ATOM      2  O   UNL     1     -12.433 -34.168  32.848  1.00  0.00    -0.202 OA
ATOM      3  C   UNL     1     -12.404 -34.868  31.719  1.00  0.00     0.368 A 
ATOM      4  C   UNL     1     -13.295 -35.931  31.555  1.00  0.00     0.162 A 
ATOM      5  C   UNL     1     -13.284 -36.686  30.379  1.00  0.00     0.128 A 
ATOM      6  C   UNL     1     -12.378 -36.377  29.363  1.00  0.00     0.093 A 
ATOM      7  C   UNL     1     -11.474 -35.316  29.503  1.00  0.00     0.136 A 
ATOM      8  C   UNL     1     -11.483 -34.545  30.694  1.00  0.00     0.125 A 
ATOM      9  C   UNL     1     -10.623 -33.457  30.917  1.00  0.00     0.078 A 
ATOM     10  C   UNL     1     -10.693 -32.741  32.115  1.00  0.00     0.223 A 
ENDROOT
BRANCH   1  11
ATOM     11  C   UNL     1     -11.744 -32.448  34.396  1.00  0.00     0.091 A 
ATOM     12  C   UNL     1     -12.793 -31.548  34.648  1.00  0.00     0.068 A 
ATOM     13  C   UNL     1     -12.881 -30.881  35.879  1.00  0.00     0.162 A 
ATOM     14  C   UNL     1     -10.763 -32.646  35.379  1.00  0.00     0.068 A 
ATOM     15  C   UNL     1     -11.905 -31.104  36.865  1.00  0.00     0.200 A 
ATOM     16  C   UNL     1     -10.845 -31.984  36.612  1.00  0.00     0.162 A 
BRANCH  13  17
ATOM     17  O   UNL     1     -13.928 -29.995  36.122  1.00  0.00    -0.504 OA
ATOM     18  H   UNL     1     -14.206 -29.300  35.438  1.00  0.00     0.293 HD
ENDBRANCH  13  17
BRANCH  15  19
ATOM     19  O   UNL     1     -11.972 -30.456  38.100  1.00  0.00    -0.502 OA
ATOM     20  H   UNL     1     -11.721 -30.919  38.965  1.00  0.00     0.293 HD
ENDBRANCH  15  19
BRANCH  16  21
ATOM     21  O   UNL     1      -9.875 -32.196  37.590  1.00  0.00    -0.504 OA
ATOM     22  H   UNL     1      -9.827 -33.064  38.111  1.00  0.00     0.293 HD
ENDBRANCH  16  21
ENDBRANCH   1  11
BRANCH  10  23
ATOM     23  O   UNL     1      -9.875 -31.629  32.316  1.00  0.00    -0.500 OA
ATOM     24  H   UNL     1     -10.232 -30.684  32.237  1.00  0.00     0.294 HD
ENDBRANCH  10  23
BRANCH   5  25
ATOM     25  O   UNL     1     -14.170 -37.747  30.208  1.00  0.00    -0.507 OA
ATOM     26  H   UNL     1     -15.171 -37.598  30.145  1.00  0.00     0.293 HD
ENDBRANCH   5  25
BRANCH   7  27
ATOM     27  O   UNL     1     -10.597 -35.074  28.441  1.00  0.00    -0.507 OA
ATOM     28  H   UNL     1     -10.268 -35.781  27.800  1.00  0.00     0.293 HD
ENDBRANCH   7  27
TORSDOF 7
ENDMDL
MODEL 8
REMARK VINA RESULT:    -4.202      1.551      7.280
REMARK INTER + INTRA:          -5.466
REMARK INTER:                  -5.402
REMARK INTRA:                  -0.065
REMARK UNBOUND:                -0.282
REMARK SMILES Oc1cc(O)c2cc(O)c(-c3cc(O)c(O)c(O)c3)[o+]c2c1
REMARK SMILES IDX 10 1 20 2 21 3 22 4 2 5 3 6 4 7 6 8 7 9 8 10 11 11 12 12
REMARK SMILES IDX 13 13 19 14 15 15 17 16 14 17 16 19 18 21 9 23 1 25 5 27
REMARK H PARENT 14 18 16 20 18 22 9 24 1 26 5 28
REMARK Flexibility Score: inf
ROOT
ATOM      1  C   UNL     1     -12.737 -33.797  31.867  1.00  0.00     0.402 A 
ATOM      2  O   UNL     1     -13.143 -33.116  30.798  1.00  0.00    -0.202 OA
ATOM      3  C   UNL     1     -13.356 -33.678  29.613  1.00  0.00     0.368 A 
ATOM      4  C   UNL     1     -13.786 -32.880  28.550  1.00  0.00     0.162 A 
ATOM      5  C   UNL     1     -14.019 -33.445  27.293  1.00  0.00     0.128 A 
ATOM      6  C   UNL     1     -13.822 -34.814  27.098  1.00  0.00     0.093 A 
ATOM      7  C   UNL     1     -13.392 -35.635  28.148  1.00  0.00     0.136 A 
ATOM      8  C   UNL     1     -13.151 -35.065  29.425  1.00  0.00     0.125 A 
ATOM      9  C   UNL     1     -12.706 -35.810  30.531  1.00  0.00     0.078 A 
ATOM     10  C   UNL     1     -12.485 -35.177  31.758  1.00  0.00     0.223 A 
ENDROOT
BRANCH   1  11
ATOM     11  C   UNL     1     -12.545 -33.059  33.137  1.00  0.00     0.091 A 
ATOM     12  C   UNL     1     -13.554 -32.234  33.663  1.00  0.00     0.068 A 
ATOM     13  C   UNL     1     -13.346 -31.526  34.855  1.00  0.00     0.162 A 
ATOM     14  C   UNL     1     -11.312 -33.138  33.801  1.00  0.00     0.068 A 
ATOM     15  C   UNL     1     -12.114 -31.630  35.524  1.00  0.00     0.200 A 
ATOM     16  C   UNL     1     -11.098 -32.433  34.993  1.00  0.00     0.162 A 
BRANCH  13  17
ATOM     17  O   UNL     1     -14.354 -30.715  35.372  1.00  0.00    -0.504 OA
ATOM     18  H   UNL     1     -14.184 -30.083  36.147  1.00  0.00     0.293 HD
ENDBRANCH  13  17
BRANCH  15  19
ATOM     19  O   UNL     1     -11.884 -30.937  36.714  1.00  0.00    -0.502 OA
ATOM     20  H   UNL     1     -11.285 -30.122  36.756  1.00  0.00     0.293 HD
ENDBRANCH  15  19
BRANCH  16  21
ATOM     21  O   UNL     1      -9.875 -32.528  35.657  1.00  0.00    -0.504 OA
ATOM     22  H   UNL     1      -9.795 -32.351  36.651  1.00  0.00     0.293 HD
ENDBRANCH  16  21
ENDBRANCH   1  11
BRANCH  10  23
ATOM     23  O   UNL     1     -11.995 -35.905  32.842  1.00  0.00    -0.500 OA
ATOM     24  H   UNL     1     -12.084 -36.914  32.890  1.00  0.00     0.294 HD
ENDBRANCH  10  23
BRANCH   5  25
ATOM     25  O   UNL     1     -14.448 -32.655  26.228  1.00  0.00    -0.507 OA
ATOM     26  H   UNL     1     -13.918 -31.849  25.919  1.00  0.00     0.293 HD
ENDBRANCH   5  25
BRANCH   7  27
ATOM     27  O   UNL     1     -13.221 -36.995  27.872  1.00  0.00    -0.507 OA
ATOM     28  H   UNL     1     -13.912 -37.707  28.064  1.00  0.00     0.293 HD
ENDBRANCH   7  27
TORSDOF 7
ENDMDL
MODEL 9
REMARK VINA RESULT:    -3.970      2.761      4.089
REMARK INTER + INTRA:          -5.180
REMARK INTER:                  -5.048
REMARK INTRA:                  -0.132
REMARK UNBOUND:                -0.282
REMARK SMILES Oc1cc(O)c2cc(O)c(-c3cc(O)c(O)c(O)c3)[o+]c2c1
REMARK SMILES IDX 10 1 20 2 21 3 22 4 2 5 3 6 4 7 6 8 7 9 8 10 11 11 12 12
REMARK SMILES IDX 13 13 19 14 15 15 17 16 14 17 16 19 18 21 9 23 1 25 5 27
REMARK H PARENT 14 18 16 20 18 22 9 24 1 26 5 28
REMARK Flexibility Score: inf
ROOT
ATOM      1  C   UNL     1     -11.611 -34.387  30.618  1.00  0.00     0.402 A 
ATOM      2  O   UNL     1     -11.344 -33.287  31.317  1.00  0.00    -0.202 OA
ATOM      3  C   UNL     1     -10.879 -33.307  32.562  1.00  0.00     0.368 A 
ATOM      4  C   UNL     1     -10.626 -32.097  33.212  1.00  0.00     0.162 A 
ATOM      5  C   UNL     1     -10.135 -32.089  34.521  1.00  0.00     0.128 A 
ATOM      6  C   UNL     1      -9.897 -33.297  35.182  1.00  0.00     0.093 A 
ATOM      7  C   UNL     1     -10.143 -34.523  34.551  1.00  0.00     0.136 A 
ATOM      8  C   UNL     1     -10.644 -34.535  33.224  1.00  0.00     0.125 A 
ATOM      9  C   UNL     1     -10.932 -35.716  32.518  1.00  0.00     0.078 A 
ATOM     10  C   UNL     1     -11.428 -35.649  31.213  1.00  0.00     0.223 A 
ENDROOT
BRANCH   1  11
ATOM     11  C   UNL     1     -12.114 -34.234  29.234  1.00  0.00     0.091 A 
ATOM     12  C   UNL     1     -11.495 -34.884  28.154  1.00  0.00     0.068 A 
ATOM     13  C   UNL     1     -11.972 -34.709  26.847  1.00  0.00     0.162 A 
ATOM     14  C   UNL     1     -13.198 -33.377  28.985  1.00  0.00     0.068 A 
ATOM     15  C   UNL     1     -13.071 -33.866  26.611  1.00  0.00     0.200 A 
ATOM     16  C   UNL     1     -13.680 -33.199  27.681  1.00  0.00     0.162 A 
BRANCH  13  17
ATOM     17  O   UNL     1     -11.354 -35.362  25.783  1.00  0.00    -0.504 OA
ATOM     18  H   UNL     1     -11.790 -36.152  25.318  1.00  0.00     0.293 HD
ENDBRANCH  13  17
BRANCH  15  19
ATOM     19  O   UNL     1     -13.568 -33.678  25.320  1.00  0.00    -0.502 OA
ATOM     20  H   UNL     1     -13.303 -34.279  24.549  1.00  0.00     0.293 HD
ENDBRANCH  15  19
BRANCH  16  21
ATOM     21  O   UNL     1     -14.766 -32.358  27.442  1.00  0.00    -0.504 OA
ATOM     22  H   UNL     1     -14.959 -31.988  26.519  1.00  0.00     0.293 HD
ENDBRANCH  16  21
ENDBRANCH   1  11
BRANCH  10  23
ATOM     23  O   UNL     1     -11.762 -36.819  30.530  1.00  0.00    -0.500 OA
ATOM     24  H   UNL     1     -11.052 -37.457  30.187  1.00  0.00     0.294 HD
ENDBRANCH  10  23
BRANCH   5  25
ATOM     25  O   UNL     1      -9.879 -30.887  35.176  1.00  0.00    -0.507 OA
ATOM     26  H   UNL     1      -9.702 -30.854  36.174  1.00  0.00     0.293 HD
ENDBRANCH   5  25
BRANCH   7  27
ATOM     27  O   UNL     1      -9.876 -35.686  35.279  1.00  0.00    -0.507 OA
ATOM     28  H   UNL     1      -9.115 -36.320  35.082  1.00  0.00     0.293 HD
ENDBRANCH   7  27
TORSDOF 7
ENDMDL
