MODEL 1
REMARK VINA RESULT:    -4.991      0.000      0.000
REMARK INTER + INTRA:          -6.333
REMARK INTER:                  -6.012
REMARK INTRA:                  -0.321
REMARK UNBOUND:                -0.321
REMARK SMILES O=c1c(O)c(-c2ccc(O)c(O)c2)oc2cc(O)cc(O)c12
REMARK SMILES IDX 5 1 3 2 2 3 1 4 22 5 20 6 19 7 17 8 16 9 15 10 14 11 6 12
REMARK SMILES IDX 7 13 8 14 9 15 13 16 11 17 10 18 12 20 4 22 21 24 18 26
REMARK H PARENT 10 19 12 21 4 23 21 25 18 27
REMARK Flexibility Score: inf
ROOT
ATOM      1  C   UNL     1     -15.191  15.416  11.276  1.00  0.00     0.180 A 
ATOM      2  C   UNL     1     -16.278  16.136  10.748  1.00  0.00     0.208 A 
ATOM      3  C   UNL     1     -16.385  16.281   9.356  1.00  0.00     0.238 A 
ATOM      4  O   UNL     1     -17.398  16.862   8.887  1.00  0.00    -0.285 OA
ATOM      5  C   UNL     1     -15.377  15.756   8.511  1.00  0.00     0.111 A 
ATOM      6  C   UNL     1     -15.360  15.883   7.089  1.00  0.00     0.134 A 
ATOM      7  C   UNL     1     -14.366  15.231   6.349  1.00  0.00     0.093 A 
ATOM      8  C   UNL     1     -13.354  14.508   6.983  1.00  0.00     0.123 A 
ATOM      9  C   UNL     1     -13.330  14.424   8.372  1.00  0.00     0.094 A 
ATOM     10  C   UNL     1     -14.328  15.031   9.137  1.00  0.00     0.146 A 
ATOM     11  O   UNL     1     -14.278  14.907  10.457  1.00  0.00    -0.452 OA
ENDROOT
BRANCH   1  12
ATOM     12  C   UNL     1     -15.017  15.207  12.731  1.00  0.00     0.025 A 
ATOM     13  C   UNL     1     -15.647  14.116  13.351  1.00  0.00     0.016 A 
ATOM     14  C   UNL     1     -15.514  13.911  14.727  1.00  0.00     0.051 A 
ATOM     15  C   UNL     1     -14.763  14.801  15.506  1.00  0.00     0.157 A 
ATOM     16  C   UNL     1     -14.281  16.110  13.519  1.00  0.00     0.062 A 
ATOM     17  C   UNL     1     -14.148  15.908  14.898  1.00  0.00     0.158 A 
BRANCH  15  18
ATOM     18  O   UNL     1     -14.629  14.592  16.878  1.00  0.00    -0.504 OA
ATOM     19  H   UNL     1     -14.301  15.325  17.496  1.00  0.00     0.293 HD
ENDBRANCH  15  18
BRANCH  17  20
ATOM     20  O   UNL     1     -13.406  16.821  15.647  1.00  0.00    -0.504 OA
ATOM     21  H   UNL     1     -12.400  16.749  15.742  1.00  0.00     0.293 HD
ENDBRANCH  17  20
ENDBRANCH   1  12
BRANCH   2  22
ATOM     22  O   UNL     1     -17.221  16.713  11.602  1.00  0.00    -0.502 OA
ATOM     23  H   UNL     1     -17.485  16.291  12.485  1.00  0.00     0.293 HD
ENDBRANCH   2  22
BRANCH   6  24
ATOM     24  O   UNL     1     -16.272  16.654   6.361  1.00  0.00    -0.507 OA
ATOM     25  H   UNL     1     -17.180  16.941   6.693  1.00  0.00     0.293 HD
ENDBRANCH   6  24
BRANCH   8  26
ATOM     26  O   UNL     1     -12.359  13.876   6.239  1.00  0.00    -0.508 OA
ATOM     27  H   UNL     1     -11.753  13.176   6.650  1.00  0.00     0.293 HD
ENDBRANCH   8  26
TORSDOF 6
ENDMDL
MODEL 2
REMARK VINA RESULT:    -4.434      1.473      2.914
REMARK INTER + INTRA:          -5.663
REMARK INTER:                  -5.338
REMARK INTRA:                  -0.325
REMARK UNBOUND:                -0.321
REMARK SMILES O=c1c(O)c(-c2ccc(O)c(O)c2)oc2cc(O)cc(O)c12
REMARK SMILES IDX 5 1 3 2 2 3 1 4 22 5 20 6 19 7 17 8 16 9 15 10 14 11 6 12
REMARK SMILES IDX 7 13 8 14 9 15 13 16 11 17 10 18 12 20 4 22 21 24 18 26
REMARK H PARENT 10 19 12 21 4 23 21 25 18 27
REMARK Flexibility Score: inf
ROOT
ATOM      1  C   UNL     1     -14.322  14.831  11.100  1.00  0.00     0.180 A 
ATOM      2  C   UNL     1     -13.078  14.548  10.510  1.00  0.00     0.208 A 
ATOM      3  C   UNL     1     -13.004  14.405   9.116  1.00  0.00     0.238 A 
ATOM      4  O   UNL     1     -11.875  14.227   8.587  1.00  0.00    -0.285 OA
ATOM      5  C   UNL     1     -14.181  14.489   8.333  1.00  0.00     0.111 A 
ATOM      6  C   UNL     1     -14.230  14.315   6.917  1.00  0.00     0.134 A 
ATOM      7  C   UNL     1     -15.436  14.526   6.236  1.00  0.00     0.093 A 
ATOM      8  C   UNL     1     -16.607  14.843   6.928  1.00  0.00     0.123 A 
ATOM      9  C   UNL     1     -16.581  14.960   8.314  1.00  0.00     0.094 A 
ATOM     10  C   UNL     1     -15.387  14.793   9.019  1.00  0.00     0.146 A 
ATOM     11  O   UNL     1     -15.404  14.936  10.338  1.00  0.00    -0.452 OA
ENDROOT
BRANCH   1  12
ATOM     12  C   UNL     1     -14.479  15.011  12.562  1.00  0.00     0.025 A 
ATOM     13  C   UNL     1     -14.739  13.893  13.370  1.00  0.00     0.016 A 
ATOM     14  C   UNL     1     -14.912  14.042  14.749  1.00  0.00     0.051 A 
ATOM     15  C   UNL     1     -14.842  15.311  15.338  1.00  0.00     0.157 A 
ATOM     16  C   UNL     1     -14.430  16.286  13.153  1.00  0.00     0.062 A 
ATOM     17  C   UNL     1     -14.603  16.438  14.533  1.00  0.00     0.158 A 
BRANCH  15  18
ATOM     18  O   UNL     1     -15.011  15.457  16.714  1.00  0.00    -0.504 OA
ATOM     19  H   UNL     1     -15.726  14.944  17.217  1.00  0.00     0.293 HD
ENDBRANCH  15  18
BRANCH  17  20
ATOM     20  O   UNL     1     -14.543  17.717  15.086  1.00  0.00    -0.504 OA
ATOM     21  H   UNL     1     -14.775  17.896  16.056  1.00  0.00     0.293 HD
ENDBRANCH  17  20
ENDBRANCH   1  12
BRANCH   2  22
ATOM     22  O   UNL     1     -11.941  14.393  11.307  1.00  0.00    -0.502 OA
ATOM     23  H   UNL     1     -11.404  13.534  11.327  1.00  0.00     0.293 HD
ENDBRANCH   2  22
BRANCH   6  24
ATOM     24  O   UNL     1     -13.139  13.914   6.139  1.00  0.00    -0.507 OA
ATOM     25  H   UNL     1     -13.196  13.600   5.183  1.00  0.00     0.293 HD
ENDBRANCH   6  24
BRANCH   8  26
ATOM     26  O   UNL     1     -17.806  15.034   6.244  1.00  0.00    -0.508 OA
ATOM     27  H   UNL     1     -17.847  15.573   5.387  1.00  0.00     0.293 HD
ENDBRANCH   8  26
TORSDOF 6
ENDMDL
MODEL 3
REMARK VINA RESULT:    -4.136      1.492      3.454
REMARK INTER + INTRA:          -5.304
REMARK INTER:                  -5.035
REMARK INTRA:                  -0.270
REMARK UNBOUND:                -0.321
REMARK SMILES O=c1c(O)c(-c2ccc(O)c(O)c2)oc2cc(O)cc(O)c12
REMARK SMILES IDX 5 1 3 2 2 3 1 4 22 5 20 6 19 7 17 8 16 9 15 10 14 11 6 12
REMARK SMILES IDX 7 13 8 14 9 15 13 16 11 17 10 18 12 20 4 22 21 24 18 26
REMARK H PARENT 10 19 12 21 4 23 21 25 18 27
REMARK Flexibility Score: inf
ROOT
ATOM      1  C   UNL     1     -14.206  15.209  12.517  1.00  0.00     0.180 A 
ATOM      2  C   UNL     1     -13.227  14.514  11.786  1.00  0.00     0.208 A 
ATOM      3  C   UNL     1     -13.350  14.434  10.390  1.00  0.00     0.238 A 
ATOM      4  O   UNL     1     -12.431  13.876   9.735  1.00  0.00    -0.285 OA
ATOM      5  C   UNL     1     -14.478  14.998   9.747  1.00  0.00     0.111 A 
ATOM      6  C   UNL     1     -14.728  14.938   8.342  1.00  0.00     0.134 A 
ATOM      7  C   UNL     1     -15.824  15.625   7.806  1.00  0.00     0.093 A 
ATOM      8  C   UNL     1     -16.714  16.317   8.630  1.00  0.00     0.123 A 
ATOM      9  C   UNL     1     -16.509  16.337  10.006  1.00  0.00     0.094 A 
ATOM     10  C   UNL     1     -15.405  15.694  10.569  1.00  0.00     0.146 A 
ATOM     11  O   UNL     1     -15.237  15.756  11.884  1.00  0.00    -0.452 OA
ENDROOT
BRANCH   1  12
ATOM     12  C   UNL     1     -14.138  15.350  13.990  1.00  0.00     0.025 A 
ATOM     13  C   UNL     1     -13.231  16.261  14.554  1.00  0.00     0.016 A 
ATOM     14  C   UNL     1     -13.135  16.396  15.942  1.00  0.00     0.051 A 
ATOM     15  C   UNL     1     -13.932  15.611  16.786  1.00  0.00     0.157 A 
ATOM     16  C   UNL     1     -14.922  14.550  14.840  1.00  0.00     0.062 A 
ATOM     17  C   UNL     1     -14.827  14.681  16.230  1.00  0.00     0.158 A 
BRANCH  15  18
ATOM     18  O   UNL     1     -13.836  15.750  18.170  1.00  0.00    -0.504 OA
ATOM     19  H   UNL     1     -12.963  15.590  18.659  1.00  0.00     0.293 HD
ENDBRANCH  15  18
BRANCH  17  20
ATOM     20  O   UNL     1     -15.623  13.875  17.043  1.00  0.00    -0.504 OA
ATOM     21  H   UNL     1     -15.477  13.808  18.043  1.00  0.00     0.293 HD
ENDBRANCH  17  20
ENDBRANCH   1  12
BRANCH   2  22
ATOM     22  O   UNL     1     -12.161  13.898  12.447  1.00  0.00    -0.502 OA
ATOM     23  H   UNL     1     -11.346  14.411  12.761  1.00  0.00     0.293 HD
ENDBRANCH   2  22
BRANCH   6  24
ATOM     24  O   UNL     1     -13.954  14.202   7.441  1.00  0.00    -0.507 OA
ATOM     25  H   UNL     1     -13.526  14.575   6.608  1.00  0.00     0.293 HD
ENDBRANCH   6  24
BRANCH   8  26
ATOM     26  O   UNL     1     -17.812  16.984   8.089  1.00  0.00    -0.508 OA
ATOM     27  H   UNL     1     -17.707  17.650   7.333  1.00  0.00     0.293 HD
ENDBRANCH   8  26
TORSDOF 6
ENDMDL
MODEL 4
REMARK VINA RESULT:    -3.897     11.770     14.829
REMARK INTER + INTRA:          -5.016
REMARK INTER:                  -4.731
REMARK INTRA:                  -0.285
REMARK UNBOUND:                -0.321
REMARK SMILES O=c1c(O)c(-c2ccc(O)c(O)c2)oc2cc(O)cc(O)c12
REMARK SMILES IDX 5 1 3 2 2 3 1 4 22 5 20 6 19 7 17 8 16 9 15 10 14 11 6 12
REMARK SMILES IDX 7 13 8 14 9 15 13 16 11 17 10 18 12 20 4 22 21 24 18 26
REMARK H PARENT 10 19 12 21 4 23 21 25 18 27
REMARK Flexibility Score: inf
ROOT
ATOM      1  C   UNL     1     -25.962  15.636  19.174  1.00  0.00     0.180 A 
ATOM      2  C   UNL     1     -24.929  14.967  18.495  1.00  0.00     0.208 A 
ATOM      3  C   UNL     1     -23.611  15.425  18.641  1.00  0.00     0.238 A 
ATOM      4  O   UNL     1     -22.683  14.777  18.091  1.00  0.00    -0.285 OA
ATOM      5  C   UNL     1     -23.346  16.580  19.416  1.00  0.00     0.111 A 
ATOM      6  C   UNL     1     -22.053  17.160  19.596  1.00  0.00     0.134 A 
ATOM      7  C   UNL     1     -21.898  18.242  20.472  1.00  0.00     0.093 A 
ATOM      8  C   UNL     1     -22.998  18.803  21.125  1.00  0.00     0.123 A 
ATOM      9  C   UNL     1     -24.269  18.280  20.914  1.00  0.00     0.094 A 
ATOM     10  C   UNL     1     -24.453  17.178  20.076  1.00  0.00     0.146 A 
ATOM     11  O   UNL     1     -25.680  16.698  19.920  1.00  0.00    -0.452 OA
ENDROOT
BRANCH   1  12
ATOM     12  C   UNL     1     -27.375  15.204  19.082  1.00  0.00     0.025 A 
ATOM     13  C   UNL     1     -27.929  14.432  20.116  1.00  0.00     0.016 A 
ATOM     14  C   UNL     1     -29.254  13.995  20.041  1.00  0.00     0.051 A 
ATOM     15  C   UNL     1     -30.041  14.310  18.925  1.00  0.00     0.157 A 
ATOM     16  C   UNL     1     -28.161  15.500  17.954  1.00  0.00     0.062 A 
ATOM     17  C   UNL     1     -29.489  15.063  17.875  1.00  0.00     0.158 A 
BRANCH  15  18
ATOM     18  O   UNL     1     -31.363  13.875  18.854  1.00  0.00    -0.504 OA
ATOM     19  H   UNL     1     -31.837  13.486  19.661  1.00  0.00     0.293 HD
ENDBRANCH  15  18
BRANCH  17  20
ATOM     20  O   UNL     1     -30.240  15.380  16.744  1.00  0.00    -0.504 OA
ATOM     21  H   UNL     1     -30.982  14.779  16.405  1.00  0.00     0.293 HD
ENDBRANCH  17  20
ENDBRANCH   1  12
BRANCH   2  22
ATOM     22  O   UNL     1     -25.220  13.875  17.672  1.00  0.00    -0.502 OA
ATOM     23  H   UNL     1     -25.115  13.910  16.665  1.00  0.00     0.293 HD
ENDBRANCH   2  22
BRANCH   6  24
ATOM     24  O   UNL     1     -20.904  16.734  18.925  1.00  0.00    -0.507 OA
ATOM     25  H   UNL     1     -20.441  15.851  19.075  1.00  0.00     0.293 HD
ENDBRANCH   6  24
BRANCH   8  26
ATOM     26  O   UNL     1     -22.835  19.890  21.982  1.00  0.00    -0.508 OA
ATOM     27  H   UNL     1     -22.292  20.702  21.712  1.00  0.00     0.293 HD
ENDBRANCH   8  26
TORSDOF 6
ENDMDL
MODEL 5
REMARK VINA RESULT:    -3.479      2.770      5.376
REMARK INTER + INTRA:          -4.512
REMARK INTER:                  -4.204
REMARK INTRA:                  -0.308
REMARK UNBOUND:                -0.321
REMARK SMILES O=c1c(O)c(-c2ccc(O)c(O)c2)oc2cc(O)cc(O)c12
REMARK SMILES IDX 5 1 3 2 2 3 1 4 22 5 20 6 19 7 17 8 16 9 15 10 14 11 6 12
REMARK SMILES IDX 7 13 8 14 9 15 13 16 11 17 10 18 12 20 4 22 21 24 18 26
REMARK H PARENT 10 19 12 21 4 23 21 25 18 27
REMARK Flexibility Score: inf
ROOT
ATOM      1  C   UNL     1     -14.146  14.924  15.740  1.00  0.00     0.180 A 
ATOM      2  C   UNL     1     -13.080  14.440  14.962  1.00  0.00     0.208 A 
ATOM      3  C   UNL     1     -13.170  14.516  13.563  1.00  0.00     0.238 A 
ATOM      4  O   UNL     1     -12.182  14.150  12.875  1.00  0.00    -0.285 OA
ATOM      5  C   UNL     1     -14.346  15.021  12.957  1.00  0.00     0.111 A 
ATOM      6  C   UNL     1     -14.564  15.102  11.548  1.00  0.00     0.134 A 
ATOM      7  C   UNL     1     -15.725  15.718  11.064  1.00  0.00     0.093 A 
ATOM      8  C   UNL     1     -16.703  16.199  11.937  1.00  0.00     0.123 A 
ATOM      9  C   UNL     1     -16.525  16.075  13.311  1.00  0.00     0.094 A 
ATOM     10  C   UNL     1     -15.361  15.500  13.827  1.00  0.00     0.146 A 
ATOM     11  O   UNL     1     -15.223  15.422  15.145  1.00  0.00    -0.452 OA
ENDROOT
BRANCH   1  12
ATOM     12  C   UNL     1     -14.119  14.893  17.220  1.00  0.00     0.025 A 
ATOM     13  C   UNL     1     -14.854  13.911  17.903  1.00  0.00     0.016 A 
ATOM     14  C   UNL     1     -14.860  13.875  19.300  1.00  0.00     0.051 A 
ATOM     15  C   UNL     1     -14.145  14.830  20.035  1.00  0.00     0.157 A 
ATOM     16  C   UNL     1     -13.419  15.862  17.961  1.00  0.00     0.062 A 
ATOM     17  C   UNL     1     -13.425  15.830  19.361  1.00  0.00     0.158 A 
BRANCH  15  18
ATOM     18  O   UNL     1     -14.150  14.791  21.429  1.00  0.00    -0.504 OA
ATOM     19  H   UNL     1     -13.289  14.780  21.962  1.00  0.00     0.293 HD
ENDBRANCH  15  18
BRANCH  17  20
ATOM     20  O   UNL     1     -12.715  16.804  20.063  1.00  0.00    -0.504 OA
ATOM     21  H   UNL     1     -12.366  17.643  19.616  1.00  0.00     0.293 HD
ENDBRANCH  17  20
ENDBRANCH   1  12
BRANCH   2  22
ATOM     22  O   UNL     1     -11.960  13.875  15.577  1.00  0.00    -0.502 OA
ATOM     23  H   UNL     1     -11.609  14.199  16.471  1.00  0.00     0.293 HD
ENDBRANCH   2  22
BRANCH   6  24
ATOM     24  O   UNL     1     -13.694  14.574  10.590  1.00  0.00    -0.507 OA
ATOM     25  H   UNL     1     -13.222  13.687  10.665  1.00  0.00     0.293 HD
ENDBRANCH   6  24
BRANCH   8  26
ATOM     26  O   UNL     1     -17.863  16.795  11.445  1.00  0.00    -0.508 OA
ATOM     27  H   UNL     1     -18.642  17.020  12.052  1.00  0.00     0.293 HD
ENDBRANCH   8  26
TORSDOF 6
ENDMDL
MODEL 6
REMARK VINA RESULT:    -3.188      2.025      7.282
REMARK INTER + INTRA:          -4.162
REMARK INTER:                  -4.017
REMARK INTRA:                  -0.145
REMARK UNBOUND:                -0.321
REMARK SMILES O=c1c(O)c(-c2ccc(O)c(O)c2)oc2cc(O)cc(O)c12
REMARK SMILES IDX 5 1 3 2 2 3 1 4 22 5 20 6 19 7 17 8 16 9 15 10 14 11 6 12
REMARK SMILES IDX 7 13 8 14 9 15 13 16 11 17 10 18 12 20 4 22 21 24 18 26
REMARK H PARENT 10 19 12 21 4 23 21 25 18 27
REMARK Flexibility Score: inf
ROOT
ATOM      1  C   UNL     1     -15.027  14.921   9.207  1.00  0.00     0.180 A 
ATOM      2  C   UNL     1     -13.678  14.530   9.233  1.00  0.00     0.208 A 
ATOM      3  C   UNL     1     -13.061  14.297  10.473  1.00  0.00     0.238 A 
ATOM      4  O   UNL     1     -11.875  13.875  10.486  1.00  0.00    -0.285 OA
ATOM      5  C   UNL     1     -13.782  14.513  11.672  1.00  0.00     0.111 A 
ATOM      6  C   UNL     1     -13.244  14.352  12.985  1.00  0.00     0.134 A 
ATOM      7  C   UNL     1     -14.083  14.491  14.097  1.00  0.00     0.093 A 
ATOM      8  C   UNL     1     -15.425  14.846  13.947  1.00  0.00     0.123 A 
ATOM      9  C   UNL     1     -15.946  15.060  12.674  1.00  0.00     0.094 A 
ATOM     10  C   UNL     1     -15.145  14.892  11.542  1.00  0.00     0.146 A 
ATOM     11  O   UNL     1     -15.688  15.085  10.347  1.00  0.00    -0.452 OA
ENDROOT
BRANCH   1  12
ATOM     12  C   UNL     1     -15.752  15.171   7.940  1.00  0.00     0.025 A 
ATOM     13  C   UNL     1     -15.354  16.236   7.117  1.00  0.00     0.016 A 
ATOM     14  C   UNL     1     -16.036  16.503   5.926  1.00  0.00     0.051 A 
ATOM     15  C   UNL     1     -17.134  15.719   5.549  1.00  0.00     0.157 A 
ATOM     16  C   UNL     1     -16.867  14.399   7.568  1.00  0.00     0.062 A 
ATOM     17  C   UNL     1     -17.553  14.664   6.378  1.00  0.00     0.158 A 
BRANCH  15  18
ATOM     18  O   UNL     1     -17.811  15.986   4.360  1.00  0.00    -0.504 OA
ATOM     19  H   UNL     1     -18.579  15.404   4.045  1.00  0.00     0.293 HD
ENDBRANCH  15  18
BRANCH  17  20
ATOM     20  O   UNL     1     -18.651  13.875   6.038  1.00  0.00    -0.504 OA
ATOM     21  H   UNL     1     -19.119  13.959   5.143  1.00  0.00     0.293 HD
ENDBRANCH  17  20
ENDBRANCH   1  12
BRANCH   2  22
ATOM     22  O   UNL     1     -12.961  14.397   8.041  1.00  0.00    -0.502 OA
ATOM     23  H   UNL     1     -12.088  14.884   7.874  1.00  0.00     0.293 HD
ENDBRANCH   2  22
BRANCH   6  24
ATOM     24  O   UNL     1     -11.898  14.083  13.251  1.00  0.00    -0.507 OA
ATOM     25  H   UNL     1     -11.474  13.169  13.221  1.00  0.00     0.293 HD
ENDBRANCH   6  24
BRANCH   8  26
ATOM     26  O   UNL     1     -16.248  14.999  15.061  1.00  0.00    -0.508 OA
ATOM     27  H   UNL     1     -16.276  15.866  15.585  1.00  0.00     0.293 HD
ENDBRANCH   8  26
TORSDOF 6
ENDMDL
