MODEL 1
REMARK VINA RESULT:    -2.770      0.000      0.000
REMARK INTER + INTRA:          -3.365
REMARK INTER:                  -3.255
REMARK INTRA:                  -0.110
REMARK UNBOUND:                -0.110
REMARK SMILES O=C([O-])CCC(=O)[O-]
REMARK SMILES IDX 4 1 2 2 1 3 3 4 5 5 6 6 7 7 8 8
REMARK H PARENT
REMARK Flexibility Score: inf
ROOT
ATOM      1  C   UNL     1      17.466  15.252  30.130  1.00  0.00     0.059 C 
ENDROOT
BRANCH   1   2
ATOM      2  C   UNL     1      17.250  14.346  31.302  1.00  0.00     0.042 C 
ATOM      3  O   UNL     1      16.228  13.612  31.357  1.00  0.00    -0.550 OA
ATOM      4  O   UNL     1      18.198  14.280  32.315  1.00  0.00    -0.550 OA
ENDBRANCH   1   2
BRANCH   1   5
ATOM      5  C   UNL     1      16.180  15.990  29.741  1.00  0.00     0.059 C 
BRANCH   5   6
ATOM      6  C   UNL     1      15.622  15.483  28.447  1.00  0.00     0.042 C 
ATOM      7  O   UNL     1      14.712  14.612  28.447  1.00  0.00    -0.550 OA
ATOM      8  O   UNL     1      16.078  16.001  27.242  1.00  0.00    -0.550 OA
ENDBRANCH   5   6
ENDBRANCH   1   5
TORSDOF 3
ENDMDL
MODEL 2
REMARK VINA RESULT:    -2.761      0.088      3.903
REMARK INTER + INTRA:          -3.355
REMARK INTER:                  -3.248
REMARK INTRA:                  -0.107
REMARK UNBOUND:                -0.110
REMARK SMILES O=C([O-])CCC(=O)[O-]
REMARK SMILES IDX 4 1 2 2 1 3 3 4 5 5 6 6 7 7 8 8
REMARK H PARENT
REMARK Flexibility Score: inf
ROOT
ATOM      1  C   UNL     1      16.226  15.990  29.742  1.00  0.00     0.059 C 
ENDROOT
BRANCH   1   2
ATOM      2  C   UNL     1      15.692  15.464  28.445  1.00  0.00     0.042 C 
ATOM      3  O   UNL     1      14.750  14.628  28.440  1.00  0.00    -0.550 OA
ATOM      4  O   UNL     1      16.207  15.927  27.241  1.00  0.00    -0.550 OA
ENDBRANCH   1   2
BRANCH   1   5
ATOM      5  C   UNL     1      17.513  15.269  30.157  1.00  0.00     0.059 C 
BRANCH   5   6
ATOM      6  C   UNL     1      17.278  14.337  31.306  1.00  0.00     0.042 C 
ATOM      7  O   UNL     1      18.094  14.295  32.265  1.00  0.00    -0.550 OA
ATOM      8  O   UNL     1      16.138  13.545  31.338  1.00  0.00    -0.550 OA
ENDBRANCH   5   6
ENDBRANCH   1   5
TORSDOF 3
ENDMDL
MODEL 3
REMARK VINA RESULT:    -2.746      0.957      3.816
REMARK INTER + INTRA:          -3.338
REMARK INTER:                  -3.230
REMARK INTRA:                  -0.108
REMARK UNBOUND:                -0.110
REMARK SMILES O=C([O-])CCC(=O)[O-]
REMARK SMILES IDX 4 1 2 2 1 3 3 4 5 5 6 6 7 7 8 8
REMARK H PARENT
REMARK Flexibility Score: inf
ROOT
ATOM      1  C   UNL     1      15.891  15.646  29.389  1.00  0.00     0.059 C 
ENDROOT
BRANCH   1   2
ATOM      2  C   UNL     1      16.368  15.390  27.993  1.00  0.00     0.042 C 
ATOM      3  O   UNL     1      15.921  16.073  27.034  1.00  0.00    -0.550 OA
ATOM      4  O   UNL     1      17.338  14.424  27.755  1.00  0.00    -0.550 OA
ENDBRANCH   1   2
BRANCH   1   5
ATOM      5  C   UNL     1      17.051  15.658  30.389  1.00  0.00     0.059 C 
BRANCH   5   6
ATOM      6  C   UNL     1      17.046  14.436  31.255  1.00  0.00     0.042 C 
ATOM      7  O   UNL     1      16.162  13.553  31.099  1.00  0.00    -0.550 OA
ATOM      8  O   UNL     1      18.041  14.253  32.207  1.00  0.00    -0.550 OA
ENDBRANCH   5   6
ENDBRANCH   1   5
TORSDOF 3
ENDMDL
MODEL 4
REMARK VINA RESULT:    -2.737      0.953      1.655
REMARK INTER + INTRA:          -3.327
REMARK INTER:                  -3.230
REMARK INTRA:                  -0.097
REMARK UNBOUND:                -0.110
REMARK SMILES O=C([O-])CCC(=O)[O-]
REMARK SMILES IDX 4 1 2 2 1 3 3 4 5 5 6 6 7 7 8 8
REMARK H PARENT
REMARK Flexibility Score: inf
ROOT
ATOM      1  C   UNL     1      17.042  15.648  30.439  1.00  0.00     0.059 C 
ENDROOT
BRANCH   1   2
ATOM      2  C   UNL     1      17.080  14.408  31.278  1.00  0.00     0.042 C 
ATOM      3  O   UNL     1      17.966  14.269  32.162  1.00  0.00    -0.550 OA
ATOM      4  O   UNL     1      16.113  13.425  31.113  1.00  0.00    -0.550 OA
ENDBRANCH   1   2
BRANCH   1   5
ATOM      5  C   UNL     1      15.920  15.590  29.396  1.00  0.00     0.059 C 
BRANCH   5   6
ATOM      6  C   UNL     1      16.465  15.458  28.007  1.00  0.00     0.042 C 
ATOM      7  O   UNL     1      15.874  16.010  27.040  1.00  0.00    -0.550 OA
ATOM      8  O   UNL     1      17.645  14.761  27.785  1.00  0.00    -0.550 OA
ENDBRANCH   5   6
ENDBRANCH   1   5
TORSDOF 3
ENDMDL
MODEL 5
REMARK VINA RESULT:    -2.620      1.698      1.758
REMARK INTER + INTRA:          -3.190
REMARK INTER:                  -3.024
REMARK INTRA:                  -0.166
REMARK UNBOUND:                -0.110
REMARK SMILES O=C([O-])CCC(=O)[O-]
REMARK SMILES IDX 4 1 2 2 1 3 3 4 5 5 6 6 7 7 8 8
REMARK H PARENT
REMARK Flexibility Score: inf
ROOT
ATOM      1  C   UNL     1      17.358  14.898  30.822  1.00  0.00     0.059 C 
ENDROOT
BRANCH   1   2
ATOM      2  C   UNL     1      18.443  14.337  29.955  1.00  0.00     0.042 C 
ATOM      3  O   UNL     1      18.541  13.093  29.788  1.00  0.00    -0.550 OA
ATOM      4  O   UNL     1      19.320  15.190  29.299  1.00  0.00    -0.550 OA
ENDBRANCH   1   2
BRANCH   1   5
ATOM      5  C   UNL     1      16.605  16.033  30.121  1.00  0.00     0.059 C 
BRANCH   5   6
ATOM      6  C   UNL     1      15.734  15.519  29.016  1.00  0.00     0.042 C 
ATOM      7  O   UNL     1      14.772  14.747  29.275  1.00  0.00    -0.550 OA
ATOM      8  O   UNL     1      15.959  15.923  27.707  1.00  0.00    -0.550 OA
ENDBRANCH   5   6
ENDBRANCH   1   5
TORSDOF 3
ENDMDL
MODEL 6
REMARK VINA RESULT:    -2.614      1.673      3.525
REMARK INTER + INTRA:          -3.183
REMARK INTER:                  -3.014
REMARK INTRA:                  -0.169
REMARK UNBOUND:                -0.110
REMARK SMILES O=C([O-])CCC(=O)[O-]
REMARK SMILES IDX 4 1 2 2 1 3 3 4 5 5 6 6 7 7 8 8
REMARK H PARENT
REMARK Flexibility Score: inf
ROOT
ATOM      1  C   UNL     1      16.604  16.061  30.133  1.00  0.00     0.059 C 
ENDROOT
BRANCH   1   2
ATOM      2  C   UNL     1      15.753  15.546  29.013  1.00  0.00     0.042 C 
ATOM      3  O   UNL     1      16.013  15.862  27.822  1.00  0.00    -0.550 OA
ATOM      4  O   UNL     1      14.699  14.682  29.280  1.00  0.00    -0.550 OA
ENDBRANCH   1   2
BRANCH   1   5
ATOM      5  C   UNL     1      17.337  14.925  30.855  1.00  0.00     0.059 C 
BRANCH   5   6
ATOM      6  C   UNL     1      18.436  14.354  30.012  1.00  0.00     0.042 C 
ATOM      7  O   UNL     1      18.548  13.107  29.878  1.00  0.00    -0.550 OA
ATOM      8  O   UNL     1      19.311  15.200  29.343  1.00  0.00    -0.550 OA
ENDBRANCH   5   6
ENDBRANCH   1   5
TORSDOF 3
ENDMDL
MODEL 7
REMARK VINA RESULT:    -2.538      9.179     11.325
REMARK INTER + INTRA:          -3.094
REMARK INTER:                  -2.978
REMARK INTRA:                  -0.115
REMARK UNBOUND:                -0.110
REMARK SMILES O=C([O-])CCC(=O)[O-]
REMARK SMILES IDX 4 1 2 2 1 3 3 4 5 5 6 6 7 7 8 8
REMARK H PARENT
REMARK Flexibility Score: inf
ROOT
ATOM      1  C   UNL     1       7.280  17.691  24.260  1.00  0.00     0.059 C 
ENDROOT
BRANCH   1   2
ATOM      2  C   UNL     1       6.838  18.937  23.557  1.00  0.00     0.042 C 
ATOM      3  O   UNL     1       6.553  18.907  22.331  1.00  0.00    -0.550 OA
ATOM      4  O   UNL     1       6.701  20.124  24.265  1.00  0.00    -0.550 OA
ENDBRANCH   1   2
BRANCH   1   5
ATOM      5  C   UNL     1       8.644  17.875  24.933  1.00  0.00     0.059 C 
BRANCH   5   6
ATOM      6  C   UNL     1       8.521  17.927  26.426  1.00  0.00     0.042 C 
ATOM      7  O   UNL     1       8.727  16.893  27.114  1.00  0.00    -0.550 OA
ATOM      8  O   UNL     1       8.220  19.126  27.057  1.00  0.00    -0.550 OA
ENDBRANCH   5   6
ENDBRANCH   1   5
TORSDOF 3
ENDMDL
MODEL 8
REMARK VINA RESULT:    -2.500      9.658     10.873
REMARK INTER + INTRA:          -3.048
REMARK INTER:                  -2.918
REMARK INTRA:                  -0.130
REMARK UNBOUND:                -0.110
REMARK SMILES O=C([O-])CCC(=O)[O-]
REMARK SMILES IDX 4 1 2 2 1 3 3 4 5 5 6 6 7 7 8 8
REMARK H PARENT
REMARK Flexibility Score: inf
ROOT
ATOM      1  C   UNL     1       8.548  17.943  25.242  1.00  0.00     0.059 C 
ENDROOT
BRANCH   1   2
ATOM      2  C   UNL     1       8.133  18.239  26.650  1.00  0.00     0.042 C 
ATOM      3  O   UNL     1       8.148  19.422  27.080  1.00  0.00    -0.550 OA
ATOM      4  O   UNL     1       7.688  17.213  27.474  1.00  0.00    -0.550 OA
ENDBRANCH   1   2
BRANCH   1   5
ATOM      5  C   UNL     1       7.338  17.692  24.336  1.00  0.00     0.059 C 
BRANCH   5   6
ATOM      6  C   UNL     1       6.598  18.960  24.039  1.00  0.00     0.042 C 
ATOM      7  O   UNL     1       5.461  19.162  24.541  1.00  0.00    -0.550 OA
ATOM      8  O   UNL     1       7.181  19.936  23.242  1.00  0.00    -0.550 OA
ENDBRANCH   5   6
ENDBRANCH   1   5
TORSDOF 3
ENDMDL
MODEL 9
REMARK VINA RESULT:    -2.433      9.613     11.542
REMARK INTER + INTRA:          -2.969
REMARK INTER:                  -2.837
REMARK INTRA:                  -0.132
REMARK UNBOUND:                -0.110
REMARK SMILES O=C([O-])CCC(=O)[O-]
REMARK SMILES IDX 4 1 2 2 1 3 3 4 5 5 6 6 7 7 8 8
REMARK H PARENT
REMARK Flexibility Score: inf
ROOT
ATOM      1  C   UNL     1       6.879  20.090  25.607  1.00  0.00     0.059 C 
ENDROOT
BRANCH   1   2
ATOM      2  C   UNL     1       5.533  19.463  25.410  1.00  0.00     0.042 C 
ATOM      3  O   UNL     1       5.356  18.616  24.495  1.00  0.00    -0.550 OA
ATOM      4  O   UNL     1       4.484  19.784  26.262  1.00  0.00    -0.550 OA
ENDBRANCH   1   2
BRANCH   1   5
ATOM      5  C   UNL     1       7.636  19.446  26.774  1.00  0.00     0.059 C 
BRANCH   5   6
ATOM      6  C   UNL     1       8.396  18.232  26.335  1.00  0.00     0.042 C 
ATOM      7  O   UNL     1       8.646  17.310  27.157  1.00  0.00    -0.550 OA
ATOM      8  O   UNL     1       8.792  18.099  25.011  1.00  0.00    -0.550 OA
ENDBRANCH   5   6
ENDBRANCH   1   5
TORSDOF 3
ENDMDL
