MODEL 1
REMARK VINA RESULT:    -5.669      0.000      0.000
REMARK INTER + INTRA:          -8.130
REMARK INTER:                  -6.995
REMARK INTRA:                  -1.135
REMARK UNBOUND:                -1.135
REMARK SMILES CC(C)=CCC[C@@H](C)c1ccc(C)cc1
REMARK SMILES IDX 6 1 7 2 8 3 9 4 13 5 12 6 11 7 14 8 10 9 15 10 5 11 4 12
REMARK SMILES IDX 2 13 1 14 3 15
REMARK H PARENT
REMARK Flexibility Score: inf
ROOT
ATOM      1  C   UNL     1       8.181  -0.393   9.984  1.00  0.00     0.012 C 
ENDROOT
BRANCH   1   2
ATOM      2  C   UNL     1       9.022  -1.407  10.793  1.00  0.00     0.016 C 
ATOM      3  C   UNL     1       8.773  -2.856  10.348  1.00  0.00     0.013 C 
BRANCH   2   4
ATOM      4  C   UNL     1      10.499  -1.071  10.689  1.00  0.00    -0.045 A 
ATOM      5  C   UNL     1      14.692  -0.069  10.419  1.00  0.00     0.044 C 
ATOM      6  C   UNL     1      13.244  -0.446  10.517  1.00  0.00    -0.051 A 
ATOM      7  C   UNL     1      12.579  -0.381  11.750  1.00  0.00     0.004 A 
ATOM      8  C   UNL     1      12.526  -0.800   9.367  1.00  0.00     0.004 A 
ATOM      9  C   UNL     1      11.219  -0.696  11.837  1.00  0.00     0.004 A 
ATOM     10  C   UNL     1      11.167  -1.115   9.451  1.00  0.00     0.004 A 
ENDBRANCH   2   4
ENDBRANCH   1   2
BRANCH   1  11
ATOM     11  C   UNL     1       7.923   0.911  10.753  1.00  0.00     0.028 C 
BRANCH  11  12
ATOM     12  C   UNL     1       7.407   0.618  12.140  1.00  0.00    -0.028 C 
ATOM     13  C   UNL     1       7.961   1.099  13.277  1.00  0.00    -0.080 C 
ATOM     14  C   UNL     1       7.376   0.720  14.613  1.00  0.00     0.039 C 
ATOM     15  C   UNL     1       9.129   2.053  13.260  1.00  0.00     0.039 C 
ENDBRANCH  11  12
ENDBRANCH   1  11
TORSDOF 4
ENDMDL
MODEL 2
REMARK VINA RESULT:    -5.521      1.400      5.291
REMARK INTER + INTRA:          -7.947
REMARK INTER:                  -6.797
REMARK INTRA:                  -1.149
REMARK UNBOUND:                -1.135
REMARK SMILES CC(C)=CCC[C@@H](C)c1ccc(C)cc1
REMARK SMILES IDX 6 1 7 2 8 3 9 4 13 5 12 6 11 7 14 8 10 9 15 10 5 11 4 12
REMARK SMILES IDX 2 13 1 14 3 15
REMARK H PARENT
REMARK Flexibility Score: inf
ROOT
ATOM      1  C   UNL     1       7.584   0.227  10.544  1.00  0.00     0.012 C 
ENDROOT
BRANCH   1   2
ATOM      2  C   UNL     1       8.395   1.300  11.306  1.00  0.00     0.016 C 
ATOM      3  C   UNL     1       7.826   2.713  11.103  1.00  0.00     0.013 C 
BRANCH   2   4
ATOM      4  C   UNL     1       8.456   0.965  12.786  1.00  0.00    -0.045 A 
ATOM      5  C   UNL     1       8.596   0.054  17.006  1.00  0.00     0.044 C 
ATOM      6  C   UNL     1       8.547   0.341  15.534  1.00  0.00    -0.051 A 
ATOM      7  C   UNL     1       7.315   0.515  14.889  1.00  0.00     0.004 A 
ATOM      8  C   UNL     1       9.734   0.505  14.807  1.00  0.00     0.004 A 
ATOM      9  C   UNL     1       7.269   0.819  13.525  1.00  0.00     0.004 A 
ATOM     10  C   UNL     1       9.690   0.809  13.443  1.00  0.00     0.004 A 
ENDBRANCH   2   4
ENDBRANCH   1   2
BRANCH   1  11
ATOM     11  C   UNL     1       8.339  -1.105  10.414  1.00  0.00     0.028 C 
BRANCH  11  12
ATOM     12  C   UNL     1       9.640  -0.910   9.675  1.00  0.00    -0.028 C 
ATOM     13  C   UNL     1      10.852  -1.266  10.159  1.00  0.00    -0.080 C 
ATOM     14  C   UNL     1      12.091  -1.001   9.343  1.00  0.00     0.039 C 
ATOM     15  C   UNL     1      11.012  -1.972  11.482  1.00  0.00     0.039 C 
ENDBRANCH  11  12
ENDBRANCH   1  11
TORSDOF 4
ENDMDL
MODEL 3
REMARK VINA RESULT:    -5.491      1.438      5.321
REMARK INTER + INTRA:          -7.910
REMARK INTER:                  -6.791
REMARK INTRA:                  -1.119
REMARK UNBOUND:                -1.135
REMARK SMILES CC(C)=CCC[C@@H](C)c1ccc(C)cc1
REMARK SMILES IDX 6 1 7 2 8 3 9 4 13 5 12 6 11 7 14 8 10 9 15 10 5 11 4 12
REMARK SMILES IDX 2 13 1 14 3 15
REMARK H PARENT
REMARK Flexibility Score: inf
ROOT
ATOM      1  C   UNL     1       7.612   0.001  10.620  1.00  0.00     0.012 C 
ENDROOT
BRANCH   1   2
ATOM      2  C   UNL     1       8.439   1.074  11.366  1.00  0.00     0.016 C 
ATOM      3  C   UNL     1       7.902   2.493  11.124  1.00  0.00     0.013 C 
BRANCH   2   4
ATOM      4  C   UNL     1       8.478   0.772  12.853  1.00  0.00    -0.045 A 
ATOM      5  C   UNL     1       8.613  -0.133  17.074  1.00  0.00     0.044 C 
ATOM      6  C   UNL     1       8.573   0.211  15.615  1.00  0.00    -0.051 A 
ATOM      7  C   UNL     1       9.728   0.098  14.830  1.00  0.00     0.004 A 
ATOM      8  C   UNL     1       7.364   0.580  15.009  1.00  0.00     0.004 A 
ATOM      9  C   UNL     1       9.684   0.382  13.461  1.00  0.00     0.004 A 
ATOM     10  C   UNL     1       7.317   0.864  13.642  1.00  0.00     0.004 A 
ENDBRANCH   2   4
ENDBRANCH   1   2
BRANCH   1  11
ATOM     11  C   UNL     1       8.408  -1.288  10.365  1.00  0.00     0.028 C 
BRANCH  11  12
ATOM     12  C   UNL     1       9.709  -0.982   9.666  1.00  0.00    -0.028 C 
ATOM     13  C   UNL     1      10.922  -1.400  10.097  1.00  0.00    -0.080 C 
ATOM     14  C   UNL     1      12.162  -1.013   9.333  1.00  0.00     0.039 C 
ATOM     15  C   UNL     1      11.082  -2.291  11.303  1.00  0.00     0.039 C 
ENDBRANCH  11  12
ENDBRANCH   1  11
TORSDOF 4
ENDMDL
MODEL 4
REMARK VINA RESULT:    -5.332      1.244      5.363
REMARK INTER + INTRA:          -7.714
REMARK INTER:                  -7.014
REMARK INTRA:                  -0.699
REMARK UNBOUND:                -1.135
REMARK SMILES CC(C)=CCC[C@@H](C)c1ccc(C)cc1
REMARK SMILES IDX 6 1 7 2 8 3 9 4 13 5 12 6 11 7 14 8 10 9 15 10 5 11 4 12
REMARK SMILES IDX 2 13 1 14 3 15
REMARK H PARENT
REMARK Flexibility Score: inf
ROOT
ATOM      1  C   UNL     1      10.579  -1.504   9.984  1.00  0.00     0.012 C 
ENDROOT
BRANCH   1   2
ATOM      2  C   UNL     1       9.444  -0.463   9.854  1.00  0.00     0.016 C 
ATOM      3  C   UNL     1       8.266  -0.989   9.019  1.00  0.00     0.013 C 
BRANCH   2   4
ATOM      4  C   UNL     1       8.963  -0.029  11.227  1.00  0.00    -0.045 A 
ATOM      5  C   UNL     1       7.617   1.160  15.155  1.00  0.00     0.044 C 
ATOM      6  C   UNL     1       8.091   0.776  13.785  1.00  0.00    -0.051 A 
ATOM      7  C   UNL     1       9.421   0.380  13.582  1.00  0.00     0.004 A 
ATOM      8  C   UNL     1       7.193   0.743  12.710  1.00  0.00     0.004 A 
ATOM      9  C   UNL     1       9.856  -0.013  12.313  1.00  0.00     0.004 A 
ATOM     10  C   UNL     1       7.625   0.350  11.440  1.00  0.00     0.004 A 
ENDBRANCH   2   4
ENDBRANCH   1   2
BRANCH   1  11
ATOM     11  C   UNL     1      11.857  -1.082   9.244  1.00  0.00     0.028 C 
BRANCH  11  12
ATOM     12  C   UNL     1      13.073  -1.709   9.880  1.00  0.00    -0.028 C 
ATOM     13  C   UNL     1      14.013  -1.022  10.569  1.00  0.00    -0.080 C 
ATOM     14  C   UNL     1      15.203  -1.749  11.141  1.00  0.00     0.039 C 
ATOM     15  C   UNL     1      13.893   0.458  10.833  1.00  0.00     0.039 C 
ENDBRANCH  11  12
ENDBRANCH   1  11
TORSDOF 4
ENDMDL
MODEL 5
REMARK VINA RESULT:    -5.209      1.505      2.714
REMARK INTER + INTRA:          -7.562
REMARK INTER:                  -6.925
REMARK INTRA:                  -0.637
REMARK UNBOUND:                -1.135
REMARK SMILES CC(C)=CCC[C@@H](C)c1ccc(C)cc1
REMARK SMILES IDX 6 1 7 2 8 3 9 4 13 5 12 6 11 7 14 8 10 9 15 10 5 11 4 12
REMARK SMILES IDX 2 13 1 14 3 15
REMARK H PARENT
REMARK Flexibility Score: inf
ROOT
ATOM      1  C   UNL     1       8.163   1.013  13.038  1.00  0.00     0.012 C 
ENDROOT
BRANCH   1   2
ATOM      2  C   UNL     1       8.030   0.021  11.860  1.00  0.00     0.016 C 
ATOM      3  C   UNL     1       7.178   0.589  10.715  1.00  0.00     0.013 C 
BRANCH   2   4
ATOM      4  C   UNL     1       9.402  -0.378  11.347  1.00  0.00    -0.045 A 
ATOM      5  C   UNL     1      13.326  -1.468   9.908  1.00  0.00     0.044 C 
ATOM      6  C   UNL     1      11.958  -1.119  10.414  1.00  0.00    -0.051 A 
ATOM      7  C   UNL     1      11.773  -0.749  11.754  1.00  0.00     0.004 A 
ATOM      8  C   UNL     1      10.865  -1.091   9.537  1.00  0.00     0.004 A 
ATOM      9  C   UNL     1      10.505  -0.388  12.219  1.00  0.00     0.004 A 
ATOM     10  C   UNL     1       9.597  -0.730   9.999  1.00  0.00     0.004 A 
ENDBRANCH   2   4
ENDBRANCH   1   2
BRANCH   1  11
ATOM     11  C   UNL     1       7.248   0.656  14.219  1.00  0.00     0.028 C 
BRANCH  11  12
ATOM     12  C   UNL     1       7.724   1.326  15.485  1.00  0.00    -0.028 C 
ATOM     13  C   UNL     1       8.391   0.693  16.477  1.00  0.00    -0.080 C 
ATOM     14  C   UNL     1       8.798   1.457  17.711  1.00  0.00     0.039 C 
ATOM     15  C   UNL     1       8.793  -0.757  16.377  1.00  0.00     0.039 C 
ENDBRANCH  11  12
ENDBRANCH   1  11
TORSDOF 4
ENDMDL
MODEL 6
REMARK VINA RESULT:    -5.046      1.885      4.143
REMARK INTER + INTRA:          -7.361
REMARK INTER:                  -6.313
REMARK INTRA:                  -1.048
REMARK UNBOUND:                -1.135
REMARK SMILES CC(C)=CCC[C@@H](C)c1ccc(C)cc1
REMARK SMILES IDX 6 1 7 2 8 3 9 4 13 5 12 6 11 7 14 8 10 9 15 10 5 11 4 12
REMARK SMILES IDX 2 13 1 14 3 15
REMARK H PARENT
REMARK Flexibility Score: inf
ROOT
ATOM      1  C   UNL     1      10.931  -1.136  14.472  1.00  0.00     0.012 C 
ENDROOT
BRANCH   1   2
ATOM      2  C   UNL     1      11.135   0.008  13.453  1.00  0.00     0.016 C 
ATOM      3  C   UNL     1      12.621   0.268  13.161  1.00  0.00     0.013 C 
BRANCH   2   4
ATOM      4  C   UNL     1      10.390  -0.292  12.165  1.00  0.00    -0.045 A 
ATOM      5  C   UNL     1       8.314  -1.128   8.471  1.00  0.00     0.044 C 
ATOM      6  C   UNL     1       9.022  -0.862   9.766  1.00  0.00    -0.051 A 
ATOM      7  C   UNL     1      10.315  -1.362   9.980  1.00  0.00     0.004 A 
ATOM      8  C   UNL     1       8.427  -0.055  10.745  1.00  0.00     0.004 A 
ATOM      9  C   UNL     1      10.992  -1.085  11.171  1.00  0.00     0.004 A 
ATOM     10  C   UNL     1       9.101   0.224  11.937  1.00  0.00     0.004 A 
ENDBRANCH   2   4
ENDBRANCH   1   2
BRANCH   1  11
ATOM     11  C   UNL     1       9.952  -0.762  15.595  1.00  0.00     0.028 C 
BRANCH  11  12
ATOM     12  C   UNL     1       9.979   0.725  15.853  1.00  0.00    -0.028 C 
ATOM     13  C   UNL     1       8.925   1.550  15.660  1.00  0.00    -0.080 C 
ATOM     14  C   UNL     1       9.072   3.026  15.925  1.00  0.00     0.039 C 
ATOM     15  C   UNL     1       7.573   1.039  15.230  1.00  0.00     0.039 C 
ENDBRANCH  11  12
ENDBRANCH   1  11
TORSDOF 4
ENDMDL
MODEL 7
REMARK VINA RESULT:    -5.015      2.129      4.793
REMARK INTER + INTRA:          -7.323
REMARK INTER:                  -6.046
REMARK INTRA:                  -1.277
REMARK UNBOUND:                -1.135
REMARK SMILES CC(C)=CCC[C@@H](C)c1ccc(C)cc1
REMARK SMILES IDX 6 1 7 2 8 3 9 4 13 5 12 6 11 7 14 8 10 9 15 10 5 11 4 12
REMARK SMILES IDX 2 13 1 14 3 15
REMARK H PARENT
REMARK Flexibility Score: inf
ROOT
ATOM      1  C   UNL     1      11.863   0.971  13.839  1.00  0.00     0.012 C 
ENDROOT
BRANCH   1   2
ATOM      2  C   UNL     1      11.517  -0.116  12.795  1.00  0.00     0.016 C 
ATOM      3  C   UNL     1      11.657  -1.535  13.367  1.00  0.00     0.013 C 
BRANCH   2   4
ATOM      4  C   UNL     1      10.115   0.098  12.254  1.00  0.00    -0.045 A 
ATOM      5  C   UNL     1       6.145   0.702  10.664  1.00  0.00     0.044 C 
ATOM      6  C   UNL     1       7.511   0.476  11.239  1.00  0.00    -0.051 A 
ATOM      7  C   UNL     1       8.289  -0.607  10.806  1.00  0.00     0.004 A 
ATOM      8  C   UNL     1       8.049   1.384  12.161  1.00  0.00     0.004 A 
ATOM      9  C   UNL     1       9.578  -0.799  11.314  1.00  0.00     0.004 A 
ATOM     10  C   UNL     1       9.337   1.195  12.669  1.00  0.00     0.004 A 
ENDBRANCH   2   4
ENDBRANCH   1   2
BRANCH   1  11
ATOM     11  C   UNL     1      11.769   0.457  15.283  1.00  0.00     0.028 C 
BRANCH  11  12
ATOM     12  C   UNL     1      10.695   1.196  16.043  1.00  0.00    -0.028 C 
ATOM     13  C   UNL     1       9.485   0.675  16.352  1.00  0.00    -0.080 C 
ATOM     14  C   UNL     1       8.476   1.514  17.094  1.00  0.00     0.039 C 
ATOM     15  C   UNL     1       9.116  -0.750  16.022  1.00  0.00     0.039 C 
ENDBRANCH  11  12
ENDBRANCH   1  11
TORSDOF 4
ENDMDL
MODEL 8
REMARK VINA RESULT:    -5.001      1.864      5.124
REMARK INTER + INTRA:          -7.305
REMARK INTER:                  -5.968
REMARK INTRA:                  -1.337
REMARK UNBOUND:                -1.135
REMARK SMILES CC(C)=CCC[C@@H](C)c1ccc(C)cc1
REMARK SMILES IDX 6 1 7 2 8 3 9 4 13 5 12 6 11 7 14 8 10 9 15 10 5 11 4 12
REMARK SMILES IDX 2 13 1 14 3 15
REMARK H PARENT
REMARK Flexibility Score: inf
ROOT
ATOM      1  C   UNL     1       8.593  -0.522  11.141  1.00  0.00     0.012 C 
ENDROOT
BRANCH   1   2
ATOM      2  C   UNL     1       8.010   0.882  11.423  1.00  0.00     0.016 C 
ATOM      3  C   UNL     1       6.530   0.988  11.022  1.00  0.00     0.013 C 
BRANCH   2   4
ATOM      4  C   UNL     1       8.185   1.244  12.887  1.00  0.00    -0.045 A 
ATOM      5  C   UNL     1       8.738   2.271  17.046  1.00  0.00     0.044 C 
ATOM      6  C   UNL     1       8.522   1.933  15.600  1.00  0.00    -0.051 A 
ATOM      7  C   UNL     1       9.175   2.664  14.598  1.00  0.00     0.004 A 
ATOM      8  C   UNL     1       7.721   0.840  15.243  1.00  0.00     0.004 A 
ATOM      9  C   UNL     1       9.004   2.327  13.252  1.00  0.00     0.004 A 
ATOM     10  C   UNL     1       7.548   0.501  13.898  1.00  0.00     0.004 A 
ENDBRANCH   2   4
ENDBRANCH   1   2
BRANCH   1  11
ATOM     11  C   UNL     1      10.123  -0.563  11.264  1.00  0.00     0.028 C 
BRANCH  11  12
ATOM     12  C   UNL     1      10.535  -1.103  12.612  1.00  0.00    -0.028 C 
ATOM     13  C   UNL     1      11.496  -0.554  13.391  1.00  0.00    -0.080 C 
ATOM     14  C   UNL     1      11.844  -1.192  14.711  1.00  0.00     0.039 C 
ATOM     15  C   UNL     1      12.208   0.720  13.010  1.00  0.00     0.039 C 
ENDBRANCH  11  12
ENDBRANCH   1  11
TORSDOF 4
ENDMDL
MODEL 9
REMARK VINA RESULT:    -4.979      2.346      4.557
REMARK INTER + INTRA:          -7.278
REMARK INTER:                  -6.458
REMARK INTRA:                  -0.820
REMARK UNBOUND:                -1.135
REMARK SMILES CC(C)=CCC[C@@H](C)c1ccc(C)cc1
REMARK SMILES IDX 6 1 7 2 8 3 9 4 13 5 12 6 11 7 14 8 10 9 15 10 5 11 4 12
REMARK SMILES IDX 2 13 1 14 3 15
REMARK H PARENT
REMARK Flexibility Score: inf
ROOT
ATOM      1  C   UNL     1       8.764   0.157  15.035  1.00  0.00     0.012 C 
ENDROOT
BRANCH   1   2
ATOM      2  C   UNL     1       9.639   0.868  13.977  1.00  0.00     0.016 C 
ATOM      3  C   UNL     1      11.140   0.713  14.264  1.00  0.00     0.013 C 
BRANCH   2   4
ATOM      4  C   UNL     1       9.313   0.351  12.587  1.00  0.00    -0.045 A 
ATOM      5  C   UNL     1       8.339  -1.138   8.652  1.00  0.00     0.044 C 
ATOM      6  C   UNL     1       8.690  -0.596  10.006  1.00  0.00    -0.051 A 
ATOM      7  C   UNL     1       7.779   0.210  10.702  1.00  0.00     0.004 A 
ATOM      8  C   UNL     1       9.902  -0.949  10.615  1.00  0.00     0.004 A 
ATOM      9  C   UNL     1       8.090   0.686  11.980  1.00  0.00     0.004 A 
ATOM     10  C   UNL     1      10.215  -0.475  11.892  1.00  0.00     0.004 A 
ENDBRANCH   2   4
ENDBRANCH   1   2
BRANCH   1  11
ATOM     11  C   UNL     1       7.854   1.129  15.802  1.00  0.00     0.028 C 
BRANCH  11  12
ATOM     12  C   UNL     1       8.489   1.534  17.109  1.00  0.00    -0.028 C 
ATOM     13  C   UNL     1       9.160   2.693  17.304  1.00  0.00    -0.080 C 
ATOM     14  C   UNL     1       9.777   2.985  18.647  1.00  0.00     0.039 C 
ATOM     15  C   UNL     1       9.274   3.744  16.228  1.00  0.00     0.039 C 
ENDBRANCH  11  12
ENDBRANCH   1  11
TORSDOF 4
ENDMDL
