MODEL 1
REMARK VINA RESULT:    -4.297      0.000      0.000
REMARK INTER + INTRA:          -5.047
REMARK INTER:                  -4.926
REMARK INTRA:                  -0.121
REMARK UNBOUND:                -0.121
REMARK SMILES COc1ccc(C(C)=O)cc1O
REMARK SMILES IDX 6 1 10 2 11 3 3 4 4 5 5 6 7 7 8 8 9 9 12 10 2 12 1 13
REMARK H PARENT 12 11
REMARK Flexibility Score: inf
ROOT
ATOM      1  C   UNL     1      79.602  15.843   3.273  1.00  0.00     0.021 A 
ATOM      2  C   UNL     1      80.277  17.036   2.951  1.00  0.00     0.062 A 
ATOM      3  C   UNL     1      79.748  17.930   2.013  1.00  0.00     0.158 A 
ATOM      4  C   UNL     1      78.529  17.646   1.375  1.00  0.00     0.160 A 
ATOM      5  C   UNL     1      77.851  16.455   1.693  1.00  0.00     0.051 A 
ATOM      6  C   UNL     1      78.382  15.566   2.631  1.00  0.00     0.016 A 
ENDROOT
BRANCH   1   7
ATOM      7  C   UNL     1      80.153  14.886   4.269  1.00  0.00     0.159 C 
ATOM      8  C   UNL     1      79.540  14.712   5.627  1.00  0.00     0.093 C 
ATOM      9  O   UNL     1      81.167  14.193   3.977  1.00  0.00    -0.295 OA
ENDBRANCH   1   7
BRANCH   3  10
ATOM     10  O   UNL     1      80.454  19.099   1.727  1.00  0.00    -0.504 OA
ATOM     11  H   UNL     1      80.645  19.397   0.778  1.00  0.00     0.293 HD
ENDBRANCH   3  10
BRANCH   4  12
ATOM     12  O   UNL     1      78.023  18.562   0.438  1.00  0.00    -0.493 OA
ATOM     13  C   UNL     1      76.988  19.501   0.705  1.00  0.00     0.278 C 
ENDBRANCH   4  12
TORSDOF 3
ENDMDL
MODEL 2
REMARK VINA RESULT:    -4.201      2.104      5.006
REMARK INTER + INTRA:          -4.937
REMARK INTER:                  -4.800
REMARK INTRA:                  -0.137
REMARK UNBOUND:                -0.121
REMARK SMILES COc1ccc(C(C)=O)cc1O
REMARK SMILES IDX 6 1 10 2 11 3 3 4 4 5 5 6 7 7 8 8 9 9 12 10 2 12 1 13
REMARK H PARENT 12 11
REMARK Flexibility Score: inf
ROOT
ATOM      1  C   UNL     1      79.382  16.003   3.058  1.00  0.00     0.021 A 
ATOM      2  C   UNL     1      79.408  16.872   4.166  1.00  0.00     0.062 A 
ATOM      3  C   UNL     1      79.393  16.372   5.472  1.00  0.00     0.158 A 
ATOM      4  C   UNL     1      79.350  14.985   5.698  1.00  0.00     0.160 A 
ATOM      5  C   UNL     1      79.325  14.113   4.594  1.00  0.00     0.051 A 
ATOM      6  C   UNL     1      79.341  14.617   3.291  1.00  0.00     0.016 A 
ENDROOT
BRANCH   1   7
ATOM      7  C   UNL     1      79.399  16.523   1.664  1.00  0.00     0.159 C 
ATOM      8  C   UNL     1      78.946  15.692   0.502  1.00  0.00     0.093 C 
ATOM      9  O   UNL     1      79.805  17.696   1.439  1.00  0.00    -0.295 OA
ENDBRANCH   1   7
BRANCH   3  10
ATOM     10  O   UNL     1      79.419  17.273   6.537  1.00  0.00    -0.504 OA
ATOM     11  H   UNL     1      80.153  17.963   6.643  1.00  0.00     0.293 HD
ENDBRANCH   3  10
BRANCH   4  12
ATOM     12  O   UNL     1      79.336  14.512   7.020  1.00  0.00    -0.493 OA
ATOM     13  C   UNL     1      80.435  13.875   7.661  1.00  0.00     0.278 C 
ENDBRANCH   4  12
TORSDOF 3
ENDMDL
MODEL 3
REMARK VINA RESULT:    -4.147      1.756      4.918
REMARK INTER + INTRA:          -4.874
REMARK INTER:                  -4.761
REMARK INTRA:                  -0.113
REMARK UNBOUND:                -0.121
REMARK SMILES COc1ccc(C(C)=O)cc1O
REMARK SMILES IDX 6 1 10 2 11 3 3 4 4 5 5 6 7 7 8 8 9 9 12 10 2 12 1 13
REMARK H PARENT 12 11
REMARK Flexibility Score: inf
ROOT
ATOM      1  C   UNL     1      79.116  16.034   2.531  1.00  0.00     0.021 A 
ATOM      2  C   UNL     1      80.243  15.216   2.740  1.00  0.00     0.062 A 
ATOM      3  C   UNL     1      80.517  14.679   4.003  1.00  0.00     0.158 A 
ATOM      4  C   UNL     1      79.665  14.950   5.087  1.00  0.00     0.160 A 
ATOM      5  C   UNL     1      78.538  15.766   4.883  1.00  0.00     0.051 A 
ATOM      6  C   UNL     1      78.268  16.300   3.621  1.00  0.00     0.016 A 
ENDROOT
BRANCH   1   7
ATOM      7  C   UNL     1      78.813  16.610   1.194  1.00  0.00     0.159 C 
ATOM      8  C   UNL     1      78.458  18.056   1.015  1.00  0.00     0.093 C 
ATOM      9  O   UNL     1      78.851  15.873   0.171  1.00  0.00    -0.295 OA
ENDBRANCH   1   7
BRANCH   3  10
ATOM     10  O   UNL     1      81.646  13.875   4.159  1.00  0.00    -0.504 OA
ATOM     11  H   UNL     1      81.789  13.031   3.618  1.00  0.00     0.293 HD
ENDBRANCH   3  10
BRANCH   4  12
ATOM     12  O   UNL     1      79.966  14.397   6.342  1.00  0.00    -0.493 OA
ATOM     13  C   UNL     1      79.801  15.074   7.583  1.00  0.00     0.278 C 
ENDBRANCH   4  12
TORSDOF 3
ENDMDL
MODEL 4
REMARK VINA RESULT:    -4.025      1.684      5.081
REMARK INTER + INTRA:          -4.734
REMARK INTER:                  -4.639
REMARK INTRA:                  -0.095
REMARK UNBOUND:                -0.121
REMARK SMILES COc1ccc(C(C)=O)cc1O
REMARK SMILES IDX 6 1 10 2 11 3 3 4 4 5 5 6 7 7 8 8 9 9 12 10 2 12 1 13
REMARK H PARENT 12 11
REMARK Flexibility Score: inf
ROOT
ATOM      1  C   UNL     1      79.387  17.178   2.910  1.00  0.00     0.021 A 
ATOM      2  C   UNL     1      78.703  15.956   2.763  1.00  0.00     0.062 A 
ATOM      3  C   UNL     1      78.568  15.074   3.841  1.00  0.00     0.158 A 
ATOM      4  C   UNL     1      79.117  15.398   5.093  1.00  0.00     0.160 A 
ATOM      5  C   UNL     1      79.801  16.618   5.244  1.00  0.00     0.051 A 
ATOM      6  C   UNL     1      79.933  17.496   4.166  1.00  0.00     0.016 A 
ENDROOT
BRANCH   1   7
ATOM      7  C   UNL     1      79.537  18.124   1.772  1.00  0.00     0.159 C 
ATOM      8  C   UNL     1      78.472  18.284   0.728  1.00  0.00     0.093 C 
ATOM      9  O   UNL     1      80.586  18.818   1.668  1.00  0.00    -0.295 OA
ENDBRANCH   1   7
BRANCH   3  10
ATOM     10  O   UNL     1      77.882  13.875   3.645  1.00  0.00    -0.504 OA
ATOM     11  H   UNL     1      76.978  13.837   3.189  1.00  0.00     0.293 HD
ENDBRANCH   3  10
BRANCH   4  12
ATOM     12  O   UNL     1      78.966  14.494   6.156  1.00  0.00    -0.493 OA
ATOM     13  C   UNL     1      79.853  14.396   7.265  1.00  0.00     0.278 C 
ENDBRANCH   4  12
TORSDOF 3
ENDMDL
MODEL 5
REMARK VINA RESULT:    -3.719      2.634      3.391
REMARK INTER + INTRA:          -4.384
REMARK INTER:                  -4.257
REMARK INTRA:                  -0.126
REMARK UNBOUND:                -0.121
REMARK SMILES COc1ccc(C(C)=O)cc1O
REMARK SMILES IDX 6 1 10 2 11 3 3 4 4 5 5 6 7 7 8 8 9 9 12 10 2 12 1 13
REMARK H PARENT 12 11
REMARK Flexibility Score: inf
ROOT
ATOM      1  C   UNL     1      79.612  15.102   5.235  1.00  0.00     0.021 A 
ATOM      2  C   UNL     1      78.628  15.876   4.590  1.00  0.00     0.062 A 
ATOM      3  C   UNL     1      78.495  15.853   3.197  1.00  0.00     0.158 A 
ATOM      4  C   UNL     1      79.347  15.051   2.418  1.00  0.00     0.160 A 
ATOM      5  C   UNL     1      80.331  14.276   3.058  1.00  0.00     0.051 A 
ATOM      6  C   UNL     1      80.460  14.302   4.449  1.00  0.00     0.016 A 
ENDROOT
BRANCH   1   7
ATOM      7  C   UNL     1      79.763  15.118   6.715  1.00  0.00     0.159 C 
ATOM      8  C   UNL     1      80.084  13.876   7.493  1.00  0.00     0.093 C 
ATOM      9  O   UNL     1      79.619  16.200   7.347  1.00  0.00    -0.295 OA
ENDBRANCH   1   7
BRANCH   3  10
ATOM     10  O   UNL     1      77.505  16.637   2.604  1.00  0.00    -0.504 OA
ATOM     11  H   UNL     1      77.604  17.017   1.670  1.00  0.00     0.293 HD
ENDBRANCH   3  10
BRANCH   4  12
ATOM     12  O   UNL     1      79.189  15.048   1.023  1.00  0.00    -0.493 OA
ATOM     13  C   UNL     1      78.382  14.122   0.304  1.00  0.00     0.278 C 
ENDBRANCH   4  12
TORSDOF 3
ENDMDL
MODEL 6
REMARK VINA RESULT:    -3.648      1.444      2.318
REMARK INTER + INTRA:          -4.303
REMARK INTER:                  -4.202
REMARK INTRA:                  -0.101
REMARK UNBOUND:                -0.121
REMARK SMILES COc1ccc(C(C)=O)cc1O
REMARK SMILES IDX 6 1 10 2 11 3 3 4 4 5 5 6 7 7 8 8 9 9 12 10 2 12 1 13
REMARK H PARENT 12 11
REMARK Flexibility Score: inf
ROOT
ATOM      1  C   UNL     1      79.492  15.283   4.022  1.00  0.00     0.021 A 
ATOM      2  C   UNL     1      78.503  14.715   3.196  1.00  0.00     0.062 A 
ATOM      3  C   UNL     1      77.984  15.422   2.105  1.00  0.00     0.158 A 
ATOM      4  C   UNL     1      78.447  16.718   1.818  1.00  0.00     0.160 A 
ATOM      5  C   UNL     1      79.435  17.289   2.640  1.00  0.00     0.051 A 
ATOM      6  C   UNL     1      79.950  16.579   3.727  1.00  0.00     0.016 A 
ENDROOT
BRANCH   1   7
ATOM      7  C   UNL     1      80.051  14.541   5.183  1.00  0.00     0.159 C 
ATOM      8  C   UNL     1      79.389  14.558   6.529  1.00  0.00     0.093 C 
ATOM      9  O   UNL     1      81.114  13.875   5.048  1.00  0.00    -0.295 OA
ENDBRANCH   1   7
BRANCH   3  10
ATOM     10  O   UNL     1      77.006  14.817   1.317  1.00  0.00    -0.504 OA
ATOM     11  H   UNL     1      76.804  13.826   1.372  1.00  0.00     0.293 HD
ENDBRANCH   3  10
BRANCH   4  12
ATOM     12  O   UNL     1      77.908  17.402   0.717  1.00  0.00    -0.493 OA
ATOM     13  C   UNL     1      77.510  18.769   0.733  1.00  0.00     0.278 C 
ENDBRANCH   4  12
TORSDOF 3
ENDMDL
MODEL 7
REMARK VINA RESULT:    -3.256      1.662      2.012
REMARK INTER + INTRA:          -3.854
REMARK INTER:                  -3.760
REMARK INTRA:                  -0.094
REMARK UNBOUND:                -0.121
REMARK SMILES COc1ccc(C(C)=O)cc1O
REMARK SMILES IDX 6 1 10 2 11 3 3 4 4 5 5 6 7 7 8 8 9 9 12 10 2 12 1 13
REMARK H PARENT 12 11
REMARK Flexibility Score: inf
ROOT
ATOM      1  C   UNL     1      79.394  15.641   5.070  1.00  0.00     0.021 A 
ATOM      2  C   UNL     1      79.947  16.897   4.756  1.00  0.00     0.062 A 
ATOM      3  C   UNL     1      79.873  17.411   3.457  1.00  0.00     0.158 A 
ATOM      4  C   UNL     1      79.241  16.675   2.440  1.00  0.00     0.160 A 
ATOM      5  C   UNL     1      78.687  15.420   2.749  1.00  0.00     0.051 A 
ATOM      6  C   UNL     1      78.762  14.910   4.047  1.00  0.00     0.016 A 
ENDROOT
BRANCH   1   7
ATOM      7  C   UNL     1      79.466  15.084   6.447  1.00  0.00     0.159 C 
ATOM      8  C   UNL     1      79.892  15.917   7.619  1.00  0.00     0.093 C 
ATOM      9  O   UNL     1      79.163  13.876   6.651  1.00  0.00    -0.295 OA
ENDBRANCH   1   7
BRANCH   3  10
ATOM     10  O   UNL     1      80.437  18.660   3.196  1.00  0.00    -0.504 OA
ATOM     11  H   UNL     1      81.337  18.936   3.571  1.00  0.00     0.293 HD
ENDBRANCH   3  10
BRANCH   4  12
ATOM     12  O   UNL     1      79.182  17.217   1.146  1.00  0.00    -0.493 OA
ATOM     13  C   UNL     1      78.150  18.079   0.678  1.00  0.00     0.278 C 
ENDBRANCH   4  12
TORSDOF 3
ENDMDL
MODEL 8
REMARK VINA RESULT:    -3.209     18.383     19.539
REMARK INTER + INTRA:          -3.800
REMARK INTER:                  -4.008
REMARK INTRA:                   0.209
REMARK UNBOUND:                -0.121
REMARK SMILES COc1ccc(C(C)=O)cc1O
REMARK SMILES IDX 6 1 10 2 11 3 3 4 4 5 5 6 7 7 8 8 9 9 12 10 2 12 1 13
REMARK H PARENT 12 11
REMARK Flexibility Score: inf
ROOT
ATOM      1  C   UNL     1      89.625  26.839  15.948  1.00  0.00     0.021 A 
ATOM      2  C   UNL     1      89.088  26.870  14.647  1.00  0.00     0.062 A 
ATOM      3  C   UNL     1      89.920  26.975  13.528  1.00  0.00     0.158 A 
ATOM      4  C   UNL     1      91.315  27.053  13.688  1.00  0.00     0.160 A 
ATOM      5  C   UNL     1      91.856  27.023  14.986  1.00  0.00     0.051 A 
ATOM      6  C   UNL     1      91.021  26.916  16.101  1.00  0.00     0.016 A 
ENDROOT
BRANCH   1   7
ATOM      7  C   UNL     1      88.750  26.726  17.146  1.00  0.00     0.159 C 
ATOM      8  C   UNL     1      88.776  27.744  18.246  1.00  0.00     0.093 C 
ATOM      9  O   UNL     1      87.959  25.749  17.253  1.00  0.00    -0.295 OA
ENDBRANCH   1   7
BRANCH   3  10
ATOM     10  O   UNL     1      89.341  27.002  12.259  1.00  0.00    -0.504 OA
ATOM     11  H   UNL     1      89.892  27.087  11.414  1.00  0.00     0.293 HD
ENDBRANCH   3  10
BRANCH   4  12
ATOM     12  O   UNL     1      92.125  27.159  12.547  1.00  0.00    -0.493 OA
ATOM     13  C   UNL     1      92.124  26.231  11.467  1.00  0.00     0.278 C 
ENDBRANCH   4  12
TORSDOF 3
ENDMDL
