MODEL 1
REMARK VINA RESULT:    -4.525      0.000      0.000
REMARK INTER + INTRA:          -5.222
REMARK INTER:                  -6.377
REMARK INTRA:                   1.155
REMARK UNBOUND:                 1.155
REMARK SMILES CC1=CCC(=C(C)C)C(=O)CC(C)=CCC1
REMARK SMILES IDX 12 1 14 2 13 3 15 4 16 5 2 6 1 7 3 8 11 10 9 11 10 12 5 13
REMARK SMILES IDX 6 14 7 15 8 16 4 17
REMARK H PARENT
REMARK Flexibility Score: 60.00
ROOT
ATOM      1  C   UNL     1      12.028  15.141  25.487  1.00  0.00    -0.070 C 
ATOM      2  C   UNL     1      11.635  14.786  26.739  1.00  0.00    -0.027 C 
ATOM      3  C   UNL     1      11.023  14.958  24.375  1.00  0.00     0.039 C 
ENDROOT
BRANCH   2   4
ATOM      4  C   UNL     1      12.501  14.740  27.976  1.00  0.00     0.032 C 
BRANCH   4   5
ATOM      5  C   UNL     1      13.439  13.525  28.022  1.00  0.00     0.034 C 
BRANCH   5   6
ATOM      6  C   UNL     1      14.890  13.895  27.776  1.00  0.00    -0.077 C 
ATOM      7  C   UNL     1      15.876  12.788  27.493  1.00  0.00     0.039 C 
ATOM      8  C   UNL     1      15.381  15.156  27.891  1.00  0.00    -0.023 CG0
ATOM      9  G   UNL     1      14.597  16.446  28.050  1.00  0.00     0.000 G0
ENDBRANCH   5   6
ENDBRANCH   4   5
ENDBRANCH   2   4
BRANCH   1  10
ATOM     10  C   UNL     1      13.350  15.822  25.150  1.00  0.00     0.111 C 
BRANCH  10  11
ATOM     11  C   UNL     1      13.551  17.156  25.821  1.00  0.00     0.163 C 
ATOM     12  O   UNL     1      12.800  18.116  25.500  1.00  0.00    -0.294 OA
BRANCH  11  13
ATOM     13  C   UNL     1      14.629  17.380  26.825  1.00  0.00    -0.002 C 
ATOM     14  C   UNL     1      15.638  18.273  26.615  1.00  0.00    -0.069 C 
ATOM     15  C   UNL     1      16.709  18.504  27.657  1.00  0.00     0.039 C 
ATOM     16  C   UNL     1      15.776  19.022  25.309  1.00  0.00     0.039 C 
BRANCH  13  17
ATOM     17  C   UNL     1      14.625  16.461  28.037  1.00  0.00     0.066 CG0
ATOM     18  G   UNL     1      15.387  15.159  27.875  1.00  0.00     0.000 G0
ENDBRANCH  13  17
ENDBRANCH  11  13
ENDBRANCH  10  11
ENDBRANCH   1  10
TORSDOF 0
ENDMDL
MODEL 2
REMARK VINA RESULT:    -4.341      1.654      4.235
REMARK INTER + INTRA:          -4.962
REMARK INTER:                  -5.979
REMARK INTRA:                   1.017
REMARK UNBOUND:                 1.155
REMARK SMILES CC1=CCC(=C(C)C)C(=O)CC(C)=CCC1
REMARK SMILES IDX 12 1 14 2 13 3 15 4 16 5 2 6 1 7 3 8 11 10 9 11 10 12 5 13
REMARK SMILES IDX 6 14 7 15 8 16 4 17
REMARK H PARENT
REMARK Flexibility Score: 60.00
ROOT
ATOM      1  C   UNL     1      14.918  18.047  25.400  1.00  0.00    -0.070 C 
ATOM      2  C   UNL     1      14.538  17.297  24.332  1.00  0.00    -0.027 C 
ATOM      3  C   UNL     1      15.913  19.154  25.141  1.00  0.00     0.039 C 
ENDROOT
BRANCH   2   4
ATOM      4  C   UNL     1      13.676  16.056  24.365  1.00  0.00     0.032 C 
BRANCH   4   5
ATOM      5  C   UNL     1      12.260  16.308  24.902  1.00  0.00     0.034 C 
BRANCH   5   6
ATOM      6  C   UNL     1      11.685  15.105  25.627  1.00  0.00    -0.077 C 
ATOM      7  C   UNL     1      10.890  14.098  24.832  1.00  0.00     0.039 C 
ATOM      8  C   UNL     1      11.758  14.925  26.971  1.00  0.00    -0.023 CG0
ATOM      9  G   UNL     1      12.584  15.714  27.970  1.00  0.00     0.000 G0
ENDBRANCH   5   6
ENDBRANCH   4   5
ENDBRANCH   2   4
BRANCH   1  10
ATOM     10  C   UNL     1      14.323  17.936  26.799  1.00  0.00     0.111 C 
BRANCH  10  11
ATOM     11  C   UNL     1      14.870  16.797  27.619  1.00  0.00     0.163 C 
ATOM     12  O   UNL     1      16.028  16.901  28.105  1.00  0.00    -0.294 OA
BRANCH  11  13
ATOM     13  C   UNL     1      14.096  15.543  27.843  1.00  0.00    -0.002 C 
ATOM     14  C   UNL     1      14.686  14.314  27.805  1.00  0.00    -0.069 C 
ATOM     15  C   UNL     1      13.888  13.055  28.060  1.00  0.00     0.039 C 
ATOM     16  C   UNL     1      16.142  14.143  27.439  1.00  0.00     0.039 C 
BRANCH  13  17
ATOM     17  C   UNL     1      12.589  15.695  27.980  1.00  0.00     0.066 CG0
ATOM     18  G   UNL     1      11.758  14.924  26.970  1.00  0.00     0.000 G0
ENDBRANCH  13  17
ENDBRANCH  11  13
ENDBRANCH  10  11
ENDBRANCH   1  10
TORSDOF 0
ENDMDL
MODEL 3
REMARK VINA RESULT:    -3.704      1.792      3.464
REMARK INTER + INTRA:          -4.065
REMARK INTER:                  -5.189
REMARK INTRA:                   1.124
REMARK UNBOUND:                 1.155
REMARK SMILES CC1=CCC(=C(C)C)C(=O)CC(C)=CCC1
REMARK SMILES IDX 12 1 14 2 13 3 15 4 16 5 2 6 1 7 3 8 11 10 9 11 10 12 5 13
REMARK SMILES IDX 6 14 7 15 8 16 4 17
REMARK H PARENT
REMARK Flexibility Score: 60.00
ROOT
ATOM      1  C   UNL     1      14.538  14.828  27.788  1.00  0.00    -0.070 C 
ATOM      2  C   UNL     1      13.600  13.890  27.486  1.00  0.00    -0.027 C 
ATOM      3  C   UNL     1      15.985  14.415  27.661  1.00  0.00     0.039 C 
ENDROOT
BRANCH   2   4
ATOM      4  C   UNL     1      12.107  14.019  27.675  1.00  0.00     0.032 C 
BRANCH   4   5
ATOM      5  C   UNL     1      11.516  15.289  27.047  1.00  0.00     0.034 C 
BRANCH   5   6
ATOM      6  C   UNL     1      11.825  15.409  25.565  1.00  0.00    -0.077 C 
ATOM      7  C   UNL     1      11.363  14.307  24.643  1.00  0.00     0.039 C 
ATOM      8  C   UNL     1      12.580  16.402  25.027  1.00  0.00    -0.023 CG0
ATOM      9  G   UNL     1      13.061  17.672  25.703  1.00  0.00     0.000 G0
ENDBRANCH   5   6
ENDBRANCH   4   5
ENDBRANCH   2   4
BRANCH   1  10
ATOM     10  C   UNL     1      14.238  16.286  28.117  1.00  0.00     0.111 C 
BRANCH  10  11
ATOM     11  C   UNL     1      15.025  17.282  27.307  1.00  0.00     0.163 C 
ATOM     12  O   UNL     1      16.093  17.748  27.789  1.00  0.00    -0.294 OA
BRANCH  11  13
ATOM     13  C   UNL     1      14.563  17.755  25.971  1.00  0.00    -0.002 C 
ATOM     14  C   UNL     1      15.410  18.349  25.083  1.00  0.00    -0.069 C 
ATOM     15  C   UNL     1      14.927  18.799  23.722  1.00  0.00     0.039 C 
ATOM     16  C   UNL     1      16.849  18.650  25.437  1.00  0.00     0.039 C 
BRANCH  13  17
ATOM     17  C   UNL     1      13.069  17.666  25.703  1.00  0.00     0.066 CG0
ATOM     18  G   UNL     1      12.598  16.392  25.026  1.00  0.00     0.000 G0
ENDBRANCH  13  17
ENDBRANCH  11  13
ENDBRANCH  10  11
ENDBRANCH   1  10
TORSDOF 0
ENDMDL
MODEL 4
REMARK VINA RESULT:    -2.936      1.450      2.765
REMARK INTER + INTRA:          -2.983
REMARK INTER:                  -3.607
REMARK INTRA:                   0.625
REMARK UNBOUND:                 1.155
REMARK SMILES CC1=CCC(=C(C)C)C(=O)CC(C)=CCC1
REMARK SMILES IDX 12 1 14 2 13 3 15 4 16 5 2 6 1 7 3 8 11 10 9 11 10 12 5 13
REMARK SMILES IDX 6 14 7 15 8 16 4 17
REMARK H PARENT
REMARK Flexibility Score: 60.00
ROOT
ATOM      1  C   UNL     1      13.856  17.562  24.693  1.00  0.00    -0.070 C 
ATOM      2  C   UNL     1      13.133  16.485  24.283  1.00  0.00    -0.027 C 
ATOM      3  C   UNL     1      15.057  17.939  23.860  1.00  0.00     0.039 C 
ENDROOT
BRANCH   2   4
ATOM      4  C   UNL     1      11.989  15.834  25.024  1.00  0.00     0.032 C 
BRANCH   4   5
ATOM      5  C   UNL     1      12.381  14.529  25.731  1.00  0.00     0.034 C 
BRANCH   5   6
ATOM      6  C   UNL     1      12.200  14.601  27.237  1.00  0.00    -0.077 C 
ATOM      7  C   UNL     1      10.880  14.166  27.824  1.00  0.00     0.039 C 
ATOM      8  C   UNL     1      13.121  15.127  28.086  1.00  0.00    -0.023 CG0
ATOM      9  G   UNL     1      14.552  15.522  27.774  1.00  0.00     0.000 G0
ENDBRANCH   5   6
ENDBRANCH   4   5
ENDBRANCH   2   4
BRANCH   1  10
ATOM     10  C   UNL     1      13.471  18.479  25.848  1.00  0.00     0.111 C 
BRANCH  10  11
ATOM     11  C   UNL     1      13.590  17.848  27.211  1.00  0.00     0.163 C 
ATOM     12  O   UNL     1      12.662  18.027  28.045  1.00  0.00    -0.294 OA
BRANCH  11  13
ATOM     13  C   UNL     1      14.782  17.048  27.609  1.00  0.00    -0.002 C 
ATOM     14  C   UNL     1      16.027  17.598  27.689  1.00  0.00    -0.069 C 
ATOM     15  C   UNL     1      17.221  16.775  28.119  1.00  0.00     0.039 C 
ATOM     16  C   UNL     1      16.289  19.032  27.286  1.00  0.00     0.039 C 
BRANCH  13  17
ATOM     17  C   UNL     1      14.564  15.554  27.788  1.00  0.00     0.066 CG0
ATOM     18  G   UNL     1      13.144  15.134  28.119  1.00  0.00     0.000 G0
ENDBRANCH  13  17
ENDBRANCH  11  13
ENDBRANCH  10  11
ENDBRANCH   1  10
TORSDOF 0
ENDMDL
MODEL 5
REMARK VINA RESULT:    -2.364      2.401      4.578
REMARK INTER + INTRA:          -2.176
REMARK INTER:                  -2.906
REMARK INTRA:                   0.730
REMARK UNBOUND:                 1.155
REMARK SMILES CC1=CCC(=C(C)C)C(=O)CC(C)=CCC1
REMARK SMILES IDX 12 1 14 2 13 3 15 4 16 5 2 6 1 7 3 8 11 10 9 11 10 12 5 13
REMARK SMILES IDX 6 14 7 15 8 16 4 17
REMARK H PARENT
REMARK Flexibility Score: 60.00
ROOT
ATOM      1  C   UNL     1      16.211  17.970  27.601  1.00  0.00    -0.070 C 
ATOM      2  C   UNL     1      15.843  16.764  28.109  1.00  0.00    -0.027 C 
ATOM      3  C   UNL     1      17.504  18.563  28.110  1.00  0.00     0.039 C 
ENDROOT
BRANCH   2   4
ATOM      4  C   UNL     1      14.535  16.047  27.867  1.00  0.00     0.032 C 
BRANCH   4   5
ATOM      5  C   UNL     1      14.338  15.608  26.409  1.00  0.00     0.034 C 
BRANCH   5   6
ATOM      6  C   UNL     1      13.243  16.388  25.704  1.00  0.00    -0.077 C 
ATOM      7  C   UNL     1      11.871  16.426  26.330  1.00  0.00     0.039 C 
ATOM      8  C   UNL     1      13.395  16.977  24.489  1.00  0.00    -0.023 CG0
ATOM      9  G   UNL     1      14.681  17.182  23.711  1.00  0.00     0.000 G0
ENDBRANCH   5   6
ENDBRANCH   4   5
ENDBRANCH   2   4
BRANCH   1  10
ATOM     10  C   UNL     1      15.487  18.699  26.474  1.00  0.00     0.111 C 
BRANCH  10  11
ATOM     11  C   UNL     1      16.192  18.644  25.144  1.00  0.00     0.163 C 
ATOM     12  O   UNL     1      17.446  18.763  25.117  1.00  0.00    -0.294 OA
BRANCH  11  13
ATOM     13  C   UNL     1      15.448  18.486  23.862  1.00  0.00    -0.002 C 
ATOM     14  C   UNL     1      15.345  19.500  22.957  1.00  0.00    -0.069 C 
ATOM     15  C   UNL     1      14.606  19.312  21.651  1.00  0.00     0.039 C 
ATOM     16  C   UNL     1      15.898  20.878  23.242  1.00  0.00     0.039 C 
BRANCH  13  17
ATOM     17  C   UNL     1      14.693  17.179  23.677  1.00  0.00     0.066 CG0
ATOM     18  G   UNL     1      13.428  17.030  24.502  1.00  0.00     0.000 G0
ENDBRANCH  13  17
ENDBRANCH  11  13
ENDBRANCH  10  11
ENDBRANCH   1  10
TORSDOF 0
ENDMDL
MODEL 6
REMARK VINA RESULT:    -2.359      1.939      3.370
REMARK INTER + INTRA:          -2.170
REMARK INTER:                  -3.224
REMARK INTRA:                   1.054
REMARK UNBOUND:                 1.155
REMARK SMILES CC1=CCC(=C(C)C)C(=O)CC(C)=CCC1
REMARK SMILES IDX 12 1 14 2 13 3 15 4 16 5 2 6 1 7 3 8 11 10 9 11 10 12 5 13
REMARK SMILES IDX 6 14 7 15 8 16 4 17
REMARK H PARENT
REMARK Flexibility Score: 60.00
ROOT
ATOM      1  C   UNL     1      13.381  17.213  27.942  1.00  0.00    -0.070 C 
ATOM      2  C   UNL     1      12.478  16.206  28.088  1.00  0.00    -0.027 C 
ATOM      3  C   UNL     1      12.831  18.613  27.812  1.00  0.00     0.039 C 
ENDROOT
BRANCH   2   4
ATOM      4  C   UNL     1      12.775  14.725  28.090  1.00  0.00     0.032 C 
BRANCH   4   5
ATOM      5  C   UNL     1      12.929  14.128  26.684  1.00  0.00     0.034 C 
BRANCH   5   6
ATOM      6  C   UNL     1      12.544  15.104  25.587  1.00  0.00    -0.077 C 
ATOM      7  C   UNL     1      11.091  15.209  25.195  1.00  0.00     0.039 C 
ATOM      8  C   UNL     1      13.442  15.823  24.864  1.00  0.00    -0.023 CG0
ATOM      9  G   UNL     1      14.928  15.986  25.126  1.00  0.00     0.000 G0
ENDBRANCH   5   6
ENDBRANCH   4   5
ENDBRANCH   2   4
BRANCH   1  10
ATOM     10  C   UNL     1      14.894  17.045  28.028  1.00  0.00     0.111 C 
BRANCH  10  11
ATOM     11  C   UNL     1      15.657  17.703  26.909  1.00  0.00     0.163 C 
ATOM     12  O   UNL     1      16.560  18.534  27.197  1.00  0.00    -0.294 OA
BRANCH  11  13
ATOM     13  C   UNL     1      15.355  17.425  25.476  1.00  0.00    -0.002 C 
ATOM     14  C   UNL     1      15.339  18.413  24.536  1.00  0.00    -0.069 C 
ATOM     15  C   UNL     1      15.054  18.107  23.083  1.00  0.00     0.039 C 
ATOM     16  C   UNL     1      15.534  19.865  24.908  1.00  0.00     0.039 C 
BRANCH  13  17
ATOM     17  C   UNL     1      14.928  16.005  25.140  1.00  0.00     0.066 CG0
ATOM     18  G   UNL     1      13.449  15.814  24.860  1.00  0.00     0.000 G0
ENDBRANCH  13  17
ENDBRANCH  11  13
ENDBRANCH  10  11
ENDBRANCH   1  10
TORSDOF 0
ENDMDL
MODEL 7
REMARK VINA RESULT:    -2.269      1.390      4.152
REMARK INTER + INTRA:          -2.043
REMARK INTER:                  -3.496
REMARK INTRA:                   1.453
REMARK UNBOUND:                 1.155
REMARK SMILES CC1=CCC(=C(C)C)C(=O)CC(C)=CCC1
REMARK SMILES IDX 12 1 14 2 13 3 15 4 16 5 2 6 1 7 3 8 11 10 9 11 10 12 5 13
REMARK SMILES IDX 6 14 7 15 8 16 4 17
REMARK H PARENT
REMARK Flexibility Score: 60.00
ROOT
ATOM      1  C   UNL     1      15.090  18.367  23.984  1.00  0.00    -0.070 C 
ATOM      2  C   UNL     1      16.085  19.038  24.624  1.00  0.00    -0.027 C 
ATOM      3  C   UNL     1      14.652  18.906  22.644  1.00  0.00     0.039 C 
ENDROOT
BRANCH   2   4
ATOM      4  C   UNL     1      16.589  18.780  26.024  1.00  0.00     0.032 C 
BRANCH   4   5
ATOM      5  C   UNL     1      15.483  18.367  27.007  1.00  0.00     0.034 C 
BRANCH   5   6
ATOM      6  C   UNL     1      15.793  17.066  27.725  1.00  0.00    -0.077 C 
ATOM      7  C   UNL     1      17.222  16.787  28.122  1.00  0.00     0.039 C 
ATOM      8  C   UNL     1      14.877  16.088  27.948  1.00  0.00    -0.023 CG0
ATOM      9  G   UNL     1      13.374  16.161  27.755  1.00  0.00     0.000 G0
ENDBRANCH   5   6
ENDBRANCH   4   5
ENDBRANCH   2   4
BRANCH   1  10
ATOM     10  C   UNL     1      14.482  17.052  24.459  1.00  0.00     0.111 C 
BRANCH  10  11
ATOM     11  C   UNL     1      13.325  17.209  25.410  1.00  0.00     0.163 C 
ATOM     12  O   UNL     1      12.730  18.319  25.464  1.00  0.00    -0.294 OA
BRANCH  11  13
ATOM     13  C   UNL     1      12.885  16.104  26.309  1.00  0.00    -0.002 C 
ATOM     14  C   UNL     1      11.993  15.156  25.904  1.00  0.00    -0.069 C 
ATOM     15  C   UNL     1      11.578  14.029  26.823  1.00  0.00     0.039 C 
ATOM     16  C   UNL     1      11.322  15.223  24.551  1.00  0.00     0.039 C 
BRANCH  13  17
ATOM     17  C   UNL     1      13.377  16.167  27.746  1.00  0.00     0.066 CG0
ATOM     18  G   UNL     1      14.882  16.098  27.928  1.00  0.00     0.000 G0
ENDBRANCH  13  17
ENDBRANCH  11  13
ENDBRANCH  10  11
ENDBRANCH   1  10
TORSDOF 0
ENDMDL
MODEL 8
REMARK VINA RESULT:    -2.192      1.730      5.055
REMARK INTER + INTRA:          -1.935
REMARK INTER:                  -2.283
REMARK INTRA:                   0.348
REMARK UNBOUND:                 1.155
REMARK SMILES CC1=CCC(=C(C)C)C(=O)CC(C)=CCC1
REMARK SMILES IDX 12 1 14 2 13 3 15 4 16 5 2 6 1 7 3 8 11 10 9 11 10 12 5 13
REMARK SMILES IDX 6 14 7 15 8 16 4 17
REMARK H PARENT
REMARK Flexibility Score: 60.00
ROOT
ATOM      1  C   UNL     1      15.544  16.136  27.705  1.00  0.00    -0.070 C 
ATOM      2  C   UNL     1      16.499  16.893  27.102  1.00  0.00    -0.027 C 
ATOM      3  C   UNL     1      15.933  14.731  28.101  1.00  0.00     0.039 C 
ENDROOT
BRANCH   2   4
ATOM      4  C   UNL     1      16.309  18.261  26.492  1.00  0.00     0.032 C 
BRANCH   4   5
ATOM      5  C   UNL     1      16.593  18.305  24.983  1.00  0.00     0.034 C 
BRANCH   5   6
ATOM      6  C   UNL     1      15.367  18.671  24.166  1.00  0.00    -0.077 C 
ATOM      7  C   UNL     1      15.349  20.003  23.456  1.00  0.00     0.039 C 
ATOM      8  C   UNL     1      14.239  17.916  24.113  1.00  0.00    -0.023 CG0
ATOM      9  G   UNL     1      14.042  16.504  24.632  1.00  0.00     0.000 G0
ENDBRANCH   5   6
ENDBRANCH   4   5
ENDBRANCH   2   4
BRANCH   1  10
ATOM     10  C   UNL     1      14.167  16.640  28.121  1.00  0.00     0.111 C 
BRANCH  10  11
ATOM     11  C   UNL     1      13.327  17.163  26.985  1.00  0.00     0.163 C 
ATOM     12  O   UNL     1      12.832  18.318  27.079  1.00  0.00    -0.294 OA
BRANCH  11  13
ATOM     13  C   UNL     1      13.039  16.343  25.774  1.00  0.00    -0.002 C 
ATOM     14  C   UNL     1      12.037  15.420  25.748  1.00  0.00    -0.069 C 
ATOM     15  C   UNL     1      11.745  14.616  24.501  1.00  0.00     0.039 C 
ATOM     16  C   UNL     1      11.217  15.103  26.979  1.00  0.00     0.039 C 
BRANCH  13  17
ATOM     17  C   UNL     1      14.009  16.492  24.613  1.00  0.00     0.066 CG0
ATOM     18  G   UNL     1      14.234  17.910  24.122  1.00  0.00     0.000 G0
ENDBRANCH  13  17
ENDBRANCH  11  13
ENDBRANCH  10  11
ENDBRANCH   1  10
TORSDOF 0
ENDMDL
