MODEL 1
REMARK VINA RESULT:    -2.675      0.000      0.000
REMARK INTER + INTRA:          -3.500
REMARK INTER:                  -3.301
REMARK INTRA:                  -0.199
REMARK UNBOUND:                -0.199
REMARK SMILES CCCCCC=O
REMARK SMILES IDX 4 1 3 2 2 3 1 4 5 5 6 6 7 7
REMARK H PARENT
REMARK Flexibility Score: inf
ROOT
ATOM      1  C   UNL     1      36.837 -10.969  54.638  1.00  0.00     0.008 C 
ENDROOT
BRANCH   1   2
ATOM      2  C   UNL     1      36.263  -9.915  55.603  1.00  0.00     0.000 C 
BRANCH   2   3
ATOM      3  C   UNL     1      37.125  -8.650  55.763  1.00  0.00    -0.003 C 
ATOM      4  C   UNL     1      36.871  -7.611  54.672  1.00  0.00     0.004 C 
ENDBRANCH   2   3
ENDBRANCH   1   2
BRANCH   1   5
ATOM      5  C   UNL     1      35.768 -11.590  53.729  1.00  0.00     0.072 C 
BRANCH   5   6
ATOM      6  C   UNL     1      34.990 -10.527  53.014  1.00  0.00     0.224 C 
ATOM      7  O   UNL     1      35.531  -9.824  52.173  1.00  0.00    -0.303 OA
ENDBRANCH   5   6
ENDBRANCH   1   5
TORSDOF 4
ENDMDL
MODEL 2
REMARK VINA RESULT:    -2.658      1.997      2.924
REMARK INTER + INTRA:          -3.479
REMARK INTER:                  -3.263
REMARK INTRA:                  -0.216
REMARK UNBOUND:                -0.199
REMARK SMILES CCCCCC=O
REMARK SMILES IDX 4 1 3 2 2 3 1 4 5 5 6 6 7 7
REMARK H PARENT
REMARK Flexibility Score: inf
ROOT
ATOM      1  C   UNL     1      35.550 -10.995  53.865  1.00  0.00     0.008 C 
ENDROOT
BRANCH   1   2
ATOM      2  C   UNL     1      35.438 -10.083  52.630  1.00  0.00     0.000 C 
BRANCH   2   3
ATOM      3  C   UNL     1      36.709  -9.277  52.306  1.00  0.00    -0.003 C 
ATOM      4  C   UNL     1      36.509  -7.768  52.431  1.00  0.00     0.004 C 
ENDBRANCH   2   3
ENDBRANCH   1   2
BRANCH   1   5
ATOM      5  C   UNL     1      36.816 -10.729  54.692  1.00  0.00     0.072 C 
BRANCH   5   6
ATOM      6  C   UNL     1      36.498  -9.910  55.907  1.00  0.00     0.224 C 
ATOM      7  O   UNL     1      36.694  -8.705  55.909  1.00  0.00    -0.303 OA
ENDBRANCH   5   6
ENDBRANCH   1   5
TORSDOF 4
ENDMDL
MODEL 3
REMARK VINA RESULT:    -2.644      7.590      8.911
REMARK INTER + INTRA:          -3.462
REMARK INTER:                  -3.236
REMARK INTRA:                  -0.225
REMARK UNBOUND:                -0.199
REMARK SMILES CCCCCC=O
REMARK SMILES IDX 4 1 3 2 2 3 1 4 5 5 6 6 7 7
REMARK H PARENT
REMARK Flexibility Score: inf
ROOT
ATOM      1  C   UNL     1      35.849  -3.163  58.404  1.00  0.00     0.008 C 
ENDROOT
BRANCH   1   2
ATOM      2  C   UNL     1      35.093  -1.837  58.601  1.00  0.00     0.000 C 
BRANCH   2   3
ATOM      3  C   UNL     1      34.543  -1.613  60.020  1.00  0.00    -0.003 C 
ATOM      4  C   UNL     1      33.039  -1.857  60.125  1.00  0.00     0.004 C 
ENDBRANCH   2   3
ENDBRANCH   1   2
BRANCH   1   5
ATOM      5  C   UNL     1      36.207  -3.850  59.729  1.00  0.00     0.072 C 
BRANCH   5   6
ATOM      6  C   UNL     1      35.532  -5.183  59.840  1.00  0.00     0.224 C 
ATOM      7  O   UNL     1      34.313  -5.264  59.817  1.00  0.00    -0.303 OA
ENDBRANCH   5   6
ENDBRANCH   1   5
TORSDOF 4
ENDMDL
MODEL 4
REMARK VINA RESULT:    -2.638      8.192      9.490
REMARK INTER + INTRA:          -3.454
REMARK INTER:                  -3.232
REMARK INTRA:                  -0.222
REMARK UNBOUND:                -0.199
REMARK SMILES CCCCCC=O
REMARK SMILES IDX 4 1 3 2 2 3 1 4 5 5 6 6 7 7
REMARK H PARENT
REMARK Flexibility Score: inf
ROOT
ATOM      1  C   UNL     1      35.222  -2.221  58.376  1.00  0.00     0.008 C 
ENDROOT
BRANCH   1   2
ATOM      2  C   UNL     1      36.021  -3.483  58.748  1.00  0.00     0.000 C 
BRANCH   2   3
ATOM      3  C   UNL     1      35.620  -4.129  60.087  1.00  0.00    -0.003 C 
ATOM      4  C   UNL     1      34.516  -5.173  59.940  1.00  0.00     0.004 C 
ENDBRANCH   2   3
ENDBRANCH   1   2
BRANCH   1   5
ATOM      5  C   UNL     1      34.904  -1.336  59.589  1.00  0.00     0.072 C 
BRANCH   5   6
ATOM      6  C   UNL     1      33.425  -1.143  59.737  1.00  0.00     0.224 C 
ATOM      7  O   UNL     1      32.703  -2.087  60.017  1.00  0.00    -0.303 OA
ENDBRANCH   5   6
ENDBRANCH   1   5
TORSDOF 4
ENDMDL
MODEL 5
REMARK VINA RESULT:    -2.519      2.142      3.469
REMARK INTER + INTRA:          -3.308
REMARK INTER:                  -3.193
REMARK INTRA:                  -0.115
REMARK UNBOUND:                -0.199
REMARK SMILES CCCCCC=O
REMARK SMILES IDX 4 1 3 2 2 3 1 4 5 5 6 6 7 7
REMARK H PARENT
REMARK Flexibility Score: inf
ROOT
ATOM      1  C   UNL     1      36.673  -9.212  53.073  1.00  0.00     0.008 C 
ENDROOT
BRANCH   1   2
ATOM      2  C   UNL     1      36.293  -9.333  54.560  1.00  0.00     0.000 C 
BRANCH   2   3
ATOM      3  C   UNL     1      35.907 -10.752  55.014  1.00  0.00    -0.003 C 
ATOM      4  C   UNL     1      35.686 -11.714  53.848  1.00  0.00     0.004 C 
ENDBRANCH   2   3
ENDBRANCH   1   2
BRANCH   1   5
ATOM      5  C   UNL     1      36.523  -7.783  52.533  1.00  0.00     0.072 C 
BRANCH   5   6
ATOM      6  C   UNL     1      36.565  -6.783  53.648  1.00  0.00     0.224 C 
ATOM      7  O   UNL     1      35.857  -5.788  53.615  1.00  0.00    -0.303 OA
ENDBRANCH   5   6
ENDBRANCH   1   5
TORSDOF 4
ENDMDL
MODEL 6
REMARK VINA RESULT:    -2.457      7.660      8.850
REMARK INTER + INTRA:          -3.231
REMARK INTER:                  -3.144
REMARK INTRA:                  -0.087
REMARK UNBOUND:                -0.199
REMARK SMILES CCCCCC=O
REMARK SMILES IDX 4 1 3 2 2 3 1 4 5 5 6 6 7 7
REMARK H PARENT
REMARK Flexibility Score: inf
ROOT
ATOM      1  C   UNL     1      34.599  -3.053  59.508  1.00  0.00     0.008 C 
ENDROOT
BRANCH   1   2
ATOM      2  C   UNL     1      34.904  -1.545  59.549  1.00  0.00     0.000 C 
BRANCH   2   3
ATOM      3  C   UNL     1      35.034  -0.875  58.169  1.00  0.00    -0.003 C 
ATOM      4  C   UNL     1      35.053  -1.878  57.017  1.00  0.00     0.004 C 
ENDBRANCH   2   3
ENDBRANCH   1   2
BRANCH   1   5
ATOM      5  C   UNL     1      35.740  -3.908  60.076  1.00  0.00     0.072 C 
BRANCH   5   6
ATOM      6  C   UNL     1      35.371  -5.361  60.075  1.00  0.00     0.224 C 
ATOM      7  O   UNL     1      34.198  -5.702  60.067  1.00  0.00    -0.303 OA
ENDBRANCH   5   6
ENDBRANCH   1   5
TORSDOF 4
ENDMDL
MODEL 7
REMARK VINA RESULT:    -2.428      7.777      9.398
REMARK INTER + INTRA:          -3.196
REMARK INTER:                  -2.998
REMARK INTRA:                  -0.197
REMARK UNBOUND:                -0.199
REMARK SMILES CCCCCC=O
REMARK SMILES IDX 4 1 3 2 2 3 1 4 5 5 6 6 7 7
REMARK H PARENT
REMARK Flexibility Score: inf
ROOT
ATOM      1  C   UNL     1      33.397  -1.266  58.558  1.00  0.00     0.008 C 
ENDROOT
BRANCH   1   2
ATOM      2  C   UNL     1      34.904  -1.250  58.246  1.00  0.00     0.000 C 
BRANCH   2   3
ATOM      3  C   UNL     1      35.306  -2.007  56.968  1.00  0.00    -0.003 C 
ATOM      4  C   UNL     1      36.261  -3.169  57.235  1.00  0.00     0.004 C 
ENDBRANCH   2   3
ENDBRANCH   1   2
BRANCH   1   5
ATOM      5  C   UNL     1      33.080  -1.845  59.944  1.00  0.00     0.072 C 
BRANCH   5   6
ATOM      6  C   UNL     1      33.731  -3.184  60.124  1.00  0.00     0.224 C 
ATOM      7  O   UNL     1      33.338  -4.153  59.494  1.00  0.00    -0.303 OA
ENDBRANCH   5   6
ENDBRANCH   1   5
TORSDOF 4
ENDMDL
MODEL 8
REMARK VINA RESULT:    -2.310      8.021      8.967
REMARK INTER + INTRA:          -3.049
REMARK INTER:                  -2.829
REMARK INTRA:                  -0.220
REMARK UNBOUND:                -0.199
REMARK SMILES CCCCCC=O
REMARK SMILES IDX 4 1 3 2 2 3 1 4 5 5 6 6 7 7
REMARK H PARENT
REMARK Flexibility Score: inf
ROOT
ATOM      1  C   UNL     1      34.318  -1.596  58.203  1.00  0.00     0.008 C 
ENDROOT
BRANCH   1   2
ATOM      2  C   UNL     1      34.925  -1.587  59.617  1.00  0.00     0.000 C 
BRANCH   2   3
ATOM      3  C   UNL     1      35.403  -2.959  60.124  1.00  0.00    -0.003 C 
ATOM      4  C   UNL     1      34.483  -4.104  59.705  1.00  0.00     0.004 C 
ENDBRANCH   2   3
ENDBRANCH   1   2
BRANCH   1   5
ATOM      5  C   UNL     1      35.292  -1.088  57.131  1.00  0.00     0.072 C 
BRANCH   5   6
ATOM      6  C   UNL     1      35.824  -2.224  56.310  1.00  0.00     0.224 C 
ATOM      7  O   UNL     1      36.560  -3.058  56.813  1.00  0.00    -0.303 OA
ENDBRANCH   5   6
ENDBRANCH   1   5
TORSDOF 4
ENDMDL
