MODEL 1
REMARK VINA RESULT:    -5.645      0.000      0.000
REMARK INTER + INTRA:         -10.358
REMARK INTER:                  -9.605
REMARK INTRA:                  -0.753
REMARK UNBOUND:                -0.753
REMARK SMILES CCCCCCCCCCCCCC(=O)[O-]
REMARK SMILES IDX 8 1 9 2 10 3 11 4 12 5 13 6 14 7 15 8 16 9 7 10 6 11 5 12
REMARK SMILES IDX 4 13 3 14 2 15 1 16
REMARK H PARENT
REMARK Flexibility Score: inf
ROOT
ATOM      1  C   UNL     1       8.108  48.075  -1.851  1.00  0.00     0.000 C 
ENDROOT
BRANCH   1   2
ATOM      2  C   UNL     1       6.963  47.760  -2.825  1.00  0.00     0.000 C 
BRANCH   2   3
ATOM      3  C   UNL     1       7.439  47.005  -4.077  1.00  0.00     0.000 C 
BRANCH   3   4
ATOM      4  C   UNL     1       8.168  45.712  -3.693  1.00  0.00     0.000 C 
BRANCH   4   5
ATOM      5  C   UNL     1       7.785  44.562  -4.636  1.00  0.00     0.006 C 
BRANCH   5   6
ATOM      6  C   UNL     1       6.440  43.927  -4.259  1.00  0.00     0.053 C 
BRANCH   6   7
ATOM      7  C   UNL     1       5.311  44.500  -5.060  1.00  0.00     0.041 C 
ATOM      8  O   UNL     1       5.397  44.577  -6.313  1.00  0.00    -0.550 OA
ATOM      9  O   UNL     1       4.150  44.918  -4.422  1.00  0.00    -0.550 OA
ENDBRANCH   6   7
ENDBRANCH   5   6
ENDBRANCH   4   5
ENDBRANCH   3   4
ENDBRANCH   2   3
ENDBRANCH   1   2
BRANCH   1  10
ATOM     10  C   UNL     1       7.623  48.805  -0.585  1.00  0.00     0.000 C 
BRANCH  10  11
ATOM     11  C   UNL     1       6.139  49.196  -0.660  1.00  0.00    -0.000 C 
BRANCH  11  12
ATOM     12  C   UNL     1       5.296  48.545   0.451  1.00  0.00    -0.000 C 
BRANCH  12  13
ATOM     13  C   UNL     1       6.158  47.717   1.421  1.00  0.00    -0.000 C 
BRANCH  13  14
ATOM     14  C   UNL     1       5.369  47.201   2.646  1.00  0.00    -0.000 C 
BRANCH  14  15
ATOM     15  C   UNL     1       3.921  46.802   2.317  1.00  0.00    -0.003 C 
ATOM     16  C   UNL     1       3.449  45.576   3.097  1.00  0.00     0.004 C 
ENDBRANCH  14  15
ENDBRANCH  13  14
ENDBRANCH  12  13
ENDBRANCH  11  12
ENDBRANCH  10  11
ENDBRANCH   1  10
TORSDOF 12
ENDMDL
MODEL 2
REMARK VINA RESULT:    -5.572      7.939     12.532
REMARK INTER + INTRA:         -10.234
REMARK INTER:                  -9.541
REMARK INTRA:                  -0.692
REMARK UNBOUND:                -0.753
REMARK SMILES CCCCCCCCCCCCCC(=O)[O-]
REMARK SMILES IDX 8 1 9 2 10 3 11 4 12 5 13 6 14 7 15 8 16 9 7 10 6 11 5 12
REMARK SMILES IDX 4 13 3 14 2 15 1 16
REMARK H PARENT
REMARK Flexibility Score: inf
ROOT
ATOM      1  C   UNL     1       4.829  43.548   8.638  1.00  0.00     0.000 C 
ENDROOT
BRANCH   1   2
ATOM      2  C   UNL     1       3.765  43.805   9.717  1.00  0.00     0.000 C 
BRANCH   2   3
ATOM      3  C   UNL     1       4.071  45.046  10.569  1.00  0.00     0.000 C 
BRANCH   3   4
ATOM      4  C   UNL     1       2.882  45.401  11.469  1.00  0.00     0.000 C 
BRANCH   4   5
ATOM      5  C   UNL     1       1.564  44.894  10.864  1.00  0.00     0.006 C 
BRANCH   5   6
ATOM      6  C   UNL     1       0.339  45.382  11.649  1.00  0.00     0.053 C 
BRANCH   6   7
ATOM      7  C   UNL     1      -0.440  46.407  10.883  1.00  0.00     0.041 C 
ATOM      8  O   UNL     1      -1.674  46.549  11.088  1.00  0.00    -0.550 OA
ATOM      9  O   UNL     1       0.205  47.228   9.968  1.00  0.00    -0.550 OA
ENDBRANCH   6   7
ENDBRANCH   5   6
ENDBRANCH   4   5
ENDBRANCH   3   4
ENDBRANCH   2   3
ENDBRANCH   1   2
BRANCH   1  10
ATOM     10  C   UNL     1       5.616  44.819   8.269  1.00  0.00     0.000 C 
BRANCH  10  11
ATOM     11  C   UNL     1       5.906  44.919   6.763  1.00  0.00    -0.000 C 
BRANCH  11  12
ATOM     12  C   UNL     1       4.785  44.317   5.899  1.00  0.00    -0.000 C 
BRANCH  12  13
ATOM     13  C   UNL     1       4.790  44.883   4.468  1.00  0.00    -0.000 C 
BRANCH  13  14
ATOM     14  C   UNL     1       3.384  44.927   3.826  1.00  0.00    -0.000 C 
BRANCH  14  15
ATOM     15  C   UNL     1       3.220  46.051   2.790  1.00  0.00    -0.003 C 
ATOM     16  C   UNL     1       4.486  46.887   2.614  1.00  0.00     0.004 C 
ENDBRANCH  14  15
ENDBRANCH  13  14
ENDBRANCH  12  13
ENDBRANCH  11  12
ENDBRANCH  10  11
ENDBRANCH   1  10
TORSDOF 12
ENDMDL
MODEL 3
REMARK VINA RESULT:    -5.513      9.564     13.221
REMARK INTER + INTRA:         -10.133
REMARK INTER:                  -8.918
REMARK INTRA:                  -1.215
REMARK UNBOUND:                -0.753
REMARK SMILES CCCCCCCCCCCCCC(=O)[O-]
REMARK SMILES IDX 8 1 9 2 10 3 11 4 12 5 13 6 14 7 15 8 16 9 7 10 6 11 5 12
REMARK SMILES IDX 4 13 3 14 2 15 1 16
REMARK H PARENT
REMARK Flexibility Score: inf
ROOT
ATOM      1  C   UNL     1       4.824  43.751   9.782  1.00  0.00     0.000 C 
ENDROOT
BRANCH   1   2
ATOM      2  C   UNL     1       4.764  44.859  10.845  1.00  0.00     0.000 C 
BRANCH   2   3
ATOM      3  C   UNL     1       3.461  45.672  10.783  1.00  0.00     0.000 C 
BRANCH   3   4
ATOM      4  C   UNL     1       2.751  45.674  12.141  1.00  0.00     0.000 C 
BRANCH   4   5
ATOM      5  C   UNL     1       1.282  45.250  11.995  1.00  0.00     0.006 C 
BRANCH   5   6
ATOM      6  C   UNL     1       0.724  45.562  10.600  1.00  0.00     0.053 C 
BRANCH   6   7
ATOM      7  C   UNL     1      -0.208  46.735  10.624  1.00  0.00     0.041 C 
ATOM      8  O   UNL     1       0.099  47.801  10.027  1.00  0.00    -0.550 OA
ATOM      9  O   UNL     1      -1.429  46.639  11.277  1.00  0.00    -0.550 OA
ENDBRANCH   6   7
ENDBRANCH   5   6
ENDBRANCH   4   5
ENDBRANCH   3   4
ENDBRANCH   2   3
ENDBRANCH   1   2
BRANCH   1  10
ATOM     10  C   UNL     1       3.452  43.101   9.528  1.00  0.00     0.000 C 
BRANCH  10  11
ATOM     11  C   UNL     1       3.261  42.676   8.063  1.00  0.00    -0.000 C 
BRANCH  11  12
ATOM     12  C   UNL     1       4.520  42.904   7.208  1.00  0.00    -0.000 C 
BRANCH  12  13
ATOM     13  C   UNL     1       4.239  43.809   5.995  1.00  0.00    -0.000 C 
BRANCH  13  14
ATOM     14  C   UNL     1       5.381  44.810   5.705  1.00  0.00    -0.000 C 
BRANCH  14  15
ATOM     15  C   UNL     1       6.087  45.316   6.974  1.00  0.00    -0.003 C 
ATOM     16  C   UNL     1       7.498  45.836   6.702  1.00  0.00     0.004 C 
ENDBRANCH  14  15
ENDBRANCH  13  14
ENDBRANCH  12  13
ENDBRANCH  11  12
ENDBRANCH  10  11
ENDBRANCH   1  10
TORSDOF 12
ENDMDL
MODEL 4
REMARK VINA RESULT:    -5.485      5.671      8.954
REMARK INTER + INTRA:         -10.085
REMARK INTER:                  -9.498
REMARK INTRA:                  -0.587
REMARK UNBOUND:                -0.753
REMARK SMILES CCCCCCCCCCCCCC(=O)[O-]
REMARK SMILES IDX 8 1 9 2 10 3 11 4 12 5 13 6 14 7 15 8 16 9 7 10 6 11 5 12
REMARK SMILES IDX 4 13 3 14 2 15 1 16
REMARK H PARENT
REMARK Flexibility Score: inf
ROOT
ATOM      1  C   UNL     1       2.146  44.702   1.137  1.00  0.00     0.000 C 
ENDROOT
BRANCH   1   2
ATOM      2  C   UNL     1       0.764  44.274   0.619  1.00  0.00     0.000 C 
BRANCH   2   3
ATOM      3  C   UNL     1      -0.388  44.980   1.350  1.00  0.00     0.000 C 
BRANCH   3   4
ATOM      4  C   UNL     1      -1.687  44.174   1.235  1.00  0.00     0.000 C 
BRANCH   4   5
ATOM      5  C   UNL     1      -2.590  44.406   2.456  1.00  0.00     0.006 C 
BRANCH   5   6
ATOM      6  C   UNL     1      -2.117  45.590   3.310  1.00  0.00     0.053 C 
BRANCH   6   7
ATOM      7  C   UNL     1      -2.371  45.359   4.768  1.00  0.00     0.041 C 
ATOM      8  O   UNL     1      -1.475  45.612   5.616  1.00  0.00    -0.550 OA
ATOM      9  O   UNL     1      -3.608  44.894   5.193  1.00  0.00    -0.550 OA
ENDBRANCH   6   7
ENDBRANCH   5   6
ENDBRANCH   4   5
ENDBRANCH   3   4
ENDBRANCH   2   3
ENDBRANCH   1   2
BRANCH   1  10
ATOM     10  C   UNL     1       2.058  45.614   2.374  1.00  0.00     0.000 C 
BRANCH  10  11
ATOM     11  C   UNL     1       3.093  45.253   3.451  1.00  0.00    -0.000 C 
BRANCH  11  12
ATOM     12  C   UNL     1       4.422  46.008   3.275  1.00  0.00    -0.000 C 
BRANCH  12  13
ATOM     13  C   UNL     1       4.316  47.132   2.228  1.00  0.00    -0.000 C 
BRANCH  13  14
ATOM     14  C   UNL     1       5.691  47.644   1.743  1.00  0.00    -0.000 C 
BRANCH  14  15
ATOM     15  C   UNL     1       5.625  48.402   0.407  1.00  0.00    -0.003 C 
ATOM     16  C   UNL     1       6.989  48.907  -0.059  1.00  0.00     0.004 C 
ENDBRANCH  14  15
ENDBRANCH  13  14
ENDBRANCH  12  13
ENDBRANCH  11  12
ENDBRANCH  10  11
ENDBRANCH   1  10
TORSDOF 12
ENDMDL
MODEL 5
REMARK VINA RESULT:    -5.482      6.520      8.568
REMARK INTER + INTRA:         -10.080
REMARK INTER:                  -9.317
REMARK INTRA:                  -0.763
REMARK UNBOUND:                -0.753
REMARK SMILES CCCCCCCCCCCCCC(=O)[O-]
REMARK SMILES IDX 8 1 9 2 10 3 11 4 12 5 13 6 14 7 15 8 16 9 7 10 6 11 5 12
REMARK SMILES IDX 4 13 3 14 2 15 1 16
REMARK H PARENT
REMARK Flexibility Score: inf
ROOT
ATOM      1  C   UNL     1      -0.098  46.113   3.092  1.00  0.00     0.000 C 
ENDROOT
BRANCH   1   2
ATOM      2  C   UNL     1      -1.203  45.636   4.048  1.00  0.00     0.000 C 
BRANCH   2   3
ATOM      3  C   UNL     1      -2.528  45.346   3.326  1.00  0.00     0.000 C 
BRANCH   3   4
ATOM      4  C   UNL     1      -2.412  44.093   2.450  1.00  0.00     0.000 C 
BRANCH   4   5
ATOM      5  C   UNL     1      -3.050  44.324   1.072  1.00  0.00     0.006 C 
BRANCH   5   6
ATOM      6  C   UNL     1      -2.669  45.686   0.476  1.00  0.00     0.053 C 
BRANCH   6   7
ATOM      7  C   UNL     1      -1.688  45.546  -0.647  1.00  0.00     0.041 C 
ATOM      8  O   UNL     1      -0.595  44.949  -0.464  1.00  0.00    -0.550 OA
ATOM      9  O   UNL     1      -1.998  46.045  -1.906  1.00  0.00    -0.550 OA
ENDBRANCH   6   7
ENDBRANCH   5   6
ENDBRANCH   4   5
ENDBRANCH   3   4
ENDBRANCH   2   3
ENDBRANCH   1   2
BRANCH   1  10
ATOM     10  C   UNL     1       1.306  46.011   3.714  1.00  0.00     0.000 C 
BRANCH  10  11
ATOM     11  C   UNL     1       2.382  45.626   2.686  1.00  0.00    -0.000 C 
BRANCH  11  12
ATOM     12  C   UNL     1       3.797  45.589   3.290  1.00  0.00    -0.000 C 
BRANCH  12  13
ATOM     13  C   UNL     1       3.934  44.506   4.376  1.00  0.00    -0.000 C 
BRANCH  13  14
ATOM     14  C   UNL     1       5.114  44.759   5.342  1.00  0.00    -0.000 C 
BRANCH  14  15
ATOM     15  C   UNL     1       4.959  44.049   6.696  1.00  0.00    -0.003 C 
ATOM     16  C   UNL     1       3.629  43.309   6.831  1.00  0.00     0.004 C 
ENDBRANCH  14  15
ENDBRANCH  13  14
ENDBRANCH  12  13
ENDBRANCH  11  12
ENDBRANCH  10  11
ENDBRANCH   1  10
TORSDOF 12
ENDMDL
MODEL 6
REMARK VINA RESULT:    -5.468      7.313      9.500
REMARK INTER + INTRA:         -10.058
REMARK INTER:                  -9.170
REMARK INTRA:                  -0.887
REMARK UNBOUND:                -0.753
REMARK SMILES CCCCCCCCCCCCCC(=O)[O-]
REMARK SMILES IDX 8 1 9 2 10 3 11 4 12 5 13 6 14 7 15 8 16 9 7 10 6 11 5 12
REMARK SMILES IDX 4 13 3 14 2 15 1 16
REMARK H PARENT
REMARK Flexibility Score: inf
ROOT
ATOM      1  C   UNL     1      -0.742  45.202  -1.479  1.00  0.00     0.000 C 
ENDROOT
BRANCH   1   2
ATOM      2  C   UNL     1      -1.964  44.876  -0.606  1.00  0.00     0.000 C 
BRANCH   2   3
ATOM      3  C   UNL     1      -2.459  46.088   0.198  1.00  0.00     0.000 C 
BRANCH   3   4
ATOM      4  C   UNL     1      -3.462  45.659   1.275  1.00  0.00     0.000 C 
BRANCH   4   5
ATOM      5  C   UNL     1      -2.845  44.615   2.218  1.00  0.00     0.006 C 
BRANCH   5   6
ATOM      6  C   UNL     1      -1.946  45.254   3.284  1.00  0.00     0.053 C 
BRANCH   6   7
ATOM      7  C   UNL     1      -2.589  45.236   4.637  1.00  0.00     0.041 C 
ATOM      8  O   UNL     1      -3.580  44.492   4.858  1.00  0.00    -0.550 OA
ATOM      9  O   UNL     1      -2.072  46.017   5.662  1.00  0.00    -0.550 OA
ENDBRANCH   6   7
ENDBRANCH   5   6
ENDBRANCH   4   5
ENDBRANCH   3   4
ENDBRANCH   2   3
ENDBRANCH   1   2
BRANCH   1  10
ATOM     10  C   UNL     1       0.552  44.560  -0.949  1.00  0.00     0.000 C 
BRANCH  10  11
ATOM     11  C   UNL     1       0.607  44.520   0.587  1.00  0.00    -0.000 C 
BRANCH  11  12
ATOM     12  C   UNL     1       2.045  44.518   1.132  1.00  0.00    -0.000 C 
BRANCH  12  13
ATOM     13  C   UNL     1       2.305  45.700   2.083  1.00  0.00    -0.000 C 
BRANCH  13  14
ATOM     14  C   UNL     1       2.537  45.263   3.547  1.00  0.00    -0.000 C 
BRANCH  14  15
ATOM     15  C   UNL     1       3.984  44.831   3.836  1.00  0.00    -0.003 C 
ATOM     16  C   UNL     1       4.188  44.355   5.272  1.00  0.00     0.004 C 
ENDBRANCH  14  15
ENDBRANCH  13  14
ENDBRANCH  12  13
ENDBRANCH  11  12
ENDBRANCH  10  11
ENDBRANCH   1  10
TORSDOF 12
ENDMDL
MODEL 7
REMARK VINA RESULT:    -5.466      1.199      2.114
REMARK INTER + INTRA:         -10.053
REMARK INTER:                  -9.333
REMARK INTRA:                  -0.720
REMARK UNBOUND:                -0.753
REMARK SMILES CCCCCCCCCCCCCC(=O)[O-]
REMARK SMILES IDX 8 1 9 2 10 3 11 4 12 5 13 6 14 7 15 8 16 9 7 10 6 11 5 12
REMARK SMILES IDX 4 13 3 14 2 15 1 16
REMARK H PARENT
REMARK Flexibility Score: inf
ROOT
ATOM      1  C   UNL     1       8.208  47.575  -0.060  1.00  0.00     0.000 C 
ENDROOT
BRANCH   1   2
ATOM      2  C   UNL     1       7.458  48.508  -1.023  1.00  0.00     0.000 C 
BRANCH   2   3
ATOM      3  C   UNL     1       7.293  47.905  -2.427  1.00  0.00     0.000 C 
BRANCH   3   4
ATOM      4  C   UNL     1       8.444  46.946  -2.751  1.00  0.00     0.000 C 
BRANCH   4   5
ATOM      5  C   UNL     1       8.194  46.215  -4.079  1.00  0.00     0.006 C 
BRANCH   5   6
ATOM      6  C   UNL     1       6.769  46.435  -4.604  1.00  0.00     0.053 C 
BRANCH   6   7
ATOM      7  C   UNL     1       5.995  45.154  -4.663  1.00  0.00     0.041 C 
ATOM      8  O   UNL     1       6.596  44.054  -4.785  1.00  0.00    -0.550 OA
ATOM      9  O   UNL     1       4.611  45.173  -4.549  1.00  0.00    -0.550 OA
ENDBRANCH   6   7
ENDBRANCH   5   6
ENDBRANCH   4   5
ENDBRANCH   3   4
ENDBRANCH   2   3
ENDBRANCH   1   2
BRANCH   1  10
ATOM     10  C   UNL     1       7.531  47.482   1.319  1.00  0.00     0.000 C 
BRANCH  10  11
ATOM     11  C   UNL     1       6.034  47.828   1.268  1.00  0.00    -0.000 C 
BRANCH  11  12
ATOM     12  C   UNL     1       5.272  47.357   2.519  1.00  0.00    -0.000 C 
BRANCH  12  13
ATOM     13  C   UNL     1       3.942  46.668   2.161  1.00  0.00    -0.000 C 
BRANCH  13  14
ATOM     14  C   UNL     1       3.387  45.786   3.302  1.00  0.00    -0.000 C 
BRANCH  14  15
ATOM     15  C   UNL     1       4.481  45.064   4.105  1.00  0.00    -0.003 C 
ATOM     16  C   UNL     1       3.923  44.236   5.261  1.00  0.00     0.004 C 
ENDBRANCH  14  15
ENDBRANCH  13  14
ENDBRANCH  12  13
ENDBRANCH  11  12
ENDBRANCH  10  11
ENDBRANCH   1  10
TORSDOF 12
ENDMDL
MODEL 8
REMARK VINA RESULT:    -5.419      6.307      7.734
REMARK INTER + INTRA:          -9.973
REMARK INTER:                  -9.137
REMARK INTRA:                  -0.836
REMARK UNBOUND:                -0.753
REMARK SMILES CCCCCCCCCCCCCC(=O)[O-]
REMARK SMILES IDX 8 1 9 2 10 3 11 4 12 5 13 6 14 7 15 8 16 9 7 10 6 11 5 12
REMARK SMILES IDX 4 13 3 14 2 15 1 16
REMARK H PARENT
REMARK Flexibility Score: inf
ROOT
ATOM      1  C   UNL     1      -1.083  46.229   2.603  1.00  0.00     0.000 C 
ENDROOT
BRANCH   1   2
ATOM      2  C   UNL     1      -2.093  45.084   2.433  1.00  0.00     0.000 C 
BRANCH   2   3
ATOM      3  C   UNL     1      -1.945  44.357   1.086  1.00  0.00     0.000 C 
BRANCH   3   4
ATOM      4  C   UNL     1      -0.468  44.154   0.732  1.00  0.00     0.000 C 
BRANCH   4   5
ATOM      5  C   UNL     1      -0.112  44.870  -0.579  1.00  0.00     0.006 C 
BRANCH   5   6
ATOM      6  C   UNL     1      -1.358  45.352  -1.334  1.00  0.00     0.053 C 
BRANCH   6   7
ATOM      7  C   UNL     1      -1.366  44.879  -2.755  1.00  0.00     0.041 C 
ATOM      8  O   UNL     1      -2.443  44.518  -3.297  1.00  0.00    -0.550 OA
ATOM      9  O   UNL     1      -0.188  44.869  -3.490  1.00  0.00    -0.550 OA
ENDBRANCH   6   7
ENDBRANCH   5   6
ENDBRANCH   4   5
ENDBRANCH   3   4
ENDBRANCH   2   3
ENDBRANCH   1   2
BRANCH   1  10
ATOM     10  C   UNL     1      -0.123  45.999   3.784  1.00  0.00     0.000 C 
BRANCH  10  11
ATOM     11  C   UNL     1       1.319  46.424   3.466  1.00  0.00    -0.000 C 
BRANCH  11  12
ATOM     12  C   UNL     1       2.195  45.250   2.994  1.00  0.00    -0.000 C 
BRANCH  12  13
ATOM     13  C   UNL     1       3.641  45.362   3.510  1.00  0.00    -0.000 C 
BRANCH  13  14
ATOM     14  C   UNL     1       3.902  44.515   4.776  1.00  0.00    -0.000 C 
BRANCH  14  15
ATOM     15  C   UNL     1       5.395  44.264   5.046  1.00  0.00    -0.003 C 
ATOM     16  C   UNL     1       5.982  45.222   6.081  1.00  0.00     0.004 C 
ENDBRANCH  14  15
ENDBRANCH  13  14
ENDBRANCH  12  13
ENDBRANCH  11  12
ENDBRANCH  10  11
ENDBRANCH   1  10
TORSDOF 12
ENDMDL
MODEL 9
REMARK VINA RESULT:    -5.323      1.740      2.359
REMARK INTER + INTRA:          -9.810
REMARK INTER:                  -8.777
REMARK INTRA:                  -1.033
REMARK UNBOUND:                -0.753
REMARK SMILES CCCCCCCCCCCCCC(=O)[O-]
REMARK SMILES IDX 8 1 9 2 10 3 11 4 12 5 13 6 14 7 15 8 16 9 7 10 6 11 5 12
REMARK SMILES IDX 4 13 3 14 2 15 1 16
REMARK H PARENT
REMARK Flexibility Score: inf
ROOT
ATOM      1  C   UNL     1       8.345  46.767  -2.947  1.00  0.00     0.000 C 
ENDROOT
BRANCH   1   2
ATOM      2  C   UNL     1       6.998  47.045  -3.633  1.00  0.00     0.000 C 
BRANCH   2   3
ATOM      3  C   UNL     1       7.031  46.760  -5.143  1.00  0.00     0.000 C 
BRANCH   3   4
ATOM      4  C   UNL     1       8.389  46.187  -5.564  1.00  0.00     0.000 C 
BRANCH   4   5
ATOM      5  C   UNL     1       8.258  44.717  -5.988  1.00  0.00     0.006 C 
BRANCH   5   6
ATOM      6  C   UNL     1       8.696  43.751  -4.878  1.00  0.00     0.053 C 
BRANCH   6   7
ATOM      7  C   UNL     1       7.534  43.286  -4.056  1.00  0.00     0.041 C 
ATOM      8  O   UNL     1       6.363  43.363  -4.512  1.00  0.00    -0.550 OA
ATOM      9  O   UNL     1       7.748  42.737  -2.799  1.00  0.00    -0.550 OA
ENDBRANCH   6   7
ENDBRANCH   5   6
ENDBRANCH   4   5
ENDBRANCH   3   4
ENDBRANCH   2   3
ENDBRANCH   1   2
BRANCH   1  10
ATOM     10  C   UNL     1       8.608  47.707  -1.757  1.00  0.00     0.000 C 
BRANCH  10  11
ATOM     11  C   UNL     1       8.822  46.946  -0.438  1.00  0.00    -0.000 C 
BRANCH  11  12
ATOM     12  C   UNL     1       8.221  47.677   0.775  1.00  0.00    -0.000 C 
BRANCH  12  13
ATOM     13  C   UNL     1       7.090  48.638   0.369  1.00  0.00    -0.000 C 
BRANCH  13  14
ATOM     14  C   UNL     1       5.679  48.063   0.631  1.00  0.00    -0.000 C 
BRANCH  14  15
ATOM     15  C   UNL     1       5.436  47.685   2.101  1.00  0.00    -0.003 C 
ATOM     16  C   UNL     1       4.238  46.756   2.287  1.00  0.00     0.004 C 
ENDBRANCH  14  15
ENDBRANCH  13  14
ENDBRANCH  12  13
ENDBRANCH  11  12
ENDBRANCH  10  11
ENDBRANCH   1  10
TORSDOF 12
ENDMDL
