MODEL 1
REMARK VINA RESULT:    -6.192      0.000      0.000
REMARK INTER + INTRA:         -10.402
REMARK INTER:                  -9.450
REMARK INTRA:                  -0.952
REMARK UNBOUND:                -0.952
REMARK SMILES CC(=O)CCC=C(C)CCC=C(C)CCC=C(C)C
REMARK SMILES IDX 10 1 11 2 12 3 13 4 14 5 15 6 16 7 18 8 17 9 19 10 9 11 7 12
REMARK SMILES IDX 6 13 8 14 5 15 4 16 2 17 3 18 1 19
REMARK H PARENT
REMARK Flexibility Score: inf
ROOT
ATOM      1  C   UNL     1     -26.666  17.992 -31.196  1.00  0.00     0.032 C 
ENDROOT
BRANCH   1   2
ATOM      2  C   UNL     1     -26.740  16.609 -30.602  1.00  0.00    -0.028 C 
ATOM      3  C   UNL     1     -25.670  15.811 -30.384  1.00  0.00    -0.077 C 
ATOM      4  C   UNL     1     -24.272  16.224 -30.779  1.00  0.00     0.039 C 
BRANCH   3   5
ATOM      5  C   UNL     1     -25.882  14.457 -29.742  1.00  0.00     0.034 C 
BRANCH   5   6
ATOM      6  C   UNL     1     -26.800  13.584 -30.605  1.00  0.00     0.032 C 
BRANCH   6   7
ATOM      7  C   UNL     1     -27.825  12.878 -29.751  1.00  0.00    -0.028 C 
ATOM      8  C   UNL     1     -29.743  14.195 -30.680  1.00  0.00     0.039 C 
ATOM      9  C   UNL     1     -29.153  13.125 -29.792  1.00  0.00    -0.080 C 
ATOM     10  C   UNL     1     -30.061  12.310 -28.907  1.00  0.00     0.039 C 
ENDBRANCH   6   7
ENDBRANCH   5   6
ENDBRANCH   3   5
ENDBRANCH   1   2
BRANCH   1  11
ATOM     11  C   UNL     1     -27.617  18.122 -32.390  1.00  0.00     0.034 C 
BRANCH  11  12
ATOM     12  C   UNL     1     -27.519  19.507 -33.001  1.00  0.00    -0.077 C 
ATOM     13  C   UNL     1     -26.350  20.054 -33.404  1.00  0.00    -0.028 C 
ATOM     14  C   UNL     1     -28.770  20.340 -33.098  1.00  0.00     0.039 C 
BRANCH  13  15
ATOM     15  C   UNL     1     -25.015  19.348 -33.393  1.00  0.00     0.035 C 
BRANCH  15  16
ATOM     16  C   UNL     1     -23.849  20.344 -33.451  1.00  0.00     0.079 C 
BRANCH  16  17
ATOM     17  C   UNL     1     -23.603  20.989 -32.111  1.00  0.00     0.130 C 
ATOM     18  O   UNL     1     -23.788  22.189 -31.979  1.00  0.00    -0.300 OA
ATOM     19  C   UNL     1     -23.137  20.186 -30.934  1.00  0.00     0.087 C 
ENDBRANCH  16  17
ENDBRANCH  15  16
ENDBRANCH  13  15
ENDBRANCH  11  12
ENDBRANCH   1  11
TORSDOF 9
ENDMDL
MODEL 2
REMARK VINA RESULT:    -6.171      2.097      6.946
REMARK INTER + INTRA:         -10.371
REMARK INTER:                  -9.004
REMARK INTRA:                  -1.367
REMARK UNBOUND:                -0.952
REMARK SMILES CC(=O)CCC=C(C)CCC=C(C)CCC=C(C)C
REMARK SMILES IDX 10 1 11 2 12 3 13 4 14 5 15 6 16 7 18 8 17 9 19 10 9 11 7 12
REMARK SMILES IDX 6 13 8 14 5 15 4 16 2 17 3 18 1 19
REMARK H PARENT
REMARK Flexibility Score: inf
ROOT
ATOM      1  C   UNL     1     -29.848  16.491 -32.930  1.00  0.00     0.032 C 
ENDROOT
BRANCH   1   2
ATOM      2  C   UNL     1     -29.071  17.782 -32.982  1.00  0.00    -0.028 C 
ATOM      3  C   UNL     1     -29.615  18.992 -33.245  1.00  0.00    -0.077 C 
ATOM      4  C   UNL     1     -31.080  19.155 -33.573  1.00  0.00     0.039 C 
BRANCH   3   5
ATOM      5  C   UNL     1     -28.725  20.216 -33.227  1.00  0.00     0.034 C 
BRANCH   5   6
ATOM      6  C   UNL     1     -27.384  19.924 -33.908  1.00  0.00     0.032 C 
BRANCH   6   7
ATOM      7  C   UNL     1     -26.234  20.239 -32.983  1.00  0.00    -0.028 C 
ATOM      8  C   UNL     1     -24.492  19.622 -34.674  1.00  0.00     0.039 C 
ATOM      9  C   UNL     1     -24.931  20.133 -33.322  1.00  0.00    -0.080 C 
ATOM     10  C   UNL     1     -23.891  20.523 -32.303  1.00  0.00     0.039 C 
ENDBRANCH   6   7
ENDBRANCH   5   6
ENDBRANCH   3   5
ENDBRANCH   1   2
BRANCH   1  11
ATOM     11  C   UNL     1     -28.952  15.336 -32.470  1.00  0.00     0.034 C 
BRANCH  11  12
ATOM     12  C   UNL     1     -29.557  14.639 -31.267  1.00  0.00    -0.077 C 
ATOM     13  C   UNL     1     -28.848  13.820 -30.456  1.00  0.00    -0.028 C 
ATOM     14  C   UNL     1     -31.030  14.807 -31.003  1.00  0.00     0.039 C 
BRANCH  13  15
ATOM     15  C   UNL     1     -27.365  13.561 -30.570  1.00  0.00     0.035 C 
BRANCH  15  16
ATOM     16  C   UNL     1     -26.570  14.360 -29.529  1.00  0.00     0.079 C 
BRANCH  16  17
ATOM     17  C   UNL     1     -25.837  15.517 -30.160  1.00  0.00     0.130 C 
ATOM     18  O   UNL     1     -24.665  15.386 -30.477  1.00  0.00    -0.300 OA
ATOM     19  C   UNL     1     -26.521  16.829 -30.409  1.00  0.00     0.087 C 
ENDBRANCH  16  17
ENDBRANCH  15  16
ENDBRANCH  13  15
ENDBRANCH  11  12
ENDBRANCH   1  11
TORSDOF 9
ENDMDL
MODEL 3
REMARK VINA RESULT:    -6.118      1.814      2.800
REMARK INTER + INTRA:         -10.289
REMARK INTER:                  -9.110
REMARK INTRA:                  -1.179
REMARK UNBOUND:                -0.952
REMARK SMILES CC(=O)CCC=C(C)CCC=C(C)CCC=C(C)C
REMARK SMILES IDX 10 1 11 2 12 3 13 4 14 5 15 6 16 7 18 8 17 9 19 10 9 11 7 12
REMARK SMILES IDX 6 13 8 14 5 15 4 16 2 17 3 18 1 19
REMARK H PARENT
REMARK Flexibility Score: inf
ROOT
ATOM      1  C   UNL     1     -29.936  19.507 -32.742  1.00  0.00     0.032 C 
ENDROOT
BRANCH   1   2
ATOM      2  C   UNL     1     -29.955  18.014 -32.952  1.00  0.00    -0.028 C 
ATOM      3  C   UNL     1     -28.989  17.168 -32.525  1.00  0.00    -0.077 C 
ATOM      4  C   UNL     1     -27.743  17.665 -31.830  1.00  0.00     0.039 C 
BRANCH   3   5
ATOM      5  C   UNL     1     -29.153  15.684 -32.767  1.00  0.00     0.034 C 
BRANCH   5   6
ATOM      6  C   UNL     1     -29.683  14.982 -31.511  1.00  0.00     0.032 C 
BRANCH   6   7
ATOM      7  C   UNL     1     -28.569  14.264 -30.790  1.00  0.00    -0.028 C 
ATOM      8  C   UNL     1     -30.116  12.635 -29.683  1.00  0.00     0.039 C 
ATOM      9  C   UNL     1     -28.746  13.193 -29.986  1.00  0.00    -0.080 C 
ATOM     10  C   UNL     1     -27.531  12.554 -29.364  1.00  0.00     0.039 C 
ENDBRANCH   6   7
ENDBRANCH   5   6
ENDBRANCH   3   5
ENDBRANCH   1   2
BRANCH   1  11
ATOM     11  C   UNL     1     -29.210  20.207 -33.895  1.00  0.00     0.034 C 
BRANCH  11  12
ATOM     12  C   UNL     1     -28.199  21.204 -33.362  1.00  0.00    -0.077 C 
ATOM     13  C   UNL     1     -26.863  21.009 -33.435  1.00  0.00    -0.028 C 
ATOM     14  C   UNL     1     -28.706  22.433 -32.655  1.00  0.00     0.039 C 
BRANCH  13  15
ATOM     15  C   UNL     1     -26.194  19.845 -34.125  1.00  0.00     0.035 C 
BRANCH  15  16
ATOM     16  C   UNL     1     -24.665  19.953 -34.061  1.00  0.00     0.079 C 
BRANCH  16  17
ATOM     17  C   UNL     1     -24.170  19.972 -32.637  1.00  0.00     0.130 C 
ATOM     18  O   UNL     1     -24.190  18.944 -31.979  1.00  0.00    -0.300 OA
ATOM     19  C   UNL     1     -23.649  21.232 -32.011  1.00  0.00     0.087 C 
ENDBRANCH  16  17
ENDBRANCH  15  16
ENDBRANCH  13  15
ENDBRANCH  11  12
ENDBRANCH   1  11
TORSDOF 9
ENDMDL
MODEL 4
REMARK VINA RESULT:    -6.041      1.974      3.988
REMARK INTER + INTRA:         -10.172
REMARK INTER:                  -9.404
REMARK INTRA:                  -0.768
REMARK UNBOUND:                -0.952
REMARK SMILES CC(=O)CCC=C(C)CCC=C(C)CCC=C(C)C
REMARK SMILES IDX 10 1 11 2 12 3 13 4 14 5 15 6 16 7 18 8 17 9 19 10 9 11 7 12
REMARK SMILES IDX 6 13 8 14 5 15 4 16 2 17 3 18 1 19
REMARK H PARENT
REMARK Flexibility Score: inf
ROOT
ATOM      1  C   UNL     1     -26.440  20.165 -33.210  1.00  0.00     0.032 C 
ENDROOT
BRANCH   1   2
ATOM      2  C   UNL     1     -27.253  18.898 -33.127  1.00  0.00    -0.028 C 
ATOM      3  C   UNL     1     -28.605  18.855 -33.126  1.00  0.00    -0.077 C 
ATOM      4  C   UNL     1     -29.444  20.110 -33.152  1.00  0.00     0.039 C 
BRANCH   3   5
ATOM      5  C   UNL     1     -29.296  17.509 -33.079  1.00  0.00     0.034 C 
BRANCH   5   6
ATOM      6  C   UNL     1     -28.488  16.511 -32.242  1.00  0.00     0.032 C 
BRANCH   6   7
ATOM      7  C   UNL     1     -29.383  15.432 -31.686  1.00  0.00    -0.028 C 
ATOM      8  C   UNL     1     -27.507  14.251 -30.521  1.00  0.00     0.039 C 
ATOM      9  C   UNL     1     -28.961  14.425 -30.890  1.00  0.00    -0.080 C 
ATOM     10  C   UNL     1     -29.980  13.441 -30.376  1.00  0.00     0.039 C 
ENDBRANCH   6   7
ENDBRANCH   5   6
ENDBRANCH   3   5
ENDBRANCH   1   2
BRANCH   1  11
ATOM     11  C   UNL     1     -24.972  19.850 -33.514  1.00  0.00     0.034 C 
BRANCH  11  12
ATOM     12  C   UNL     1     -24.187  19.678 -32.228  1.00  0.00    -0.077 C 
ATOM     13  C   UNL     1     -23.604  20.710 -31.577  1.00  0.00    -0.028 C 
ATOM     14  C   UNL     1     -23.985  18.286 -31.690  1.00  0.00     0.039 C 
BRANCH  13  15
ATOM     15  C   UNL     1     -23.726  22.162 -31.972  1.00  0.00     0.035 C 
BRANCH  15  16
ATOM     16  C   UNL     1     -23.507  23.094 -30.773  1.00  0.00     0.079 C 
BRANCH  16  17
ATOM     17  C   UNL     1     -23.212  24.506 -31.214  1.00  0.00     0.130 C 
ATOM     18  O   UNL     1     -24.011  25.091 -31.929  1.00  0.00    -0.300 OA
ATOM     19  C   UNL     1     -21.957  25.208 -30.791  1.00  0.00     0.087 C 
ENDBRANCH  16  17
ENDBRANCH  15  16
ENDBRANCH  13  15
ENDBRANCH  11  12
ENDBRANCH   1  11
TORSDOF 9
ENDMDL
MODEL 5
REMARK VINA RESULT:    -6.007      1.540      2.875
REMARK INTER + INTRA:         -10.119
REMARK INTER:                  -9.170
REMARK INTRA:                  -0.949
REMARK UNBOUND:                -0.952
REMARK SMILES CC(=O)CCC=C(C)CCC=C(C)CCC=C(C)C
REMARK SMILES IDX 10 1 11 2 12 3 13 4 14 5 15 6 16 7 18 8 17 9 19 10 9 11 7 12
REMARK SMILES IDX 6 13 8 14 5 15 4 16 2 17 3 18 1 19
REMARK H PARENT
REMARK Flexibility Score: inf
ROOT
ATOM      1  C   UNL     1     -28.810  17.325 -32.778  1.00  0.00     0.032 C 
ENDROOT
BRANCH   1   2
ATOM      2  C   UNL     1     -28.697  16.091 -31.919  1.00  0.00    -0.028 C 
ATOM      3  C   UNL     1     -29.721  15.250 -31.649  1.00  0.00    -0.077 C 
ATOM      4  C   UNL     1     -31.121  15.509 -32.153  1.00  0.00     0.039 C 
BRANCH   3   5
ATOM      5  C   UNL     1     -29.460  14.023 -30.803  1.00  0.00     0.034 C 
BRANCH   5   6
ATOM      6  C   UNL     1     -28.006  13.996 -30.317  1.00  0.00     0.032 C 
BRANCH   6   7
ATOM      7  C   UNL     1     -27.776  12.835 -29.382  1.00  0.00    -0.028 C 
ATOM      8  C   UNL     1     -25.281  13.034 -29.489  1.00  0.00     0.039 C 
ATOM      9  C   UNL     1     -26.559  12.408 -28.981  1.00  0.00    -0.080 C 
ATOM     10  C   UNL     1     -26.486  11.258 -28.009  1.00  0.00     0.039 C 
ENDBRANCH   6   7
ENDBRANCH   5   6
ENDBRANCH   3   5
ENDBRANCH   1   2
BRANCH   1  11
ATOM     11  C   UNL     1     -27.715  18.336 -32.424  1.00  0.00     0.034 C 
BRANCH  11  12
ATOM     12  C   UNL     1     -27.853  19.589 -33.266  1.00  0.00    -0.077 C 
ATOM     13  C   UNL     1     -26.793  20.251 -33.781  1.00  0.00    -0.028 C 
ATOM     14  C   UNL     1     -29.228  20.164 -33.479  1.00  0.00     0.039 C 
BRANCH  13  15
ATOM     15  C   UNL     1     -25.355  19.799 -33.678  1.00  0.00     0.035 C 
BRANCH  15  16
ATOM     16  C   UNL     1     -24.574  20.628 -32.650  1.00  0.00     0.079 C 
BRANCH  16  17
ATOM     17  C   UNL     1     -23.788  19.749 -31.711  1.00  0.00     0.130 C 
ATOM     18  O   UNL     1     -22.985  20.257 -30.943  1.00  0.00    -0.300 OA
ATOM     19  C   UNL     1     -23.973  18.261 -31.697  1.00  0.00     0.087 C 
ENDBRANCH  16  17
ENDBRANCH  15  16
ENDBRANCH  13  15
ENDBRANCH  11  12
ENDBRANCH   1  11
TORSDOF 9
ENDMDL
MODEL 6
REMARK VINA RESULT:    -6.003      1.897      3.279
REMARK INTER + INTRA:         -10.113
REMARK INTER:                  -9.143
REMARK INTRA:                  -0.970
REMARK UNBOUND:                -0.952
REMARK SMILES CC(=O)CCC=C(C)CCC=C(C)CCC=C(C)C
REMARK SMILES IDX 10 1 11 2 12 3 13 4 14 5 15 6 16 7 18 8 17 9 19 10 9 11 7 12
REMARK SMILES IDX 6 13 8 14 5 15 4 16 2 17 3 18 1 19
REMARK H PARENT
REMARK Flexibility Score: inf
ROOT
ATOM      1  C   UNL     1     -23.895  17.352 -31.341  1.00  0.00     0.032 C 
ENDROOT
BRANCH   1   2
ATOM      2  C   UNL     1     -24.483  16.057 -30.842  1.00  0.00    -0.028 C 
ATOM      3  C   UNL     1     -23.767  15.059 -30.274  1.00  0.00    -0.077 C 
ATOM      4  C   UNL     1     -22.265  15.133 -30.137  1.00  0.00     0.039 C 
BRANCH   3   5
ATOM      5  C   UNL     1     -24.491  13.826 -29.780  1.00  0.00     0.034 C 
BRANCH   5   6
ATOM      6  C   UNL     1     -25.966  13.856 -30.196  1.00  0.00     0.032 C 
BRANCH   6   7
ATOM      7  C   UNL     1     -26.829  13.184 -29.157  1.00  0.00    -0.028 C 
ATOM      8  C   UNL     1     -28.950  13.578 -30.429  1.00  0.00     0.039 C 
ATOM      9  C   UNL     1     -28.167  13.029 -29.260  1.00  0.00    -0.080 C 
ATOM     10  C   UNL     1     -28.892  12.297 -28.159  1.00  0.00     0.039 C 
ENDBRANCH   6   7
ENDBRANCH   5   6
ENDBRANCH   3   5
ENDBRANCH   1   2
BRANCH   1  11
ATOM     11  C   UNL     1     -24.996  18.388 -31.590  1.00  0.00     0.034 C 
BRANCH  11  12
ATOM     12  C   UNL     1     -24.401  19.685 -32.104  1.00  0.00    -0.077 C 
ATOM     13  C   UNL     1     -24.862  20.321 -33.205  1.00  0.00    -0.028 C 
ATOM     14  C   UNL     1     -23.197  20.253 -31.401  1.00  0.00     0.039 C 
BRANCH  13  15
ATOM     15  C   UNL     1     -26.067  19.897 -34.010  1.00  0.00     0.035 C 
BRANCH  15  16
ATOM     16  C   UNL     1     -27.338  20.622 -33.549  1.00  0.00     0.079 C 
BRANCH  16  17
ATOM     17  C   UNL     1     -28.503  19.674 -33.423  1.00  0.00     0.130 C 
ATOM     18  O   UNL     1     -29.588  19.988 -33.890  1.00  0.00    -0.300 OA
ATOM     19  C   UNL     1     -28.358  18.348 -32.737  1.00  0.00     0.087 C 
ENDBRANCH  16  17
ENDBRANCH  15  16
ENDBRANCH  13  15
ENDBRANCH  11  12
ENDBRANCH   1  11
TORSDOF 9
ENDMDL
MODEL 7
REMARK VINA RESULT:    -5.896      2.199      3.288
REMARK INTER + INTRA:          -9.950
REMARK INTER:                  -9.100
REMARK INTRA:                  -0.850
REMARK UNBOUND:                -0.952
REMARK SMILES CC(=O)CCC=C(C)CCC=C(C)CCC=C(C)C
REMARK SMILES IDX 10 1 11 2 12 3 13 4 14 5 15 6 16 7 18 8 17 9 19 10 9 11 7 12
REMARK SMILES IDX 6 13 8 14 5 15 4 16 2 17 3 18 1 19
REMARK H PARENT
REMARK Flexibility Score: inf
ROOT
ATOM      1  C   UNL     1     -29.343  16.525 -33.347  1.00  0.00     0.032 C 
ENDROOT
BRANCH   1   2
ATOM      2  C   UNL     1     -30.215  15.761 -32.383  1.00  0.00    -0.028 C 
ATOM      3  C   UNL     1     -29.747  14.957 -31.401  1.00  0.00    -0.077 C 
ATOM      4  C   UNL     1     -28.270  14.701 -31.214  1.00  0.00     0.039 C 
BRANCH   3   5
ATOM      5  C   UNL     1     -30.733  14.279 -30.475  1.00  0.00     0.034 C 
BRANCH   5   6
ATOM      6  C   UNL     1     -30.414  12.786 -30.339  1.00  0.00     0.032 C 
BRANCH   6   7
ATOM      7  C   UNL     1     -29.799  12.491 -28.993  1.00  0.00    -0.028 C 
ATOM      8  C   UNL     1     -27.943  11.116 -29.962  1.00  0.00     0.039 C 
ATOM      9  C   UNL     1     -28.675  11.764 -28.810  1.00  0.00    -0.080 C 
ATOM     10  C   UNL     1     -28.155  11.587 -27.407  1.00  0.00     0.039 C 
ENDBRANCH   6   7
ENDBRANCH   5   6
ENDBRANCH   3   5
ENDBRANCH   1   2
BRANCH   1  11
ATOM     11  C   UNL     1     -28.860  17.837 -32.720  1.00  0.00     0.034 C 
BRANCH  11  12
ATOM     12  C   UNL     1     -29.653  19.011 -33.261  1.00  0.00    -0.077 C 
ATOM     13  C   UNL     1     -29.114  20.234 -33.462  1.00  0.00    -0.028 C 
ATOM     14  C   UNL     1     -31.125  18.826 -33.519  1.00  0.00     0.039 C 
BRANCH  13  15
ATOM     15  C   UNL     1     -27.656  20.580 -33.272  1.00  0.00     0.035 C 
BRANCH  15  16
ATOM     16  C   UNL     1     -26.829  20.248 -34.521  1.00  0.00     0.079 C 
BRANCH  16  17
ATOM     17  C   UNL     1     -25.411  19.877 -34.166  1.00  0.00     0.130 C 
ATOM     18  O   UNL     1     -24.647  19.511 -35.045  1.00  0.00    -0.300 OA
ATOM     19  C   UNL     1     -24.919  19.950 -32.751  1.00  0.00     0.087 C 
ENDBRANCH  16  17
ENDBRANCH  15  16
ENDBRANCH  13  15
ENDBRANCH  11  12
ENDBRANCH   1  11
TORSDOF 9
ENDMDL
MODEL 8
REMARK VINA RESULT:    -5.800     10.129     12.598
REMARK INTER + INTRA:          -9.804
REMARK INTER:                  -7.535
REMARK INTRA:                  -2.268
REMARK UNBOUND:                -0.952
REMARK SMILES CC(=O)CCC=C(C)CCC=C(C)CCC=C(C)C
REMARK SMILES IDX 10 1 11 2 12 3 13 4 14 5 15 6 16 7 18 8 17 9 19 10 9 11 7 12
REMARK SMILES IDX 6 13 8 14 5 15 4 16 2 17 3 18 1 19
REMARK H PARENT
REMARK Flexibility Score: inf
ROOT
ATOM      1  C   UNL     1     -13.138  13.860 -27.660  1.00  0.00     0.032 C 
ENDROOT
BRANCH   1   2
ATOM      2  C   UNL     1     -14.304  13.038 -28.149  1.00  0.00    -0.028 C 
ATOM      3  C   UNL     1     -14.289  11.692 -28.284  1.00  0.00    -0.077 C 
ATOM      4  C   UNL     1     -13.049  10.876 -28.003  1.00  0.00     0.039 C 
BRANCH   3   5
ATOM      5  C   UNL     1     -15.544  10.987 -28.749  1.00  0.00     0.034 C 
BRANCH   5   6
ATOM      6  C   UNL     1     -16.717  11.289 -27.810  1.00  0.00     0.032 C 
BRANCH   6   7
ATOM      7  C   UNL     1     -17.972  11.576 -28.597  1.00  0.00    -0.028 C 
ATOM      8  C   UNL     1     -17.875  14.041 -28.164  1.00  0.00     0.039 C 
ATOM      9  C   UNL     1     -18.490  12.809 -28.786  1.00  0.00    -0.080 C 
ATOM     10  C   UNL     1     -19.730  12.945 -29.632  1.00  0.00     0.039 C 
ENDBRANCH   6   7
ENDBRANCH   5   6
ENDBRANCH   3   5
ENDBRANCH   1   2
BRANCH   1  11
ATOM     11  C   UNL     1     -12.848  15.017 -28.622  1.00  0.00     0.034 C 
BRANCH  11  12
ATOM     12  C   UNL     1     -12.459  14.488 -29.989  1.00  0.00    -0.077 C 
ATOM     13  C   UNL     1     -13.136  14.797 -31.118  1.00  0.00    -0.028 C 
ATOM     14  C   UNL     1     -11.311  13.519 -30.086  1.00  0.00     0.039 C 
BRANCH  13  15
ATOM     15  C   UNL     1     -14.293  15.764 -31.197  1.00  0.00     0.035 C 
BRANCH  15  16
ATOM     16  C   UNL     1     -15.598  15.128 -30.699  1.00  0.00     0.079 C 
BRANCH  16  17
ATOM     17  C   UNL     1     -16.253  14.295 -31.771  1.00  0.00     0.130 C 
ATOM     18  O   UNL     1     -16.953  14.839 -32.611  1.00  0.00    -0.300 OA
ATOM     19  C   UNL     1     -16.062  12.809 -31.829  1.00  0.00     0.087 C 
ENDBRANCH  16  17
ENDBRANCH  15  16
ENDBRANCH  13  15
ENDBRANCH  11  12
ENDBRANCH   1  11
TORSDOF 9
ENDMDL
MODEL 9
REMARK VINA RESULT:    -5.792     10.659     13.250
REMARK INTER + INTRA:          -9.791
REMARK INTER:                  -7.531
REMARK INTRA:                  -2.260
REMARK UNBOUND:                -0.952
REMARK SMILES CC(=O)CCC=C(C)CCC=C(C)CCC=C(C)C
REMARK SMILES IDX 10 1 11 2 12 3 13 4 14 5 15 6 16 7 18 8 17 9 19 10 9 11 7 12
REMARK SMILES IDX 6 13 8 14 5 15 4 16 2 17 3 18 1 19
REMARK H PARENT
REMARK Flexibility Score: inf
ROOT
ATOM      1  C   UNL     1     -14.161  15.812 -30.190  1.00  0.00     0.032 C 
ENDROOT
BRANCH   1   2
ATOM      2  C   UNL     1     -15.169  14.757 -30.569  1.00  0.00    -0.028 C 
ATOM      3  C   UNL     1     -15.128  14.036 -31.712  1.00  0.00    -0.077 C 
ATOM      4  C   UNL     1     -14.072  14.269 -32.766  1.00  0.00     0.039 C 
BRANCH   3   5
ATOM      5  C   UNL     1     -16.183  12.977 -31.950  1.00  0.00     0.034 C 
BRANCH   5   6
ATOM      6  C   UNL     1     -16.542  12.263 -30.642  1.00  0.00     0.032 C 
BRANCH   6   7
ATOM      7  C   UNL     1     -18.039  12.188 -30.467  1.00  0.00    -0.028 C 
ATOM      8  C   UNL     1     -18.059  13.805 -28.554  1.00  0.00     0.039 C 
ATOM      9  C   UNL     1     -18.737  12.894 -29.551  1.00  0.00    -0.080 C 
ATOM     10  C   UNL     1     -20.236  12.747 -29.521  1.00  0.00     0.039 C 
ENDBRANCH   6   7
ENDBRANCH   5   6
ENDBRANCH   3   5
ENDBRANCH   1   2
BRANCH   1  11
ATOM     11  C   UNL     1     -13.138  15.254 -29.194  1.00  0.00     0.034 C 
BRANCH  11  12
ATOM     12  C   UNL     1     -12.016  14.544 -29.926  1.00  0.00    -0.077 C 
ATOM     13  C   UNL     1     -11.853  13.202 -29.900  1.00  0.00    -0.028 C 
ATOM     14  C   UNL     1     -10.993  15.375 -30.654  1.00  0.00     0.039 C 
BRANCH  13  15
ATOM     15  C   UNL     1     -12.797  12.227 -29.236  1.00  0.00     0.035 C 
BRANCH  15  16
ATOM     16  C   UNL     1     -12.381  11.934 -27.789  1.00  0.00     0.079 C 
BRANCH  16  17
ATOM     17  C   UNL     1     -13.279  12.635 -26.801  1.00  0.00     0.130 C 
ATOM     18  O   UNL     1     -12.786  13.200 -25.837  1.00  0.00    -0.300 OA
ATOM     19  C   UNL     1     -14.768  12.653 -26.979  1.00  0.00     0.087 C 
ENDBRANCH  16  17
ENDBRANCH  15  16
ENDBRANCH  13  15
ENDBRANCH  11  12
ENDBRANCH   1  11
TORSDOF 9
ENDMDL
