MODEL 1
REMARK VINA RESULT:    -7.937      0.000      0.000
REMARK INTER + INTRA:          -8.647
REMARK INTER:                  -8.633
REMARK INTRA:                  -0.013
REMARK UNBOUND:                -0.013
REMARK SMILES C[C@H]1[C@@H](C)CC[C@@]2(C(=O)[O-])CC[C@@]3(C)C(=CC[C@@H]4[C@]5(C)CC[C@@H](O)C(C)(C)[C@H]5CC[C@]43C)[C@@H]12
REMARK SMILES IDX 7 1 6 2 11 3 33 4 5 5 12 6 15 7 2 8 3 9 13 10 16 11 1 12
REMARK SMILES IDX 4 13 14 14 31 15 17 16 18 17 30 18 32 19 19 20 29 21 28 22
REMARK SMILES IDX 21 23 20 24 25 25 22 26 23 27 26 28 27 29 8 30 9 31 10 32
REMARK SMILES IDX 24 33
REMARK H PARENT 24 34
REMARK Flexibility Score: inf
ROOT
ATOM      1  C   UNL     1       1.501   4.820 -26.912  1.00  0.00     0.017 C 
ATOM      2  C   UNL     1       1.506   6.279 -27.470  1.00  0.00     0.014 C 
ATOM      3  C   UNL     1       1.410   3.868 -28.125  1.00  0.00     0.014 C 
ATOM      4  C   UNL     1       2.796   4.527 -26.045  1.00  0.00     0.030 C 
ATOM      5  C   UNL     1       1.972   7.285 -26.425  1.00  0.00     0.004 C 
ATOM      6  C   UNL     1       1.392   2.401 -27.694  1.00  0.00     0.013 C 
ATOM      7  C   UNL     1       3.276   3.054 -26.050  1.00  0.00    -0.063 C 
ATOM      8  C   UNL     1       3.951   5.577 -26.248  1.00  0.00    -0.003 C 
ATOM      9  C   UNL     1       3.435   7.037 -25.985  1.00  0.00    -0.011 C 
ATOM     10  C   UNL     1       2.707   1.944 -26.984  1.00  0.00    -0.006 C 
ATOM     11  C   UNL     1       4.284   2.717 -25.204  1.00  0.00    -0.027 C 
ATOM     12  C   UNL     1       4.745   5.373 -27.555  1.00  0.00     0.008 C 
ATOM     13  C   UNL     1       4.370   8.138 -26.512  1.00  0.00     0.008 C 
ATOM     14  C   UNL     1       3.787   1.849 -28.125  1.00  0.00     0.017 C 
ATOM     15  C   UNL     1       2.495   0.501 -26.193  1.00  0.00    -0.020 C 
ATOM     16  C   UNL     1       4.610   1.276 -24.926  1.00  0.00     0.032 C 
ATOM     17  C   UNL     1       3.273   0.529 -24.814  1.00  0.00     0.006 C 
ATOM     18  C   UNL     1       1.008   0.207 -25.755  1.00  0.00     0.008 C 
ATOM     19  C   UNL     1       2.929  -0.666 -27.151  1.00  0.00     0.012 C 
ATOM     20  C   UNL     1       3.254  -0.745 -23.855  1.00  0.00    -0.025 C 
ATOM     21  C   UNL     1       0.797  -0.916 -24.679  1.00  0.00     0.005 C 
ATOM     22  C   UNL     1       2.083  -1.696 -24.274  1.00  0.00     0.003 C 
ATOM     23  C   UNL     1       4.565  -1.579 -23.928  1.00  0.00     0.010 C 
ATOM     24  C   UNL     1       3.087  -0.193 -22.399  1.00  0.00     0.012 C 
ATOM     25  C   UNL     1       1.905  -3.007 -23.413  1.00  0.00    -0.006 C 
ATOM     26  C   UNL     1       4.501  -2.880 -23.092  1.00  0.00     0.033 C 
ATOM     27  C   UNL     1       3.278  -3.770 -23.411  1.00  0.00     0.120 C 
ATOM     28  C   UNL     1       1.391  -2.753 -21.970  1.00  0.00     0.014 C 
ATOM     29  C   UNL     1       0.867  -3.941 -24.100  1.00  0.00     0.014 C 
ENDROOT
BRANCH   1  30
ATOM     30  C   UNL     1       0.241   4.634 -26.055  1.00  0.00     0.048 C 
ATOM     31  O   UNL     1       0.236   4.967 -24.840  1.00  0.00    -0.550 OA
ATOM     32  O   UNL     1      -0.951   4.192 -26.623  1.00  0.00    -0.550 OA
ENDBRANCH   1  30
BRANCH  27  33
ATOM     33  O   UNL     1       3.233  -4.847 -22.507  1.00  0.00    -0.393 OA
ATOM     34  H   UNL     1       2.890  -5.633 -23.009  1.00  0.00     0.210 HD
ENDBRANCH  27  33
TORSDOF 2
ENDMDL
MODEL 2
REMARK VINA RESULT:    -7.402      2.030      8.139
REMARK INTER + INTRA:          -8.065
REMARK INTER:                  -7.769
REMARK INTRA:                  -0.296
REMARK UNBOUND:                -0.013
REMARK SMILES C[C@H]1[C@@H](C)CC[C@@]2(C(=O)[O-])CC[C@@]3(C)C(=CC[C@@H]4[C@]5(C)CC[C@@H](O)C(C)(C)[C@H]5CC[C@]43C)[C@@H]12
REMARK SMILES IDX 7 1 6 2 11 3 33 4 5 5 12 6 15 7 2 8 3 9 13 10 16 11 1 12
REMARK SMILES IDX 4 13 14 14 31 15 17 16 18 17 30 18 32 19 19 20 29 21 28 22
REMARK SMILES IDX 21 23 20 24 25 25 22 26 23 27 26 28 27 29 8 30 9 31 10 32
REMARK SMILES IDX 24 33
REMARK H PARENT 24 34
REMARK Flexibility Score: inf
ROOT
ATOM      1  C   UNL     1       4.306  -0.560 -23.799  1.00  0.00     0.017 C 
ATOM      2  C   UNL     1       4.484  -2.020 -23.274  1.00  0.00     0.014 C 
ATOM      3  C   UNL     1       5.385  -0.330 -24.882  1.00  0.00     0.014 C 
ATOM      4  C   UNL     1       2.849  -0.326 -24.378  1.00  0.00     0.030 C 
ATOM      5  C   UNL     1       3.265  -2.497 -22.494  1.00  0.00     0.004 C 
ATOM      6  C   UNL     1       5.307   1.080 -25.467  1.00  0.00     0.013 C 
ATOM      7  C   UNL     1       2.749   0.720 -25.516  1.00  0.00    -0.063 C 
ATOM      8  C   UNL     1       2.053  -1.655 -24.659  1.00  0.00    -0.003 C 
ATOM      9  C   UNL     1       1.994  -2.556 -23.374  1.00  0.00    -0.011 C 
ATOM     10  C   UNL     1       3.974   1.367 -26.230  1.00  0.00    -0.006 C 
ATOM     11  C   UNL     1       1.508   1.073 -25.940  1.00  0.00    -0.027 C 
ATOM     12  C   UNL     1       2.485  -2.368 -25.958  1.00  0.00     0.008 C 
ATOM     13  C   UNL     1       1.573  -4.010 -23.645  1.00  0.00     0.008 C 
ATOM     14  C   UNL     1       4.076   0.551 -27.571  1.00  0.00     0.017 C 
ATOM     15  C   UNL     1       3.767   2.992 -26.492  1.00  0.00    -0.020 C 
ATOM     16  C   UNL     1       1.304   2.278 -26.815  1.00  0.00     0.032 C 
ATOM     17  C   UNL     1       2.243   3.374 -26.292  1.00  0.00     0.006 C 
ATOM     18  C   UNL     1       4.505   3.922 -25.452  1.00  0.00     0.008 C 
ATOM     19  C   UNL     1       4.337   3.349 -27.911  1.00  0.00     0.012 C 
ATOM     20  C   UNL     1       1.759   4.879 -26.502  1.00  0.00    -0.025 C 
ATOM     21  C   UNL     1       4.044   5.421 -25.393  1.00  0.00     0.005 C 
ATOM     22  C   UNL     1       2.997   5.836 -26.469  1.00  0.00     0.003 C 
ATOM     23  C   UNL     1       1.047   5.103 -27.867  1.00  0.00     0.010 C 
ATOM     24  C   UNL     1       0.741   5.175 -25.348  1.00  0.00     0.012 C 
ATOM     25  C   UNL     1       2.697   7.375 -26.645  1.00  0.00    -0.006 C 
ATOM     26  C   UNL     1       0.686   6.585 -28.125  1.00  0.00     0.033 C 
ATOM     27  C   UNL     1       1.879   7.557 -27.973  1.00  0.00     0.120 C 
ATOM     28  C   UNL     1       1.969   8.022 -25.435  1.00  0.00     0.014 C 
ATOM     29  C   UNL     1       4.036   8.147 -26.827  1.00  0.00     0.014 C 
ENDROOT
BRANCH   1  30
ATOM     30  C   UNL     1       4.574   0.408 -22.638  1.00  0.00     0.048 C 
ATOM     31  O   UNL     1       3.621   1.006 -22.070  1.00  0.00    -0.550 OA
ATOM     32  O   UNL     1       5.856   0.567 -22.120  1.00  0.00    -0.550 OA
ENDBRANCH   1  30
BRANCH  27  33
ATOM     33  O   UNL     1       1.422   8.882 -28.085  1.00  0.00    -0.393 OA
ATOM     34  H   UNL     1       0.769   9.027 -27.351  1.00  0.00     0.210 HD
ENDBRANCH  27  33
TORSDOF 2
ENDMDL
MODEL 3
REMARK VINA RESULT:    -5.670      1.940      8.099
REMARK INTER + INTRA:          -6.181
REMARK INTER:                  -6.829
REMARK INTRA:                   0.648
REMARK UNBOUND:                -0.013
REMARK SMILES C[C@H]1[C@@H](C)CC[C@@]2(C(=O)[O-])CC[C@@]3(C)C(=CC[C@@H]4[C@]5(C)CC[C@@H](O)C(C)(C)[C@H]5CC[C@]43C)[C@@H]12
REMARK SMILES IDX 7 1 6 2 11 3 33 4 5 5 12 6 15 7 2 8 3 9 13 10 16 11 1 12
REMARK SMILES IDX 4 13 14 14 31 15 17 16 18 17 30 18 32 19 19 20 29 21 28 22
REMARK SMILES IDX 21 23 20 24 25 25 22 26 23 27 26 28 27 29 8 30 9 31 10 32
REMARK SMILES IDX 24 33
REMARK H PARENT 24 34
REMARK Flexibility Score: inf
ROOT
ATOM      1  C   UNL     1       3.538  -0.998 -22.688  1.00  0.00     0.017 C 
ATOM      2  C   UNL     1       3.508  -2.460 -22.139  1.00  0.00     0.014 C 
ATOM      3  C   UNL     1       4.965  -0.739 -23.221  1.00  0.00     0.014 C 
ATOM      4  C   UNL     1       2.452  -0.784 -23.824  1.00  0.00     0.030 C 
ATOM      5  C   UNL     1       2.084  -2.964 -21.941  1.00  0.00     0.004 C 
ATOM      6  C   UNL     1       5.112   0.674 -23.783  1.00  0.00     0.013 C 
ATOM      7  C   UNL     1       2.817   0.271 -24.898  1.00  0.00    -0.063 C 
ATOM      8  C   UNL     1       1.872  -2.123 -24.414  1.00  0.00    -0.003 C 
ATOM      9  C   UNL     1       1.299  -3.037 -23.272  1.00  0.00    -0.011 C 
ATOM     10  C   UNL     1       4.215   0.945 -25.034  1.00  0.00    -0.006 C 
ATOM     11  C   UNL     1       1.860   0.606 -25.802  1.00  0.00    -0.027 C 
ATOM     12  C   UNL     1       2.822  -2.817 -25.413  1.00  0.00     0.008 C 
ATOM     13  C   UNL     1       1.058  -4.495 -23.697  1.00  0.00     0.008 C 
ATOM     14  C   UNL     1       4.885   0.144 -26.210  1.00  0.00     0.017 C 
ATOM     15  C   UNL     1       4.105   2.569 -25.356  1.00  0.00    -0.020 C 
ATOM     16  C   UNL     1       2.018   1.816 -26.681  1.00  0.00     0.032 C 
ATOM     17  C   UNL     1       2.630   2.923 -25.812  1.00  0.00     0.006 C 
ATOM     18  C   UNL     1       4.322   3.502 -24.102  1.00  0.00     0.008 C 
ATOM     19  C   UNL     1       5.210   2.949 -26.406  1.00  0.00     0.012 C 
ATOM     20  C   UNL     1       2.249   4.421 -26.203  1.00  0.00    -0.025 C 
ATOM     21  C   UNL     1       3.849   4.992 -24.240  1.00  0.00     0.005 C 
ATOM     22  C   UNL     1       3.342   5.398 -25.655  1.00  0.00     0.003 C 
ATOM     23  C   UNL     1       2.170   4.645 -27.741  1.00  0.00     0.010 C 
ATOM     24  C   UNL     1       0.837   4.689 -25.581  1.00  0.00     0.012 C 
ATOM     25  C   UNL     1       3.112   6.934 -25.939  1.00  0.00    -0.006 C 
ATOM     26  C   UNL     1       1.920   6.123 -28.125  1.00  0.00     0.033 C 
ATOM     27  C   UNL     1       2.922   7.114 -27.487  1.00  0.00     0.120 C 
ATOM     28  C   UNL     1       1.933   7.557 -25.143  1.00  0.00     0.014 C 
ATOM     29  C   UNL     1       4.390   7.731 -25.543  1.00  0.00     0.014 C 
ENDROOT
BRANCH   1  30
ATOM     30  C   UNL     1       3.276  -0.036 -21.521  1.00  0.00     0.048 C 
ATOM     31  O   UNL     1       4.036   0.948 -21.318  1.00  0.00    -0.550 OA
ATOM     32  O   UNL     1       2.141  -0.168 -20.726  1.00  0.00    -0.550 OA
ENDBRANCH   1  30
BRANCH  27  33
ATOM     33  O   UNL     1       2.528   8.432 -27.778  1.00  0.00    -0.393 OA
ATOM     34  H   UNL     1       3.279   8.858 -28.268  1.00  0.00     0.210 HD
ENDBRANCH  27  33
TORSDOF 2
ENDMDL
