MODEL 1
REMARK VINA RESULT:    -6.151      0.000      0.000
REMARK INTER + INTRA:          -7.966
REMARK INTER:                  -7.589
REMARK INTRA:                  -0.377
REMARK UNBOUND:                -0.377
REMARK SMILES Oc1cc(O)c2cc(O)c(-c3cc(O)c(O)c(O)c3)[o+]c2c1
REMARK SMILES IDX 10 1 20 2 21 3 22 4 2 5 3 6 4 7 6 8 7 9 8 10 11 11 12 12
REMARK SMILES IDX 13 13 19 14 15 15 17 16 14 17 16 19 18 21 9 23 1 25 5 27
REMARK H PARENT 14 18 16 20 18 22 9 24 1 26 5 28
REMARK Flexibility Score: inf
ROOT
ATOM      1  C   UNL     1      11.128  41.533  35.670  1.00  0.00     0.402 A 
ATOM      2  O   UNL     1      11.037  41.525  36.998  1.00  0.00    -0.202 OA
ATOM      3  C   UNL     1      11.693  40.664  37.769  1.00  0.00     0.368 A 
ATOM      4  C   UNL     1      11.537  40.736  39.155  1.00  0.00     0.162 A 
ATOM      5  C   UNL     1      12.214  39.846  39.989  1.00  0.00     0.128 A 
ATOM      6  C   UNL     1      13.058  38.877  39.435  1.00  0.00     0.093 A 
ATOM      7  C   UNL     1      13.232  38.784  38.048  1.00  0.00     0.136 A 
ATOM      8  C   UNL     1      12.542  39.685  37.196  1.00  0.00     0.125 A 
ATOM      9  C   UNL     1      12.646  39.658  35.796  1.00  0.00     0.078 A 
ATOM     10  C   UNL     1      11.930  40.577  35.022  1.00  0.00     0.223 A 
ENDROOT
BRANCH   1  11
ATOM     11  C   UNL     1      10.355  42.551  34.923  1.00  0.00     0.091 A 
ATOM     12  C   UNL     1       9.065  42.278  34.436  1.00  0.00     0.068 A 
ATOM     13  C   UNL     1       8.357  43.246  33.711  1.00  0.00     0.162 A 
ATOM     14  C   UNL     1      10.940  43.795  34.643  1.00  0.00     0.068 A 
ATOM     15  C   UNL     1       8.942  44.498  33.456  1.00  0.00     0.200 A 
ATOM     16  C   UNL     1      10.240  44.768  33.922  1.00  0.00     0.162 A 
BRANCH  13  17
ATOM     17  O   UNL     1       7.075  42.967  33.239  1.00  0.00    -0.504 OA
ATOM     18  H   UNL     1       6.884  42.149  32.672  1.00  0.00     0.293 HD
ENDBRANCH  13  17
BRANCH  15  19
ATOM     19  O   UNL     1       8.250  45.475  32.740  1.00  0.00    -0.502 OA
ATOM     20  H   UNL     1       7.245  45.586  32.808  1.00  0.00     0.293 HD
ENDBRANCH  15  19
BRANCH  16  21
ATOM     21  O   UNL     1      10.853  45.998  33.678  1.00  0.00    -0.504 OA
ATOM     22  H   UNL     1      10.645  46.822  34.229  1.00  0.00     0.293 HD
ENDBRANCH  16  21
ENDBRANCH   1  11
BRANCH  10  23
ATOM     23  O   UNL     1      11.994  40.518  33.630  1.00  0.00    -0.500 OA
ATOM     24  H   UNL     1      11.255  40.893  33.046  1.00  0.00     0.294 HD
ENDBRANCH  10  23
BRANCH   5  25
ATOM     25  O   UNL     1      12.045  39.933  41.369  1.00  0.00    -0.507 OA
ATOM     26  H   UNL     1      12.836  39.930  42.002  1.00  0.00     0.293 HD
ENDBRANCH   5  25
BRANCH   7  27
ATOM     27  O   UNL     1      14.094  37.791  37.572  1.00  0.00    -0.507 OA
ATOM     28  H   UNL     1      14.271  36.916  38.043  1.00  0.00     0.293 HD
ENDBRANCH   7  27
TORSDOF 7
ENDMDL
MODEL 2
REMARK VINA RESULT:    -6.146      0.135      1.799
REMARK INTER + INTRA:          -7.960
REMARK INTER:                  -7.584
REMARK INTRA:                  -0.376
REMARK UNBOUND:                -0.377
REMARK SMILES Oc1cc(O)c2cc(O)c(-c3cc(O)c(O)c(O)c3)[o+]c2c1
REMARK SMILES IDX 10 1 20 2 21 3 22 4 2 5 3 6 4 7 6 8 7 9 8 10 11 11 12 12
REMARK SMILES IDX 13 13 19 14 15 15 17 16 14 17 16 19 18 21 9 23 1 25 5 27
REMARK H PARENT 14 18 16 20 18 22 9 24 1 26 5 28
REMARK Flexibility Score: inf
ROOT
ATOM      1  C   UNL     1      11.137  41.609  35.590  1.00  0.00     0.402 A 
ATOM      2  O   UNL     1      11.071  41.641  36.919  1.00  0.00    -0.202 OA
ATOM      3  C   UNL     1      11.689  40.765  37.703  1.00  0.00     0.368 A 
ATOM      4  C   UNL     1      11.562  40.883  39.089  1.00  0.00     0.162 A 
ATOM      5  C   UNL     1      12.202  39.978  39.936  1.00  0.00     0.128 A 
ATOM      6  C   UNL     1      12.978  38.946  39.396  1.00  0.00     0.093 A 
ATOM      7  C   UNL     1      13.121  38.806  38.009  1.00  0.00     0.136 A 
ATOM      8  C   UNL     1      12.469  39.723  37.144  1.00  0.00     0.125 A 
ATOM      9  C   UNL     1      12.546  39.652  35.744  1.00  0.00     0.078 A 
ATOM     10  C   UNL     1      11.871  40.590  34.956  1.00  0.00     0.223 A 
ENDROOT
BRANCH   1  11
ATOM     11  C   UNL     1      10.411  42.649  34.827  1.00  0.00     0.091 A 
ATOM     12  C   UNL     1      10.994  43.899  34.558  1.00  0.00     0.068 A 
ATOM     13  C   UNL     1      10.283  44.880  33.853  1.00  0.00     0.162 A 
ATOM     14  C   UNL     1       9.094  42.407  34.411  1.00  0.00     0.068 A 
ATOM     15  C   UNL     1       8.971  44.620  33.420  1.00  0.00     0.200 A 
ATOM     16  C   UNL     1       8.377  43.379  33.706  1.00  0.00     0.162 A 
BRANCH  13  17
ATOM     17  O   UNL     1      10.874  46.115  33.586  1.00  0.00    -0.504 OA
ATOM     18  H   UNL     1      11.868  46.267  33.714  1.00  0.00     0.293 HD
ENDBRANCH  13  17
BRANCH  15  19
ATOM     19  O   UNL     1       8.250  45.584  32.714  1.00  0.00    -0.502 OA
ATOM     20  H   UNL     1       8.317  46.572  32.926  1.00  0.00     0.293 HD
ENDBRANCH  15  19
BRANCH  16  21
ATOM     21  O   UNL     1       7.074  43.093  33.297  1.00  0.00    -0.504 OA
ATOM     22  H   UNL     1       6.433  42.562  33.874  1.00  0.00     0.293 HD
ENDBRANCH  16  21
ENDBRANCH   1  11
BRANCH  10  23
ATOM     23  O   UNL     1      11.906  40.490  33.566  1.00  0.00    -0.500 OA
ATOM     24  H   UNL     1      11.364  41.108  32.973  1.00  0.00     0.294 HD
ENDBRANCH  10  23
BRANCH   5  25
ATOM     25  O   UNL     1      12.063  40.112  41.316  1.00  0.00    -0.507 OA
ATOM     26  H   UNL     1      11.240  39.775  41.801  1.00  0.00     0.293 HD
ENDBRANCH   5  25
BRANCH   7  27
ATOM     27  O   UNL     1      13.915  37.752  37.548  1.00  0.00    -0.507 OA
ATOM     28  H   UNL     1      14.229  37.649  36.594  1.00  0.00     0.293 HD
ENDBRANCH   7  27
TORSDOF 7
ENDMDL
MODEL 3
REMARK VINA RESULT:    -5.887      1.639      2.286
REMARK INTER + INTRA:          -7.641
REMARK INTER:                  -7.279
REMARK INTRA:                  -0.361
REMARK UNBOUND:                -0.377
REMARK SMILES Oc1cc(O)c2cc(O)c(-c3cc(O)c(O)c(O)c3)[o+]c2c1
REMARK SMILES IDX 10 1 20 2 21 3 22 4 2 5 3 6 4 7 6 8 7 9 8 10 11 11 12 12
REMARK SMILES IDX 13 13 19 14 15 15 17 16 14 17 16 19 18 21 9 23 1 25 5 27
REMARK H PARENT 14 18 16 20 18 22 9 24 1 26 5 28
REMARK Flexibility Score: inf
ROOT
ATOM      1  C   UNL     1      11.202  41.061  36.107  1.00  0.00     0.402 A 
ATOM      2  O   UNL     1      11.941  41.559  37.096  1.00  0.00    -0.202 OA
ATOM      3  C   UNL     1      12.862  40.854  37.745  1.00  0.00     0.368 A 
ATOM      4  C   UNL     1      13.591  41.465  38.768  1.00  0.00     0.162 A 
ATOM      5  C   UNL     1      14.565  40.751  39.465  1.00  0.00     0.128 A 
ATOM      6  C   UNL     1      14.816  39.413  39.137  1.00  0.00     0.093 A 
ATOM      7  C   UNL     1      14.098  38.777  38.116  1.00  0.00     0.136 A 
ATOM      8  C   UNL     1      13.104  39.500  37.407  1.00  0.00     0.125 A 
ATOM      9  C   UNL     1      12.329  38.942  36.378  1.00  0.00     0.078 A 
ATOM     10  C   UNL     1      11.364  39.717  35.728  1.00  0.00     0.223 A 
ENDROOT
BRANCH   1  11
ATOM     11  C   UNL     1      10.215  41.952  35.455  1.00  0.00     0.091 A 
ATOM     12  C   UNL     1      10.599  42.859  34.453  1.00  0.00     0.068 A 
ATOM     13  C   UNL     1       9.655  43.710  33.862  1.00  0.00     0.162 A 
ATOM     14  C   UNL     1       8.879  41.932  35.882  1.00  0.00     0.068 A 
ATOM     15  C   UNL     1       8.314  43.668  34.281  1.00  0.00     0.200 A 
ATOM     16  C   UNL     1       7.929  42.777  35.298  1.00  0.00     0.162 A 
BRANCH  13  17
ATOM     17  O   UNL     1      10.046  44.601  32.864  1.00  0.00    -0.504 OA
ATOM     18  H   UNL     1       9.381  44.981  32.200  1.00  0.00     0.293 HD
ENDBRANCH  13  17
BRANCH  15  19
ATOM     19  O   UNL     1       7.360  44.504  33.701  1.00  0.00    -0.502 OA
ATOM     20  H   UNL     1       7.116  45.404  34.099  1.00  0.00     0.293 HD
ENDBRANCH  15  19
BRANCH  16  21
ATOM     21  O   UNL     1       6.608  42.716  35.741  1.00  0.00    -0.504 OA
ATOM     22  H   UNL     1       5.973  41.985  35.445  1.00  0.00     0.293 HD
ENDBRANCH  16  21
ENDBRANCH   1  11
BRANCH  10  23
ATOM     23  O   UNL     1      10.559  39.148  34.741  1.00  0.00    -0.500 OA
ATOM     24  H   UNL     1      10.890  38.390  34.155  1.00  0.00     0.294 HD
ENDBRANCH  10  23
BRANCH   5  25
ATOM     25  O   UNL     1      15.281  41.377  40.482  1.00  0.00    -0.507 OA
ATOM     26  H   UNL     1      16.107  40.954  40.887  1.00  0.00     0.293 HD
ENDBRANCH   5  25
BRANCH   7  27
ATOM     27  O   UNL     1      14.410  37.441  37.846  1.00  0.00    -0.507 OA
ATOM     28  H   UNL     1      15.127  37.141  37.202  1.00  0.00     0.293 HD
ENDBRANCH   7  27
TORSDOF 7
ENDMDL
MODEL 4
REMARK VINA RESULT:    -5.872      2.088      7.611
REMARK INTER + INTRA:          -7.622
REMARK INTER:                  -7.280
REMARK INTRA:                  -0.342
REMARK UNBOUND:                -0.377
REMARK SMILES Oc1cc(O)c2cc(O)c(-c3cc(O)c(O)c(O)c3)[o+]c2c1
REMARK SMILES IDX 10 1 20 2 21 3 22 4 2 5 3 6 4 7 6 8 7 9 8 10 11 11 12 12
REMARK SMILES IDX 13 13 19 14 15 15 17 16 14 17 16 19 18 21 9 23 1 25 5 27
REMARK H PARENT 14 18 16 20 18 22 9 24 1 26 5 28
REMARK Flexibility Score: inf
ROOT
ATOM      1  C   UNL     1      12.686  39.527  37.312  1.00  0.00     0.402 A 
ATOM      2  O   UNL     1      12.805  40.853  37.330  1.00  0.00    -0.202 OA
ATOM      3  C   UNL     1      12.294  41.644  36.393  1.00  0.00     0.368 A 
ATOM      4  C   UNL     1      12.469  43.026  36.500  1.00  0.00     0.162 A 
ATOM      5  C   UNL     1      11.942  43.881  35.532  1.00  0.00     0.128 A 
ATOM      6  C   UNL     1      11.231  43.353  34.448  1.00  0.00     0.093 A 
ATOM      7  C   UNL     1      11.043  41.971  34.318  1.00  0.00     0.136 A 
ATOM      8  C   UNL     1      11.580  41.098  35.299  1.00  0.00     0.125 A 
ATOM      9  C   UNL     1      11.451  39.701  35.243  1.00  0.00     0.078 A 
ATOM     10  C   UNL     1      12.013  38.904  36.246  1.00  0.00     0.223 A 
ENDROOT
BRANCH   1  11
ATOM     11  C   UNL     1      13.292  38.755  38.421  1.00  0.00     0.091 A 
ATOM     12  C   UNL     1      14.516  38.084  38.262  1.00  0.00     0.068 A 
ATOM     13  C   UNL     1      15.063  37.340  39.316  1.00  0.00     0.162 A 
ATOM     14  C   UNL     1      12.605  38.642  39.639  1.00  0.00     0.068 A 
ATOM     15  C   UNL     1      14.379  37.251  40.541  1.00  0.00     0.200 A 
ATOM     16  C   UNL     1      13.144  37.903  40.697  1.00  0.00     0.162 A 
BRANCH  13  17
ATOM     17  O   UNL     1      16.283  36.685  39.149  1.00  0.00    -0.504 OA
ATOM     18  H   UNL     1      16.623  36.421  38.232  1.00  0.00     0.293 HD
ENDBRANCH  13  17
BRANCH  15  19
ATOM     19  O   UNL     1      14.911  36.518  41.602  1.00  0.00    -0.502 OA
ATOM     20  H   UNL     1      15.714  36.838  42.131  1.00  0.00     0.293 HD
ENDBRANCH  15  19
BRANCH  16  21
ATOM     21  O   UNL     1      12.436  37.826  41.897  1.00  0.00    -0.504 OA
ATOM     22  H   UNL     1      12.901  37.789  42.796  1.00  0.00     0.293 HD
ENDBRANCH  16  21
ENDBRANCH   1  11
BRANCH  10  23
ATOM     23  O   UNL     1      11.928  37.515  36.165  1.00  0.00    -0.500 OA
ATOM     24  H   UNL     1      11.975  36.929  36.991  1.00  0.00     0.294 HD
ENDBRANCH  10  23
BRANCH   5  25
ATOM     25  O   UNL     1      12.127  45.256  35.656  1.00  0.00    -0.507 OA
ATOM     26  H   UNL     1      12.031  45.726  36.549  1.00  0.00     0.293 HD
ENDBRANCH   5  25
BRANCH   7  27
ATOM     27  O   UNL     1      10.319  41.522  33.209  1.00  0.00    -0.507 OA
ATOM     28  H   UNL     1       9.584  42.046  32.757  1.00  0.00     0.293 HD
ENDBRANCH   7  27
TORSDOF 7
ENDMDL
MODEL 5
REMARK VINA RESULT:    -5.865      3.149      5.615
REMARK INTER + INTRA:          -7.614
REMARK INTER:                  -7.248
REMARK INTRA:                  -0.365
REMARK UNBOUND:                -0.377
REMARK SMILES Oc1cc(O)c2cc(O)c(-c3cc(O)c(O)c(O)c3)[o+]c2c1
REMARK SMILES IDX 10 1 20 2 21 3 22 4 2 5 3 6 4 7 6 8 7 9 8 10 11 11 12 12
REMARK SMILES IDX 13 13 19 14 15 15 17 16 14 17 16 19 18 21 9 23 1 25 5 27
REMARK H PARENT 14 18 16 20 18 22 9 24 1 26 5 28
REMARK Flexibility Score: inf
ROOT
ATOM      1  C   UNL     1      12.897  38.622  39.506  1.00  0.00     0.402 A 
ATOM      2  O   UNL     1      11.826  38.345  40.247  1.00  0.00    -0.202 OA
ATOM      3  C   UNL     1      11.844  37.497  41.270  1.00  0.00     0.368 A 
ATOM      4  C   UNL     1      10.668  37.275  41.990  1.00  0.00     0.162 A 
ATOM      5  C   UNL     1      10.658  36.391  43.070  1.00  0.00     0.128 A 
ATOM      6  C   UNL     1      11.834  35.725  43.436  1.00  0.00     0.093 A 
ATOM      7  C   UNL     1      13.026  35.931  42.729  1.00  0.00     0.136 A 
ATOM      8  C   UNL     1      13.039  36.827  41.628  1.00  0.00     0.125 A 
ATOM      9  C   UNL     1      14.183  37.085  40.856  1.00  0.00     0.078 A 
ATOM     10  C   UNL     1      14.116  37.978  39.782  1.00  0.00     0.223 A 
ENDROOT
BRANCH   1  11
ATOM     11  C   UNL     1      12.750  39.593  38.399  1.00  0.00     0.091 A 
ATOM     12  C   UNL     1      12.813  40.978  38.628  1.00  0.00     0.068 A 
ATOM     13  C   UNL     1      12.651  41.884  37.571  1.00  0.00     0.162 A 
ATOM     14  C   UNL     1      12.486  39.128  37.102  1.00  0.00     0.068 A 
ATOM     15  C   UNL     1      12.409  41.408  36.271  1.00  0.00     0.200 A 
ATOM     16  C   UNL     1      12.324  40.024  36.041  1.00  0.00     0.162 A 
BRANCH  13  17
ATOM     17  O   UNL     1      12.723  43.256  37.809  1.00  0.00    -0.504 OA
ATOM     18  H   UNL     1      12.503  43.650  38.716  1.00  0.00     0.293 HD
ENDBRANCH  13  17
BRANCH  15  19
ATOM     19  O   UNL     1      12.249  42.295  35.206  1.00  0.00    -0.502 OA
ATOM     20  H   UNL     1      12.907  42.340  34.436  1.00  0.00     0.293 HD
ENDBRANCH  15  19
BRANCH  16  21
ATOM     21  O   UNL     1      12.077  39.520  34.763  1.00  0.00    -0.504 OA
ATOM     22  H   UNL     1      11.633  38.621  34.615  1.00  0.00     0.293 HD
ENDBRANCH  16  21
ENDBRANCH   1  11
BRANCH  10  23
ATOM     23  O   UNL     1      15.239  38.196  38.984  1.00  0.00    -0.500 OA
ATOM     24  H   UNL     1      15.242  37.973  37.995  1.00  0.00     0.294 HD
ENDBRANCH  10  23
BRANCH   5  25
ATOM     25  O   UNL     1       9.476  36.182  43.776  1.00  0.00    -0.507 OA
ATOM     26  H   UNL     1       9.458  35.639  44.631  1.00  0.00     0.293 HD
ENDBRANCH   5  25
BRANCH   7  27
ATOM     27  O   UNL     1      14.158  35.231  43.159  1.00  0.00    -0.507 OA
ATOM     28  H   UNL     1      14.331  34.255  42.969  1.00  0.00     0.293 HD
ENDBRANCH   7  27
TORSDOF 7
ENDMDL
MODEL 6
REMARK VINA RESULT:    -5.860      3.316      8.232
REMARK INTER + INTRA:          -7.608
REMARK INTER:                  -7.301
REMARK INTRA:                  -0.307
REMARK UNBOUND:                -0.377
REMARK SMILES Oc1cc(O)c2cc(O)c(-c3cc(O)c(O)c(O)c3)[o+]c2c1
REMARK SMILES IDX 10 1 20 2 21 3 22 4 2 5 3 6 4 7 6 8 7 9 8 10 11 11 12 12
REMARK SMILES IDX 13 13 19 14 15 15 17 16 14 17 16 19 18 21 9 23 1 25 5 27
REMARK H PARENT 14 18 16 20 18 22 9 24 1 26 5 28
REMARK Flexibility Score: inf
ROOT
ATOM      1  C   UNL     1      14.518  40.316  38.984  1.00  0.00     0.402 A 
ATOM      2  O   UNL     1      13.654  40.797  38.093  1.00  0.00    -0.202 OA
ATOM      3  C   UNL     1      13.685  42.049  37.647  1.00  0.00     0.368 A 
ATOM      4  C   UNL     1      12.736  42.460  36.709  1.00  0.00     0.162 A 
ATOM      5  C   UNL     1      12.746  43.768  36.222  1.00  0.00     0.128 A 
ATOM      6  C   UNL     1      13.713  44.672  36.674  1.00  0.00     0.093 A 
ATOM      7  C   UNL     1      14.675  44.284  37.615  1.00  0.00     0.136 A 
ATOM      8  C   UNL     1      14.667  42.956  38.115  1.00  0.00     0.125 A 
ATOM      9  C   UNL     1      15.584  42.483  39.068  1.00  0.00     0.078 A 
ATOM     10  C   UNL     1      15.508  41.161  39.517  1.00  0.00     0.223 A 
ENDROOT
BRANCH   1  11
ATOM     11  C   UNL     1      14.386  38.900  39.394  1.00  0.00     0.091 A 
ATOM     12  C   UNL     1      15.333  37.936  39.010  1.00  0.00     0.068 A 
ATOM     13  C   UNL     1      15.179  36.595  39.389  1.00  0.00     0.162 A 
ATOM     14  C   UNL     1      13.263  38.497  40.133  1.00  0.00     0.068 A 
ATOM     15  C   UNL     1      14.063  36.205  40.149  1.00  0.00     0.200 A 
ATOM     16  C   UNL     1      13.102  37.162  40.517  1.00  0.00     0.162 A 
BRANCH  13  17
ATOM     17  O   UNL     1      16.130  35.648  39.009  1.00  0.00    -0.504 OA
ATOM     18  H   UNL     1      15.945  34.976  38.274  1.00  0.00     0.293 HD
ENDBRANCH  13  17
BRANCH  15  19
ATOM     19  O   UNL     1      13.896  34.876  40.539  1.00  0.00    -0.502 OA
ATOM     20  H   UNL     1      14.672  34.301  40.846  1.00  0.00     0.293 HD
ENDBRANCH  15  19
BRANCH  16  21
ATOM     21  O   UNL     1      11.979  36.806  41.264  1.00  0.00    -0.504 OA
ATOM     22  H   UNL     1      12.005  36.068  41.957  1.00  0.00     0.293 HD
ENDBRANCH  16  21
ENDBRANCH   1  11
BRANCH  10  23
ATOM     23  O   UNL     1      16.387  40.706  40.499  1.00  0.00    -0.500 OA
ATOM     24  H   UNL     1      17.368  40.964  40.499  1.00  0.00     0.294 HD
ENDBRANCH  10  23
BRANCH   5  25
ATOM     25  O   UNL     1      11.791  44.160  35.286  1.00  0.00    -0.507 OA
ATOM     26  H   UNL     1      11.883  43.927  34.305  1.00  0.00     0.293 HD
ENDBRANCH   5  25
BRANCH   7  27
ATOM     27  O   UNL     1      15.610  45.245  38.014  1.00  0.00    -0.507 OA
ATOM     28  H   UNL     1      16.556  45.038  38.295  1.00  0.00     0.293 HD
ENDBRANCH   7  27
TORSDOF 7
ENDMDL
MODEL 7
REMARK VINA RESULT:    -5.852      3.167      8.215
REMARK INTER + INTRA:          -7.598
REMARK INTER:                  -7.217
REMARK INTRA:                  -0.380
REMARK UNBOUND:                -0.377
REMARK SMILES Oc1cc(O)c2cc(O)c(-c3cc(O)c(O)c(O)c3)[o+]c2c1
REMARK SMILES IDX 10 1 20 2 21 3 22 4 2 5 3 6 4 7 6 8 7 9 8 10 11 11 12 12
REMARK SMILES IDX 13 13 19 14 15 15 17 16 14 17 16 19 18 21 9 23 1 25 5 27
REMARK H PARENT 14 18 16 20 18 22 9 24 1 26 5 28
REMARK Flexibility Score: inf
ROOT
ATOM      1  C   UNL     1      13.876  39.168  38.358  1.00  0.00     0.402 A 
ATOM      2  O   UNL     1      14.325  40.393  38.622  1.00  0.00    -0.202 OA
ATOM      3  C   UNL     1      13.984  41.464  37.912  1.00  0.00     0.368 A 
ATOM      4  C   UNL     1      14.505  42.710  38.269  1.00  0.00     0.162 A 
ATOM      5  C   UNL     1      14.163  43.852  37.543  1.00  0.00     0.128 A 
ATOM      6  C   UNL     1      13.293  43.749  36.452  1.00  0.00     0.093 A 
ATOM      7  C   UNL     1      12.759  42.510  36.074  1.00  0.00     0.136 A 
ATOM      8  C   UNL     1      13.106  41.347  36.808  1.00  0.00     0.125 A 
ATOM      9  C   UNL     1      12.628  40.064  36.494  1.00  0.00     0.078 A 
ATOM     10  C   UNL     1      13.020  38.963  37.262  1.00  0.00     0.223 A 
ENDROOT
BRANCH   1  11
ATOM     11  C   UNL     1      14.321  38.057  39.230  1.00  0.00     0.091 A 
ATOM     12  C   UNL     1      13.627  37.729  40.407  1.00  0.00     0.068 A 
ATOM     13  C   UNL     1      14.075  36.688  41.232  1.00  0.00     0.162 A 
ATOM     14  C   UNL     1      15.490  37.352  38.909  1.00  0.00     0.068 A 
ATOM     15  C   UNL     1      15.235  35.972  40.890  1.00  0.00     0.200 A 
ATOM     16  C   UNL     1      15.945  36.312  39.725  1.00  0.00     0.162 A 
BRANCH  13  17
ATOM     17  O   UNL     1      13.374  36.366  42.394  1.00  0.00    -0.504 OA
ATOM     18  H   UNL     1      13.201  35.404  42.661  1.00  0.00     0.293 HD
ENDBRANCH  13  17
BRANCH  15  19
ATOM     19  O   UNL     1      15.694  34.931  41.697  1.00  0.00    -0.502 OA
ATOM     20  H   UNL     1      16.668  34.841  41.962  1.00  0.00     0.293 HD
ENDBRANCH  15  19
BRANCH  16  21
ATOM     21  O   UNL     1      17.104  35.626  39.362  1.00  0.00    -0.504 OA
ATOM     22  H   UNL     1      17.354  34.734  39.773  1.00  0.00     0.293 HD
ENDBRANCH  16  21
ENDBRANCH   1  11
BRANCH  10  23
ATOM     23  O   UNL     1      12.586  37.683  36.921  1.00  0.00    -0.500 OA
ATOM     24  H   UNL     1      13.200  36.878  36.978  1.00  0.00     0.294 HD
ENDBRANCH  10  23
BRANCH   5  25
ATOM     25  O   UNL     1      14.693  45.086  37.914  1.00  0.00    -0.507 OA
ATOM     26  H   UNL     1      14.845  45.823  37.236  1.00  0.00     0.293 HD
ENDBRANCH   5  25
BRANCH   7  27
ATOM     27  O   UNL     1      11.894  42.491  34.975  1.00  0.00    -0.507 OA
ATOM     28  H   UNL     1      11.359  41.687  34.684  1.00  0.00     0.293 HD
ENDBRANCH   7  27
TORSDOF 7
ENDMDL
MODEL 8
REMARK VINA RESULT:    -5.836      2.303      6.947
REMARK INTER + INTRA:          -7.578
REMARK INTER:                  -7.239
REMARK INTRA:                  -0.340
REMARK UNBOUND:                -0.377
REMARK SMILES Oc1cc(O)c2cc(O)c(-c3cc(O)c(O)c(O)c3)[o+]c2c1
REMARK SMILES IDX 10 1 20 2 21 3 22 4 2 5 3 6 4 7 6 8 7 9 8 10 11 11 12 12
REMARK SMILES IDX 13 13 19 14 15 15 17 16 14 17 16 19 18 21 9 23 1 25 5 27
REMARK H PARENT 14 18 16 20 18 22 9 24 1 26 5 28
REMARK Flexibility Score: inf
ROOT
ATOM      1  C   UNL     1      10.060  41.659  35.885  1.00  0.00     0.402 A 
ATOM      2  O   UNL     1       8.909  41.687  36.554  1.00  0.00    -0.202 OA
ATOM      3  C   UNL     1       7.911  42.512  36.256  1.00  0.00     0.368 A 
ATOM      4  C   UNL     1       6.740  42.465  37.014  1.00  0.00     0.162 A 
ATOM      5  C   UNL     1       5.675  43.318  36.723  1.00  0.00     0.128 A 
ATOM      6  C   UNL     1       5.780  44.226  35.663  1.00  0.00     0.093 A 
ATOM      7  C   UNL     1       6.945  44.294  34.888  1.00  0.00     0.136 A 
ATOM      8  C   UNL     1       8.031  43.430  35.183  1.00  0.00     0.125 A 
ATOM      9  C   UNL     1       9.239  43.436  34.468  1.00  0.00     0.078 A 
ATOM     10  C   UNL     1      10.267  42.556  34.822  1.00  0.00     0.223 A 
ENDROOT
BRANCH   1  11
ATOM     11  C   UNL     1      11.091  40.685  36.308  1.00  0.00     0.091 A 
ATOM     12  C   UNL     1      12.199  41.080  37.076  1.00  0.00     0.068 A 
ATOM     13  C   UNL     1      13.177  40.148  37.449  1.00  0.00     0.162 A 
ATOM     14  C   UNL     1      10.994  39.350  35.888  1.00  0.00     0.068 A 
ATOM     15  C   UNL     1      13.060  38.808  37.043  1.00  0.00     0.200 A 
ATOM     16  C   UNL     1      11.964  38.412  36.256  1.00  0.00     0.162 A 
BRANCH  13  17
ATOM     17  O   UNL     1      14.269  40.550  38.217  1.00  0.00    -0.504 OA
ATOM     18  H   UNL     1      14.177  40.753  39.206  1.00  0.00     0.293 HD
ENDBRANCH  13  17
BRANCH  15  19
ATOM     19  O   UNL     1      14.022  37.866  37.408  1.00  0.00    -0.502 OA
ATOM     20  H   UNL     1      13.944  36.887  37.154  1.00  0.00     0.293 HD
ENDBRANCH  15  19
BRANCH  16  21
ATOM     21  O   UNL     1      11.823  37.091  35.830  1.00  0.00    -0.504 OA
ATOM     22  H   UNL     1      11.489  36.359  36.445  1.00  0.00     0.293 HD
ENDBRANCH  16  21
ENDBRANCH   1  11
BRANCH  10  23
ATOM     23  O   UNL     1      11.485  42.596  34.145  1.00  0.00    -0.500 OA
ATOM     24  H   UNL     1      12.360  42.766  34.629  1.00  0.00     0.294 HD
ENDBRANCH  10  23
BRANCH   5  25
ATOM     25  O   UNL     1       4.515  43.257  37.491  1.00  0.00    -0.507 OA
ATOM     26  H   UNL     1       4.539  42.988  38.468  1.00  0.00     0.293 HD
ENDBRANCH   5  25
BRANCH   7  27
ATOM     27  O   UNL     1       6.970  45.225  33.845  1.00  0.00    -0.507 OA
ATOM     28  H   UNL     1       6.740  46.202  33.947  1.00  0.00     0.293 HD
ENDBRANCH   7  27
TORSDOF 7
ENDMDL
MODEL 9
REMARK VINA RESULT:    -5.822      2.616      8.382
REMARK INTER + INTRA:          -7.561
REMARK INTER:                  -7.250
REMARK INTRA:                  -0.312
REMARK UNBOUND:                -0.377
REMARK SMILES Oc1cc(O)c2cc(O)c(-c3cc(O)c(O)c(O)c3)[o+]c2c1
REMARK SMILES IDX 10 1 20 2 21 3 22 4 2 5 3 6 4 7 6 8 7 9 8 10 11 11 12 12
REMARK SMILES IDX 13 13 19 14 15 15 17 16 14 17 16 19 18 21 9 23 1 25 5 27
REMARK H PARENT 14 18 16 20 18 22 9 24 1 26 5 28
REMARK Flexibility Score: inf
ROOT
ATOM      1  C   UNL     1      12.763  39.045  38.630  1.00  0.00     0.402 A 
ATOM      2  O   UNL     1      13.002  39.265  37.340  1.00  0.00    -0.202 OA
ATOM      3  C   UNL     1      12.126  39.839  36.522  1.00  0.00     0.368 A 
ATOM      4  C   UNL     1      12.470  40.030  35.182  1.00  0.00     0.162 A 
ATOM      5  C   UNL     1      11.570  40.631  34.301  1.00  0.00     0.128 A 
ATOM      6  C   UNL     1      10.316  41.048  34.762  1.00  0.00     0.093 A 
ATOM      7  C   UNL     1       9.947  40.866  36.102  1.00  0.00     0.136 A 
ATOM      8  C   UNL     1      10.858  40.252  37.000  1.00  0.00     0.125 A 
ATOM      9  C   UNL     1      10.570  40.020  38.354  1.00  0.00     0.078 A 
ATOM     10  C   UNL     1      11.518  39.404  39.177  1.00  0.00     0.223 A 
ENDROOT
BRANCH   1  11
ATOM     11  C   UNL     1      13.826  38.407  39.440  1.00  0.00     0.091 A 
ATOM     12  C   UNL     1      14.981  39.113  39.817  1.00  0.00     0.068 A 
ATOM     13  C   UNL     1      15.986  38.486  40.566  1.00  0.00     0.162 A 
ATOM     14  C   UNL     1      13.707  37.055  39.792  1.00  0.00     0.068 A 
ATOM     15  C   UNL     1      15.849  37.136  40.934  1.00  0.00     0.200 A 
ATOM     16  C   UNL     1      14.705  36.421  40.540  1.00  0.00     0.162 A 
BRANCH  13  17
ATOM     17  O   UNL     1      17.125  39.198  40.941  1.00  0.00    -0.504 OA
ATOM     18  H   UNL     1      17.710  39.664  40.257  1.00  0.00     0.293 HD
ENDBRANCH  13  17
BRANCH  15  19
ATOM     19  O   UNL     1      16.838  36.497  41.682  1.00  0.00    -0.502 OA
ATOM     20  H   UNL     1      16.736  35.543  42.009  1.00  0.00     0.293 HD
ENDBRANCH  15  19
BRANCH  16  21
ATOM     21  O   UNL     1      14.542  35.078  40.881  1.00  0.00    -0.504 OA
ATOM     22  H   UNL     1      14.483  34.347  40.182  1.00  0.00     0.293 HD
ENDBRANCH  16  21
ENDBRANCH   1  11
BRANCH  10  23
ATOM     23  O   UNL     1      11.213  39.128  40.509  1.00  0.00    -0.500 OA
ATOM     24  H   UNL     1      11.766  39.503  41.272  1.00  0.00     0.294 HD
ENDBRANCH  10  23
BRANCH   5  25
ATOM     25  O   UNL     1      11.931  40.813  32.968  1.00  0.00    -0.507 OA
ATOM     26  H   UNL     1      12.891  40.710  32.660  1.00  0.00     0.293 HD
ENDBRANCH   5  25
BRANCH   7  27
ATOM     27  O   UNL     1       8.679  41.312  36.485  1.00  0.00    -0.507 OA
ATOM     28  H   UNL     1       8.415  42.283  36.566  1.00  0.00     0.293 HD
ENDBRANCH   7  27
TORSDOF 7
ENDMDL
