MODEL 1
REMARK VINA RESULT:    -3.478      0.000      0.000
REMARK INTER + INTRA:          -4.705
REMARK INTER:                  -4.495
REMARK INTRA:                  -0.210
REMARK UNBOUND:                -0.210
REMARK SMILES C=CC(=O)CCCCC
REMARK SMILES IDX 6 1 7 2 8 3 9 4 5 5 3 6 4 7 2 8 1 9
REMARK H PARENT
REMARK Flexibility Score: inf
ROOT
ATOM      1  C   UNL     1      73.694  34.498  52.534  1.00  0.00     0.008 C 
ENDROOT
BRANCH   1   2
ATOM      2  C   UNL     1      73.030  33.896  53.777  1.00  0.00     0.000 C 
BRANCH   2   3
ATOM      3  C   UNL     1      73.433  34.663  55.041  1.00  0.00    -0.003 C 
ATOM      4  C   UNL     1      72.457  34.392  56.184  1.00  0.00     0.004 C 
ENDBRANCH   2   3
ENDBRANCH   1   2
BRANCH   1   5
ATOM      5  C   UNL     1      74.910  35.350  52.917  1.00  0.00     0.080 C 
BRANCH   5   6
ATOM      6  C   UNL     1      76.167  34.753  52.362  1.00  0.00     0.155 C 
ATOM      7  O   UNL     1      76.339  33.504  52.425  1.00  0.00    -0.295 OA
BRANCH   6   8
ATOM      8  C   UNL     1      77.212  35.625  51.789  1.00  0.00     0.039 C 
ATOM      9  C   UNL     1      78.386  35.156  51.371  1.00  0.00     0.012 C 
ENDBRANCH   6   8
ENDBRANCH   5   6
ENDBRANCH   1   5
TORSDOF 5
ENDMDL
MODEL 2
REMARK VINA RESULT:    -3.452      1.279      4.560
REMARK INTER + INTRA:          -4.671
REMARK INTER:                  -4.333
REMARK INTRA:                  -0.338
REMARK UNBOUND:                -0.210
REMARK SMILES C=CC(=O)CCCCC
REMARK SMILES IDX 6 1 7 2 8 3 9 4 5 5 3 6 4 7 2 8 1 9
REMARK H PARENT
REMARK Flexibility Score: inf
ROOT
ATOM      1  C   UNL     1      73.836  35.756  52.874  1.00  0.00     0.008 C 
ENDROOT
BRANCH   1   2
ATOM      2  C   UNL     1      75.309  35.961  53.242  1.00  0.00     0.000 C 
BRANCH   2   3
ATOM      3  C   UNL     1      76.189  35.998  51.987  1.00  0.00    -0.003 C 
ATOM      4  C   UNL     1      77.130  34.797  51.937  1.00  0.00     0.004 C 
ENDBRANCH   2   3
ENDBRANCH   1   2
BRANCH   1   5
ATOM      5  C   UNL     1      73.512  34.267  52.706  1.00  0.00     0.080 C 
BRANCH   5   6
ATOM      6  C   UNL     1      73.489  33.579  54.037  1.00  0.00     0.155 C 
ATOM      7  O   UNL     1      74.416  32.775  54.334  1.00  0.00    -0.295 OA
BRANCH   6   8
ATOM      8  C   UNL     1      72.368  33.808  54.970  1.00  0.00     0.039 C 
ATOM      9  C   UNL     1      72.526  34.422  56.141  1.00  0.00     0.012 C 
ENDBRANCH   6   8
ENDBRANCH   5   6
ENDBRANCH   1   5
TORSDOF 5
ENDMDL
MODEL 3
REMARK VINA RESULT:    -3.435      3.778      6.305
REMARK INTER + INTRA:          -4.649
REMARK INTER:                  -4.163
REMARK INTRA:                  -0.486
REMARK UNBOUND:                -0.210
REMARK SMILES C=CC(=O)CCCCC
REMARK SMILES IDX 6 1 7 2 8 3 9 4 5 5 3 6 4 7 2 8 1 9
REMARK H PARENT
REMARK Flexibility Score: inf
ROOT
ATOM      1  C   UNL     1      80.865  34.613  49.880  1.00  0.00     0.008 C 
ENDROOT
BRANCH   1   2
ATOM      2  C   UNL     1      81.433  33.320  50.475  1.00  0.00     0.000 C 
BRANCH   2   3
ATOM      3  C   UNL     1      81.200  33.263  51.989  1.00  0.00    -0.003 C 
ATOM      4  C   UNL     1      80.306  32.083  52.365  1.00  0.00     0.004 C 
ENDBRANCH   2   3
ENDBRANCH   1   2
BRANCH   1   5
ATOM      5  C   UNL     1      80.274  35.510  50.975  1.00  0.00     0.080 C 
BRANCH   5   6
ATOM      6  C   UNL     1      78.794  35.661  50.789  1.00  0.00     0.155 C 
ATOM      7  O   UNL     1      78.352  36.116  49.698  1.00  0.00    -0.295 OA
BRANCH   6   8
ATOM      8  C   UNL     1      77.871  35.323  51.891  1.00  0.00     0.039 C 
ATOM      9  C   UNL     1      77.259  34.143  51.975  1.00  0.00     0.012 C 
ENDBRANCH   6   8
ENDBRANCH   5   6
ENDBRANCH   1   5
TORSDOF 5
ENDMDL
MODEL 4
REMARK VINA RESULT:    -3.427     16.066     16.896
REMARK INTER + INTRA:          -4.639
REMARK INTER:                  -4.210
REMARK INTRA:                  -0.429
REMARK UNBOUND:                -0.210
REMARK SMILES C=CC(=O)CCCCC
REMARK SMILES IDX 6 1 7 2 8 3 9 4 5 5 3 6 4 7 2 8 1 9
REMARK H PARENT
REMARK Flexibility Score: inf
ROOT
ATOM      1  C   UNL     1      86.179  32.444  65.860  1.00  0.00     0.008 C 
ENDROOT
BRANCH   1   2
ATOM      2  C   UNL     1      86.910  31.177  66.317  1.00  0.00     0.000 C 
BRANCH   2   3
ATOM      3  C   UNL     1      87.307  30.309  65.118  1.00  0.00    -0.003 C 
ATOM      4  C   UNL     1      88.740  30.600  64.677  1.00  0.00     0.004 C 
ENDBRANCH   2   3
ENDBRANCH   1   2
BRANCH   1   5
ATOM      5  C   UNL     1      85.146  32.122  64.775  1.00  0.00     0.080 C 
BRANCH   5   6
ATOM      6  C   UNL     1      83.904  31.544  65.384  1.00  0.00     0.155 C 
ATOM      7  O   UNL     1      83.483  32.003  66.481  1.00  0.00    -0.295 OA
BRANCH   6   8
ATOM      8  C   UNL     1      83.211  30.419  64.725  1.00  0.00     0.039 C 
ATOM      9  C   UNL     1      83.843  29.305  64.358  1.00  0.00     0.012 C 
ENDBRANCH   6   8
ENDBRANCH   5   6
ENDBRANCH   1   5
TORSDOF 5
ENDMDL
MODEL 5
REMARK VINA RESULT:    -3.388      1.651      1.971
REMARK INTER + INTRA:          -4.588
REMARK INTER:                  -4.365
REMARK INTRA:                  -0.222
REMARK UNBOUND:                -0.210
REMARK SMILES C=CC(=O)CCCCC
REMARK SMILES IDX 6 1 7 2 8 3 9 4 5 5 3 6 4 7 2 8 1 9
REMARK H PARENT
REMARK Flexibility Score: inf
ROOT
ATOM      1  C   UNL     1      73.636  33.805  53.925  1.00  0.00     0.008 C 
ENDROOT
BRANCH   1   2
ATOM      2  C   UNL     1      72.559  33.513  54.976  1.00  0.00     0.000 C 
BRANCH   2   3
ATOM      3  C   UNL     1      72.575  34.568  56.088  1.00  0.00    -0.003 C 
ATOM      4  C   UNL     1      71.229  34.634  56.804  1.00  0.00     0.004 C 
ENDBRANCH   2   3
ENDBRANCH   1   2
BRANCH   1   5
ATOM      5  C   UNL     1      74.120  35.256  54.022  1.00  0.00     0.080 C 
BRANCH   5   6
ATOM      6  C   UNL     1      74.402  35.809  52.658  1.00  0.00     0.155 C 
ATOM      7  O   UNL     1      73.443  36.010  51.862  1.00  0.00    -0.295 OA
BRANCH   6   8
ATOM      8  C   UNL     1      75.793  36.073  52.239  1.00  0.00     0.039 C 
ATOM      9  C   UNL     1      76.688  35.099  52.076  1.00  0.00     0.012 C 
ENDBRANCH   6   8
ENDBRANCH   5   6
ENDBRANCH   1   5
TORSDOF 5
ENDMDL
MODEL 6
REMARK VINA RESULT:    -3.385     16.583     17.054
REMARK INTER + INTRA:          -4.585
REMARK INTER:                  -4.152
REMARK INTRA:                  -0.432
REMARK UNBOUND:                -0.210
REMARK SMILES C=CC(=O)CCCCC
REMARK SMILES IDX 6 1 7 2 8 3 9 4 5 5 3 6 4 7 2 8 1 9
REMARK H PARENT
REMARK Flexibility Score: inf
ROOT
ATOM      1  C   UNL     1      85.037  31.875  65.276  1.00  0.00     0.008 C 
ENDROOT
BRANCH   1   2
ATOM      2  C   UNL     1      83.552  31.597  65.535  1.00  0.00     0.000 C 
BRANCH   2   3
ATOM      3  C   UNL     1      83.054  30.428  64.677  1.00  0.00    -0.003 C 
ATOM      4  C   UNL     1      84.151  29.386  64.477  1.00  0.00     0.004 C 
ENDBRANCH   2   3
ENDBRANCH   1   2
BRANCH   1   5
ATOM      5  C   UNL     1      85.816  31.975  66.592  1.00  0.00     0.080 C 
BRANCH   5   6
ATOM      6  C   UNL     1      87.170  31.348  66.451  1.00  0.00     0.155 C 
ATOM      7  O   UNL     1      87.937  31.301  67.453  1.00  0.00    -0.295 OA
BRANCH   6   8
ATOM      8  C   UNL     1      87.615  30.833  65.141  1.00  0.00     0.039 C 
ATOM      9  C   UNL     1      88.000  29.571  64.962  1.00  0.00     0.012 C 
ENDBRANCH   6   8
ENDBRANCH   5   6
ENDBRANCH   1   5
TORSDOF 5
ENDMDL
MODEL 7
REMARK VINA RESULT:    -3.381     16.699     17.148
REMARK INTER + INTRA:          -4.579
REMARK INTER:                  -4.376
REMARK INTRA:                  -0.203
REMARK UNBOUND:                -0.210
REMARK SMILES C=CC(=O)CCCCC
REMARK SMILES IDX 6 1 7 2 8 3 9 4 5 5 3 6 4 7 2 8 1 9
REMARK H PARENT
REMARK Flexibility Score: inf
ROOT
ATOM      1  C   UNL     1      85.263  31.642  64.864  1.00  0.00     0.008 C 
ENDROOT
BRANCH   1   2
ATOM      2  C   UNL     1      83.760  31.721  65.154  1.00  0.00     0.000 C 
BRANCH   2   3
ATOM      3  C   UNL     1      83.053  30.422  64.752  1.00  0.00    -0.003 C 
ATOM      4  C   UNL     1      84.062  29.314  64.461  1.00  0.00     0.004 C 
ENDBRANCH   2   3
ENDBRANCH   1   2
BRANCH   1   5
ATOM      5  C   UNL     1      86.035  32.700  65.660  1.00  0.00     0.080 C 
BRANCH   5   6
ATOM      6  C   UNL     1      86.512  32.134  66.964  1.00  0.00     0.155 C 
ATOM      7  O   UNL     1      85.694  32.003  67.917  1.00  0.00    -0.295 OA
BRANCH   6   8
ATOM      8  C   UNL     1      87.933  31.778  67.140  1.00  0.00     0.039 C 
ATOM      9  C   UNL     1      88.466  30.677  66.612  1.00  0.00     0.012 C 
ENDBRANCH   6   8
ENDBRANCH   5   6
ENDBRANCH   1   5
TORSDOF 5
ENDMDL
MODEL 8
REMARK VINA RESULT:    -3.315     16.347     17.217
REMARK INTER + INTRA:          -4.494
REMARK INTER:                  -3.924
REMARK INTRA:                  -0.570
REMARK UNBOUND:                -0.210
REMARK SMILES C=CC(=O)CCCCC
REMARK SMILES IDX 6 1 7 2 8 3 9 4 5 5 3 6 4 7 2 8 1 9
REMARK H PARENT
REMARK Flexibility Score: inf
ROOT
ATOM      1  C   UNL     1      86.792  32.144  64.551  1.00  0.00     0.008 C 
ENDROOT
BRANCH   1   2
ATOM      2  C   UNL     1      87.550  33.260  65.278  1.00  0.00     0.000 C 
BRANCH   2   3
ATOM      3  C   UNL     1      88.049  32.783  66.648  1.00  0.00    -0.003 C 
ATOM      4  C   UNL     1      87.969  31.263  66.764  1.00  0.00     0.004 C 
ENDBRANCH   2   3
ENDBRANCH   1   2
BRANCH   1   5
ATOM      5  C   UNL     1      85.314  32.507  64.374  1.00  0.00     0.080 C 
BRANCH   5   6
ATOM      6  C   UNL     1      84.443  31.555  65.137  1.00  0.00     0.155 C 
ATOM      7  O   UNL     1      84.253  30.392  64.684  1.00  0.00    -0.295 OA
BRANCH   6   8
ATOM      8  C   UNL     1      83.779  31.992  66.382  1.00  0.00     0.039 C 
ATOM      9  C   UNL     1      84.429  32.100  67.539  1.00  0.00     0.012 C 
ENDBRANCH   6   8
ENDBRANCH   5   6
ENDBRANCH   1   5
TORSDOF 5
ENDMDL
MODEL 9
REMARK VINA RESULT:    -3.205     16.534     17.368
REMARK INTER + INTRA:          -4.352
REMARK INTER:                  -3.968
REMARK INTRA:                  -0.383
REMARK UNBOUND:                -0.210
REMARK SMILES C=CC(=O)CCCCC
REMARK SMILES IDX 6 1 7 2 8 3 9 4 5 5 3 6 4 7 2 8 1 9
REMARK H PARENT
REMARK Flexibility Score: inf
ROOT
ATOM      1  C   UNL     1      86.827  32.444  66.748  1.00  0.00     0.008 C 
ENDROOT
BRANCH   1   2
ATOM      2  C   UNL     1      87.761  31.249  66.972  1.00  0.00     0.000 C 
BRANCH   2   3
ATOM      3  C   UNL     1      88.439  30.829  65.663  1.00  0.00    -0.003 C 
ATOM      4  C   UNL     1      87.696  29.669  65.005  1.00  0.00     0.004 C 
ENDBRANCH   2   3
ENDBRANCH   1   2
BRANCH   1   5
ATOM      5  C   UNL     1      85.358  32.005  66.764  1.00  0.00     0.080 C 
BRANCH   5   6
ATOM      6  C   UNL     1      84.791  32.016  65.376  1.00  0.00     0.155 C 
ATOM      7  O   UNL     1      85.450  32.552  64.443  1.00  0.00    -0.295 OA
BRANCH   6   8
ATOM      8  C   UNL     1      83.454  31.444  65.118  1.00  0.00     0.039 C 
ATOM      9  C   UNL     1      83.279  30.183  64.727  1.00  0.00     0.012 C 
ENDBRANCH   6   8
ENDBRANCH   5   6
ENDBRANCH   1   5
TORSDOF 5
ENDMDL
