MODEL 1
REMARK VINA RESULT:    -3.713      0.000      0.000
REMARK INTER + INTRA:          -4.067
REMARK INTER:                  -4.039
REMARK INTRA:                  -0.028
REMARK UNBOUND:                -0.028
REMARK SMILES O=C([O-])c1ccc(O)cc1
REMARK SMILES IDX 7 1 6 2 9 3 5 4 10 5 4 6 8 7 2 9 1 10 3 11
REMARK H PARENT 8 8
REMARK Flexibility Score: inf
ROOT
ATOM      1  C   UNL     1      42.153 182.471 173.204  1.00  0.00     0.115 A 
ATOM      2  C   UNL     1      41.522 183.718 173.243  1.00  0.00     0.047 A 
ATOM      3  C   UNL     1      41.701 181.491 172.311  1.00  0.00     0.047 A 
ATOM      4  C   UNL     1      40.444 183.988 172.394  1.00  0.00     0.014 A 
ATOM      5  C   UNL     1      40.624 181.758 171.460  1.00  0.00     0.014 A 
ATOM      6  C   UNL     1      39.984 183.010 171.493  1.00  0.00    -0.003 A 
ENDROOT
BRANCH   1   7
ATOM      7  O   UNL     1      43.226 182.216 174.056  1.00  0.00    -0.508 OA
ATOM      8  H   UNL     1      43.487 181.270 174.309  1.00  0.00     0.293 HD
ENDBRANCH   1   7
BRANCH   6   9
ATOM      9  C   UNL     1      38.844 183.290 170.593  1.00  0.00     0.071 C 
ATOM     10  O   UNL     1      39.009 183.332 169.344  1.00  0.00    -0.545 OA
ATOM     11  O   UNL     1      37.573 183.511 171.111  1.00  0.00    -0.545 OA
ENDBRANCH   6   9
TORSDOF 2
ENDMDL
MODEL 2
REMARK VINA RESULT:    -3.674      1.918      2.538
REMARK INTER + INTRA:          -4.024
REMARK INTER:                  -3.997
REMARK INTRA:                  -0.027
REMARK UNBOUND:                -0.028
REMARK SMILES O=C([O-])c1ccc(O)cc1
REMARK SMILES IDX 7 1 6 2 9 3 5 4 10 5 4 6 8 7 2 9 1 10 3 11
REMARK H PARENT 8 8
REMARK Flexibility Score: inf
ROOT
ATOM      1  C   UNL     1      40.632 184.628 172.507  1.00  0.00     0.115 A 
ATOM      2  C   UNL     1      39.477 185.393 172.696  1.00  0.00     0.047 A 
ATOM      3  C   UNL     1      40.624 183.574 171.586  1.00  0.00     0.047 A 
ATOM      4  C   UNL     1      38.318 185.109 171.967  1.00  0.00     0.014 A 
ATOM      5  C   UNL     1      39.467 183.286 170.856  1.00  0.00     0.014 A 
ATOM      6  C   UNL     1      38.301 184.051 171.039  1.00  0.00    -0.003 A 
ENDROOT
BRANCH   1   7
ATOM      7  O   UNL     1      41.780 184.924 173.240  1.00  0.00    -0.508 OA
ATOM      8  H   UNL     1      42.601 185.322 172.799  1.00  0.00     0.293 HD
ENDBRANCH   1   7
BRANCH   6   9
ATOM      9  C   UNL     1      37.078 183.745 170.266  1.00  0.00     0.071 C 
ATOM     10  O   UNL     1      36.122 183.119 170.799  1.00  0.00    -0.545 OA
ATOM     11  O   UNL     1      36.965 184.142 168.939  1.00  0.00    -0.545 OA
ENDBRANCH   6   9
TORSDOF 2
ENDMDL
MODEL 3
REMARK VINA RESULT:    -3.649      1.280      4.399
REMARK INTER + INTRA:          -3.998
REMARK INTER:                  -3.969
REMARK INTRA:                  -0.029
REMARK UNBOUND:                -0.028
REMARK SMILES O=C([O-])c1ccc(O)cc1
REMARK SMILES IDX 7 1 6 2 9 3 5 4 10 5 4 6 8 7 2 9 1 10 3 11
REMARK H PARENT 8 8
REMARK Flexibility Score: inf
ROOT
ATOM      1  C   UNL     1      39.257 184.252 171.857  1.00  0.00     0.115 A 
ATOM      2  C   UNL     1      39.397 182.962 171.337  1.00  0.00     0.047 A 
ATOM      3  C   UNL     1      40.261 184.785 172.675  1.00  0.00     0.047 A 
ATOM      4  C   UNL     1      40.537 182.206 171.629  1.00  0.00     0.014 A 
ATOM      5  C   UNL     1      41.401 184.031 172.970  1.00  0.00     0.014 A 
ATOM      6  C   UNL     1      41.551 182.733 172.450  1.00  0.00    -0.003 A 
ENDROOT
BRANCH   1   7
ATOM      7  O   UNL     1      38.116 184.995 171.556  1.00  0.00    -0.508 OA
ATOM      8  H   UNL     1      37.835 185.785 172.124  1.00  0.00     0.293 HD
ENDBRANCH   1   7
BRANCH   6   9
ATOM      9  C   UNL     1      42.758 181.937 172.764  1.00  0.00     0.071 C 
ATOM     10  O   UNL     1      43.048 181.657 173.958  1.00  0.00    -0.545 OA
ATOM     11  O   UNL     1      43.590 181.488 171.746  1.00  0.00    -0.545 OA
ENDBRANCH   6   9
TORSDOF 2
ENDMDL
MODEL 4
REMARK VINA RESULT:    -3.645      1.311      4.037
REMARK INTER + INTRA:          -3.992
REMARK INTER:                  -3.964
REMARK INTRA:                  -0.029
REMARK UNBOUND:                -0.028
REMARK SMILES O=C([O-])c1ccc(O)cc1
REMARK SMILES IDX 7 1 6 2 9 3 5 4 10 5 4 6 8 7 2 9 1 10 3 11
REMARK H PARENT 8 8
REMARK Flexibility Score: inf
ROOT
ATOM      1  C   UNL     1      39.248 184.276 171.876  1.00  0.00     0.115 A 
ATOM      2  C   UNL     1      40.281 184.805 172.655  1.00  0.00     0.047 A 
ATOM      3  C   UNL     1      39.358 182.976 171.365  1.00  0.00     0.047 A 
ATOM      4  C   UNL     1      41.421 184.041 172.926  1.00  0.00     0.014 A 
ATOM      5  C   UNL     1      40.496 182.209 171.634  1.00  0.00     0.014 A 
ATOM      6  C   UNL     1      41.540 182.734 172.417  1.00  0.00    -0.003 A 
ENDROOT
BRANCH   1   7
ATOM      7  O   UNL     1      38.118 185.049 171.615  1.00  0.00    -0.508 OA
ATOM      8  H   UNL     1      37.968 185.476 170.709  1.00  0.00     0.293 HD
ENDBRANCH   1   7
BRANCH   6   9
ATOM      9  C   UNL     1      42.743 181.921 172.699  1.00  0.00     0.071 C 
ATOM     10  O   UNL     1      43.492 181.536 171.761  1.00  0.00    -0.545 OA
ATOM     11  O   UNL     1      43.065 181.568 174.004  1.00  0.00    -0.545 OA
ENDBRANCH   6   9
TORSDOF 2
ENDMDL
MODEL 5
REMARK VINA RESULT:    -3.623     22.285     23.052
REMARK INTER + INTRA:          -3.969
REMARK INTER:                  -3.940
REMARK INTRA:                  -0.028
REMARK UNBOUND:                -0.028
REMARK SMILES O=C([O-])c1ccc(O)cc1
REMARK SMILES IDX 7 1 6 2 9 3 5 4 10 5 4 6 8 7 2 9 1 10 3 11
REMARK H PARENT 8 8
REMARK Flexibility Score: inf
ROOT
ATOM      1  C   UNL     1      33.578 168.326 156.520  1.00  0.00     0.115 A 
ATOM      2  C   UNL     1      33.855 168.797 155.233  1.00  0.00     0.047 A 
ATOM      3  C   UNL     1      32.297 168.493 157.060  1.00  0.00     0.047 A 
ATOM      4  C   UNL     1      32.857 169.432 154.486  1.00  0.00     0.014 A 
ATOM      5  C   UNL     1      31.297 169.128 156.316  1.00  0.00     0.014 A 
ATOM      6  C   UNL     1      31.567 169.604 155.021  1.00  0.00    -0.003 A 
ENDROOT
BRANCH   1   7
ATOM      7  O   UNL     1      34.582 167.695 157.252  1.00  0.00    -0.508 OA
ATOM      8  H   UNL     1      34.420 166.808 157.715  1.00  0.00     0.293 HD
ENDBRANCH   1   7
BRANCH   6   9
ATOM      9  C   UNL     1      30.508 170.276 154.236  1.00  0.00     0.071 C 
ATOM     10  O   UNL     1      29.479 169.643 153.876  1.00  0.00    -0.545 OA
ATOM     11  O   UNL     1      30.634 171.614 153.882  1.00  0.00    -0.545 OA
ENDBRANCH   6   9
TORSDOF 2
ENDMDL
MODEL 6
REMARK VINA RESULT:    -3.296      2.132      4.688
REMARK INTER + INTRA:          -3.613
REMARK INTER:                  -3.586
REMARK INTRA:                  -0.027
REMARK UNBOUND:                -0.028
REMARK SMILES O=C([O-])c1ccc(O)cc1
REMARK SMILES IDX 7 1 6 2 9 3 5 4 10 5 4 6 8 7 2 9 1 10 3 11
REMARK H PARENT 8 8
REMARK Flexibility Score: inf
ROOT
ATOM      1  C   UNL     1      37.491 184.128 169.765  1.00  0.00     0.115 A 
ATOM      2  C   UNL     1      37.260 184.835 170.949  1.00  0.00     0.047 A 
ATOM      3  C   UNL     1      38.639 183.338 169.640  1.00  0.00     0.047 A 
ATOM      4  C   UNL     1      38.172 184.752 172.007  1.00  0.00     0.014 A 
ATOM      5  C   UNL     1      39.553 183.253 170.695  1.00  0.00     0.014 A 
ATOM      6  C   UNL     1      39.329 183.960 171.889  1.00  0.00    -0.003 A 
ENDROOT
BRANCH   1   7
ATOM      7  O   UNL     1      36.572 184.220 168.720  1.00  0.00    -0.508 OA
ATOM      8  H   UNL     1      36.831 184.611 167.822  1.00  0.00     0.293 HD
ENDBRANCH   1   7
BRANCH   6   9
ATOM      9  C   UNL     1      40.297 183.870 173.004  1.00  0.00     0.071 C 
ATOM     10  O   UNL     1      40.096 183.080 173.966  1.00  0.00    -0.545 OA
ATOM     11  O   UNL     1      41.444 184.655 173.008  1.00  0.00    -0.545 OA
ENDBRANCH   6   9
TORSDOF 2
ENDMDL
MODEL 7
REMARK VINA RESULT:    -3.289      5.130      7.281
REMARK INTER + INTRA:          -3.606
REMARK INTER:                  -3.576
REMARK INTRA:                  -0.030
REMARK UNBOUND:                -0.028
REMARK SMILES O=C([O-])c1ccc(O)cc1
REMARK SMILES IDX 7 1 6 2 9 3 5 4 10 5 4 6 8 7 2 9 1 10 3 11
REMARK H PARENT 8 8
REMARK Flexibility Score: inf
ROOT
ATOM      1  C   UNL     1      33.223 179.970 170.288  1.00  0.00     0.115 A 
ATOM      2  C   UNL     1      33.137 181.126 169.507  1.00  0.00     0.047 A 
ATOM      3  C   UNL     1      34.171 179.896 171.316  1.00  0.00     0.047 A 
ATOM      4  C   UNL     1      33.992 182.206 169.750  1.00  0.00     0.014 A 
ATOM      5  C   UNL     1      35.028 180.973 171.562  1.00  0.00     0.014 A 
ATOM      6  C   UNL     1      34.948 182.140 170.780  1.00  0.00    -0.003 A 
ENDROOT
BRANCH   1   7
ATOM      7  O   UNL     1      32.364 178.903 170.034  1.00  0.00    -0.508 OA
ATOM      8  H   UNL     1      32.682 177.943 170.092  1.00  0.00     0.293 HD
ENDBRANCH   1   7
BRANCH   6   9
ATOM      9  C   UNL     1      35.856 183.278 171.042  1.00  0.00     0.071 C 
ATOM     10  O   UNL     1      35.997 183.730 172.210  1.00  0.00    -0.545 OA
ATOM     11  O   UNL     1      36.566 183.867 170.003  1.00  0.00    -0.545 OA
ENDBRANCH   6   9
TORSDOF 2
ENDMDL
MODEL 8
REMARK VINA RESULT:    -3.284      2.191      2.823
REMARK INTER + INTRA:          -3.601
REMARK INTER:                  -3.566
REMARK INTRA:                  -0.034
REMARK UNBOUND:                -0.028
REMARK SMILES O=C([O-])c1ccc(O)cc1
REMARK SMILES IDX 7 1 6 2 9 3 5 4 10 5 4 6 8 7 2 9 1 10 3 11
REMARK H PARENT 8 8
REMARK Flexibility Score: inf
ROOT
ATOM      1  C   UNL     1      41.090 183.133 171.829  1.00  0.00     0.115 A 
ATOM      2  C   UNL     1      41.300 184.281 172.599  1.00  0.00     0.047 A 
ATOM      3  C   UNL     1      39.847 182.923 171.221  1.00  0.00     0.047 A 
ATOM      4  C   UNL     1      40.274 185.218 172.761  1.00  0.00     0.014 A 
ATOM      5  C   UNL     1      38.818 183.856 171.380  1.00  0.00     0.014 A 
ATOM      6  C   UNL     1      39.021 185.013 172.153  1.00  0.00    -0.003 A 
ENDROOT
BRANCH   1   7
ATOM      7  O   UNL     1      42.123 182.210 171.676  1.00  0.00    -0.508 OA
ATOM      8  H   UNL     1      42.618 182.112 170.798  1.00  0.00     0.293 HD
ENDBRANCH   1   7
BRANCH   6   9
ATOM      9  C   UNL     1      37.931 186.000 172.321  1.00  0.00     0.071 C 
ATOM     10  O   UNL     1      37.906 186.762 173.324  1.00  0.00    -0.545 OA
ATOM     11  O   UNL     1      36.918 186.099 171.375  1.00  0.00    -0.545 OA
ENDBRANCH   6   9
TORSDOF 2
ENDMDL
MODEL 9
REMARK VINA RESULT:    -3.223      2.753      5.312
REMARK INTER + INTRA:          -3.533
REMARK INTER:                  -3.506
REMARK INTRA:                  -0.027
REMARK UNBOUND:                -0.028
REMARK SMILES O=C([O-])c1ccc(O)cc1
REMARK SMILES IDX 7 1 6 2 9 3 5 4 10 5 4 6 8 7 2 9 1 10 3 11
REMARK H PARENT 8 8
REMARK Flexibility Score: inf
ROOT
ATOM      1  C   UNL     1      35.224 183.021 170.736  1.00  0.00     0.115 A 
ATOM      2  C   UNL     1      36.187 183.732 170.014  1.00  0.00     0.047 A 
ATOM      3  C   UNL     1      35.602 182.295 171.871  1.00  0.00     0.047 A 
ATOM      4  C   UNL     1      37.525 183.721 170.425  1.00  0.00     0.014 A 
ATOM      5  C   UNL     1      36.938 182.281 172.285  1.00  0.00     0.014 A 
ATOM      6  C   UNL     1      37.913 182.994 171.565  1.00  0.00    -0.003 A 
ENDROOT
BRANCH   1   7
ATOM      7  O   UNL     1      33.896 183.042 170.314  1.00  0.00    -0.508 OA
ATOM      8  H   UNL     1      33.501 183.852 169.851  1.00  0.00     0.293 HD
ENDBRANCH   1   7
BRANCH   6   9
ATOM      9  C   UNL     1      39.326 182.978 172.005  1.00  0.00     0.071 C 
ATOM     10  O   UNL     1      40.170 182.244 171.424  1.00  0.00    -0.545 OA
ATOM     11  O   UNL     1      39.743 183.773 173.066  1.00  0.00    -0.545 OA
ENDBRANCH   6   9
TORSDOF 2
ENDMDL
