MODEL 1
REMARK VINA RESULT:    -3.380      0.000      0.000
REMARK INTER + INTRA:          -4.284
REMARK INTER:                  -4.072
REMARK INTRA:                  -0.211
REMARK UNBOUND:                -0.211
REMARK SMILES OCC(O)CO
REMARK SMILES IDX 3 1 5 2 6 3 2 5 1 6 4 8
REMARK H PARENT 6 4 1 7 4 9
REMARK Flexibility Score: inf
ROOT
ATOM      1  C   UNL     1     -42.102  23.207 -29.933  1.00  0.00     0.165 C 
ENDROOT
BRANCH   1   2
ATOM      2  C   UNL     1     -40.866  22.382 -30.321  1.00  0.00     0.190 C 
BRANCH   2   3
ATOM      3  O   UNL     1     -40.637  21.369 -29.378  1.00  0.00    -0.394 OA
ATOM      4  H   UNL     1     -41.289  21.508 -28.642  1.00  0.00     0.210 HD
ENDBRANCH   2   3
ENDBRANCH   1   2
BRANCH   1   5
ATOM      5  C   UNL     1     -41.760  24.186 -28.804  1.00  0.00     0.190 C 
BRANCH   5   6
ATOM      6  O   UNL     1     -40.431  23.999 -28.405  1.00  0.00    -0.394 OA
ATOM      7  H   UNL     1     -40.466  23.713 -27.455  1.00  0.00     0.210 HD
ENDBRANCH   5   6
ENDBRANCH   1   5
BRANCH   1   8
ATOM      8  O   UNL     1     -43.132  22.355 -29.503  1.00  0.00    -0.388 OA
ATOM      9  H   UNL     1     -42.787  21.858 -28.716  1.00  0.00     0.211 HD
ENDBRANCH   1   8
TORSDOF 5
ENDMDL
MODEL 2
REMARK VINA RESULT:    -3.192      1.125      2.762
REMARK INTER + INTRA:          -4.056
REMARK INTER:                  -4.025
REMARK INTRA:                  -0.031
REMARK UNBOUND:                -0.211
REMARK SMILES OCC(O)CO
REMARK SMILES IDX 3 1 5 2 6 3 2 5 1 6 4 8
REMARK H PARENT 6 4 1 7 4 9
REMARK Flexibility Score: inf
ROOT
ATOM      1  C   UNL     1     -40.653  22.801 -29.972  1.00  0.00     0.165 C 
ENDROOT
BRANCH   1   2
ATOM      2  C   UNL     1     -42.150  22.460 -30.009  1.00  0.00     0.190 C 
BRANCH   2   3
ATOM      3  O   UNL     1     -42.843  23.193 -29.034  1.00  0.00    -0.394 OA
ATOM      4  H   UNL     1     -43.227  22.534 -28.398  1.00  0.00     0.210 HD
ENDBRANCH   2   3
ENDBRANCH   1   2
BRANCH   1   5
ATOM      5  C   UNL     1     -39.812  21.520 -29.957  1.00  0.00     0.190 C 
BRANCH   5   6
ATOM      6  O   UNL     1     -40.311  20.641 -28.987  1.00  0.00    -0.394 OA
ATOM      7  H   UNL     1     -41.088  21.100 -28.573  1.00  0.00     0.210 HD
ENDBRANCH   5   6
ENDBRANCH   1   5
BRANCH   1   8
ATOM      8  O   UNL     1     -40.360  23.554 -28.824  1.00  0.00    -0.388 OA
ATOM      9  H   UNL     1     -41.144  24.141 -28.656  1.00  0.00     0.211 HD
ENDBRANCH   1   8
TORSDOF 5
ENDMDL
MODEL 3
REMARK VINA RESULT:    -3.173      1.481      2.787
REMARK INTER + INTRA:          -4.034
REMARK INTER:                  -3.827
REMARK INTRA:                  -0.208
REMARK UNBOUND:                -0.211
REMARK SMILES OCC(O)CO
REMARK SMILES IDX 3 1 5 2 6 3 2 5 1 6 4 8
REMARK H PARENT 6 4 1 7 4 9
REMARK Flexibility Score: inf
ROOT
ATOM      1  C   UNL     1     -39.746  21.442 -29.792  1.00  0.00     0.165 C 
ENDROOT
BRANCH   1   2
ATOM      2  C   UNL     1     -38.730  22.275 -28.995  1.00  0.00     0.190 C 
BRANCH   2   3
ATOM      3  O   UNL     1     -39.389  23.226 -28.203  1.00  0.00    -0.394 OA
ATOM      4  H   UNL     1     -38.686  23.781 -27.776  1.00  0.00     0.210 HD
ENDBRANCH   2   3
ENDBRANCH   1   2
BRANCH   1   5
ATOM      5  C   UNL     1     -40.864  22.338 -30.335  1.00  0.00     0.190 C 
BRANCH   5   6
ATOM      6  O   UNL     1     -41.992  22.235 -29.510  1.00  0.00    -0.394 OA
ATOM      7  H   UNL     1     -42.611  21.607 -29.967  1.00  0.00     0.210 HD
ENDBRANCH   5   6
ENDBRANCH   1   5
BRANCH   1   8
ATOM      8  O   UNL     1     -40.310  20.455 -28.967  1.00  0.00    -0.388 OA
ATOM      9  H   UNL     1     -40.138  19.581 -29.404  1.00  0.00     0.211 HD
ENDBRANCH   1   8
TORSDOF 5
ENDMDL
MODEL 4
REMARK VINA RESULT:    -3.145     11.116     11.341
REMARK INTER + INTRA:          -4.001
REMARK INTER:                  -3.786
REMARK INTRA:                  -0.215
REMARK UNBOUND:                -0.211
REMARK SMILES OCC(O)CO
REMARK SMILES IDX 3 1 5 2 6 3 2 5 1 6 4 8
REMARK H PARENT 6 4 1 7 4 9
REMARK Flexibility Score: inf
ROOT
ATOM      1  C   UNL     1     -51.875  17.063 -30.139  1.00  0.00     0.165 C 
ENDROOT
BRANCH   1   2
ATOM      2  C   UNL     1     -50.931  16.289 -31.072  1.00  0.00     0.190 C 
BRANCH   2   3
ATOM      3  O   UNL     1     -49.605  16.706 -30.884  1.00  0.00    -0.394 OA
ATOM      4  H   UNL     1     -49.621  17.406 -30.179  1.00  0.00     0.210 HD
ENDBRANCH   2   3
ENDBRANCH   1   2
BRANCH   1   5
ATOM      5  C   UNL     1     -52.455  18.285 -30.859  1.00  0.00     0.190 C 
BRANCH   5   6
ATOM      6  O   UNL     1     -51.414  19.111 -31.299  1.00  0.00    -0.394 OA
ATOM      7  H   UNL     1     -50.931  19.404 -30.483  1.00  0.00     0.210 HD
ENDBRANCH   5   6
ENDBRANCH   1   5
BRANCH   1   8
ATOM      8  O   UNL     1     -51.177  17.493 -28.999  1.00  0.00    -0.388 OA
ATOM      9  H   UNL     1     -51.560  17.004 -28.224  1.00  0.00     0.211 HD
ENDBRANCH   1   8
TORSDOF 5
ENDMDL
MODEL 5
REMARK VINA RESULT:    -3.144     18.121     19.046
REMARK INTER + INTRA:          -3.999
REMARK INTER:                  -3.776
REMARK INTRA:                  -0.223
REMARK UNBOUND:                -0.211
REMARK SMILES OCC(O)CO
REMARK SMILES IDX 3 1 5 2 6 3 2 5 1 6 4 8
REMARK H PARENT 6 4 1 7 4 9
REMARK Flexibility Score: inf
ROOT
ATOM      1  C   UNL     1     -52.426   7.566 -32.964  1.00  0.00     0.165 C 
ENDROOT
BRANCH   1   2
ATOM      2  C   UNL     1     -51.324   8.627 -33.096  1.00  0.00     0.190 C 
BRANCH   2   3
ATOM      3  O   UNL     1     -51.883   9.883 -33.374  1.00  0.00    -0.394 OA
ATOM      4  H   UNL     1     -51.563  10.146 -34.276  1.00  0.00     0.210 HD
ENDBRANCH   2   3
ENDBRANCH   1   2
BRANCH   1   5
ATOM      5  C   UNL     1     -52.815   7.023 -34.343  1.00  0.00     0.190 C 
BRANCH   5   6
ATOM      6  O   UNL     1     -53.436   8.033 -35.088  1.00  0.00    -0.394 OA
ATOM      7  H   UNL     1     -54.407   7.826 -35.078  1.00  0.00     0.210 HD
ENDBRANCH   5   6
ENDBRANCH   1   5
BRANCH   1   8
ATOM      8  O   UNL     1     -53.561   8.126 -32.356  1.00  0.00    -0.388 OA
ATOM      9  H   UNL     1     -54.184   7.377 -32.161  1.00  0.00     0.211 HD
ENDBRANCH   1   8
TORSDOF 5
ENDMDL
MODEL 6
REMARK VINA RESULT:    -3.114      2.530      2.896
REMARK INTER + INTRA:          -3.963
REMARK INTER:                  -3.939
REMARK INTRA:                  -0.024
REMARK UNBOUND:                -0.211
REMARK SMILES OCC(O)CO
REMARK SMILES IDX 3 1 5 2 6 3 2 5 1 6 4 8
REMARK H PARENT 6 4 1 7 4 9
REMARK Flexibility Score: inf
ROOT
ATOM      1  C   UNL     1     -39.454  21.158 -29.692  1.00  0.00     0.165 C 
ENDROOT
BRANCH   1   2
ATOM      2  C   UNL     1     -39.304  19.760 -29.073  1.00  0.00     0.190 C 
BRANCH   2   3
ATOM      3  O   UNL     1     -40.333  19.519 -28.152  1.00  0.00    -0.394 OA
ATOM      4  H   UNL     1     -39.927  19.567 -27.247  1.00  0.00     0.210 HD
ENDBRANCH   2   3
ENDBRANCH   1   2
BRANCH   1   5
ATOM      5  C   UNL     1     -38.505  22.149 -29.011  1.00  0.00     0.190 C 
BRANCH   5   6
ATOM      6  O   UNL     1     -39.247  23.089 -28.285  1.00  0.00    -0.394 OA
ATOM      7  H   UNL     1     -39.327  22.725 -27.365  1.00  0.00     0.210 HD
ENDBRANCH   5   6
ENDBRANCH   1   5
BRANCH   1   8
ATOM      8  O   UNL     1     -40.774  21.610 -29.540  1.00  0.00    -0.388 OA
ATOM      9  H   UNL     1     -40.797  22.166 -28.718  1.00  0.00     0.211 HD
ENDBRANCH   1   8
TORSDOF 5
ENDMDL
MODEL 7
REMARK VINA RESULT:    -3.031     11.426     12.293
REMARK INTER + INTRA:          -3.863
REMARK INTER:                  -3.653
REMARK INTRA:                  -0.210
REMARK UNBOUND:                -0.211
REMARK SMILES OCC(O)CO
REMARK SMILES IDX 3 1 5 2 6 3 2 5 1 6 4 8
REMARK H PARENT 6 4 1 7 4 9
REMARK Flexibility Score: inf
ROOT
ATOM      1  C   UNL     1     -49.681  13.660 -31.162  1.00  0.00     0.165 C 
ENDROOT
BRANCH   1   2
ATOM      2  C   UNL     1     -50.001  14.978 -31.881  1.00  0.00     0.190 C 
BRANCH   2   3
ATOM      3  O   UNL     1     -49.531  16.070 -31.136  1.00  0.00    -0.394 OA
ATOM      4  H   UNL     1     -48.543  15.981 -31.087  1.00  0.00     0.210 HD
ENDBRANCH   2   3
ENDBRANCH   1   2
BRANCH   1   5
ATOM      5  C   UNL     1     -50.748  13.352 -30.107  1.00  0.00     0.190 C 
BRANCH   5   6
ATOM      6  O   UNL     1     -50.978  14.490 -29.324  1.00  0.00    -0.394 OA
ATOM      7  H   UNL     1     -50.370  15.193 -29.674  1.00  0.00     0.210 HD
ENDBRANCH   5   6
ENDBRANCH   1   5
BRANCH   1   8
ATOM      8  O   UNL     1     -48.428  13.747 -30.533  1.00  0.00    -0.388 OA
ATOM      9  H   UNL     1     -48.484  14.495 -29.882  1.00  0.00     0.211 HD
ENDBRANCH   1   8
TORSDOF 5
ENDMDL
MODEL 8
REMARK VINA RESULT:    -3.008     10.953     11.841
REMARK INTER + INTRA:          -3.835
REMARK INTER:                  -3.614
REMARK INTRA:                  -0.222
REMARK UNBOUND:                -0.211
REMARK SMILES OCC(O)CO
REMARK SMILES IDX 3 1 5 2 6 3 2 5 1 6 4 8
REMARK H PARENT 6 4 1 7 4 9
REMARK Flexibility Score: inf
ROOT
ATOM      1  C   UNL     1     -50.787  16.235 -31.301  1.00  0.00     0.165 C 
ENDROOT
BRANCH   1   2
ATOM      2  C   UNL     1     -51.018  17.631 -30.704  1.00  0.00     0.190 C 
BRANCH   2   3
ATOM      3  O   UNL     1     -51.049  17.566 -29.303  1.00  0.00    -0.394 OA
ATOM      4  H   UNL     1     -50.648  16.695 -29.047  1.00  0.00     0.210 HD
ENDBRANCH   2   3
ENDBRANCH   1   2
BRANCH   1   5
ATOM      5  C   UNL     1     -51.675  15.199 -30.604  1.00  0.00     0.190 C 
BRANCH   5   6
ATOM      6  O   UNL     1     -51.012  14.690 -29.480  1.00  0.00    -0.394 OA
ATOM      7  H   UNL     1     -50.061  14.586 -29.745  1.00  0.00     0.210 HD
ENDBRANCH   5   6
ENDBRANCH   1   5
BRANCH   1   8
ATOM      8  O   UNL     1     -49.441  15.863 -31.144  1.00  0.00    -0.388 OA
ATOM      9  H   UNL     1     -49.253  15.166 -31.826  1.00  0.00     0.211 HD
ENDBRANCH   1   8
TORSDOF 5
ENDMDL
MODEL 9
REMARK VINA RESULT:    -2.972     18.365     19.225
REMARK INTER + INTRA:          -3.792
REMARK INTER:                  -3.568
REMARK INTRA:                  -0.224
REMARK UNBOUND:                -0.211
REMARK SMILES OCC(O)CO
REMARK SMILES IDX 3 1 5 2 6 3 2 5 1 6 4 8
REMARK H PARENT 6 4 1 7 4 9
REMARK Flexibility Score: inf
ROOT
ATOM      1  C   UNL     1     -52.676   7.401 -33.914  1.00  0.00     0.165 C 
ENDROOT
BRANCH   1   2
ATOM      2  C   UNL     1     -53.645   7.026 -32.783  1.00  0.00     0.190 C 
BRANCH   2   3
ATOM      3  O   UNL     1     -54.125   8.180 -32.147  1.00  0.00    -0.394 OA
ATOM      4  H   UNL     1     -53.552   8.933 -32.446  1.00  0.00     0.210 HD
ENDBRANCH   2   3
ENDBRANCH   1   2
BRANCH   1   5
ATOM      5  C   UNL     1     -51.551   8.294 -33.382  1.00  0.00     0.190 C 
BRANCH   5   6
ATOM      6  O   UNL     1     -51.938   9.638 -33.466  1.00  0.00    -0.394 OA
ATOM      7  H   UNL     1     -51.761   9.918 -34.402  1.00  0.00     0.210 HD
ENDBRANCH   5   6
ENDBRANCH   1   5
BRANCH   1   8
ATOM      8  O   UNL     1     -53.364   8.086 -34.928  1.00  0.00    -0.388 OA
ATOM      9  H   UNL     1     -52.992   7.772 -35.794  1.00  0.00     0.211 HD
ENDBRANCH   1   8
TORSDOF 5
ENDMDL
