MODEL 1
REMARK VINA RESULT:    11.431      0.000      0.000
REMARK INTER + INTRA:          11.431
REMARK INTER:                  11.431
REMARK INTRA:                   0.000
REMARK UNBOUND:                 0.000
REMARK SMILES Cc1cc2cc3c(C)cc(=O)oc3c(C)c2o1
REMARK SMILES IDX 8 1 7 2 9 3 10 4 11 5 12 6 13 7 6 8 5 9 4 10 3 11 2 12 17 13
REMARK SMILES IDX 16 14 14 15 15 16 1 17
REMARK H PARENT
REMARK Flexibility Score: inf
ROOT
ATOM      1  C   UNL     1     -42.116  21.433   4.527  1.00  0.00     0.045 C 
ATOM      2  C   UNL     1     -41.719  22.204   5.759  1.00  0.00    -0.033 A 
ATOM      3  C   UNL     1     -41.387  21.503   6.926  1.00  0.00     0.098 A 
ATOM      4  C   UNL     1     -41.016  22.209   8.072  1.00  0.00     0.336 A 
ATOM      5  O   UNL     1     -40.715  21.585   9.123  1.00  0.00    -0.246 OA
ATOM      6  O   UNL     1     -40.977  23.536   8.065  1.00  0.00    -0.422 OA
ATOM      7  C   UNL     1     -41.282  24.263   6.993  1.00  0.00     0.145 A 
ATOM      8  C   UNL     1     -41.668  23.615   5.777  1.00  0.00     0.022 A 
ATOM      9  C   UNL     1     -41.981  24.397   4.638  1.00  0.00     0.024 A 
ATOM     10  C   UNL     1     -41.895  25.780   4.749  1.00  0.00     0.022 A 
ATOM     11  C   UNL     1     -42.124  26.767   3.818  1.00  0.00     0.054 A 
ATOM     12  C   UNL     1     -41.871  27.949   4.505  1.00  0.00     0.102 A 
ATOM     13  O   UNL     1     -41.513  27.700   5.752  1.00  0.00    -0.461 OA
ATOM     14  C   UNL     1     -41.525  26.399   5.912  1.00  0.00     0.140 A 
ATOM     15  C   UNL     1     -41.219  25.675   7.068  1.00  0.00     0.036 A 
ATOM     16  C   UNL     1     -40.786  26.370   8.328  1.00  0.00     0.052 C 
ATOM     17  C   UNL     1     -41.963  29.319   3.924  1.00  0.00     0.087 C 
ENDROOT
TORSDOF 0
ENDMDL
