MODEL 1
REMARK VINA RESULT:    -4.457      0.000      0.000
REMARK INTER + INTRA:          -5.591
REMARK INTER:                  -5.500
REMARK INTRA:                  -0.092
REMARK UNBOUND:                -0.092
REMARK SMILES CCCCC=CC(C)=O
REMARK SMILES IDX 4 1 3 2 2 3 1 4 5 5 6 6 7 7 9 8 8 9
REMARK H PARENT
REMARK Flexibility Score: inf
ROOT
ATOM      1  C   UNL     1     122.475 177.012 116.767  1.00  0.00     0.027 C 
ENDROOT
BRANCH   1   2
ATOM      2  C   UNL     1     123.117 178.236 116.096  1.00  0.00     0.004 C 
BRANCH   2   3
ATOM      3  C   UNL     1     122.093 179.097 115.340  1.00  0.00    -0.003 C 
ATOM      4  C   UNL     1     122.738 179.978 114.270  1.00  0.00     0.004 C 
ENDBRANCH   2   3
ENDBRANCH   1   2
BRANCH   1   5
ATOM      5  C   UNL     1     123.190 176.655 118.039  1.00  0.00    -0.023 C 
ATOM      6  C   UNL     1     122.527 176.507 119.194  1.00  0.00     0.042 C 
BRANCH   6   7
ATOM      7  C   UNL     1     123.188 176.170 120.470  1.00  0.00     0.152 C 
ATOM      8  O   UNL     1     124.164 175.373 120.453  1.00  0.00    -0.295 OA
ATOM      9  C   UNL     1     122.741 176.741 121.783  1.00  0.00     0.093 C 
ENDBRANCH   6   7
ENDBRANCH   1   5
TORSDOF 4
ENDMDL
MODEL 2
REMARK VINA RESULT:    -4.444     13.235     13.918
REMARK INTER + INTRA:          -5.575
REMARK INTER:                  -5.415
REMARK INTRA:                  -0.159
REMARK UNBOUND:                -0.092
REMARK SMILES CCCCC=CC(C)=O
REMARK SMILES IDX 4 1 3 2 2 3 1 4 5 5 6 6 7 7 9 8 8 9
REMARK H PARENT
REMARK Flexibility Score: inf
ROOT
ATOM      1  C   UNL     1     116.553 165.541 116.706  1.00  0.00     0.027 C 
ENDROOT
BRANCH   1   2
ATOM      2  C   UNL     1     115.292 166.415 116.636  1.00  0.00     0.004 C 
BRANCH   2   3
ATOM      3  C   UNL     1     115.586 167.835 116.128  1.00  0.00    -0.003 C 
ATOM      4  C   UNL     1     115.251 168.014 114.647  1.00  0.00     0.004 C 
ENDBRANCH   2   3
ENDBRANCH   1   2
BRANCH   1   5
ATOM      5  C   UNL     1     116.655 164.843 118.032  1.00  0.00    -0.023 C 
ATOM      6  C   UNL     1     115.605 164.759 118.859  1.00  0.00     0.042 C 
BRANCH   6   7
ATOM      7  C   UNL     1     115.661 164.095 120.176  1.00  0.00     0.152 C 
ATOM      8  O   UNL     1     115.292 164.739 121.194  1.00  0.00    -0.295 OA
ATOM      9  C   UNL     1     116.142 162.684 120.347  1.00  0.00     0.093 C 
ENDBRANCH   6   7
ENDBRANCH   1   5
TORSDOF 4
ENDMDL
MODEL 3
REMARK VINA RESULT:    -4.336     13.411     14.817
REMARK INTER + INTRA:          -5.442
REMARK INTER:                  -5.269
REMARK INTRA:                  -0.173
REMARK UNBOUND:                -0.092
REMARK SMILES CCCCC=CC(C)=O
REMARK SMILES IDX 4 1 3 2 2 3 1 4 5 5 6 6 7 7 9 8 8 9
REMARK H PARENT
REMARK Flexibility Score: inf
ROOT
ATOM      1  C   UNL     1     115.661 163.773 120.133  1.00  0.00     0.027 C 
ENDROOT
BRANCH   1   2
ATOM      2  C   UNL     1     115.733 164.673 121.376  1.00  0.00     0.004 C 
BRANCH   2   3
ATOM      3  C   UNL     1     117.179 164.980 121.798  1.00  0.00    -0.003 C 
ATOM      4  C   UNL     1     117.256 165.930 122.994  1.00  0.00     0.004 C 
ENDBRANCH   2   3
ENDBRANCH   1   2
BRANCH   1   5
ATOM      5  C   UNL     1     116.188 164.484 118.919  1.00  0.00    -0.023 C 
ATOM      6  C   UNL     1     115.384 165.210 118.133  1.00  0.00     0.042 C 
BRANCH   6   7
ATOM      7  C   UNL     1     115.853 165.915 116.923  1.00  0.00     0.152 C 
ATOM      8  O   UNL     1     115.339 167.028 116.635  1.00  0.00    -0.295 OA
ATOM      9  C   UNL     1     116.918 165.355 116.028  1.00  0.00     0.093 C 
ENDBRANCH   6   7
ENDBRANCH   1   5
TORSDOF 4
ENDMDL
MODEL 4
REMARK VINA RESULT:    -4.295      1.468      1.572
REMARK INTER + INTRA:          -5.391
REMARK INTER:                  -5.237
REMARK INTRA:                  -0.154
REMARK UNBOUND:                -0.092
REMARK SMILES CCCCC=CC(C)=O
REMARK SMILES IDX 4 1 3 2 2 3 1 4 5 5 6 6 7 7 9 8 8 9
REMARK H PARENT
REMARK Flexibility Score: inf
ROOT
ATOM      1  C   UNL     1     122.449 177.061 116.774  1.00  0.00     0.027 C 
ENDROOT
BRANCH   1   2
ATOM      2  C   UNL     1     123.103 178.219 116.004  1.00  0.00     0.004 C 
BRANCH   2   3
ATOM      3  C   UNL     1     122.070 179.138 115.332  1.00  0.00    -0.003 C 
ATOM      4  C   UNL     1     122.690 180.047 114.271  1.00  0.00     0.004 C 
ENDBRANCH   2   3
ENDBRANCH   1   2
BRANCH   1   5
ATOM      5  C   UNL     1     123.208 176.752 118.033  1.00  0.00    -0.023 C 
ATOM      6  C   UNL     1     124.220 177.526 118.445  1.00  0.00     0.042 C 
BRANCH   6   7
ATOM      7  C   UNL     1     125.003 177.253 119.668  1.00  0.00     0.152 C 
ATOM      8  O   UNL     1     125.449 176.090 119.852  1.00  0.00    -0.295 OA
ATOM      9  C   UNL     1     125.284 178.310 120.694  1.00  0.00     0.093 C 
ENDBRANCH   6   7
ENDBRANCH   1   5
TORSDOF 4
ENDMDL
MODEL 5
REMARK VINA RESULT:    -4.197     13.917     15.484
REMARK INTER + INTRA:          -5.270
REMARK INTER:                  -5.109
REMARK INTRA:                  -0.161
REMARK UNBOUND:                -0.092
REMARK SMILES CCCCC=CC(C)=O
REMARK SMILES IDX 4 1 3 2 2 3 1 4 5 5 6 6 7 7 9 8 8 9
REMARK H PARENT
REMARK Flexibility Score: inf
ROOT
ATOM      1  C   UNL     1     115.268 164.684 119.620  1.00  0.00     0.027 C 
ENDROOT
BRANCH   1   2
ATOM      2  C   UNL     1     116.031 163.836 120.649  1.00  0.00     0.004 C 
BRANCH   2   3
ATOM      3  C   UNL     1     116.004 162.336 120.312  1.00  0.00    -0.003 C 
ATOM      4  C   UNL     1     117.135 161.559 120.987  1.00  0.00     0.004 C 
ENDBRANCH   2   3
ENDBRANCH   1   2
BRANCH   1   5
ATOM      5  C   UNL     1     116.038 164.799 118.335  1.00  0.00    -0.023 C 
ATOM      6  C   UNL     1     115.648 165.630 117.361  1.00  0.00     0.042 C 
BRANCH   6   7
ATOM      7  C   UNL     1     116.365 165.768 116.077  1.00  0.00     0.152 C 
ATOM      8  O   UNL     1     115.970 166.637 115.255  1.00  0.00    -0.295 OA
ATOM      9  C   UNL     1     117.544 164.912 115.718  1.00  0.00     0.093 C 
ENDBRANCH   6   7
ENDBRANCH   1   5
TORSDOF 4
ENDMDL
MODEL 6
REMARK VINA RESULT:    -4.179      6.989      9.933
REMARK INTER + INTRA:          -5.247
REMARK INTER:                  -5.019
REMARK INTRA:                  -0.228
REMARK UNBOUND:                -0.092
REMARK SMILES CCCCC=CC(C)=O
REMARK SMILES IDX 4 1 3 2 2 3 1 4 5 5 6 6 7 7 9 8 8 9
REMARK H PARENT
REMARK Flexibility Score: inf
ROOT
ATOM      1  C   UNL     1     117.302 179.004 126.829  1.00  0.00     0.027 C 
ENDROOT
BRANCH   1   2
ATOM      2  C   UNL     1     116.092 179.823 126.354  1.00  0.00     0.004 C 
BRANCH   2   3
ATOM      3  C   UNL     1     114.976 178.941 125.771  1.00  0.00    -0.003 C 
ATOM      4  C   UNL     1     114.607 177.773 126.686  1.00  0.00     0.004 C 
ENDBRANCH   2   3
ENDBRANCH   1   2
BRANCH   1   5
ATOM      5  C   UNL     1     118.399 179.014 125.802  1.00  0.00    -0.023 C 
ATOM      6  C   UNL     1     118.421 178.129 124.798  1.00  0.00     0.042 C 
BRANCH   6   7
ATOM      7  C   UNL     1     119.485 178.093 123.774  1.00  0.00     0.152 C 
ATOM      8  O   UNL     1     120.539 177.448 124.021  1.00  0.00    -0.295 OA
ATOM      9  C   UNL     1     119.356 178.793 122.454  1.00  0.00     0.093 C 
ENDBRANCH   6   7
ENDBRANCH   1   5
TORSDOF 4
ENDMDL
MODEL 7
REMARK VINA RESULT:    -4.178     13.644     14.559
REMARK INTER + INTRA:          -5.247
REMARK INTER:                  -5.079
REMARK INTRA:                  -0.168
REMARK UNBOUND:                -0.092
REMARK SMILES CCCCC=CC(C)=O
REMARK SMILES IDX 4 1 3 2 2 3 1 4 5 5 6 6 7 7 9 8 8 9
REMARK H PARENT
REMARK Flexibility Score: inf
ROOT
ATOM      1  C   UNL     1     116.001 163.881 119.912  1.00  0.00     0.027 C 
ENDROOT
BRANCH   1   2
ATOM      2  C   UNL     1     115.274 164.765 118.887  1.00  0.00     0.004 C 
BRANCH   2   3
ATOM      3  C   UNL     1     116.169 165.146 117.697  1.00  0.00    -0.003 C 
ATOM      4  C   UNL     1     115.585 166.284 116.859  1.00  0.00     0.004 C 
ENDBRANCH   2   3
ENDBRANCH   1   2
BRANCH   1   5
ATOM      5  C   UNL     1     116.005 164.519 121.271  1.00  0.00    -0.023 C 
ATOM      6  C   UNL     1     114.922 165.143 121.752  1.00  0.00     0.042 C 
BRANCH   6   7
ATOM      7  C   UNL     1     114.884 165.796 123.076  1.00  0.00     0.152 C 
ATOM      8  O   UNL     1     113.793 166.280 123.479  1.00  0.00    -0.295 OA
ATOM      9  C   UNL     1     116.094 165.903 123.956  1.00  0.00     0.093 C 
ENDBRANCH   6   7
ENDBRANCH   1   5
TORSDOF 4
ENDMDL
MODEL 8
REMARK VINA RESULT:    -4.132      9.927     11.095
REMARK INTER + INTRA:          -5.189
REMARK INTER:                  -4.940
REMARK INTRA:                  -0.249
REMARK UNBOUND:                -0.092
REMARK SMILES CCCCC=CC(C)=O
REMARK SMILES IDX 4 1 3 2 2 3 1 4 5 5 6 6 7 7 9 8 8 9
REMARK H PARENT
REMARK Flexibility Score: inf
ROOT
ATOM      1  C   UNL     1     119.406 177.730 129.297  1.00  0.00     0.027 C 
ENDROOT
BRANCH   1   2
ATOM      2  C   UNL     1     120.641 177.268 128.509  1.00  0.00     0.004 C 
BRANCH   2   3
ATOM      3  C   UNL     1     121.818 178.249 128.629  1.00  0.00    -0.003 C 
ATOM      4  C   UNL     1     122.053 179.048 127.347  1.00  0.00     0.004 C 
ENDBRANCH   2   3
ENDBRANCH   1   2
BRANCH   1   5
ATOM      5  C   UNL     1     118.286 178.114 128.372  1.00  0.00    -0.023 C 
ATOM      6  C   UNL     1     118.490 178.271 127.058  1.00  0.00     0.042 C 
BRANCH   6   7
ATOM      7  C   UNL     1     117.424 178.660 126.113  1.00  0.00     0.152 C 
ATOM      8  O   UNL     1     117.356 178.069 125.003  1.00  0.00    -0.295 OA
ATOM      9  C   UNL     1     116.423 179.732 126.427  1.00  0.00     0.093 C 
ENDBRANCH   6   7
ENDBRANCH   1   5
TORSDOF 4
ENDMDL
MODEL 9
REMARK VINA RESULT:    -4.061      2.127      5.189
REMARK INTER + INTRA:          -5.102
REMARK INTER:                  -4.889
REMARK INTRA:                  -0.213
REMARK UNBOUND:                -0.092
REMARK SMILES CCCCC=CC(C)=O
REMARK SMILES IDX 4 1 3 2 2 3 1 4 5 5 6 6 7 7 9 8 8 9
REMARK H PARENT
REMARK Flexibility Score: inf
ROOT
ATOM      1  C   UNL     1     125.162 177.130 118.841  1.00  0.00     0.027 C 
ENDROOT
BRANCH   1   2
ATOM      2  C   UNL     1     124.813 176.139 119.962  1.00  0.00     0.004 C 
BRANCH   2   3
ATOM      3  C   UNL     1     123.299 176.034 120.205  1.00  0.00    -0.003 C 
ATOM      4  C   UNL     1     122.803 177.003 121.278  1.00  0.00     0.004 C 
ENDBRANCH   2   3
ENDBRANCH   1   2
BRANCH   1   5
ATOM      5  C   UNL     1     124.063 177.200 117.819  1.00  0.00    -0.023 C 
ATOM      6  C   UNL     1     123.828 178.319 117.123  1.00  0.00     0.042 C 
BRANCH   6   7
ATOM      7  C   UNL     1     122.752 178.439 116.119  1.00  0.00     0.152 C 
ATOM      8  O   UNL     1     121.843 177.567 116.101  1.00  0.00    -0.295 OA
ATOM      9  C   UNL     1     122.703 179.559 115.122  1.00  0.00     0.093 C 
ENDBRANCH   6   7
ENDBRANCH   1   5
TORSDOF 4
ENDMDL
