MODEL 1
REMARK VINA RESULT:    -5.661      0.000      0.000
REMARK INTER + INTRA:          -7.319
REMARK INTER:                  -7.977
REMARK INTRA:                   0.658
REMARK UNBOUND:                 0.658
REMARK SMILES CC1=CCC(=C(C)C)C(=O)CC(C)=CCC1
REMARK SMILES IDX 12 1 14 2 13 3 15 4 16 5 2 6 1 7 3 8 11 10 9 11 10 12 5 13
REMARK SMILES IDX 6 14 7 15 8 16 4 17
REMARK H PARENT
REMARK Flexibility Score: 60.00
ROOT
ATOM      1  C   UNL     1     102.861 132.217  51.133  1.00  0.00    -0.070 C 
ATOM      2  C   UNL     1     101.832 131.396  51.438  1.00  0.00    -0.027 C 
ATOM      3  C   UNL     1     103.275 132.324  49.687  1.00  0.00     0.039 C 
ENDROOT
BRANCH   2   4
ATOM      4  C   UNL     1     101.212 131.228  52.808  1.00  0.00     0.032 C 
BRANCH   4   5
ATOM      5  C   UNL     1      99.734 131.660  52.907  1.00  0.00     0.034 C 
BRANCH   5   6
ATOM      6  C   UNL     1      99.542 132.962  53.664  1.00  0.00    -0.077 C 
ATOM      7  C   UNL     1      99.089 132.877  55.101  1.00  0.00     0.039 C 
ATOM      8  C   UNL     1      99.818 134.189  53.158  1.00  0.00    -0.023 CG0
ATOM      9  G   UNL     1     100.263 134.516  51.747  1.00  0.00     0.000 G0
ENDBRANCH   5   6
ENDBRANCH   4   5
ENDBRANCH   2   4
BRANCH   1  10
ATOM     10  C   UNL     1     103.552 133.099  52.155  1.00  0.00     0.111 C 
BRANCH  10  11
ATOM     11  C   UNL     1     102.664 134.228  52.605  1.00  0.00     0.163 C 
ATOM     12  O   UNL     1     102.768 134.626  53.797  1.00  0.00    -0.294 OA
BRANCH  11  13
ATOM     13  C   UNL     1     101.719 134.923  51.680  1.00  0.00    -0.002 C 
ATOM     14  C   UNL     1     102.177 135.828  50.764  1.00  0.00    -0.069 C 
ATOM     15  C   UNL     1     103.622 136.275  50.758  1.00  0.00     0.039 C 
ATOM     16  C   UNL     1     101.272 136.429  49.711  1.00  0.00     0.039 C 
BRANCH  13  17
ATOM     17  C   UNL     1     100.257 134.509  51.740  1.00  0.00     0.066 CG0
ATOM     18  G   UNL     1      99.810 134.179  53.151  1.00  0.00     0.000 G0
ENDBRANCH  13  17
ENDBRANCH  11  13
ENDBRANCH  10  11
ENDBRANCH   1  10
TORSDOF 0
ENDMDL
MODEL 2
REMARK VINA RESULT:    -5.221      1.696      3.997
REMARK INTER + INTRA:          -6.699
REMARK INTER:                  -6.979
REMARK INTRA:                   0.279
REMARK UNBOUND:                 0.658
REMARK SMILES CC1=CCC(=C(C)C)C(=O)CC(C)=CCC1
REMARK SMILES IDX 12 1 14 2 13 3 15 4 16 5 2 6 1 7 3 8 11 10 9 11 10 12 5 13
REMARK SMILES IDX 6 14 7 15 8 16 4 17
REMARK H PARENT
REMARK Flexibility Score: 60.00
ROOT
ATOM      1  C   UNL     1     102.385 135.395  50.968  1.00  0.00    -0.070 C 
ATOM      2  C   UNL     1     103.317 134.449  50.715  1.00  0.00    -0.027 C 
ATOM      3  C   UNL     1     102.230 136.517  49.972  1.00  0.00     0.039 C 
ENDROOT
BRANCH   2   4
ATOM      4  C   UNL     1     103.555 133.202  51.538  1.00  0.00     0.032 C 
BRANCH   4   5
ATOM      5  C   UNL     1     102.701 131.984  51.132  1.00  0.00     0.034 C 
BRANCH   5   6
ATOM      6  C   UNL     1     102.241 131.155  52.318  1.00  0.00    -0.077 C 
ATOM      7  C   UNL     1     103.264 130.283  53.003  1.00  0.00     0.039 C 
ATOM      8  C   UNL     1     100.993 131.199  52.844  1.00  0.00    -0.023 CG0
ATOM      9  G   UNL     1      99.806 131.981  52.316  1.00  0.00     0.000 G0
ENDBRANCH   5   6
ENDBRANCH   4   5
ENDBRANCH   2   4
BRANCH   1  10
ATOM     10  C   UNL     1     101.435 135.332  52.147  1.00  0.00     0.111 C 
BRANCH  10  11
ATOM     11  C   UNL     1     100.243 134.459  51.854  1.00  0.00     0.163 C 
ATOM     12  O   UNL     1      99.676 134.586  50.735  1.00  0.00    -0.294 OA
BRANCH  11  13
ATOM     13  C   UNL     1      99.757 133.419  52.808  1.00  0.00    -0.002 C 
ATOM     14  C   UNL     1      99.233 133.772  54.020  1.00  0.00    -0.069 C 
ATOM     15  C   UNL     1      99.273 135.206  54.504  1.00  0.00     0.039 C 
ATOM     16  C   UNL     1      98.588 132.759  54.940  1.00  0.00     0.039 C 
BRANCH  13  17
ATOM     17  C   UNL     1      99.781 131.974  52.334  1.00  0.00     0.066 CG0
ATOM     18  G   UNL     1     100.988 131.219  52.853  1.00  0.00     0.000 G0
ENDBRANCH  13  17
ENDBRANCH  11  13
ENDBRANCH  10  11
ENDBRANCH   1  10
TORSDOF 0
ENDMDL
MODEL 3
REMARK VINA RESULT:    -5.181      1.675      2.453
REMARK INTER + INTRA:          -6.643
REMARK INTER:                  -6.858
REMARK INTRA:                   0.214
REMARK UNBOUND:                 0.658
REMARK SMILES CC1=CCC(=C(C)C)C(=O)CC(C)=CCC1
REMARK SMILES IDX 12 1 14 2 13 3 15 4 16 5 2 6 1 7 3 8 11 10 9 11 10 12 5 13
REMARK SMILES IDX 6 14 7 15 8 16 4 17
REMARK H PARENT
REMARK Flexibility Score: 60.00
ROOT
ATOM      1  C   UNL     1     102.093 131.522  52.461  1.00  0.00    -0.070 C 
ATOM      2  C   UNL     1     100.903 131.463  53.099  1.00  0.00    -0.027 C 
ATOM      3  C   UNL     1     103.332 131.171  53.246  1.00  0.00     0.039 C 
ENDROOT
BRANCH   2   4
ATOM      4  C   UNL     1      99.548 131.683  52.463  1.00  0.00     0.032 C 
BRANCH   4   5
ATOM      5  C   UNL     1      99.286 133.124  51.978  1.00  0.00     0.034 C 
BRANCH   5   6
ATOM      6  C   UNL     1      99.806 134.180  52.937  1.00  0.00    -0.077 C 
ATOM      7  C   UNL     1      99.135 134.295  54.283  1.00  0.00     0.039 C 
ATOM      8  C   UNL     1     100.874 134.977  52.691  1.00  0.00    -0.023 CG0
ATOM      9  G   UNL     1     101.683 135.050  51.411  1.00  0.00     0.000 G0
ENDBRANCH   5   6
ENDBRANCH   4   5
ENDBRANCH   2   4
BRANCH   1  10
ATOM     10  C   UNL     1     102.230 131.831  50.984  1.00  0.00     0.111 C 
BRANCH  10  11
ATOM     11  C   UNL     1     103.136 133.011  50.745  1.00  0.00     0.163 C 
ATOM     12  O   UNL     1     103.987 132.927  49.818  1.00  0.00    -0.294 OA
BRANCH  11  13
ATOM     13  C   UNL     1     103.019 134.281  51.521  1.00  0.00    -0.002 C 
ATOM     14  C   UNL     1     104.083 134.772  52.224  1.00  0.00    -0.069 C 
ATOM     15  C   UNL     1     105.360 133.973  52.373  1.00  0.00     0.039 C 
ATOM     16  C   UNL     1     104.047 136.132  52.887  1.00  0.00     0.039 C 
BRANCH  13  17
ATOM     17  C   UNL     1     101.707 135.043  51.412  1.00  0.00     0.066 CG0
ATOM     18  G   UNL     1     100.904 134.990  52.697  1.00  0.00     0.000 G0
ENDBRANCH  13  17
ENDBRANCH  11  13
ENDBRANCH  10  11
ENDBRANCH   1  10
TORSDOF 0
ENDMDL
MODEL 4
REMARK VINA RESULT:    -5.045      1.578      3.934
REMARK INTER + INTRA:          -6.451
REMARK INTER:                  -6.569
REMARK INTRA:                   0.118
REMARK UNBOUND:                 0.658
REMARK SMILES CC1=CCC(=C(C)C)C(=O)CC(C)=CCC1
REMARK SMILES IDX 12 1 14 2 13 3 15 4 16 5 2 6 1 7 3 8 11 10 9 11 10 12 5 13
REMARK SMILES IDX 6 14 7 15 8 16 4 17
REMARK H PARENT
REMARK Flexibility Score: 60.00
ROOT
ATOM      1  C   UNL     1     102.352 131.431  52.077  1.00  0.00    -0.070 C 
ATOM      2  C   UNL     1     103.026 131.958  51.031  1.00  0.00    -0.027 C 
ATOM      3  C   UNL     1     102.939 130.220  52.758  1.00  0.00     0.039 C 
ENDROOT
BRANCH   2   4
ATOM      4  C   UNL     1     102.653 133.219  50.284  1.00  0.00     0.032 C 
BRANCH   4   5
ATOM      5  C   UNL     1     103.111 134.530  50.956  1.00  0.00     0.034 C 
BRANCH   5   6
ATOM      6  C   UNL     1     102.000 135.558  51.078  1.00  0.00    -0.077 C 
ATOM      7  C   UNL     1     101.501 136.204  49.809  1.00  0.00     0.039 C 
ATOM      8  C   UNL     1     101.382 135.883  52.239  1.00  0.00    -0.023 CG0
ATOM      9  G   UNL     1     101.725 135.381  53.628  1.00  0.00     0.000 G0
ENDBRANCH   5   6
ENDBRANCH   4   5
ENDBRANCH   2   4
BRANCH   1  10
ATOM     10  C   UNL     1     101.093 132.049  52.651  1.00  0.00     0.111 C 
BRANCH  10  11
ATOM     11  C   UNL     1     101.386 132.855  53.889  1.00  0.00     0.163 C 
ATOM     12  O   UNL     1     102.155 132.356  54.755  1.00  0.00    -0.294 OA
BRANCH  11  13
ATOM     13  C   UNL     1     100.850 134.234  54.094  1.00  0.00    -0.002 C 
ATOM     14  C   UNL     1      99.659 134.434  54.733  1.00  0.00    -0.069 C 
ATOM     15  C   UNL     1      98.768 133.271  55.112  1.00  0.00     0.039 C 
ATOM     16  C   UNL     1      99.167 135.818  55.095  1.00  0.00     0.039 C 
BRANCH  13  17
ATOM     17  C   UNL     1     101.729 135.394  53.650  1.00  0.00     0.066 CG0
ATOM     18  G   UNL     1     101.392 135.867  52.249  1.00  0.00     0.000 G0
ENDBRANCH  13  17
ENDBRANCH  11  13
ENDBRANCH  10  11
ENDBRANCH   1  10
TORSDOF 0
ENDMDL
MODEL 5
REMARK VINA RESULT:    -4.943      2.457      5.015
REMARK INTER + INTRA:          -6.308
REMARK INTER:                  -6.627
REMARK INTRA:                   0.319
REMARK UNBOUND:                 0.658
REMARK SMILES CC1=CCC(=C(C)C)C(=O)CC(C)=CCC1
REMARK SMILES IDX 12 1 14 2 13 3 15 4 16 5 2 6 1 7 3 8 11 10 9 11 10 12 5 13
REMARK SMILES IDX 6 14 7 15 8 16 4 17
REMARK H PARENT
REMARK Flexibility Score: 60.00
ROOT
ATOM      1  C   UNL     1     101.787 134.924  50.516  1.00  0.00    -0.070 C 
ATOM      2  C   UNL     1     102.564 136.030  50.538  1.00  0.00    -0.027 C 
ATOM      3  C   UNL     1     100.470 135.001  49.787  1.00  0.00     0.039 C 
ENDROOT
BRANCH   2   4
ATOM      4  C   UNL     1     103.953 136.122  51.131  1.00  0.00     0.032 C 
BRANCH   4   5
ATOM      5  C   UNL     1     103.995 136.233  52.669  1.00  0.00     0.034 C 
BRANCH   5   6
ATOM      6  C   UNL     1     105.035 135.327  53.304  1.00  0.00    -0.077 C 
ATOM      7  C   UNL     1     106.487 135.618  53.018  1.00  0.00     0.039 C 
ATOM      8  C   UNL     1     104.748 134.319  54.165  1.00  0.00    -0.023 CG0
ATOM      9  G   UNL     1     103.373 133.837  54.580  1.00  0.00     0.000 G0
ENDBRANCH   5   6
ENDBRANCH   4   5
ENDBRANCH   2   4
BRANCH   1  10
ATOM     10  C   UNL     1     102.216 133.595  51.105  1.00  0.00     0.111 C 
BRANCH  10  11
ATOM     11  C   UNL     1     101.841 133.485  52.559  1.00  0.00     0.163 C 
ATOM     12  O   UNL     1     100.694 133.877  52.907  1.00  0.00    -0.294 OA
BRANCH  11  13
ATOM     13  C   UNL     1     102.748 132.878  53.578  1.00  0.00    -0.002 C 
ATOM     14  C   UNL     1     103.064 131.549  53.530  1.00  0.00    -0.069 C 
ATOM     15  C   UNL     1     102.388 130.618  52.547  1.00  0.00     0.039 C 
ATOM     16  C   UNL     1     104.100 130.938  54.448  1.00  0.00     0.039 C 
BRANCH  13  17
ATOM     17  C   UNL     1     103.372 133.816  54.600  1.00  0.00     0.066 CG0
ATOM     18  G   UNL     1     104.734 134.316  54.164  1.00  0.00     0.000 G0
ENDBRANCH  13  17
ENDBRANCH  11  13
ENDBRANCH  10  11
ENDBRANCH   1  10
TORSDOF 0
ENDMDL
MODEL 6
REMARK VINA RESULT:    -4.922      1.743      2.895
REMARK INTER + INTRA:          -6.278
REMARK INTER:                  -6.753
REMARK INTRA:                   0.475
REMARK UNBOUND:                 0.658
REMARK SMILES CC1=CCC(=C(C)C)C(=O)CC(C)=CCC1
REMARK SMILES IDX 12 1 14 2 13 3 15 4 16 5 2 6 1 7 3 8 11 10 9 11 10 12 5 13
REMARK SMILES IDX 6 14 7 15 8 16 4 17
REMARK H PARENT
REMARK Flexibility Score: 60.00
ROOT
ATOM      1  C   UNL     1     102.083 132.897  50.954  1.00  0.00    -0.070 C 
ATOM      2  C   UNL     1     101.080 132.019  51.183  1.00  0.00    -0.027 C 
ATOM      3  C   UNL     1     103.265 132.423  50.146  1.00  0.00     0.039 C 
ENDROOT
BRANCH   2   4
ATOM      4  C   UNL     1      99.776 132.331  51.883  1.00  0.00     0.032 C 
BRANCH   4   5
ATOM      5  C   UNL     1      99.669 131.790  53.324  1.00  0.00     0.034 C 
BRANCH   5   6
ATOM      6  C   UNL     1     100.013 132.827  54.378  1.00  0.00    -0.077 C 
ATOM      7  C   UNL     1      98.872 133.566  55.033  1.00  0.00     0.039 C 
ATOM      8  C   UNL     1     101.269 133.083  54.818  1.00  0.00    -0.023 CG0
ATOM      9  G   UNL     1     102.559 132.482  54.297  1.00  0.00     0.000 G0
ENDBRANCH   5   6
ENDBRANCH   4   5
ENDBRANCH   2   4
BRANCH   1  10
ATOM     10  C   UNL     1     102.032 134.348  51.388  1.00  0.00     0.111 C 
BRANCH  10  11
ATOM     11  C   UNL     1     102.624 134.539  52.759  1.00  0.00     0.163 C 
ATOM     12  O   UNL     1     102.423 135.638  53.345  1.00  0.00    -0.294 OA
BRANCH  11  13
ATOM     13  C   UNL     1     103.380 133.461  53.463  1.00  0.00    -0.002 C 
ATOM     14  C   UNL     1     104.745 133.426  53.427  1.00  0.00    -0.069 C 
ATOM     15  C   UNL     1     105.531 134.375  52.549  1.00  0.00     0.039 C 
ATOM     16  C   UNL     1     105.543 132.444  54.257  1.00  0.00     0.039 C 
BRANCH  13  17
ATOM     17  C   UNL     1     102.572 132.474  54.292  1.00  0.00     0.066 CG0
ATOM     18  G   UNL     1     101.292 133.085  54.827  1.00  0.00     0.000 G0
ENDBRANCH  13  17
ENDBRANCH  11  13
ENDBRANCH  10  11
ENDBRANCH   1  10
TORSDOF 0
ENDMDL
MODEL 7
REMARK VINA RESULT:    -4.917      1.813      3.351
REMARK INTER + INTRA:          -6.271
REMARK INTER:                  -6.600
REMARK INTRA:                   0.329
REMARK UNBOUND:                 0.658
REMARK SMILES CC1=CCC(=C(C)C)C(=O)CC(C)=CCC1
REMARK SMILES IDX 12 1 14 2 13 3 15 4 16 5 2 6 1 7 3 8 11 10 9 11 10 12 5 13
REMARK SMILES IDX 6 14 7 15 8 16 4 17
REMARK H PARENT
REMARK Flexibility Score: 60.00
ROOT
ATOM      1  C   UNL     1     101.433 135.289  50.075  1.00  0.00    -0.070 C 
ATOM      2  C   UNL     1     100.114 135.018  50.190  1.00  0.00    -0.027 C 
ATOM      3  C   UNL     1     101.832 136.580  49.405  1.00  0.00     0.039 C 
ENDROOT
BRANCH   2   4
ATOM      4  C   UNL     1      99.516 133.829  50.911  1.00  0.00     0.032 C 
BRANCH   4   5
ATOM      5  C   UNL     1      99.466 133.962  52.447  1.00  0.00     0.034 C 
BRANCH   5   6
ATOM      6  C   UNL     1     100.184 132.834  53.167  1.00  0.00    -0.077 C 
ATOM      7  C   UNL     1      99.584 131.453  53.080  1.00  0.00     0.039 C 
ATOM      8  C   UNL     1     101.361 132.973  53.824  1.00  0.00    -0.023 CG0
ATOM      9  G   UNL     1     102.132 134.258  54.055  1.00  0.00     0.000 G0
ENDBRANCH   5   6
ENDBRANCH   4   5
ENDBRANCH   2   4
BRANCH   1  10
ATOM     10  C   UNL     1     102.517 134.411  50.666  1.00  0.00     0.111 C 
BRANCH  10  11
ATOM     11  C   UNL     1     103.183 135.068  51.846  1.00  0.00     0.163 C 
ATOM     12  O   UNL     1     103.548 136.270  51.728  1.00  0.00    -0.294 OA
BRANCH  11  13
ATOM     13  C   UNL     1     103.366 134.372  53.154  1.00  0.00    -0.002 C 
ATOM     14  C   UNL     1     104.601 133.940  53.550  1.00  0.00    -0.069 C 
ATOM     15  C   UNL     1     105.791 134.007  52.618  1.00  0.00     0.039 C 
ATOM     16  C   UNL     1     104.847 133.376  54.932  1.00  0.00     0.039 C 
BRANCH  13  17
ATOM     17  C   UNL     1     102.147 134.254  54.056  1.00  0.00     0.066 CG0
ATOM     18  G   UNL     1     101.372 132.975  53.811  1.00  0.00     0.000 G0
ENDBRANCH  13  17
ENDBRANCH  11  13
ENDBRANCH  10  11
ENDBRANCH   1  10
TORSDOF 0
ENDMDL
MODEL 8
REMARK VINA RESULT:    -4.905      1.914      3.178
REMARK INTER + INTRA:          -6.254
REMARK INTER:                  -6.760
REMARK INTRA:                   0.505
REMARK UNBOUND:                 0.658
REMARK SMILES CC1=CCC(=C(C)C)C(=O)CC(C)=CCC1
REMARK SMILES IDX 12 1 14 2 13 3 15 4 16 5 2 6 1 7 3 8 11 10 9 11 10 12 5 13
REMARK SMILES IDX 6 14 7 15 8 16 4 17
REMARK H PARENT
REMARK Flexibility Score: 60.00
ROOT
ATOM      1  C   UNL     1     100.073 132.561  52.105  1.00  0.00    -0.070 C 
ATOM      2  C   UNL     1      99.740 132.512  53.415  1.00  0.00    -0.027 C 
ATOM      3  C   UNL     1     100.732 131.348  51.499  1.00  0.00     0.039 C 
ENDROOT
BRANCH   2   4
ATOM      4  C   UNL     1      98.990 133.583  54.176  1.00  0.00     0.032 C 
BRANCH   4   5
ATOM      5  C   UNL     1      99.631 134.985  54.124  1.00  0.00     0.034 C 
BRANCH   5   6
ATOM      6  C   UNL     1     101.052 135.012  54.659  1.00  0.00    -0.077 C 
ATOM      7  C   UNL     1     101.268 134.601  56.094  1.00  0.00     0.039 C 
ATOM      8  C   UNL     1     102.144 135.314  53.916  1.00  0.00    -0.023 CG0
ATOM      9  G   UNL     1     102.167 135.770  52.470  1.00  0.00     0.000 G0
ENDBRANCH   5   6
ENDBRANCH   4   5
ENDBRANCH   2   4
BRANCH   1  10
ATOM     10  C   UNL     1      99.732 133.731  51.204  1.00  0.00     0.111 C 
BRANCH  10  11
ATOM     11  C   UNL     1     100.971 134.388  50.655  1.00  0.00     0.163 C 
ATOM     12  O   UNL     1     100.942 134.811  49.467  1.00  0.00    -0.294 OA
BRANCH  11  13
ATOM     13  C   UNL     1     102.196 134.606  51.481  1.00  0.00    -0.002 C 
ATOM     14  C   UNL     1     103.312 133.841  51.293  1.00  0.00    -0.069 C 
ATOM     15  C   UNL     1     103.298 132.650  50.360  1.00  0.00     0.039 C 
ATOM     16  C   UNL     1     104.617 134.140  52.000  1.00  0.00     0.039 C 
BRANCH  13  17
ATOM     17  C   UNL     1     102.175 135.769  52.461  1.00  0.00     0.066 CG0
ATOM     18  G   UNL     1     102.125 135.305  53.903  1.00  0.00     0.000 G0
ENDBRANCH  13  17
ENDBRANCH  11  13
ENDBRANCH  10  11
ENDBRANCH   1  10
TORSDOF 0
ENDMDL
MODEL 9
REMARK VINA RESULT:    -4.814      2.148      4.224
REMARK INTER + INTRA:          -6.126
REMARK INTER:                  -6.371
REMARK INTRA:                   0.246
REMARK UNBOUND:                 0.658
REMARK SMILES CC1=CCC(=C(C)C)C(=O)CC(C)=CCC1
REMARK SMILES IDX 12 1 14 2 13 3 15 4 16 5 2 6 1 7 3 8 11 10 9 11 10 12 5 13
REMARK SMILES IDX 6 14 7 15 8 16 4 17
REMARK H PARENT
REMARK Flexibility Score: 60.00
ROOT
ATOM      1  C   UNL     1     102.618 134.986  50.725  1.00  0.00    -0.070 C 
ATOM      2  C   UNL     1     103.185 135.999  51.417  1.00  0.00    -0.027 C 
ATOM      3  C   UNL     1     101.304 135.252  50.034  1.00  0.00     0.039 C 
ENDROOT
BRANCH   2   4
ATOM      4  C   UNL     1     104.538 135.958  52.093  1.00  0.00     0.032 C 
BRANCH   4   5
ATOM      5  C   UNL     1     104.661 134.929  53.235  1.00  0.00     0.034 C 
BRANCH   5   6
ATOM      6  C   UNL     1     103.495 134.973  54.207  1.00  0.00    -0.077 C 
ATOM      7  C   UNL     1     103.307 136.229  55.019  1.00  0.00     0.039 C 
ATOM      8  C   UNL     1     102.575 133.987  54.341  1.00  0.00    -0.023 CG0
ATOM      9  G   UNL     1     102.572 132.639  53.648  1.00  0.00     0.000 G0
ENDBRANCH   5   6
ENDBRANCH   4   5
ENDBRANCH   2   4
BRANCH   1  10
ATOM     10  C   UNL     1     103.280 133.636  50.533  1.00  0.00     0.111 C 
BRANCH  10  11
ATOM     11  C   UNL     1     102.430 132.519  51.077  1.00  0.00     0.163 C 
ATOM     12  O   UNL     1     102.369 131.445  50.418  1.00  0.00    -0.294 OA
BRANCH  11  13
ATOM     13  C   UNL     1     101.717 132.617  52.385  1.00  0.00    -0.002 C 
ATOM     14  C   UNL     1     100.352 132.611  52.440  1.00  0.00    -0.069 C 
ATOM     15  C   UNL     1      99.517 132.666  51.179  1.00  0.00     0.039 C 
ATOM     16  C   UNL     1      99.603 132.550  53.753  1.00  0.00     0.039 C 
BRANCH  13  17
ATOM     17  C   UNL     1     102.572 132.625  53.644  1.00  0.00     0.066 CG0
ATOM     18  G   UNL     1     102.561 133.973  54.337  1.00  0.00     0.000 G0
ENDBRANCH  13  17
ENDBRANCH  11  13
ENDBRANCH  10  11
ENDBRANCH   1  10
TORSDOF 0
ENDMDL
