MODEL 1
REMARK VINA RESULT:   123.993      0.000      0.000
REMARK INTER + INTRA:         127.617
REMARK INTER:                 127.617
REMARK INTRA:                   0.000
REMARK UNBOUND:                 0.000
REMARK SMILES CC1(C)CC[C@@]2(C)CC[C@@]3(C)C(=CC[C@@H]4[C@@]5(C)CC[C@@H](O)C(C)(C)[C@H]5CC[C@@]43C)[C@H]2C1
REMARK SMILES IDX 1 1 2 2 4 3 5 4 6 5 8 6 9 7 10 8 12 9 13 10 14 11 15 12
REMARK SMILES IDX 28 13 27 14 26 15 25 16 16 17 18 18 19 19 20 20 22 21 23 22
REMARK SMILES IDX 24 23 17 24 29 25 30 26 31 27 11 28 7 29 3 30 21 31
REMARK H PARENT 21 32
REMARK Flexibility Score: inf
ROOT
ATOM      1  C   UNL     1     -24.583  31.311 -10.868  1.00  0.00     0.011 C 
ATOM      2  C   UNL     1     -25.417  31.595  -9.595  1.00  0.00    -0.035 C 
ATOM      3  C   UNL     1     -26.799  30.910  -9.760  1.00  0.00     0.007 C 
ATOM      4  C   UNL     1     -27.646  30.854  -8.463  1.00  0.00     0.008 C 
ATOM      5  C   UNL     1     -26.853  30.319  -7.206  1.00  0.00    -0.026 C 
ATOM      6  C   UNL     1     -27.617  29.060  -6.597  1.00  0.00     0.008 C 
ATOM      7  C   UNL     1     -26.624  28.020  -6.072  1.00  0.00     0.012 C 
ATOM      8  C   UNL     1     -25.699  27.411  -7.227  1.00  0.00    -0.006 C 
ATOM      9  C   UNL     1     -25.328  28.539  -8.197  1.00  0.00    -0.064 C 
ATOM     10  C   UNL     1     -24.380  28.254  -9.101  1.00  0.00    -0.027 C 
ATOM     11  C   UNL     1     -22.998  27.957  -8.537  1.00  0.00     0.032 C 
ATOM     12  C   UNL     1     -23.006  27.589  -6.991  1.00  0.00     0.006 C 
ATOM     13  C   UNL     1     -24.313  26.707  -6.684  1.00  0.00    -0.020 C 
ATOM     14  C   UNL     1     -24.044  25.344  -7.379  1.00  0.00     0.008 C 
ATOM     15  C   UNL     1     -22.775  24.645  -6.919  1.00  0.00     0.005 C 
ATOM     16  C   UNL     1     -21.447  25.473  -6.962  1.00  0.00     0.003 C 
ATOM     17  C   UNL     1     -21.589  26.997  -6.527  1.00  0.00    -0.025 C 
ATOM     18  C   UNL     1     -21.359  27.246  -4.982  1.00  0.00     0.010 C 
ATOM     19  C   UNL     1     -20.341  26.336  -4.268  1.00  0.00     0.033 C 
ATOM     20  C   UNL     1     -20.367  24.854  -4.696  1.00  0.00     0.120 C 
ATOM     21  C   UNL     1     -20.276  24.690  -6.250  1.00  0.00    -0.006 C 
ATOM     22  C   UNL     1     -20.316  23.177  -6.595  1.00  0.00     0.014 C 
ATOM     23  C   UNL     1     -18.875  25.171  -6.755  1.00  0.00     0.014 C 
ATOM     24  C   UNL     1     -20.460  27.823  -7.240  1.00  0.00     0.012 C 
ATOM     25  C   UNL     1     -24.487  26.387  -5.163  1.00  0.00     0.012 C 
ATOM     26  C   UNL     1     -25.369  29.922  -7.573  1.00  0.00     0.022 C 
ATOM     27  C   UNL     1     -24.657  31.057  -8.336  1.00  0.00     0.015 C 
ATOM     28  C   UNL     1     -26.614  26.425  -7.987  1.00  0.00     0.017 C 
ATOM     29  C   UNL     1     -26.853  31.440  -6.111  1.00  0.00     0.012 C 
ATOM     30  C   UNL     1     -25.598  33.124  -9.475  1.00  0.00     0.011 C 
ENDROOT
BRANCH  20  31
ATOM     31  O   UNL     1     -21.542  24.258  -4.178  1.00  0.00    -0.393 OA
ATOM     32  H   UNL     1     -22.263  24.360  -4.849  1.00  0.00     0.210 HD
ENDBRANCH  20  31
TORSDOF 1
ENDMDL
MODEL 2
REMARK VINA RESULT:   124.300      4.252      7.817
REMARK INTER + INTRA:         127.934
REMARK INTER:                 127.934
REMARK INTRA:                   0.000
REMARK UNBOUND:                 0.000
REMARK SMILES CC1(C)CC[C@@]2(C)CC[C@@]3(C)C(=CC[C@@H]4[C@@]5(C)CC[C@@H](O)C(C)(C)[C@H]5CC[C@@]43C)[C@H]2C1
REMARK SMILES IDX 1 1 2 2 4 3 5 4 6 5 8 6 9 7 10 8 12 9 13 10 14 11 15 12
REMARK SMILES IDX 28 13 27 14 26 15 25 16 16 17 18 18 19 19 20 20 22 21 23 22
REMARK SMILES IDX 24 23 17 24 29 25 30 26 31 27 11 28 7 29 3 30 21 31
REMARK H PARENT 21 32
REMARK Flexibility Score: inf
ROOT
ATOM      1  C   UNL     1     -31.755  28.147  -2.234  1.00  0.00     0.011 C 
ATOM      2  C   UNL     1     -32.026  29.670  -2.199  1.00  0.00    -0.035 C 
ATOM      3  C   UNL     1     -31.370  30.249  -0.917  1.00  0.00     0.007 C 
ATOM      4  C   UNL     1     -31.300  31.797  -0.874  1.00  0.00     0.008 C 
ATOM      5  C   UNL     1     -30.723  32.446  -2.193  1.00  0.00    -0.026 C 
ATOM      6  C   UNL     1     -29.465  33.354  -1.828  1.00  0.00     0.008 C 
ATOM      7  C   UNL     1     -28.397  33.270  -2.921  1.00  0.00     0.012 C 
ATOM      8  C   UNL     1     -27.797  31.796  -3.087  1.00  0.00    -0.006 C 
ATOM      9  C   UNL     1     -28.938  30.786  -2.925  1.00  0.00    -0.064 C 
ATOM     10  C   UNL     1     -28.657  29.516  -3.251  1.00  0.00    -0.027 C 
ATOM     11  C   UNL     1     -28.323  29.270  -4.714  1.00  0.00     0.032 C 
ATOM     12  C   UNL     1     -27.921  30.586  -5.508  1.00  0.00     0.006 C 
ATOM     13  C   UNL     1     -27.056  31.525  -4.533  1.00  0.00    -0.020 C 
ATOM     14  C   UNL     1     -25.704  30.779  -4.361  1.00  0.00     0.008 C 
ATOM     15  C   UNL     1     -24.973  30.499  -5.664  1.00  0.00     0.005 C 
ATOM     16  C   UNL     1     -25.777  29.774  -6.793  1.00  0.00     0.003 C 
ATOM     17  C   UNL     1     -27.294  30.232  -6.941  1.00  0.00    -0.025 C 
ATOM     18  C   UNL     1     -27.504  31.430  -7.954  1.00  0.00     0.010 C 
ATOM     19  C   UNL     1     -26.561  31.496  -9.171  1.00  0.00     0.033 C 
ATOM     20  C   UNL     1     -25.089  31.131  -8.884  1.00  0.00     0.120 C 
ATOM     21  C   UNL     1     -24.958  29.759  -8.143  1.00  0.00    -0.006 C 
ATOM     22  C   UNL     1     -23.454  29.472  -7.887  1.00  0.00     0.014 C 
ATOM     23  C   UNL     1     -25.425  28.598  -9.083  1.00  0.00     0.014 C 
ATOM     24  C   UNL     1     -28.114  29.041  -7.551  1.00  0.00     0.012 C 
ATOM     25  C   UNL     1     -26.706  32.908  -5.173  1.00  0.00     0.012 C 
ATOM     26  C   UNL     1     -30.308  31.352  -3.254  1.00  0.00     0.022 C 
ATOM     27  C   UNL     1     -31.446  30.340  -3.491  1.00  0.00     0.015 C 
ATOM     28  C   UNL     1     -26.844  31.620  -1.883  1.00  0.00     0.017 C 
ATOM     29  C   UNL     1     -31.820  33.389  -2.797  1.00  0.00     0.012 C 
ATOM     30  C   UNL     1     -33.555  29.883  -2.148  1.00  0.00     0.011 C 
ENDROOT
BRANCH  20  31
ATOM     31  O   UNL     1     -24.503  32.183  -8.139  1.00  0.00    -0.393 OA
ATOM     32  H   UNL     1     -24.309  31.846  -7.228  1.00  0.00     0.210 HD
ENDBRANCH  20  31
TORSDOF 1
ENDMDL
