MODEL 1
REMARK VINA RESULT:    -5.088      0.000      0.000
REMARK INTER + INTRA:          -6.466
REMARK INTER:                  -5.980
REMARK INTRA:                  -0.485
REMARK UNBOUND:                -0.485
REMARK SMILES C=C[C@@]1(C)CC[C@@H](C(=C)C)C[C@H]1C(=C)C
REMARK SMILES IDX 7 1 6 2 5 3 3 4 12 5 11 6 4 7 8 8 10 9 9 10 13 11 14 12
REMARK SMILES IDX 15 13 2 14 1 15
REMARK H PARENT
REMARK Flexibility Score: inf
ROOT
ATOM      1  C   UNL     1      -0.801   2.018  13.212  1.00  0.00     0.015 C 
ATOM      2  C   UNL     1      -1.192   2.723  14.537  1.00  0.00     0.009 C 
ATOM      3  C   UNL     1      -1.506   4.224  14.369  1.00  0.00     0.012 C 
ATOM      4  C   UNL     1      -0.577   4.953  13.348  1.00  0.00    -0.008 C 
ATOM      5  C   UNL     1      -0.628   4.222  11.935  1.00  0.00     0.024 C 
ATOM      6  C   UNL     1      -1.270   2.811  11.981  1.00  0.00     0.017 C 
ATOM      7  C   UNL     1       0.871   4.928  13.902  1.00  0.00     0.016 C 
ENDROOT
BRANCH   1   8
ATOM      8  C   UNL     1      -1.300   0.581  13.169  1.00  0.00    -0.077 C 
ATOM      9  C   UNL     1      -1.753  -0.066  14.452  1.00  0.00     0.039 C 
ATOM     10  C   UNL     1      -1.324  -0.116  12.020  1.00  0.00     0.008 C 
ENDBRANCH   1   8
BRANCH   5  11
ATOM     11  C   UNL     1      -1.298   5.030  10.818  1.00  0.00    -0.077 C 
ATOM     12  C   UNL     1      -0.565   5.829  10.024  1.00  0.00     0.008 C 
ATOM     13  C   UNL     1      -2.786   4.952  10.582  1.00  0.00     0.039 C 
ENDBRANCH   5  11
BRANCH   4  14
ATOM     14  C   UNL     1      -0.919   6.444  13.217  1.00  0.00    -0.028 C 
ATOM     15  C   UNL     1      -1.976   7.063  13.764  1.00  0.00     0.004 C 
ENDBRANCH   4  14
TORSDOF 3
ENDMDL
MODEL 2
REMARK VINA RESULT:    -4.911      1.986      5.116
REMARK INTER + INTRA:          -6.258
REMARK INTER:                  -5.801
REMARK INTRA:                  -0.458
REMARK UNBOUND:                -0.485
REMARK SMILES C=C[C@@]1(C)CC[C@@H](C(=C)C)C[C@H]1C(=C)C
REMARK SMILES IDX 7 1 6 2 5 3 3 4 12 5 11 6 4 7 8 8 10 9 9 10 13 11 14 12
REMARK SMILES IDX 15 13 2 14 1 15
REMARK H PARENT
REMARK Flexibility Score: inf
ROOT
ATOM      1  C   UNL     1      -3.941   5.409  11.558  1.00  0.00     0.015 C 
ATOM      2  C   UNL     1      -3.527   4.504  10.368  1.00  0.00     0.009 C 
ATOM      3  C   UNL     1      -2.497   3.419  10.746  1.00  0.00     0.012 C 
ATOM      4  C   UNL     1      -1.418   3.901  11.765  1.00  0.00    -0.008 C 
ATOM      5  C   UNL     1      -2.114   4.476  13.077  1.00  0.00     0.024 C 
ATOM      6  C   UNL     1      -3.631   4.752  12.913  1.00  0.00     0.017 C 
ATOM      7  C   UNL     1      -0.571   5.011  11.091  1.00  0.00     0.016 C 
ENDROOT
BRANCH   1   8
ATOM      8  C   UNL     1      -5.401   5.829  11.466  1.00  0.00    -0.077 C 
ATOM      9  C   UNL     1      -6.270   5.199  10.408  1.00  0.00     0.039 C 
ATOM     10  C   UNL     1      -5.915   6.756  12.292  1.00  0.00     0.008 C 
ENDBRANCH   1   8
BRANCH   5  11
ATOM     11  C   UNL     1      -1.903   3.631  14.338  1.00  0.00    -0.077 C 
ATOM     12  C   UNL     1      -0.904   3.919  15.189  1.00  0.00     0.008 C 
ATOM     13  C   UNL     1      -2.803   2.462  14.656  1.00  0.00     0.039 C 
ENDBRANCH   5  11
BRANCH   4  14
ATOM     14  C   UNL     1      -0.411   2.794  12.109  1.00  0.00    -0.028 C 
ATOM     15  C   UNL     1      -0.567   1.483  11.872  1.00  0.00     0.004 C 
ENDBRANCH   4  14
TORSDOF 3
ENDMDL
MODEL 3
REMARK VINA RESULT:    -4.779      0.996      3.084
REMARK INTER + INTRA:          -6.103
REMARK INTER:                  -5.622
REMARK INTRA:                  -0.481
REMARK UNBOUND:                -0.485
REMARK SMILES C=C[C@@]1(C)CC[C@@H](C(=C)C)C[C@H]1C(=C)C
REMARK SMILES IDX 7 1 6 2 5 3 3 4 12 5 11 6 4 7 8 8 10 9 9 10 13 11 14 12
REMARK SMILES IDX 15 13 2 14 1 15
REMARK H PARENT
REMARK Flexibility Score: inf
ROOT
ATOM      1  C   UNL     1      -1.782   2.270  12.728  1.00  0.00     0.015 C 
ATOM      2  C   UNL     1      -1.113   2.219  11.330  1.00  0.00     0.009 C 
ATOM      3  C   UNL     1      -0.654   3.598  10.813  1.00  0.00     0.012 C 
ATOM      4  C   UNL     1      -1.637   4.759  11.160  1.00  0.00    -0.008 C 
ATOM      5  C   UNL     1      -1.890   4.821  12.730  1.00  0.00     0.024 C 
ATOM      6  C   UNL     1      -1.419   3.554  13.491  1.00  0.00     0.017 C 
ATOM      7  C   UNL     1      -2.976   4.503  10.421  1.00  0.00     0.016 C 
ENDROOT
BRANCH   1   8
ATOM      8  C   UNL     1      -1.467   1.028  13.550  1.00  0.00    -0.077 C 
ATOM      9  C   UNL     1      -1.304  -0.289  12.838  1.00  0.00     0.039 C 
ATOM     10  C   UNL     1      -1.354   1.086  14.888  1.00  0.00     0.008 C 
ENDBRANCH   1   8
BRANCH   5  11
ATOM     11  C   UNL     1      -1.310   6.056  13.427  1.00  0.00    -0.077 C 
ATOM     12  C   UNL     1      -0.024   6.074  13.817  1.00  0.00     0.008 C 
ATOM     13  C   UNL     1      -2.159   7.274  13.694  1.00  0.00     0.039 C 
ENDBRANCH   5  11
BRANCH   4  14
ATOM     14  C   UNL     1      -1.147   6.112  10.622  1.00  0.00    -0.028 C 
ATOM     15  C   UNL     1      -0.306   6.295   9.593  1.00  0.00     0.004 C 
ENDBRANCH   4  14
TORSDOF 3
ENDMDL
MODEL 4
REMARK VINA RESULT:    -4.563      1.672      5.016
REMARK INTER + INTRA:          -5.849
REMARK INTER:                  -5.609
REMARK INTRA:                  -0.240
REMARK UNBOUND:                -0.485
REMARK SMILES C=C[C@@]1(C)CC[C@@H](C(=C)C)C[C@H]1C(=C)C
REMARK SMILES IDX 7 1 6 2 5 3 3 4 12 5 11 6 4 7 8 8 10 9 9 10 13 11 14 12
REMARK SMILES IDX 15 13 2 14 1 15
REMARK H PARENT
REMARK Flexibility Score: inf
ROOT
ATOM      1  C   UNL     1      -1.765   6.132  10.276  1.00  0.00     0.015 C 
ATOM      2  C   UNL     1      -1.790   6.870  11.639  1.00  0.00     0.009 C 
ATOM      3  C   UNL     1      -1.566   5.941  12.850  1.00  0.00     0.012 C 
ATOM      4  C   UNL     1      -2.255   4.548  12.711  1.00  0.00    -0.008 C 
ATOM      5  C   UNL     1      -1.780   3.827  11.373  1.00  0.00     0.024 C 
ATOM      6  C   UNL     1      -1.059   4.770  10.375  1.00  0.00     0.017 C 
ATOM      7  C   UNL     1      -3.790   4.763  12.676  1.00  0.00     0.016 C 
ENDROOT
BRANCH   1   8
ATOM      8  C   UNL     1      -1.156   6.993   9.178  1.00  0.00    -0.077 C 
ATOM      9  C   UNL     1       0.199   6.621   8.634  1.00  0.00     0.039 C 
ATOM     10  C   UNL     1      -1.793   8.079   8.708  1.00  0.00     0.008 C 
ENDBRANCH   1   8
BRANCH   5  11
ATOM     11  C   UNL     1      -0.911   2.583  11.588  1.00  0.00    -0.077 C 
ATOM     12  C   UNL     1       0.297   2.690  12.167  1.00  0.00     0.008 C 
ATOM     13  C   UNL     1      -1.382   1.216  11.158  1.00  0.00     0.039 C 
ENDBRANCH   5  11
BRANCH   4  14
ATOM     14  C   UNL     1      -2.013   3.658  13.939  1.00  0.00    -0.028 C 
ATOM     15  C   UNL     1      -2.907   2.833  14.505  1.00  0.00     0.004 C 
ENDBRANCH   4  14
TORSDOF 3
ENDMDL
MODEL 5
REMARK VINA RESULT:    -4.490      1.541      4.865
REMARK INTER + INTRA:          -5.762
REMARK INTER:                  -5.435
REMARK INTRA:                  -0.327
REMARK UNBOUND:                -0.485
REMARK SMILES C=C[C@@]1(C)CC[C@@H](C(=C)C)C[C@H]1C(=C)C
REMARK SMILES IDX 7 1 6 2 5 3 3 4 12 5 11 6 4 7 8 8 10 9 9 10 13 11 14 12
REMARK SMILES IDX 15 13 2 14 1 15
REMARK H PARENT
REMARK Flexibility Score: inf
ROOT
ATOM      1  C   UNL     1      -0.752   5.151  10.555  1.00  0.00     0.015 C 
ATOM      2  C   UNL     1      -2.022   4.283  10.749  1.00  0.00     0.009 C 
ATOM      3  C   UNL     1      -2.205   3.768  12.191  1.00  0.00     0.012 C 
ATOM      4  C   UNL     1      -0.871   3.354  12.887  1.00  0.00    -0.008 C 
ATOM      5  C   UNL     1       0.163   4.565  12.865  1.00  0.00     0.024 C 
ATOM      6  C   UNL     1      -0.227   5.706  11.889  1.00  0.00     0.017 C 
ATOM      7  C   UNL     1      -0.277   2.143  12.123  1.00  0.00     0.016 C 
ENDROOT
BRANCH   1   8
ATOM      8  C   UNL     1      -0.978   6.265   9.542  1.00  0.00    -0.077 C 
ATOM      9  C   UNL     1       0.157   6.657   8.632  1.00  0.00     0.039 C 
ATOM     10  C   UNL     1      -2.155   6.909   9.463  1.00  0.00     0.008 C 
ENDBRANCH   1   8
BRANCH   5  11
ATOM     11  C   UNL     1       0.465   5.176  14.238  1.00  0.00    -0.077 C 
ATOM     12  C   UNL     1       1.711   5.135  14.740  1.00  0.00     0.008 C 
ATOM     13  C   UNL     1      -0.618   5.833  15.057  1.00  0.00     0.039 C 
ENDBRANCH   5  11
BRANCH   4  14
ATOM     14  C   UNL     1      -1.098   2.842  14.316  1.00  0.00    -0.028 C 
ATOM     15  C   UNL     1      -2.282   2.532  14.866  1.00  0.00     0.004 C 
ENDBRANCH   4  14
TORSDOF 3
ENDMDL
MODEL 6
REMARK VINA RESULT:    -4.480      1.724      4.847
REMARK INTER + INTRA:          -5.751
REMARK INTER:                  -5.275
REMARK INTRA:                  -0.476
REMARK UNBOUND:                -0.485
REMARK SMILES C=C[C@@]1(C)CC[C@@H](C(=C)C)C[C@H]1C(=C)C
REMARK SMILES IDX 7 1 6 2 5 3 3 4 12 5 11 6 4 7 8 8 10 9 9 10 13 11 14 12
REMARK SMILES IDX 15 13 2 14 1 15
REMARK H PARENT
REMARK Flexibility Score: inf
ROOT
ATOM      1  C   UNL     1       1.435   5.750  14.000  1.00  0.00     0.015 C 
ATOM      2  C   UNL     1       0.276   6.772  13.879  1.00  0.00     0.009 C 
ATOM      3  C   UNL     1      -1.107   6.117  13.676  1.00  0.00     0.012 C 
ATOM      4  C   UNL     1      -1.079   4.862  12.748  1.00  0.00    -0.008 C 
ATOM      5  C   UNL     1      -0.042   3.788  13.301  1.00  0.00     0.024 C 
ATOM      6  C   UNL     1       0.927   4.348  14.375  1.00  0.00     0.017 C 
ATOM      7  C   UNL     1      -0.660   5.315  11.326  1.00  0.00     0.016 C 
ENDROOT
BRANCH   1   8
ATOM      8  C   UNL     1       2.509   6.227  14.968  1.00  0.00    -0.077 C 
ATOM      9  C   UNL     1       2.326   7.555  15.655  1.00  0.00     0.039 C 
ATOM     10  C   UNL     1       3.614   5.498  15.201  1.00  0.00     0.008 C 
ENDBRANCH   1   8
BRANCH   5  11
ATOM     11  C   UNL     1      -0.675   2.499  13.835  1.00  0.00    -0.077 C 
ATOM     12  C   UNL     1      -1.102   2.429  15.107  1.00  0.00     0.008 C 
ATOM     13  C   UNL     1      -0.833   1.283  12.955  1.00  0.00     0.039 C 
ENDBRANCH   5  11
BRANCH   4  14
ATOM     14  C   UNL     1      -2.474   4.247  12.567  1.00  0.00    -0.028 C 
ATOM     15  C   UNL     1      -3.644   4.898  12.661  1.00  0.00     0.004 C 
ENDBRANCH   4  14
TORSDOF 3
ENDMDL
MODEL 7
REMARK VINA RESULT:    -4.390      1.867      3.368
REMARK INTER + INTRA:          -5.646
REMARK INTER:                  -5.177
REMARK INTRA:                  -0.469
REMARK UNBOUND:                -0.485
REMARK SMILES C=C[C@@]1(C)CC[C@@H](C(=C)C)C[C@H]1C(=C)C
REMARK SMILES IDX 7 1 6 2 5 3 3 4 12 5 11 6 4 7 8 8 10 9 9 10 13 11 14 12
REMARK SMILES IDX 15 13 2 14 1 15
REMARK H PARENT
REMARK Flexibility Score: inf
ROOT
ATOM      1  C   UNL     1      -1.815   3.786  13.436  1.00  0.00     0.015 C 
ATOM      2  C   UNL     1      -0.812   4.969  13.454  1.00  0.00     0.009 C 
ATOM      3  C   UNL     1      -1.248   6.163  12.580  1.00  0.00     0.012 C 
ATOM      4  C   UNL     1      -1.932   5.747  11.240  1.00  0.00    -0.008 C 
ATOM      5  C   UNL     1      -3.176   4.795  11.526  1.00  0.00     0.024 C 
ATOM      6  C   UNL     1      -3.212   4.226  12.969  1.00  0.00     0.017 C 
ATOM      7  C   UNL     1      -0.888   5.000  10.370  1.00  0.00     0.016 C 
ENDROOT
BRANCH   1   8
ATOM      8  C   UNL     1      -1.878   3.079  14.783  1.00  0.00    -0.077 C 
ATOM      9  C   UNL     1      -2.968   2.066  15.018  1.00  0.00     0.039 C 
ATOM     10  C   UNL     1      -0.998   3.358  15.760  1.00  0.00     0.008 C 
ENDBRANCH   1   8
BRANCH   5  11
ATOM     11  C   UNL     1      -4.542   5.410  11.207  1.00  0.00    -0.077 C 
ATOM     12  C   UNL     1      -5.151   5.144  10.039  1.00  0.00     0.008 C 
ATOM     13  C   UNL     1      -5.235   6.325  12.186  1.00  0.00     0.039 C 
ENDBRANCH   5  11
BRANCH   4  14
ATOM     14  C   UNL     1      -2.344   6.963  10.399  1.00  0.00    -0.028 C 
ATOM     15  C   UNL     1      -2.033   7.175   9.111  1.00  0.00     0.004 C 
ENDBRANCH   4  14
TORSDOF 3
ENDMDL
MODEL 8
REMARK VINA RESULT:    -4.375      1.863      4.463
REMARK INTER + INTRA:          -5.627
REMARK INTER:                  -5.147
REMARK INTRA:                  -0.480
REMARK UNBOUND:                -0.485
REMARK SMILES C=C[C@@]1(C)CC[C@@H](C(=C)C)C[C@H]1C(=C)C
REMARK SMILES IDX 7 1 6 2 5 3 3 4 12 5 11 6 4 7 8 8 10 9 9 10 13 11 14 12
REMARK SMILES IDX 15 13 2 14 1 15
REMARK H PARENT
REMARK Flexibility Score: inf
ROOT
ATOM      1  C   UNL     1       0.438   5.778  13.979  1.00  0.00     0.015 C 
ATOM      2  C   UNL     1       0.749   4.259  14.001  1.00  0.00     0.009 C 
ATOM      3  C   UNL     1       0.183   3.495  12.787  1.00  0.00     0.012 C 
ATOM      4  C   UNL     1      -1.225   3.990  12.330  1.00  0.00    -0.008 C 
ATOM      5  C   UNL     1      -1.189   5.552  12.025  1.00  0.00     0.024 C 
ATOM      6  C   UNL     1       0.074   6.269  12.568  1.00  0.00     0.017 C 
ATOM      7  C   UNL     1      -2.237   3.700  13.468  1.00  0.00     0.016 C 
ENDROOT
BRANCH   1   8
ATOM      8  C   UNL     1       1.575   6.596  14.575  1.00  0.00    -0.077 C 
ATOM      9  C   UNL     1       1.476   8.099  14.549  1.00  0.00     0.039 C 
ATOM     10  C   UNL     1       2.661   6.004  15.100  1.00  0.00     0.008 C 
ENDBRANCH   1   8
BRANCH   5  11
ATOM     11  C   UNL     1      -1.366   5.922  10.548  1.00  0.00    -0.077 C 
ATOM     12  C   UNL     1      -0.296   6.022   9.740  1.00  0.00     0.008 C 
ATOM     13  C   UNL     1      -2.733   6.184   9.966  1.00  0.00     0.039 C 
ENDBRANCH   5  11
BRANCH   4  14
ATOM     14  C   UNL     1      -1.754   3.199  11.125  1.00  0.00    -0.028 C 
ATOM     15  C   UNL     1      -1.341   1.984  10.735  1.00  0.00     0.004 C 
ENDBRANCH   4  14
TORSDOF 3
ENDMDL
MODEL 9
REMARK VINA RESULT:    -4.367      1.864      4.401
REMARK INTER + INTRA:          -5.619
REMARK INTER:                  -5.169
REMARK INTRA:                  -0.449
REMARK UNBOUND:                -0.485
REMARK SMILES C=C[C@@]1(C)CC[C@@H](C(=C)C)C[C@H]1C(=C)C
REMARK SMILES IDX 7 1 6 2 5 3 3 4 12 5 11 6 4 7 8 8 10 9 9 10 13 11 14 12
REMARK SMILES IDX 15 13 2 14 1 15
REMARK H PARENT
REMARK Flexibility Score: inf
ROOT
ATOM      1  C   UNL     1      -3.746   5.662  12.994  1.00  0.00     0.015 C 
ATOM      2  C   UNL     1      -2.820   6.906  12.979  1.00  0.00     0.009 C 
ATOM      3  C   UNL     1      -1.331   6.566  12.765  1.00  0.00     0.012 C 
ATOM      4  C   UNL     1      -0.870   5.265  13.495  1.00  0.00    -0.008 C 
ATOM      5  C   UNL     1      -1.780   4.034  13.059  1.00  0.00     0.024 C 
ATOM      6  C   UNL     1      -3.083   4.446  12.326  1.00  0.00     0.017 C 
ATOM      7  C   UNL     1      -0.992   5.495  15.023  1.00  0.00     0.016 C 
ENDROOT
BRANCH   1   8
ATOM      8  C   UNL     1      -5.104   5.963  12.376  1.00  0.00    -0.077 C 
ATOM      9  C   UNL     1      -5.576   5.119  11.220  1.00  0.00     0.039 C 
ATOM     10  C   UNL     1      -5.871   6.970  12.828  1.00  0.00     0.008 C 
ENDBRANCH   1   8
BRANCH   5  11
ATOM     11  C   UNL     1      -1.063   2.969  12.223  1.00  0.00    -0.077 C 
ATOM     12  C   UNL     1      -1.031   3.065  10.883  1.00  0.00     0.008 C 
ATOM     13  C   UNL     1      -0.380   1.792  12.876  1.00  0.00     0.039 C 
ENDBRANCH   5  11
BRANCH   4  14
ATOM     14  C   UNL     1       0.618   4.967  13.261  1.00  0.00    -0.028 C 
ATOM     15  C   UNL     1       1.639   5.400  14.018  1.00  0.00     0.004 C 
ENDBRANCH   4  14
TORSDOF 3
ENDMDL
