MODEL 1
REMARK VINA RESULT:    -6.646      0.000      0.000
REMARK INTER + INTRA:         -10.465
REMARK INTER:                  -9.171
REMARK INTRA:                  -1.294
REMARK UNBOUND:                -1.294
REMARK SMILES O=C([O-])[C@H]1O[C@@H](Oc2cc3oc(-c4ccccc4)cc(=O)c3c(O)c2O)[C@@H](O)[C@H](O)[C@H]1O
REMARK SMILES IDX 7 1 6 2 4 3 31 4 5 5 29 6 27 7 2 8 1 9 3 10 32 11 30 13
REMARK SMILES IDX 28 15 8 17 25 18 9 19 23 20 10 21 22 22 11 23 20 24 12 25
REMARK SMILES IDX 19 26 21 27 26 28 24 30 13 32 14 33 18 34 15 35 17 36 16 37
REMARK H PARENT 32 12 30 14 28 16 26 29 24 31
REMARK Flexibility Score: inf
ROOT
ATOM      1  O   UNL     1      12.844  51.740  21.120  1.00  0.00    -0.458 OA
ENDROOT
BRANCH   1   2
ATOM      2  C   UNL     1      13.974  52.540  21.490  1.00  0.00     0.339 C 
ATOM      3  C   UNL     1      14.483  53.210  19.266  1.00  0.00     0.199 C 
ATOM      4  C   UNL     1      15.754  52.318  19.231  1.00  0.00     0.180 C 
ATOM      5  O   UNL     1      14.136  53.623  20.584  1.00  0.00    -0.328 OA
ATOM      6  C   UNL     1      15.652  51.152  20.227  1.00  0.00     0.181 C 
ATOM      7  C   UNL     1      15.263  51.699  21.602  1.00  0.00     0.214 C 
BRANCH   3   8
ATOM      8  C   UNL     1      13.287  52.658  18.522  1.00  0.00     0.073 C 
ATOM      9  O   UNL     1      12.282  53.392  18.334  1.00  0.00    -0.547 OA
ATOM     10  O   UNL     1      13.261  51.345  18.065  1.00  0.00    -0.547 OA
ENDBRANCH   3   8
BRANCH   4  11
ATOM     11  O   UNL     1      15.986  51.823  17.938  1.00  0.00    -0.387 OA
ATOM     12  H   UNL     1      15.097  51.678  17.522  1.00  0.00     0.211 HD
ENDBRANCH   4  11
BRANCH   6  13
ATOM     13  O   UNL     1      16.891  50.497  20.326  1.00  0.00    -0.387 OA
ATOM     14  H   UNL     1      17.494  51.096  20.840  1.00  0.00     0.211 HD
ENDBRANCH   6  13
BRANCH   7  15
ATOM     15  O   UNL     1      15.091  50.634  22.501  1.00  0.00    -0.384 OA
ATOM     16  H   UNL     1      15.932  50.562  23.023  1.00  0.00     0.211 HD
ENDBRANCH   7  15
ENDBRANCH   1   2
BRANCH   1  17
ATOM     17  C   UNL     1      11.602  51.831  21.754  1.00  0.00     0.172 A 
ATOM     18  C   UNL     1      11.438  51.459  23.102  1.00  0.00     0.201 A 
ATOM     19  C   UNL     1      10.514  52.317  21.029  1.00  0.00     0.098 A 
ATOM     20  C   UNL     1      10.161  51.506  23.695  1.00  0.00     0.176 A 
ATOM     21  C   UNL     1       9.247  52.381  21.606  1.00  0.00     0.146 A 
ATOM     22  C   UNL     1       9.053  51.967  22.944  1.00  0.00     0.111 A 
ATOM     23  O   UNL     1       8.226  52.831  20.882  1.00  0.00    -0.456 OA
ATOM     24  C   UNL     1       7.744  52.042  23.466  1.00  0.00     0.197 A 
ATOM     25  C   UNL     1       6.984  52.924  21.348  1.00  0.00     0.138 A 
ATOM     26  C   UNL     1       6.708  52.521  22.664  1.00  0.00     0.100 A 
ATOM     27  O   UNL     1       7.486  51.680  24.646  1.00  0.00    -0.289 OA
BRANCH  18  28
ATOM     28  O   UNL     1      12.533  51.068  23.875  1.00  0.00    -0.502 OA
ATOM     29  H   UNL     1      13.384  51.614  23.929  1.00  0.00     0.293 HD
ENDBRANCH  18  28
BRANCH  20  30
ATOM     30  O   UNL     1       9.997  51.110  25.024  1.00  0.00    -0.504 OA
ATOM     31  H   UNL     1      10.597  50.425  25.466  1.00  0.00     0.293 HD
ENDBRANCH  20  30
BRANCH  25  32
ATOM     32  C   UNL     1       5.921  53.440  20.448  1.00  0.00     0.017 A 
ATOM     33  C   UNL     1       5.749  52.862  19.177  1.00  0.00     0.012 A 
ATOM     34  C   UNL     1       5.095  54.521  20.819  1.00  0.00     0.012 A 
ATOM     35  C   UNL     1       4.761  53.335  18.309  1.00  0.00     0.001 A 
ATOM     36  C   UNL     1       4.109  54.991  19.946  1.00  0.00     0.001 A 
ATOM     37  C   UNL     1       3.940  54.397  18.693  1.00  0.00     0.000 A 
ENDBRANCH  25  32
ENDBRANCH   1  17
TORSDOF 9
ENDMDL
MODEL 2
REMARK VINA RESULT:    -6.620      1.065      2.261
REMARK INTER + INTRA:         -10.429
REMARK INTER:                  -8.859
REMARK INTRA:                  -1.570
REMARK UNBOUND:                -1.294
REMARK SMILES O=C([O-])[C@H]1O[C@@H](Oc2cc3oc(-c4ccccc4)cc(=O)c3c(O)c2O)[C@@H](O)[C@H](O)[C@H]1O
REMARK SMILES IDX 7 1 6 2 4 3 31 4 5 5 29 6 27 7 2 8 1 9 3 10 32 11 30 13
REMARK SMILES IDX 28 15 8 17 25 18 9 19 23 20 10 21 22 22 11 23 20 24 12 25
REMARK SMILES IDX 19 26 21 27 26 28 24 30 13 32 14 33 18 34 15 35 17 36 16 37
REMARK H PARENT 32 12 30 14 28 16 26 29 24 31
REMARK Flexibility Score: inf
ROOT
ATOM      1  O   UNL     1      12.440  52.495  20.829  1.00  0.00    -0.458 OA
ENDROOT
BRANCH   1   2
ATOM      2  C   UNL     1      13.130  51.380  20.251  1.00  0.00     0.339 C 
ATOM      3  C   UNL     1      15.259  51.989  21.118  1.00  0.00     0.199 C 
ATOM      4  C   UNL     1      15.773  52.401  19.712  1.00  0.00     0.180 C 
ATOM      5  O   UNL     1      14.234  51.002  21.062  1.00  0.00    -0.328 OA
ATOM      6  C   UNL     1      14.614  52.778  18.775  1.00  0.00     0.181 C 
ATOM      7  C   UNL     1      13.567  51.664  18.799  1.00  0.00     0.214 C 
BRANCH   3   8
ATOM      8  C   UNL     1      14.877  53.137  22.026  1.00  0.00     0.073 C 
ATOM      9  O   UNL     1      14.529  52.898  23.213  1.00  0.00    -0.547 OA
ATOM     10  O   UNL     1      14.873  54.451  21.572  1.00  0.00    -0.547 OA
ENDBRANCH   3   8
BRANCH   4  11
ATOM     11  O   UNL     1      16.682  53.467  19.800  1.00  0.00    -0.387 OA
ATOM     12  H   UNL     1      16.144  54.294  19.915  1.00  0.00     0.211 HD
ENDBRANCH   4  11
BRANCH   6  13
ATOM     13  O   UNL     1      15.091  52.935  17.463  1.00  0.00    -0.387 OA
ATOM     14  H   UNL     1      15.641  52.135  17.258  1.00  0.00     0.211 HD
ENDBRANCH   6  13
BRANCH   7  15
ATOM     15  O   UNL     1      12.467  52.034  18.007  1.00  0.00    -0.384 OA
ATOM     16  H   UNL     1      11.744  51.381  18.199  1.00  0.00     0.211 HD
ENDBRANCH   7  15
ENDBRANCH   1   2
BRANCH   1  17
ATOM     17  C   UNL     1      11.203  52.379  21.471  1.00  0.00     0.172 A 
ATOM     18  C   UNL     1      11.083  51.750  22.725  1.00  0.00     0.201 A 
ATOM     19  C   UNL     1      10.075  52.915  20.850  1.00  0.00     0.098 A 
ATOM     20  C   UNL     1       9.815  51.597  23.317  1.00  0.00     0.176 A 
ATOM     21  C   UNL     1       8.814  52.782  21.430  1.00  0.00     0.146 A 
ATOM     22  C   UNL     1       8.667  52.112  22.667  1.00  0.00     0.111 A 
ATOM     23  O   UNL     1       7.755  53.287  20.803  1.00  0.00    -0.456 OA
ATOM     24  C   UNL     1       7.364  51.997  23.195  1.00  0.00     0.197 A 
ATOM     25  C   UNL     1       6.516  53.205  21.280  1.00  0.00     0.138 A 
ATOM     26  C   UNL     1       6.286  52.544  22.497  1.00  0.00     0.100 A 
ATOM     27  O   UNL     1       7.147  51.403  24.286  1.00  0.00    -0.289 OA
BRANCH  18  28
ATOM     28  O   UNL     1      12.213  51.299  23.410  1.00  0.00    -0.502 OA
ATOM     29  H   UNL     1      12.422  50.315  23.526  1.00  0.00     0.293 HD
ENDBRANCH  18  28
BRANCH  20  30
ATOM     30  O   UNL     1       9.696  50.949  24.548  1.00  0.00    -0.504 OA
ATOM     31  H   UNL     1       8.897  51.078  25.157  1.00  0.00     0.293 HD
ENDBRANCH  20  30
BRANCH  25  32
ATOM     32  C   UNL     1       5.408  53.805  20.493  1.00  0.00     0.017 A 
ATOM     33  C   UNL     1       5.012  53.203  19.285  1.00  0.00     0.012 A 
ATOM     34  C   UNL     1       4.759  54.985  20.908  1.00  0.00     0.012 A 
ATOM     35  C   UNL     1       3.977  53.753  18.523  1.00  0.00     0.001 A 
ATOM     36  C   UNL     1       3.725  55.532  20.141  1.00  0.00     0.001 A 
ATOM     37  C   UNL     1       3.333  54.915  18.951  1.00  0.00     0.000 A 
ENDBRANCH  25  32
ENDBRANCH   1  17
TORSDOF 9
ENDMDL
MODEL 3
REMARK VINA RESULT:    -6.560      1.248      1.723
REMARK INTER + INTRA:         -10.346
REMARK INTER:                  -8.859
REMARK INTRA:                  -1.487
REMARK UNBOUND:                -1.294
REMARK SMILES O=C([O-])[C@H]1O[C@@H](Oc2cc3oc(-c4ccccc4)cc(=O)c3c(O)c2O)[C@@H](O)[C@H](O)[C@H]1O
REMARK SMILES IDX 7 1 6 2 4 3 31 4 5 5 29 6 27 7 2 8 1 9 3 10 32 11 30 13
REMARK SMILES IDX 28 15 8 17 25 18 9 19 23 20 10 21 22 22 11 23 20 24 12 25
REMARK SMILES IDX 19 26 21 27 26 28 24 30 13 32 14 33 18 34 15 35 17 36 16 37
REMARK H PARENT 32 12 30 14 28 16 26 29 24 31
REMARK Flexibility Score: inf
ROOT
ATOM      1  O   UNL     1      12.126  52.438  19.989  1.00  0.00    -0.458 OA
ENDROOT
BRANCH   1   2
ATOM      2  C   UNL     1      12.947  53.606  19.872  1.00  0.00     0.339 C 
ATOM      3  C   UNL     1      13.206  53.435  17.514  1.00  0.00     0.199 C 
ATOM      4  C   UNL     1      14.693  53.011  17.654  1.00  0.00     0.180 C 
ATOM      5  O   UNL     1      12.754  54.227  18.607  1.00  0.00    -0.328 OA
ATOM      6  C   UNL     1      14.971  52.372  19.024  1.00  0.00     0.181 C 
ATOM      7  C   UNL     1      14.436  53.291  20.124  1.00  0.00     0.214 C 
BRANCH   3   8
ATOM      8  C   UNL     1      12.242  52.311  17.204  1.00  0.00     0.073 C 
ATOM      9  O   UNL     1      11.030  52.577  16.987  1.00  0.00    -0.547 OA
ATOM     10  O   UNL     1      12.657  50.985  17.181  1.00  0.00    -0.547 OA
ENDBRANCH   3   8
BRANCH   4  11
ATOM     11  O   UNL     1      15.063  52.124  16.630  1.00  0.00    -0.387 OA
ATOM     12  H   UNL     1      14.492  51.318  16.729  1.00  0.00     0.211 HD
ENDBRANCH   4  11
BRANCH   6  13
ATOM     13  O   UNL     1      16.354  52.199  19.200  1.00  0.00    -0.387 OA
ATOM     14  H   UNL     1      16.502  51.236  19.395  1.00  0.00     0.211 HD
ENDBRANCH   6  13
BRANCH   7  15
ATOM     15  O   UNL     1      14.615  52.681  21.376  1.00  0.00    -0.384 OA
ATOM     16  H   UNL     1      13.980  51.918  21.415  1.00  0.00     0.211 HD
ENDBRANCH   7  15
ENDBRANCH   1   2
BRANCH   1  17
ATOM     17  C   UNL     1      10.991  52.380  20.803  1.00  0.00     0.172 A 
ATOM     18  C   UNL     1      11.032  51.778  22.076  1.00  0.00     0.201 A 
ATOM     19  C   UNL     1       9.804  52.946  20.339  1.00  0.00     0.098 A 
ATOM     20  C   UNL     1       9.857  51.683  22.847  1.00  0.00     0.176 A 
ATOM     21  C   UNL     1       8.636  52.870  21.096  1.00  0.00     0.146 A 
ATOM     22  C   UNL     1       8.646  52.229  22.356  1.00  0.00     0.111 A 
ATOM     23  O   UNL     1       7.517  53.403  20.616  1.00  0.00    -0.456 OA
ATOM     24  C   UNL     1       7.430  52.171  23.068  1.00  0.00     0.197 A 
ATOM     25  C   UNL     1       6.357  53.375  21.267  1.00  0.00     0.138 A 
ATOM     26  C   UNL     1       6.282  52.745  22.519  1.00  0.00     0.100 A 
ATOM     27  O   UNL     1       7.352  51.605  24.192  1.00  0.00    -0.289 OA
BRANCH  18  28
ATOM     28  O   UNL     1      12.232  51.297  22.602  1.00  0.00    -0.502 OA
ATOM     29  H   UNL     1      13.136  51.593  22.254  1.00  0.00     0.293 HD
ENDBRANCH  18  28
BRANCH  20  30
ATOM     30  O   UNL     1       9.895  51.061  24.097  1.00  0.00    -0.504 OA
ATOM     31  H   UNL     1      10.049  50.067  24.206  1.00  0.00     0.293 HD
ENDBRANCH  20  30
BRANCH  25  32
ATOM     32  C   UNL     1       5.169  54.002  20.634  1.00  0.00     0.017 A 
ATOM     33  C   UNL     1       4.807  55.316  20.987  1.00  0.00     0.012 A 
ATOM     34  C   UNL     1       4.368  53.304  19.707  1.00  0.00     0.012 A 
ATOM     35  C   UNL     1       3.688  55.924  20.411  1.00  0.00     0.001 A 
ATOM     36  C   UNL     1       3.249  53.918  19.134  1.00  0.00     0.001 A 
ATOM     37  C   UNL     1       2.911  55.227  19.484  1.00  0.00     0.000 A 
ENDBRANCH  25  32
ENDBRANCH   1  17
TORSDOF 9
ENDMDL
MODEL 4
REMARK VINA RESULT:    -6.499      1.704      2.317
REMARK INTER + INTRA:         -10.262
REMARK INTER:                  -9.195
REMARK INTRA:                  -1.066
REMARK UNBOUND:                -1.294
REMARK SMILES O=C([O-])[C@H]1O[C@@H](Oc2cc3oc(-c4ccccc4)cc(=O)c3c(O)c2O)[C@@H](O)[C@H](O)[C@H]1O
REMARK SMILES IDX 7 1 6 2 4 3 31 4 5 5 29 6 27 7 2 8 1 9 3 10 32 11 30 13
REMARK SMILES IDX 28 15 8 17 25 18 9 19 23 20 10 21 22 22 11 23 20 24 12 25
REMARK SMILES IDX 19 26 21 27 26 28 24 30 13 32 14 33 18 34 15 35 17 36 16 37
REMARK H PARENT 32 12 30 14 28 16 26 29 24 31
REMARK Flexibility Score: inf
ROOT
ATOM      1  O   UNL     1      13.235  51.636  22.589  1.00  0.00    -0.458 OA
ENDROOT
BRANCH   1   2
ATOM      2  C   UNL     1      14.137  52.337  23.454  1.00  0.00     0.339 C 
ATOM      3  C   UNL     1      15.646  52.947  21.720  1.00  0.00     0.199 C 
ATOM      4  C   UNL     1      16.720  51.948  22.230  1.00  0.00     0.180 C 
ATOM      5  O   UNL     1      14.777  53.396  22.755  1.00  0.00    -0.328 OA
ATOM      6  C   UNL     1      16.087  50.801  23.034  1.00  0.00     0.181 C 
ATOM      7  C   UNL     1      15.165  51.388  24.105  1.00  0.00     0.214 C 
BRANCH   3   8
ATOM      8  C   UNL     1      14.873  52.496  20.500  1.00  0.00     0.073 C 
ATOM      9  O   UNL     1      14.088  53.299  19.933  1.00  0.00    -0.547 OA
ATOM     10  O   UNL     1      14.990  51.202  20.006  1.00  0.00    -0.547 OA
ENDBRANCH   3   8
BRANCH   4  11
ATOM     11  O   UNL     1      17.469  51.426  21.164  1.00  0.00    -0.387 OA
ATOM     12  H   UNL     1      16.821  51.031  20.524  1.00  0.00     0.211 HD
ENDBRANCH   4  11
BRANCH   6  13
ATOM     13  O   UNL     1      17.091  50.042  23.657  1.00  0.00    -0.387 OA
ATOM     14  H   UNL     1      17.048  50.246  24.628  1.00  0.00     0.211 HD
ENDBRANCH   6  13
BRANCH   7  15
ATOM     15  O   UNL     1      14.521  50.347  24.794  1.00  0.00    -0.384 OA
ATOM     16  H   UNL     1      14.001  50.769  25.527  1.00  0.00     0.211 HD
ENDBRANCH   7  15
ENDBRANCH   1   2
BRANCH   1  17
ATOM     17  C   UNL     1      11.848  51.808  22.629  1.00  0.00     0.172 A 
ATOM     18  C   UNL     1      11.146  51.823  23.849  1.00  0.00     0.201 A 
ATOM     19  C   UNL     1      11.161  51.983  21.427  1.00  0.00     0.098 A 
ATOM     20  C   UNL     1       9.742  51.939  23.851  1.00  0.00     0.176 A 
ATOM     21  C   UNL     1       9.773  52.111  21.415  1.00  0.00     0.146 A 
ATOM     22  C   UNL     1       9.045  52.081  22.627  1.00  0.00     0.111 A 
ATOM     23  O   UNL     1       9.146  52.256  20.252  1.00  0.00    -0.456 OA
ATOM     24  C   UNL     1       7.642  52.200  22.547  1.00  0.00     0.197 A 
ATOM     25  C   UNL     1       7.826  52.382  20.144  1.00  0.00     0.138 A 
ATOM     26  C   UNL     1       7.032  52.349  21.301  1.00  0.00     0.100 A 
ATOM     27  O   UNL     1       6.920  52.170  23.581  1.00  0.00    -0.289 OA
BRANCH  18  28
ATOM     28  O   UNL     1      11.825  51.754  25.066  1.00  0.00    -0.502 OA
ATOM     29  H   UNL     1      11.702  50.987  25.716  1.00  0.00     0.293 HD
ENDBRANCH  18  28
BRANCH  20  30
ATOM     30  O   UNL     1       9.046  51.926  25.062  1.00  0.00    -0.504 OA
ATOM     31  H   UNL     1       8.972  52.742  25.656  1.00  0.00     0.293 HD
ENDBRANCH  20  30
BRANCH  25  32
ATOM     32  C   UNL     1       7.232  52.538  18.791  1.00  0.00     0.017 A 
ATOM     33  C   UNL     1       8.012  53.075  17.750  1.00  0.00     0.012 A 
ATOM     34  C   UNL     1       5.892  52.190  18.526  1.00  0.00     0.012 A 
ATOM     35  C   UNL     1       7.473  53.238  16.470  1.00  0.00     0.001 A 
ATOM     36  C   UNL     1       5.358  52.357  17.243  1.00  0.00     0.001 A 
ATOM     37  C   UNL     1       6.149  52.878  16.216  1.00  0.00     0.000 A 
ENDBRANCH  25  32
ENDBRANCH   1  17
TORSDOF 9
ENDMDL
MODEL 5
REMARK VINA RESULT:    -6.402      2.107      3.383
REMARK INTER + INTRA:         -10.128
REMARK INTER:                  -8.555
REMARK INTRA:                  -1.573
REMARK UNBOUND:                -1.294
REMARK SMILES O=C([O-])[C@H]1O[C@@H](Oc2cc3oc(-c4ccccc4)cc(=O)c3c(O)c2O)[C@@H](O)[C@H](O)[C@H]1O
REMARK SMILES IDX 7 1 6 2 4 3 31 4 5 5 29 6 27 7 2 8 1 9 3 10 32 11 30 13
REMARK SMILES IDX 28 15 8 17 25 18 9 19 23 20 10 21 22 22 11 23 20 24 12 25
REMARK SMILES IDX 19 26 21 27 26 28 24 30 13 32 14 33 18 34 15 35 17 36 16 37
REMARK H PARENT 32 12 30 14 28 16 26 29 24 31
REMARK Flexibility Score: inf
ROOT
ATOM      1  O   UNL     1      12.145  52.756  18.522  1.00  0.00    -0.458 OA
ENDROOT
BRANCH   1   2
ATOM      2  C   UNL     1      12.966  51.583  18.463  1.00  0.00     0.339 C 
ATOM      3  C   UNL     1      14.985  52.726  18.987  1.00  0.00     0.199 C 
ATOM      4  C   UNL     1      15.515  52.566  17.536  1.00  0.00     0.180 C 
ATOM      5  O   UNL     1      14.068  51.701  19.354  1.00  0.00    -0.328 OA
ATOM      6  C   UNL     1      14.365  52.390  16.531  1.00  0.00     0.181 C 
ATOM      7  C   UNL     1      13.434  51.280  17.024  1.00  0.00     0.214 C 
BRANCH   3   8
ATOM      8  C   UNL     1      14.453  54.099  19.330  1.00  0.00     0.073 C 
ATOM      9  O   UNL     1      14.117  54.354  20.516  1.00  0.00    -0.547 OA
ATOM     10  O   UNL     1      14.298  55.081  18.358  1.00  0.00    -0.547 OA
ENDBRANCH   3   8
BRANCH   4  11
ATOM     11  O   UNL     1      16.309  53.663  17.165  1.00  0.00    -0.387 OA
ATOM     12  H   UNL     1      15.828  54.130  16.433  1.00  0.00     0.211 HD
ENDBRANCH   4  11
BRANCH   6  13
ATOM     13  O   UNL     1      14.878  52.035  15.273  1.00  0.00    -0.387 OA
ATOM     14  H   UNL     1      15.747  52.505  15.172  1.00  0.00     0.211 HD
ENDBRANCH   6  13
BRANCH   7  15
ATOM     15  O   UNL     1      12.338  51.164  16.154  1.00  0.00    -0.384 OA
ATOM     16  H   UNL     1      11.528  51.392  16.682  1.00  0.00     0.211 HD
ENDBRANCH   7  15
ENDBRANCH   1   2
BRANCH   1  17
ATOM     17  C   UNL     1      10.882  52.775  19.121  1.00  0.00     0.172 A 
ATOM     18  C   UNL     1      10.733  52.782  20.520  1.00  0.00     0.201 A 
ATOM     19  C   UNL     1       9.753  52.800  18.301  1.00  0.00     0.098 A 
ATOM     20  C   UNL     1       9.447  52.741  21.092  1.00  0.00     0.176 A 
ATOM     21  C   UNL     1       8.473  52.771  18.853  1.00  0.00     0.146 A 
ATOM     22  C   UNL     1       8.304  52.732  20.256  1.00  0.00     0.111 A 
ATOM     23  O   UNL     1       7.418  52.777  18.043  1.00  0.00    -0.456 OA
ATOM     24  C   UNL     1       6.985  52.689  20.752  1.00  0.00     0.197 A 
ATOM     25  C   UNL     1       6.162  52.749  18.480  1.00  0.00     0.138 A 
ATOM     26  C   UNL     1       5.912  52.696  19.860  1.00  0.00     0.100 A 
ATOM     27  O   UNL     1       6.749  52.639  21.990  1.00  0.00    -0.289 OA
BRANCH  18  28
ATOM     28  O   UNL     1      11.848  52.861  21.358  1.00  0.00    -0.502 OA
ATOM     29  H   UNL     1      12.279  53.742  21.609  1.00  0.00     0.293 HD
ENDBRANCH  18  28
BRANCH  20  30
ATOM     30  O   UNL     1       9.304  52.722  22.482  1.00  0.00    -0.504 OA
ATOM     31  H   UNL     1       8.601  52.162  22.949  1.00  0.00     0.293 HD
ENDBRANCH  20  30
BRANCH  25  32
ATOM     32  C   UNL     1       5.060  52.757  17.484  1.00  0.00     0.017 A 
ATOM     33  C   UNL     1       4.942  51.691  16.573  1.00  0.00     0.012 A 
ATOM     34  C   UNL     1       4.141  53.823  17.404  1.00  0.00     0.012 A 
ATOM     35  C   UNL     1       3.919  51.680  15.621  1.00  0.00     0.001 A 
ATOM     36  C   UNL     1       3.120  53.807  16.448  1.00  0.00     0.001 A 
ATOM     37  C   UNL     1       3.007  52.735  15.560  1.00  0.00     0.000 A 
ENDBRANCH  25  32
ENDBRANCH   1  17
TORSDOF 9
ENDMDL
MODEL 6
REMARK VINA RESULT:    -6.335      2.184      3.058
REMARK INTER + INTRA:         -10.036
REMARK INTER:                  -8.655
REMARK INTRA:                  -1.381
REMARK UNBOUND:                -1.294
REMARK SMILES O=C([O-])[C@H]1O[C@@H](Oc2cc3oc(-c4ccccc4)cc(=O)c3c(O)c2O)[C@@H](O)[C@H](O)[C@H]1O
REMARK SMILES IDX 7 1 6 2 4 3 31 4 5 5 29 6 27 7 2 8 1 9 3 10 32 11 30 13
REMARK SMILES IDX 28 15 8 17 25 18 9 19 23 20 10 21 22 22 11 23 20 24 12 25
REMARK SMILES IDX 19 26 21 27 26 28 24 30 13 32 14 33 18 34 15 35 17 36 16 37
REMARK H PARENT 32 12 30 14 28 16 26 29 24 31
REMARK Flexibility Score: inf
ROOT
ATOM      1  O   UNL     1      12.274  52.982  18.630  1.00  0.00    -0.458 OA
ENDROOT
BRANCH   1   2
ATOM      2  C   UNL     1      12.867  54.228  18.245  1.00  0.00     0.339 C 
ATOM      3  C   UNL     1      14.160  53.298  16.478  1.00  0.00     0.199 C 
ATOM      4  C   UNL     1      15.480  53.486  17.274  1.00  0.00     0.180 C 
ATOM      5  O   UNL     1      13.154  54.234  16.853  1.00  0.00    -0.328 OA
ATOM      6  C   UNL     1      15.224  53.532  18.789  1.00  0.00     0.181 C 
ATOM      7  C   UNL     1      14.122  54.552  19.082  1.00  0.00     0.214 C 
BRANCH   3   8
ATOM      8  C   UNL     1      13.622  51.885  16.447  1.00  0.00     0.073 C 
ATOM      9  O   UNL     1      12.582  51.633  15.783  1.00  0.00    -0.547 OA
ATOM     10  O   UNL     1      14.234  50.860  17.159  1.00  0.00    -0.547 OA
ENDBRANCH   3   8
BRANCH   4  11
ATOM     11  O   UNL     1      16.398  52.466  16.976  1.00  0.00    -0.387 OA
ATOM     12  H   UNL     1      15.913  51.796  16.427  1.00  0.00     0.211 HD
ENDBRANCH   4  11
BRANCH   6  13
ATOM     13  O   UNL     1      16.396  53.915  19.462  1.00  0.00    -0.387 OA
ATOM     14  H   UNL     1      17.048  54.199  18.768  1.00  0.00     0.211 HD
ENDBRANCH   6  13
BRANCH   7  15
ATOM     15  O   UNL     1      13.826  54.545  20.454  1.00  0.00    -0.384 OA
ATOM     16  H   UNL     1      14.398  55.240  20.874  1.00  0.00     0.211 HD
ENDBRANCH   7  15
ENDBRANCH   1   2
BRANCH   1  17
ATOM     17  C   UNL     1      11.009  52.886  19.216  1.00  0.00     0.172 A 
ATOM     18  C   UNL     1      10.853  52.760  20.609  1.00  0.00     0.201 A 
ATOM     19  C   UNL     1       9.885  52.932  18.391  1.00  0.00     0.098 A 
ATOM     20  C   UNL     1       9.567  52.605  21.162  1.00  0.00     0.176 A 
ATOM     21  C   UNL     1       8.605  52.792  18.925  1.00  0.00     0.146 A 
ATOM     22  C   UNL     1       8.430  52.618  20.318  1.00  0.00     0.111 A 
ATOM     23  O   UNL     1       7.555  52.820  18.110  1.00  0.00    -0.456 OA
ATOM     24  C   UNL     1       7.112  52.467  20.795  1.00  0.00     0.197 A 
ATOM     25  C   UNL     1       6.299  52.693  18.530  1.00  0.00     0.138 A 
ATOM     26  C   UNL     1       6.044  52.503  19.897  1.00  0.00     0.100 A 
ATOM     27  O   UNL     1       6.872  52.294  22.021  1.00  0.00    -0.289 OA
BRANCH  18  28
ATOM     28  O   UNL     1      11.958  52.815  21.461  1.00  0.00    -0.502 OA
ATOM     29  H   UNL     1      11.867  52.875  22.468  1.00  0.00     0.293 HD
ENDBRANCH  18  28
BRANCH  20  30
ATOM     30  O   UNL     1       9.417  52.453  22.543  1.00  0.00    -0.504 OA
ATOM     31  H   UNL     1       8.662  51.918  22.953  1.00  0.00     0.293 HD
ENDBRANCH  20  30
BRANCH  25  32
ATOM     32  C   UNL     1       5.204  52.739  17.528  1.00  0.00     0.017 A 
ATOM     33  C   UNL     1       5.024  51.655  16.648  1.00  0.00     0.012 A 
ATOM     34  C   UNL     1       4.353  53.857  17.410  1.00  0.00     0.012 A 
ATOM     35  C   UNL     1       4.005  51.679  15.691  1.00  0.00     0.001 A 
ATOM     36  C   UNL     1       3.336  53.875  16.450  1.00  0.00     0.001 A 
ATOM     37  C   UNL     1       3.160  52.786  15.594  1.00  0.00     0.000 A 
ENDBRANCH  25  32
ENDBRANCH   1  17
TORSDOF 9
ENDMDL
MODEL 7
REMARK VINA RESULT:    -6.249      1.920      2.671
REMARK INTER + INTRA:          -9.917
REMARK INTER:                  -8.481
REMARK INTRA:                  -1.437
REMARK UNBOUND:                -1.294
REMARK SMILES O=C([O-])[C@H]1O[C@@H](Oc2cc3oc(-c4ccccc4)cc(=O)c3c(O)c2O)[C@@H](O)[C@H](O)[C@H]1O
REMARK SMILES IDX 7 1 6 2 4 3 31 4 5 5 29 6 27 7 2 8 1 9 3 10 32 11 30 13
REMARK SMILES IDX 28 15 8 17 25 18 9 19 23 20 10 21 22 22 11 23 20 24 12 25
REMARK SMILES IDX 19 26 21 27 26 28 24 30 13 32 14 33 18 34 15 35 17 36 16 37
REMARK H PARENT 32 12 30 14 28 16 26 29 24 31
REMARK Flexibility Score: inf
ROOT
ATOM      1  O   UNL     1      12.342  51.703  18.353  1.00  0.00    -0.458 OA
ENDROOT
BRANCH   1   2
ATOM      2  C   UNL     1      13.352  52.652  17.990  1.00  0.00     0.339 C 
ATOM      3  C   UNL     1      12.986  52.448  15.649  1.00  0.00     0.199 C 
ATOM      4  C   UNL     1      14.329  51.692  15.451  1.00  0.00     0.180 C 
ATOM      5  O   UNL     1      13.003  53.313  16.780  1.00  0.00    -0.328 OA
ATOM      6  C   UNL     1      14.779  50.994  16.745  1.00  0.00     0.181 C 
ATOM      7  C   UNL     1      14.748  52.001  17.896  1.00  0.00     0.214 C 
BRANCH   3   8
ATOM      8  C   UNL     1      11.749  51.579  15.630  1.00  0.00     0.073 C 
ATOM      9  O   UNL     1      10.613  52.121  15.583  1.00  0.00    -0.547 OA
ATOM     10  O   UNL     1      11.835  50.193  15.692  1.00  0.00    -0.547 OA
ENDBRANCH   3   8
BRANCH   4  11
ATOM     11  O   UNL     1      14.230  50.754  14.411  1.00  0.00    -0.387 OA
ATOM     12  H   UNL     1      15.057  50.205  14.441  1.00  0.00     0.211 HD
ENDBRANCH   4  11
BRANCH   6  13
ATOM     13  O   UNL     1      16.088  50.506  16.595  1.00  0.00    -0.387 OA
ATOM     14  H   UNL     1      16.408  50.254  17.500  1.00  0.00     0.211 HD
ENDBRANCH   6  13
BRANCH   7  15
ATOM     15  O   UNL     1      15.082  51.354  19.097  1.00  0.00    -0.384 OA
ATOM     16  H   UNL     1      14.774  50.414  19.010  1.00  0.00     0.211 HD
ENDBRANCH   7  15
ENDBRANCH   1   2
BRANCH   1  17
ATOM     17  C   UNL     1      11.387  51.945  19.344  1.00  0.00     0.172 A 
ATOM     18  C   UNL     1      11.709  51.857  20.712  1.00  0.00     0.201 A 
ATOM     19  C   UNL     1      10.093  52.294  18.955  1.00  0.00     0.098 A 
ATOM     20  C   UNL     1      10.709  52.048  21.684  1.00  0.00     0.176 A 
ATOM     21  C   UNL     1       9.096  52.499  19.908  1.00  0.00     0.146 A 
ATOM     22  C   UNL     1       9.389  52.369  21.285  1.00  0.00     0.111 A 
ATOM     23  O   UNL     1       7.868  52.811  19.503  1.00  0.00    -0.456 OA
ATOM     24  C   UNL     1       8.334  52.573  22.198  1.00  0.00     0.197 A 
ATOM     25  C   UNL     1       6.855  53.021  20.339  1.00  0.00     0.138 A 
ATOM     26  C   UNL     1       7.063  52.899  21.722  1.00  0.00     0.100 A 
ATOM     27  O   UNL     1       8.510  52.463  23.442  1.00  0.00    -0.289 OA
BRANCH  18  28
ATOM     28  O   UNL     1      13.020  51.610  21.123  1.00  0.00    -0.502 OA
ATOM     29  H   UNL     1      13.480  50.720  20.975  1.00  0.00     0.293 HD
ENDBRANCH  18  28
BRANCH  20  30
ATOM     30  O   UNL     1      11.027  51.934  23.040  1.00  0.00    -0.504 OA
ATOM     31  H   UNL     1      10.796  51.113  23.586  1.00  0.00     0.293 HD
ENDBRANCH  20  30
BRANCH  25  32
ATOM     32  C   UNL     1       5.524  53.364  19.775  1.00  0.00     0.017 A 
ATOM     33  C   UNL     1       5.321  53.288  18.385  1.00  0.00     0.012 A 
ATOM     34  C   UNL     1       4.461  53.797  20.594  1.00  0.00     0.012 A 
ATOM     35  C   UNL     1       4.080  53.613  17.830  1.00  0.00     0.001 A 
ATOM     36  C   UNL     1       3.222  54.122  20.032  1.00  0.00     0.001 A 
ATOM     37  C   UNL     1       3.031  54.028  18.652  1.00  0.00     0.000 A 
ENDBRANCH  25  32
ENDBRANCH   1  17
TORSDOF 9
ENDMDL
MODEL 8
REMARK VINA RESULT:    -6.246      1.321      2.695
REMARK INTER + INTRA:          -9.913
REMARK INTER:                  -9.031
REMARK INTRA:                  -0.883
REMARK UNBOUND:                -1.294
REMARK SMILES O=C([O-])[C@H]1O[C@@H](Oc2cc3oc(-c4ccccc4)cc(=O)c3c(O)c2O)[C@@H](O)[C@H](O)[C@H]1O
REMARK SMILES IDX 7 1 6 2 4 3 31 4 5 5 29 6 27 7 2 8 1 9 3 10 32 11 30 13
REMARK SMILES IDX 28 15 8 17 25 18 9 19 23 20 10 21 22 22 11 23 20 24 12 25
REMARK SMILES IDX 19 26 21 27 26 28 24 30 13 32 14 33 18 34 15 35 17 36 16 37
REMARK H PARENT 32 12 30 14 28 16 26 29 24 31
REMARK Flexibility Score: inf
ROOT
ATOM      1  O   UNL     1      14.015  51.867  21.176  1.00  0.00    -0.458 OA
ENDROOT
BRANCH   1   2
ATOM      2  C   UNL     1      14.199  52.400  19.859  1.00  0.00     0.339 C 
ATOM      3  C   UNL     1      16.430  51.609  19.632  1.00  0.00     0.199 C 
ATOM      4  C   UNL     1      17.009  53.045  19.756  1.00  0.00     0.180 C 
ATOM      5  O   UNL     1      15.103  51.593  19.116  1.00  0.00    -0.328 OA
ATOM      6  C   UNL     1      16.050  53.976  20.514  1.00  0.00     0.181 C 
ATOM      7  C   UNL     1      14.656  53.874  19.893  1.00  0.00     0.214 C 
BRANCH   3   8
ATOM      8  C   UNL     1      16.555  50.754  20.874  1.00  0.00     0.073 C 
ATOM      9  O   UNL     1      16.384  49.510  20.789  1.00  0.00    -0.547 OA
ATOM     10  O   UNL     1      16.829  51.316  22.116  1.00  0.00    -0.547 OA
ENDBRANCH   3   8
BRANCH   4  11
ATOM     11  O   UNL     1      18.261  53.030  20.391  1.00  0.00    -0.387 OA
ATOM     12  H   UNL     1      18.311  52.184  20.908  1.00  0.00     0.211 HD
ENDBRANCH   4  11
BRANCH   6  13
ATOM     13  O   UNL     1      16.499  55.304  20.422  1.00  0.00    -0.387 OA
ATOM     14  H   UNL     1      16.663  55.619  21.349  1.00  0.00     0.211 HD
ENDBRANCH   6  13
BRANCH   7  15
ATOM     15  O   UNL     1      13.754  54.662  20.627  1.00  0.00    -0.384 OA
ATOM     16  H   UNL     1      14.281  55.110  21.340  1.00  0.00     0.211 HD
ENDBRANCH   7  15
ENDBRANCH   1   2
BRANCH   1  17
ATOM     17  C   UNL     1      12.776  51.839  21.823  1.00  0.00     0.172 A 
ATOM     18  C   UNL     1      12.664  51.482  23.180  1.00  0.00     0.201 A 
ATOM     19  C   UNL     1      11.636  52.189  21.099  1.00  0.00     0.098 A 
ATOM     20  C   UNL     1      11.395  51.405  23.785  1.00  0.00     0.176 A 
ATOM     21  C   UNL     1      10.373  52.129  21.689  1.00  0.00     0.146 A 
ATOM     22  C   UNL     1      10.237  51.727  23.037  1.00  0.00     0.111 A 
ATOM     23  O   UNL     1       9.305  52.449  20.966  1.00  0.00    -0.456 OA
ATOM     24  C   UNL     1       8.933  51.673  23.572  1.00  0.00     0.197 A 
ATOM     25  C   UNL     1       8.063  52.420  21.443  1.00  0.00     0.138 A 
ATOM     26  C   UNL     1       7.844  52.019  22.771  1.00  0.00     0.100 A 
ATOM     27  O   UNL     1       8.725  51.312  24.763  1.00  0.00    -0.289 OA
BRANCH  18  28
ATOM     28  O   UNL     1      13.802  51.229  23.949  1.00  0.00    -0.502 OA
ATOM     29  H   UNL     1      14.663  51.748  23.834  1.00  0.00     0.293 HD
ENDBRANCH  18  28
BRANCH  20  30
ATOM     30  O   UNL     1      11.286  51.024  25.125  1.00  0.00    -0.504 OA
ATOM     31  H   UNL     1      10.891  51.631  25.833  1.00  0.00     0.293 HD
ENDBRANCH  20  30
BRANCH  25  32
ATOM     32  C   UNL     1       6.944  52.798  20.544  1.00  0.00     0.017 A 
ATOM     33  C   UNL     1       5.960  53.694  21.002  1.00  0.00     0.012 A 
ATOM     34  C   UNL     1       6.818  52.257  19.248  1.00  0.00     0.012 A 
ATOM     35  C   UNL     1       4.892  54.059  20.177  1.00  0.00     0.001 A 
ATOM     36  C   UNL     1       5.747  52.625  18.428  1.00  0.00     0.001 A 
ATOM     37  C   UNL     1       4.786  53.527  18.891  1.00  0.00     0.000 A 
ENDBRANCH  25  32
ENDBRANCH   1  17
TORSDOF 9
ENDMDL
MODEL 9
REMARK VINA RESULT:    -6.212      3.521      6.917
REMARK INTER + INTRA:          -9.867
REMARK INTER:                  -8.411
REMARK INTRA:                  -1.455
REMARK UNBOUND:                -1.294
REMARK SMILES O=C([O-])[C@H]1O[C@@H](Oc2cc3oc(-c4ccccc4)cc(=O)c3c(O)c2O)[C@@H](O)[C@H](O)[C@H]1O
REMARK SMILES IDX 7 1 6 2 4 3 31 4 5 5 29 6 27 7 2 8 1 9 3 10 32 11 30 13
REMARK SMILES IDX 28 15 8 17 25 18 9 19 23 20 10 21 22 22 11 23 20 24 12 25
REMARK SMILES IDX 19 26 21 27 26 28 24 30 13 32 14 33 18 34 15 35 17 36 16 37
REMARK H PARENT 32 12 30 14 28 16 26 29 24 31
REMARK Flexibility Score: inf
ROOT
ATOM      1  O   UNL     1      10.910  52.515  15.974  1.00  0.00    -0.458 OA
ENDROOT
BRANCH   1   2
ATOM      2  C   UNL     1      10.811  51.415  15.060  1.00  0.00     0.339 C 
ATOM      3  C   UNL     1      13.082  51.527  14.364  1.00  0.00     0.199 C 
ATOM      4  C   UNL     1      12.683  52.078  12.968  1.00  0.00     0.180 C 
ATOM      5  O   UNL     1      12.056  50.738  14.957  1.00  0.00    -0.328 OA
ATOM      6  C   UNL     1      11.318  52.785  13.009  1.00  0.00     0.181 C 
ATOM      7  C   UNL     1      10.296  51.862  13.675  1.00  0.00     0.214 C 
BRANCH   3   8
ATOM      8  C   UNL     1      13.625  52.555  15.331  1.00  0.00     0.073 C 
ATOM      9  O   UNL     1      14.072  52.180  16.447  1.00  0.00    -0.547 OA
ATOM     10  O   UNL     1      13.616  53.912  15.028  1.00  0.00    -0.547 OA
ENDBRANCH   3   8
BRANCH   4  11
ATOM     11  O   UNL     1      13.660  52.957  12.475  1.00  0.00    -0.387 OA
ATOM     12  H   UNL     1      14.126  53.341  13.264  1.00  0.00     0.211 HD
ENDBRANCH   4  11
BRANCH   6  13
ATOM     13  O   UNL     1      10.891  53.079  11.704  1.00  0.00    -0.387 OA
ATOM     14  H   UNL     1      10.192  52.413  11.471  1.00  0.00     0.211 HD
ENDBRANCH   6  13
BRANCH   7  15
ATOM     15  O   UNL     1       9.064  52.528  13.789  1.00  0.00    -0.384 OA
ATOM     16  H   UNL     1       8.710  52.634  12.867  1.00  0.00     0.211 HD
ENDBRANCH   7  15
ENDBRANCH   1   2
BRANCH   1  17
ATOM     17  C   UNL     1      10.296  52.522  17.230  1.00  0.00     0.172 A 
ATOM     18  C   UNL     1       8.942  52.874  17.383  1.00  0.00     0.201 A 
ATOM     19  C   UNL     1      11.051  52.156  18.345  1.00  0.00     0.098 A 
ATOM     20  C   UNL     1       8.370  52.929  18.668  1.00  0.00     0.176 A 
ATOM     21  C   UNL     1      10.495  52.195  19.623  1.00  0.00     0.146 A 
ATOM     22  C   UNL     1       9.149  52.590  19.801  1.00  0.00     0.111 A 
ATOM     23  O   UNL     1      11.246  51.859  20.667  1.00  0.00    -0.456 OA
ATOM     24  C   UNL     1       8.649  52.623  21.120  1.00  0.00     0.197 A 
ATOM     25  C   UNL     1      10.801  51.868  21.920  1.00  0.00     0.138 A 
ATOM     26  C   UNL     1       9.480  52.262  22.181  1.00  0.00     0.100 A 
ATOM     27  O   UNL     1       7.464  52.977  21.365  1.00  0.00    -0.289 OA
BRANCH  18  28
ATOM     28  O   UNL     1       8.143  53.142  16.270  1.00  0.00    -0.502 OA
ATOM     29  H   UNL     1       8.260  52.662  15.386  1.00  0.00     0.293 HD
ENDBRANCH  18  28
BRANCH  20  30
ATOM     30  O   UNL     1       7.033  53.305  18.819  1.00  0.00    -0.504 OA
ATOM     31  H   UNL     1       6.750  54.267  18.952  1.00  0.00     0.293 HD
ENDBRANCH  20  30
BRANCH  25  32
ATOM     32  C   UNL     1      11.731  51.475  23.010  1.00  0.00     0.017 A 
ATOM     33  C   UNL     1      13.088  51.837  22.927  1.00  0.00     0.012 A 
ATOM     34  C   UNL     1      11.297  50.718  24.117  1.00  0.00     0.012 A 
ATOM     35  C   UNL     1      13.984  51.472  23.936  1.00  0.00     0.001 A 
ATOM     36  C   UNL     1      12.198  50.354  25.124  1.00  0.00     0.001 A 
ATOM     37  C   UNL     1      13.540  50.733  25.034  1.00  0.00     0.000 A 
ENDBRANCH  25  32
ENDBRANCH   1  17
TORSDOF 9
ENDMDL
