MODEL 1
REMARK VINA RESULT:    -3.844      0.000      0.000
REMARK INTER + INTRA:          -5.494
REMARK INTER:                  -5.192
REMARK INTRA:                  -0.302
REMARK UNBOUND:                -0.302
REMARK SMILES CCCCCCCC(=O)[O-]
REMARK SMILES IDX 5 1 6 2 7 3 8 4 9 5 10 6 4 7 3 8 2 9 1 10
REMARK H PARENT
REMARK Flexibility Score: inf
ROOT
ATOM      1  C   UNL     1     -10.548  -4.683  -4.473  1.00  0.00     0.000 C 
ENDROOT
BRANCH   1   2
ATOM      2  C   UNL     1     -10.924  -4.575  -2.987  1.00  0.00     0.006 C 
BRANCH   2   3
ATOM      3  C   UNL     1     -10.349  -3.313  -2.332  1.00  0.00     0.053 C 
BRANCH   3   4
ATOM      4  C   UNL     1      -8.933  -3.517  -1.883  1.00  0.00     0.041 C 
ATOM      5  O   UNL     1      -8.126  -2.552  -1.875  1.00  0.00    -0.550 OA
ATOM      6  O   UNL     1      -8.500  -4.781  -1.504  1.00  0.00    -0.550 OA
ENDBRANCH   3   4
ENDBRANCH   2   3
ENDBRANCH   1   2
BRANCH   1   7
ATOM      7  C   UNL     1     -10.822  -6.096  -5.007  1.00  0.00     0.000 C 
BRANCH   7   8
ATOM      8  C   UNL     1      -9.583  -6.745  -5.651  1.00  0.00    -0.000 C 
BRANCH   8   9
ATOM      9  C   UNL     1      -8.239  -6.113  -5.248  1.00  0.00    -0.003 C 
ATOM     10  C   UNL     1      -7.083  -7.113  -5.249  1.00  0.00     0.004 C 
ENDBRANCH   8   9
ENDBRANCH   7   8
ENDBRANCH   1   7
TORSDOF 6
ENDMDL
MODEL 2
REMARK VINA RESULT:    -3.734      2.431      4.779
REMARK INTER + INTRA:          -5.345
REMARK INTER:                  -5.188
REMARK INTRA:                  -0.157
REMARK UNBOUND:                -0.302
REMARK SMILES CCCCCCCC(=O)[O-]
REMARK SMILES IDX 5 1 6 2 7 3 8 4 9 5 10 6 4 7 3 8 2 9 1 10
REMARK H PARENT
REMARK Flexibility Score: inf
ROOT
ATOM      1  C   UNL     1     -10.443  -4.909  -4.875  1.00  0.00     0.000 C 
ENDROOT
BRANCH   1   2
ATOM      2  C   UNL     1     -10.149  -6.372  -5.242  1.00  0.00     0.006 C 
BRANCH   2   3
ATOM      3  C   UNL     1      -9.140  -6.491  -6.392  1.00  0.00     0.053 C 
BRANCH   3   4
ATOM      4  C   UNL     1      -7.746  -6.712  -5.885  1.00  0.00     0.041 C 
ATOM      5  O   UNL     1      -7.546  -7.436  -4.875  1.00  0.00    -0.550 OA
ATOM      6  O   UNL     1      -6.673  -6.092  -6.511  1.00  0.00    -0.550 OA
ENDBRANCH   3   4
ENDBRANCH   2   3
ENDBRANCH   1   2
BRANCH   1   7
ATOM      7  C   UNL     1     -11.084  -4.811  -3.484  1.00  0.00     0.000 C 
BRANCH   7   8
ATOM      8  C   UNL     1     -10.717  -3.511  -2.744  1.00  0.00    -0.000 C 
BRANCH   8   9
ATOM      9  C   UNL     1     -10.051  -3.713  -1.372  1.00  0.00    -0.003 C 
ATOM     10  C   UNL     1     -11.059  -3.806  -0.226  1.00  0.00     0.004 C 
ENDBRANCH   8   9
ENDBRANCH   7   8
ENDBRANCH   1   7
TORSDOF 6
ENDMDL
MODEL 3
REMARK VINA RESULT:    -3.671      2.649      4.495
REMARK INTER + INTRA:          -5.260
REMARK INTER:                  -4.849
REMARK INTRA:                  -0.411
REMARK UNBOUND:                -0.302
REMARK SMILES CCCCCCCC(=O)[O-]
REMARK SMILES IDX 5 1 6 2 7 3 8 4 9 5 10 6 4 7 3 8 2 9 1 10
REMARK H PARENT
REMARK Flexibility Score: inf
ROOT
ATOM      1  C   UNL     1     -11.019  -5.534  -4.549  1.00  0.00     0.000 C 
ENDROOT
BRANCH   1   2
ATOM      2  C   UNL     1     -10.051  -6.428  -5.340  1.00  0.00     0.006 C 
BRANCH   2   3
ATOM      3  C   UNL     1      -8.582  -6.097  -5.046  1.00  0.00     0.053 C 
BRANCH   3   4
ATOM      4  C   UNL     1      -7.653  -6.847  -5.951  1.00  0.00     0.041 C 
ATOM      5  O   UNL     1      -7.933  -6.991  -7.170  1.00  0.00    -0.550 OA
ATOM      6  O   UNL     1      -6.492  -7.414  -5.440  1.00  0.00    -0.550 OA
ENDBRANCH   3   4
ENDBRANCH   2   3
ENDBRANCH   1   2
BRANCH   1   7
ATOM      7  C   UNL     1     -10.498  -4.092  -4.477  1.00  0.00     0.000 C 
BRANCH   7   8
ATOM      8  C   UNL     1     -10.995  -3.336  -3.230  1.00  0.00    -0.000 C 
BRANCH   8   9
ATOM      9  C   UNL     1     -10.433  -3.851  -1.894  1.00  0.00    -0.003 C 
ATOM     10  C   UNL     1      -8.909  -3.963  -1.889  1.00  0.00     0.004 C 
ENDBRANCH   8   9
ENDBRANCH   7   8
ENDBRANCH   1   7
TORSDOF 6
ENDMDL
MODEL 4
REMARK VINA RESULT:    -3.528      1.549      2.098
REMARK INTER + INTRA:          -5.067
REMARK INTER:                  -4.692
REMARK INTRA:                  -0.374
REMARK UNBOUND:                -0.302
REMARK SMILES CCCCCCCC(=O)[O-]
REMARK SMILES IDX 5 1 6 2 7 3 8 4 9 5 10 6 4 7 3 8 2 9 1 10
REMARK H PARENT
REMARK Flexibility Score: inf
ROOT
ATOM      1  C   UNL     1     -11.054  -5.832  -4.517  1.00  0.00     0.000 C 
ENDROOT
BRANCH   1   2
ATOM      2  C   UNL     1     -10.908  -4.861  -3.334  1.00  0.00     0.006 C 
BRANCH   2   3
ATOM      3  C   UNL     1      -9.759  -3.864  -3.539  1.00  0.00     0.053 C 
BRANCH   3   4
ATOM      4  C   UNL     1      -8.970  -3.663  -2.281  1.00  0.00     0.041 C 
ATOM      5  O   UNL     1      -8.683  -2.501  -1.891  1.00  0.00    -0.550 OA
ATOM      6  O   UNL     1      -8.524  -4.761  -1.557  1.00  0.00    -0.550 OA
ENDBRANCH   3   4
ENDBRANCH   2   3
ENDBRANCH   1   2
BRANCH   1   7
ATOM      7  C   UNL     1      -9.736  -5.947  -5.297  1.00  0.00     0.000 C 
BRANCH   7   8
ATOM      8  C   UNL     1      -9.943  -6.364  -6.765  1.00  0.00    -0.000 C 
BRANCH   8   9
ATOM      9  C   UNL     1      -9.569  -5.289  -7.801  1.00  0.00    -0.003 C 
ATOM     10  C   UNL     1     -10.574  -4.139  -7.860  1.00  0.00     0.004 C 
ENDBRANCH   8   9
ENDBRANCH   7   8
ENDBRANCH   1   7
TORSDOF 6
ENDMDL
MODEL 5
REMARK VINA RESULT:    -3.244     16.611     17.567
REMARK INTER + INTRA:          -4.683
REMARK INTER:                  -4.565
REMARK INTRA:                  -0.118
REMARK UNBOUND:                -0.302
REMARK SMILES CCCCCCCC(=O)[O-]
REMARK SMILES IDX 5 1 6 2 7 3 8 4 9 5 10 6 4 7 3 8 2 9 1 10
REMARK H PARENT
REMARK Flexibility Score: inf
ROOT
ATOM      1  C   UNL     1      -7.208   6.754   7.842  1.00  0.00     0.000 C 
ENDROOT
BRANCH   1   2
ATOM      2  C   UNL     1      -6.103   7.717   8.301  1.00  0.00     0.006 C 
BRANCH   2   3
ATOM      3  C   UNL     1      -4.735   7.358   7.706  1.00  0.00     0.053 C 
BRANCH   3   4
ATOM      4  C   UNL     1      -3.644   7.449   8.731  1.00  0.00     0.041 C 
ATOM      5  O   UNL     1      -3.466   8.515   9.375  1.00  0.00    -0.550 OA
ATOM      6  O   UNL     1      -2.804   6.364   8.949  1.00  0.00    -0.550 OA
ENDBRANCH   3   4
ENDBRANCH   2   3
ENDBRANCH   1   2
BRANCH   1   7
ATOM      7  C   UNL     1      -8.582   7.213   8.350  1.00  0.00     0.000 C 
BRANCH   7   8
ATOM      8  C   UNL     1      -9.712   6.960   7.335  1.00  0.00    -0.000 C 
BRANCH   8   9
ATOM      9  C   UNL     1     -10.589   8.186   7.025  1.00  0.00    -0.003 C 
ATOM     10  C   UNL     1     -10.941   8.311   5.543  1.00  0.00     0.004 C 
ENDBRANCH   8   9
ENDBRANCH   7   8
ENDBRANCH   1   7
TORSDOF 6
ENDMDL
MODEL 6
REMARK VINA RESULT:    -3.114      3.639      5.412
REMARK INTER + INTRA:          -4.508
REMARK INTER:                  -4.352
REMARK INTRA:                  -0.156
REMARK UNBOUND:                -0.302
REMARK SMILES CCCCCCCC(=O)[O-]
REMARK SMILES IDX 5 1 6 2 7 3 8 4 9 5 10 6 4 7 3 8 2 9 1 10
REMARK H PARENT
REMARK Flexibility Score: inf
ROOT
ATOM      1  C   UNL     1      -5.742  -6.266  -5.674  1.00  0.00     0.000 C 
ENDROOT
BRANCH   1   2
ATOM      2  C   UNL     1      -7.105  -6.126  -6.370  1.00  0.00     0.006 C 
BRANCH   2   3
ATOM      3  C   UNL     1      -8.231  -6.813  -5.587  1.00  0.00     0.053 C 
BRANCH   3   4
ATOM      4  C   UNL     1      -9.391  -5.891  -5.359  1.00  0.00     0.041 C 
ATOM      5  O   UNL     1      -9.652  -5.475  -4.201  1.00  0.00    -0.550 OA
ATOM      6  O   UNL     1     -10.201  -5.517  -6.424  1.00  0.00    -0.550 OA
ENDBRANCH   3   4
ENDBRANCH   2   3
ENDBRANCH   1   2
BRANCH   1   7
ATOM      7  C   UNL     1      -4.802  -5.120  -6.073  1.00  0.00     0.000 C 
BRANCH   7   8
ATOM      8  C   UNL     1      -3.345  -5.359  -5.636  1.00  0.00    -0.000 C 
BRANCH   8   9
ATOM      9  C   UNL     1      -2.530  -4.080  -5.376  1.00  0.00    -0.003 C 
ATOM     10  C   UNL     1      -3.376  -2.808  -5.436  1.00  0.00     0.004 C 
ENDBRANCH   8   9
ENDBRANCH   7   8
ENDBRANCH   1   7
TORSDOF 6
ENDMDL
MODEL 7
REMARK VINA RESULT:    -3.105      3.280      4.954
REMARK INTER + INTRA:          -4.496
REMARK INTER:                  -4.264
REMARK INTRA:                  -0.232
REMARK UNBOUND:                -0.302
REMARK SMILES CCCCCCCC(=O)[O-]
REMARK SMILES IDX 5 1 6 2 7 3 8 4 9 5 10 6 4 7 3 8 2 9 1 10
REMARK H PARENT
REMARK Flexibility Score: inf
ROOT
ATOM      1  C   UNL     1      -9.879  -5.603  -4.761  1.00  0.00     0.000 C 
ENDROOT
BRANCH   1   2
ATOM      2  C   UNL     1     -10.259  -6.563  -5.899  1.00  0.00     0.006 C 
BRANCH   2   3
ATOM      3  C   UNL     1     -10.253  -5.872  -7.269  1.00  0.00     0.053 C 
BRANCH   3   4
ATOM      4  C   UNL     1      -8.870  -5.789  -7.841  1.00  0.00     0.041 C 
ATOM      5  O   UNL     1      -8.564  -4.854  -8.626  1.00  0.00    -0.550 OA
ATOM      6  O   UNL     1      -7.931  -6.764  -7.532  1.00  0.00    -0.550 OA
ENDBRANCH   3   4
ENDBRANCH   2   3
ENDBRANCH   1   2
BRANCH   1   7
ATOM      7  C   UNL     1     -11.120  -5.182  -3.962  1.00  0.00     0.000 C 
BRANCH   7   8
ATOM      8  C   UNL     1     -10.994  -3.771  -3.357  1.00  0.00    -0.000 C 
BRANCH   8   9
ATOM      9  C   UNL     1     -10.427  -3.728  -1.928  1.00  0.00    -0.003 C 
ATOM     10  C   UNL     1      -8.929  -3.428  -1.887  1.00  0.00     0.004 C 
ENDBRANCH   8   9
ENDBRANCH   7   8
ENDBRANCH   1   7
TORSDOF 6
ENDMDL
MODEL 8
REMARK VINA RESULT:    -3.059      3.623      5.268
REMARK INTER + INTRA:          -4.433
REMARK INTER:                  -4.213
REMARK INTRA:                  -0.220
REMARK UNBOUND:                -0.302
REMARK SMILES CCCCCCCC(=O)[O-]
REMARK SMILES IDX 5 1 6 2 7 3 8 4 9 5 10 6 4 7 3 8 2 9 1 10
REMARK H PARENT
REMARK Flexibility Score: inf
ROOT
ATOM      1  C   UNL     1     -10.863  -5.986  -4.466  1.00  0.00     0.000 C 
ENDROOT
BRANCH   1   2
ATOM      2  C   UNL     1     -11.047  -5.743  -5.972  1.00  0.00     0.006 C 
BRANCH   2   3
ATOM      3  C   UNL     1      -9.707  -5.644  -6.713  1.00  0.00     0.053 C 
BRANCH   3   4
ATOM      4  C   UNL     1      -9.553  -6.735  -7.728  1.00  0.00     0.041 C 
ATOM      5  O   UNL     1     -10.567  -7.329  -8.180  1.00  0.00    -0.550 OA
ATOM      6  O   UNL     1      -8.286  -7.116  -8.152  1.00  0.00    -0.550 OA
ENDBRANCH   3   4
ENDBRANCH   2   3
ENDBRANCH   1   2
BRANCH   1   7
ATOM      7  C   UNL     1     -10.939  -4.666  -3.685  1.00  0.00     0.000 C 
BRANCH   7   8
ATOM      8  C   UNL     1      -9.552  -4.108  -3.315  1.00  0.00    -0.000 C 
BRANCH   8   9
ATOM      9  C   UNL     1      -9.367  -3.771  -1.825  1.00  0.00    -0.003 C 
ATOM     10  C   UNL     1     -10.690  -3.624  -1.075  1.00  0.00     0.004 C 
ENDBRANCH   8   9
ENDBRANCH   7   8
ENDBRANCH   1   7
TORSDOF 6
ENDMDL
MODEL 9
REMARK VINA RESULT:    -2.999      1.254      1.828
REMARK INTER + INTRA:          -4.352
REMARK INTER:                  -4.174
REMARK INTRA:                  -0.178
REMARK UNBOUND:                -0.302
REMARK SMILES CCCCCCCC(=O)[O-]
REMARK SMILES IDX 5 1 6 2 7 3 8 4 9 5 10 6 4 7 3 8 2 9 1 10
REMARK H PARENT
REMARK Flexibility Score: inf
ROOT
ATOM      1  C   UNL     1     -10.127  -5.922  -4.698  1.00  0.00     0.000 C 
ENDROOT
BRANCH   1   2
ATOM      2  C   UNL     1     -10.270  -4.414  -4.439  1.00  0.00     0.006 C 
BRANCH   2   3
ATOM      3  C   UNL     1     -10.959  -4.118  -3.100  1.00  0.00     0.053 C 
BRANCH   3   4
ATOM      4  C   UNL     1      -9.989  -3.611  -2.077  1.00  0.00     0.041 C 
ATOM      5  O   UNL     1     -10.268  -3.674  -0.852  1.00  0.00    -0.550 OA
ATOM      6  O   UNL     1      -8.789  -3.039  -2.481  1.00  0.00    -0.550 OA
ENDBRANCH   3   4
ENDBRANCH   2   3
ENDBRANCH   1   2
BRANCH   1   7
ATOM      7  C   UNL     1      -9.181  -6.188  -5.878  1.00  0.00     0.000 C 
BRANCH   7   8
ATOM      8  C   UNL     1      -7.739  -6.497  -5.433  1.00  0.00    -0.000 C 
BRANCH   8   9
ATOM      9  C   UNL     1      -6.644  -5.791  -6.252  1.00  0.00    -0.003 C 
ATOM     10  C   UNL     1      -5.234  -6.067  -5.730  1.00  0.00     0.004 C 
ENDBRANCH   8   9
ENDBRANCH   7   8
ENDBRANCH   1   7
TORSDOF 6
ENDMDL
