MODEL 1
REMARK VINA RESULT:    -2.717      0.000      0.000
REMARK INTER + INTRA:          -3.046
REMARK INTER:                  -3.034
REMARK INTRA:                  -0.011
REMARK UNBOUND:                -0.011
REMARK SMILES CCCC(=O)[O-]
REMARK SMILES IDX 3 1 4 2 5 3 6 4 2 5 1 6
REMARK H PARENT
REMARK Flexibility Score: inf
ROOT
ATOM      1  C   UNL     1     189.304 196.695 173.113  1.00  0.00     0.052 C 
ENDROOT
BRANCH   1   2
ATOM      2  C   UNL     1     188.123 197.040 173.967  1.00  0.00     0.041 C 
ATOM      3  O   UNL     1     188.285 197.653 175.055  1.00  0.00    -0.550 OA
ATOM      4  O   UNL     1     186.841 196.715 173.546  1.00  0.00    -0.550 OA
ENDBRANCH   1   2
BRANCH   1   5
ATOM      5  C   UNL     1     188.946 196.701 171.621  1.00  0.00     0.003 C 
ATOM      6  C   UNL     1     189.943 197.506 170.787  1.00  0.00     0.004 C 
ENDBRANCH   1   5
TORSDOF 2
ENDMDL
MODEL 2
REMARK VINA RESULT:    -2.653      9.760     10.413
REMARK INTER + INTRA:          -2.974
REMARK INTER:                  -2.950
REMARK INTRA:                  -0.024
REMARK UNBOUND:                -0.011
REMARK SMILES CCCC(=O)[O-]
REMARK SMILES IDX 3 1 4 2 5 3 6 4 2 5 1 6
REMARK H PARENT
REMARK Flexibility Score: inf
ROOT
ATOM      1  C   UNL     1     185.894 187.333 170.469  1.00  0.00     0.052 C 
ENDROOT
BRANCH   1   2
ATOM      2  C   UNL     1     184.439 187.358 170.117  1.00  0.00     0.041 C 
ATOM      3  O   UNL     1     184.073 187.678 168.955  1.00  0.00    -0.550 OA
ATOM      4  O   UNL     1     183.488 186.997 171.062  1.00  0.00    -0.550 OA
ENDBRANCH   1   2
BRANCH   1   5
ATOM      5  C   UNL     1     186.729 188.173 169.493  1.00  0.00     0.003 C 
ATOM      6  C   UNL     1     187.475 189.307 170.194  1.00  0.00     0.004 C 
ENDBRANCH   1   5
TORSDOF 2
ENDMDL
MODEL 3
REMARK VINA RESULT:    -2.644      9.928     10.437
REMARK INTER + INTRA:          -2.964
REMARK INTER:                  -2.895
REMARK INTRA:                  -0.069
REMARK UNBOUND:                -0.011
REMARK SMILES CCCC(=O)[O-]
REMARK SMILES IDX 3 1 4 2 5 3 6 4 2 5 1 6
REMARK H PARENT
REMARK Flexibility Score: inf
ROOT
ATOM      1  C   UNL     1     186.242 187.260 170.599  1.00  0.00     0.052 C 
ENDROOT
BRANCH   1   2
ATOM      2  C   UNL     1     187.424 186.401 170.931  1.00  0.00     0.041 C 
ATOM      3  O   UNL     1     187.740 186.195 172.133  1.00  0.00    -0.550 OA
ATOM      4  O   UNL     1     188.158 185.803 169.916  1.00  0.00    -0.550 OA
ENDBRANCH   1   2
BRANCH   1   5
ATOM      5  C   UNL     1     186.597 188.337 169.566  1.00  0.00     0.003 C 
ATOM      6  C   UNL     1     187.576 189.372 170.119  1.00  0.00     0.004 C 
ENDBRANCH   1   5
TORSDOF 2
ENDMDL
MODEL 4
REMARK VINA RESULT:    -2.579      9.402      9.985
REMARK INTER + INTRA:          -2.891
REMARK INTER:                  -2.856
REMARK INTRA:                  -0.035
REMARK UNBOUND:                -0.011
REMARK SMILES CCCC(=O)[O-]
REMARK SMILES IDX 3 1 4 2 5 3 6 4 2 5 1 6
REMARK H PARENT
REMARK Flexibility Score: inf
ROOT
ATOM      1  C   UNL     1     186.458 188.194 169.586  1.00  0.00     0.052 C 
ENDROOT
BRANCH   1   2
ATOM      2  C   UNL     1     185.943 187.211 170.592  1.00  0.00     0.041 C 
ATOM      3  O   UNL     1     184.704 187.076 170.770  1.00  0.00    -0.550 OA
ATOM      4  O   UNL     1     186.831 186.422 171.312  1.00  0.00    -0.550 OA
ENDBRANCH   1   2
BRANCH   1   5
ATOM      5  C   UNL     1     187.490 189.148 170.202  1.00  0.00     0.003 C 
ATOM      6  C   UNL     1     188.917 188.825 169.759  1.00  0.00     0.004 C 
ENDBRANCH   1   5
TORSDOF 2
ENDMDL
MODEL 5
REMARK VINA RESULT:    -2.568     10.135     10.787
REMARK INTER + INTRA:          -2.880
REMARK INTER:                  -2.830
REMARK INTRA:                  -0.049
REMARK UNBOUND:                -0.011
REMARK SMILES CCCC(=O)[O-]
REMARK SMILES IDX 3 1 4 2 5 3 6 4 2 5 1 6
REMARK H PARENT
REMARK Flexibility Score: inf
ROOT
ATOM      1  C   UNL     1     186.299 186.959 170.820  1.00  0.00     0.052 C 
ENDROOT
BRANCH   1   2
ATOM      2  C   UNL     1     185.524 186.719 169.561  1.00  0.00     0.041 C 
ATOM      3  O   UNL     1     185.800 185.734 168.825  1.00  0.00    -0.550 OA
ATOM      4  O   UNL     1     184.477 187.563 169.216  1.00  0.00    -0.550 OA
ENDBRANCH   1   2
BRANCH   1   5
ATOM      5  C   UNL     1     187.640 187.649 170.537  1.00  0.00     0.003 C 
ATOM      6  C   UNL     1     187.476 189.139 170.239  1.00  0.00     0.004 C 
ENDBRANCH   1   5
TORSDOF 2
ENDMDL
MODEL 6
REMARK VINA RESULT:    -2.561      2.589      3.450
REMARK INTER + INTRA:          -2.872
REMARK INTER:                  -2.861
REMARK INTRA:                  -0.011
REMARK UNBOUND:                -0.011
REMARK SMILES CCCC(=O)[O-]
REMARK SMILES IDX 3 1 4 2 5 3 6 4 2 5 1 6
REMARK H PARENT
REMARK Flexibility Score: inf
ROOT
ATOM      1  C   UNL     1     188.606 196.509 171.942  1.00  0.00     0.052 C 
ENDROOT
BRANCH   1   2
ATOM      2  C   UNL     1     189.940 197.023 171.494  1.00  0.00     0.041 C 
ATOM      3  O   UNL     1     190.767 197.461 172.337  1.00  0.00    -0.550 OA
ATOM      4  O   UNL     1     190.283 196.989 170.149  1.00  0.00    -0.550 OA
ENDBRANCH   1   2
BRANCH   1   5
ATOM      5  C   UNL     1     188.326 196.864 173.409  1.00  0.00     0.003 C 
ATOM      6  C   UNL     1     186.894 196.528 173.824  1.00  0.00     0.004 C 
ENDBRANCH   1   5
TORSDOF 2
ENDMDL
MODEL 7
REMARK VINA RESULT:    -2.548     10.797     11.416
REMARK INTER + INTRA:          -2.858
REMARK INTER:                  -2.787
REMARK INTRA:                  -0.071
REMARK UNBOUND:                -0.011
REMARK SMILES CCCC(=O)[O-]
REMARK SMILES IDX 3 1 4 2 5 3 6 4 2 5 1 6
REMARK H PARENT
REMARK Flexibility Score: inf
ROOT
ATOM      1  C   UNL     1     186.626 187.330 169.147  1.00  0.00     0.052 C 
ENDROOT
BRANCH   1   2
ATOM      2  C   UNL     1     186.159 186.958 170.521  1.00  0.00     0.041 C 
ATOM      3  O   UNL     1     184.949 187.102 170.841  1.00  0.00    -0.550 OA
ATOM      4  O   UNL     1     187.053 186.422 171.439  1.00  0.00    -0.550 OA
ENDBRANCH   1   2
BRANCH   1   5
ATOM      5  C   UNL     1     185.995 186.435 168.073  1.00  0.00     0.003 C 
ATOM      6  C   UNL     1     186.345 184.960 168.265  1.00  0.00     0.004 C 
ENDBRANCH   1   5
TORSDOF 2
ENDMDL
MODEL 8
REMARK VINA RESULT:    -2.509      1.790      3.249
REMARK INTER + INTRA:          -2.814
REMARK INTER:                  -2.794
REMARK INTRA:                  -0.020
REMARK UNBOUND:                -0.011
REMARK SMILES CCCC(=O)[O-]
REMARK SMILES IDX 3 1 4 2 5 3 6 4 2 5 1 6
REMARK H PARENT
REMARK Flexibility Score: inf
ROOT
ATOM      1  C   UNL     1     189.219 196.982 174.082  1.00  0.00     0.052 C 
ENDROOT
BRANCH   1   2
ATOM      2  C   UNL     1     188.166 196.708 173.053  1.00  0.00     0.041 C 
ATOM      3  O   UNL     1     186.946 196.761 173.363  1.00  0.00    -0.550 OA
ATOM      4  O   UNL     1     188.530 196.427 171.742  1.00  0.00    -0.550 OA
ENDBRANCH   1   2
BRANCH   1   5
ATOM      5  C   UNL     1     188.610 197.500 175.392  1.00  0.00     0.003 C 
ATOM      6  C   UNL     1     189.335 196.960 176.624  1.00  0.00     0.004 C 
ENDBRANCH   1   5
TORSDOF 2
ENDMDL
MODEL 9
REMARK VINA RESULT:    -2.462     10.862     11.405
REMARK INTER + INTRA:          -2.761
REMARK INTER:                  -2.742
REMARK INTRA:                  -0.019
REMARK UNBOUND:                -0.011
REMARK SMILES CCCC(=O)[O-]
REMARK SMILES IDX 3 1 4 2 5 3 6 4 2 5 1 6
REMARK H PARENT
REMARK Flexibility Score: inf
ROOT
ATOM      1  C   UNL     1     186.221 187.125 170.627  1.00  0.00     0.052 C 
ENDROOT
BRANCH   1   2
ATOM      2  C   UNL     1     185.419 186.751 169.418  1.00  0.00     0.041 C 
ATOM      3  O   UNL     1     185.719 185.726 168.750  1.00  0.00    -0.550 OA
ATOM      4  O   UNL     1     184.322 187.517 169.046  1.00  0.00    -0.550 OA
ENDBRANCH   1   2
BRANCH   1   5
ATOM      5  C   UNL     1     187.631 186.523 170.580  1.00  0.00     0.003 C 
ATOM      6  C   UNL     1     188.158 186.170 171.971  1.00  0.00     0.004 C 
ENDBRANCH   1   5
TORSDOF 2
ENDMDL
