MODEL 1
REMARK VINA RESULT:    -3.411      0.000      0.000
REMARK INTER + INTRA:          -7.158
REMARK INTER:                  -5.405
REMARK INTRA:                  -1.753
REMARK UNBOUND:                -1.753
REMARK SMILES CCCCCCCCCCCC(=O)[O-]
REMARK SMILES IDX 7 1 8 2 9 3 10 4 11 5 12 6 13 7 14 8 6 9 5 10 4 11 3 12 2 13
REMARK SMILES IDX 1 14
REMARK H PARENT
REMARK Flexibility Score: inf
ROOT
ATOM      1  C   UNL     1     144.455 127.606 114.824  1.00  0.00     0.000 C 
ENDROOT
BRANCH   1   2
ATOM      2  C   UNL     1     143.008 128.023 115.133  1.00  0.00     0.000 C 
BRANCH   2   3
ATOM      3  C   UNL     1     142.608 127.601 116.554  1.00  0.00     0.000 C 
BRANCH   3   4
ATOM      4  C   UNL     1     143.790 127.035 117.359  1.00  0.00     0.006 C 
BRANCH   4   5
ATOM      5  C   UNL     1     144.112 127.874 118.604  1.00  0.00     0.053 C 
BRANCH   5   6
ATOM      6  C   UNL     1     145.569 127.786 118.928  1.00  0.00     0.041 C 
ATOM      7  O   UNL     1     146.345 127.125 118.188  1.00  0.00    -0.550 OA
ATOM      8  O   UNL     1     146.082 128.476 120.019  1.00  0.00    -0.550 OA
ENDBRANCH   5   6
ENDBRANCH   4   5
ENDBRANCH   3   4
ENDBRANCH   2   3
ENDBRANCH   1   2
BRANCH   1   9
ATOM      9  C   UNL     1     145.328 128.786 114.367  1.00  0.00     0.000 C 
BRANCH   9  10
ATOM     10  C   UNL     1     145.994 129.519 115.544  1.00  0.00    -0.000 C 
BRANCH  10  11
ATOM     11  C   UNL     1     145.425 130.932 115.768  1.00  0.00    -0.000 C 
BRANCH  11  12
ATOM     12  C   UNL     1     144.804 131.175 117.157  1.00  0.00    -0.000 C 
BRANCH  12  13
ATOM     13  C   UNL     1     143.271 131.239 117.124  1.00  0.00    -0.003 C 
ATOM     14  C   UNL     1     142.769 131.663 115.747  1.00  0.00     0.004 C 
ENDBRANCH  12  13
ENDBRANCH  11  12
ENDBRANCH  10  11
ENDBRANCH   9  10
ENDBRANCH   1   9
TORSDOF 10
ENDMDL
MODEL 2
REMARK VINA RESULT:    -3.340      2.462      4.484
REMARK INTER + INTRA:          -7.045
REMARK INTER:                  -5.587
REMARK INTRA:                  -1.458
REMARK UNBOUND:                -1.753
REMARK SMILES CCCCCCCCCCCC(=O)[O-]
REMARK SMILES IDX 7 1 8 2 9 3 10 4 11 5 12 6 13 7 14 8 6 9 5 10 4 11 3 12 2 13
REMARK SMILES IDX 1 14
REMARK H PARENT
REMARK Flexibility Score: inf
ROOT
ATOM      1  C   UNL     1     144.326 127.140 114.874  1.00  0.00     0.000 C 
ENDROOT
BRANCH   1   2
ATOM      2  C   UNL     1     145.533 127.918 114.325  1.00  0.00     0.000 C 
BRANCH   2   3
ATOM      3  C   UNL     1     145.290 129.432 114.404  1.00  0.00     0.000 C 
BRANCH   3   4
ATOM      4  C   UNL     1     145.996 130.085 115.604  1.00  0.00     0.006 C 
BRANCH   4   5
ATOM      5  C   UNL     1     145.091 131.065 116.361  1.00  0.00     0.053 C 
BRANCH   5   6
ATOM      6  C   UNL     1     145.521 132.474 116.108  1.00  0.00     0.041 C 
ATOM      7  O   UNL     1     144.664 133.388 115.993  1.00  0.00    -0.550 OA
ATOM      8  O   UNL     1     146.873 132.788 116.048  1.00  0.00    -0.550 OA
ENDBRANCH   5   6
ENDBRANCH   4   5
ENDBRANCH   3   4
ENDBRANCH   2   3
ENDBRANCH   1   2
BRANCH   1   9
ATOM      9  C   UNL     1     143.104 128.039 115.123  1.00  0.00     0.000 C 
BRANCH   9  10
ATOM     10  C   UNL     1     142.355 127.672 116.416  1.00  0.00    -0.000 C 
BRANCH  10  11
ATOM     11  C   UNL     1     143.291 127.159 117.525  1.00  0.00    -0.000 C 
BRANCH  11  12
ATOM     12  C   UNL     1     143.977 128.256 118.361  1.00  0.00    -0.000 C 
BRANCH  12  13
ATOM     13  C   UNL     1     145.334 127.816 118.926  1.00  0.00    -0.003 C 
ATOM     14  C   UNL     1     146.052 126.875 117.962  1.00  0.00     0.004 C 
ENDBRANCH  12  13
ENDBRANCH  11  12
ENDBRANCH  10  11
ENDBRANCH   9  10
ENDBRANCH   1   9
TORSDOF 10
ENDMDL
MODEL 3
REMARK VINA RESULT:    -3.282      1.464      2.919
REMARK INTER + INTRA:          -6.954
REMARK INTER:                  -5.498
REMARK INTRA:                  -1.455
REMARK UNBOUND:                -1.753
REMARK SMILES CCCCCCCCCCCC(=O)[O-]
REMARK SMILES IDX 7 1 8 2 9 3 10 4 11 5 12 6 13 7 14 8 6 9 5 10 4 11 3 12 2 13
REMARK SMILES IDX 1 14
REMARK H PARENT
REMARK Flexibility Score: inf
ROOT
ATOM      1  C   UNL     1     145.543 129.209 114.631  1.00  0.00     0.000 C 
ENDROOT
BRANCH   1   2
ATOM      2  C   UNL     1     145.641 127.706 114.323  1.00  0.00     0.000 C 
BRANCH   2   3
ATOM      3  C   UNL     1     145.536 126.875 115.610  1.00  0.00     0.000 C 
BRANCH   3   4
ATOM      4  C   UNL     1     145.768 127.714 116.878  1.00  0.00     0.006 C 
BRANCH   4   5
ATOM      5  C   UNL     1     145.265 127.016 118.148  1.00  0.00     0.053 C 
BRANCH   5   6
ATOM      6  C   UNL     1     145.226 127.980 119.291  1.00  0.00     0.041 C 
ATOM      7  O   UNL     1     146.179 128.781 119.478  1.00  0.00    -0.550 OA
ATOM      8  O   UNL     1     144.114 128.028 120.123  1.00  0.00    -0.550 OA
ENDBRANCH   5   6
ENDBRANCH   4   5
ENDBRANCH   3   4
ENDBRANCH   2   3
ENDBRANCH   1   2
BRANCH   1   9
ATOM      9  C   UNL     1     144.150 129.786 114.334  1.00  0.00     0.000 C 
BRANCH   9  10
ATOM     10  C   UNL     1     143.472 130.366 115.587  1.00  0.00    -0.000 C 
BRANCH  10  11
ATOM     11  C   UNL     1     142.046 129.828 115.801  1.00  0.00    -0.000 C 
BRANCH  11  12
ATOM     12  C   UNL     1     141.727 128.511 115.068  1.00  0.00    -0.000 C 
BRANCH  12  13
ATOM     13  C   UNL     1     141.911 127.273 115.956  1.00  0.00    -0.003 C 
ATOM     14  C   UNL     1     141.742 127.625 117.431  1.00  0.00     0.004 C 
ENDBRANCH  12  13
ENDBRANCH  11  12
ENDBRANCH  10  11
ENDBRANCH   9  10
ENDBRANCH   1   9
TORSDOF 10
ENDMDL
MODEL 4
REMARK VINA RESULT:    -3.279      1.151      2.763
REMARK INTER + INTRA:          -6.948
REMARK INTER:                  -5.471
REMARK INTRA:                  -1.477
REMARK UNBOUND:                -1.753
REMARK SMILES CCCCCCCCCCCC(=O)[O-]
REMARK SMILES IDX 7 1 8 2 9 3 10 4 11 5 12 6 13 7 14 8 6 9 5 10 4 11 3 12 2 13
REMARK SMILES IDX 1 14
REMARK H PARENT
REMARK Flexibility Score: inf
ROOT
ATOM      1  C   UNL     1     145.503 129.481 114.649  1.00  0.00     0.000 C 
ENDROOT
BRANCH   1   2
ATOM      2  C   UNL     1     146.026 129.922 116.026  1.00  0.00     0.000 C 
BRANCH   2   3
ATOM      3  C   UNL     1     144.886 130.479 116.891  1.00  0.00     0.000 C 
BRANCH   3   4
ATOM      4  C   UNL     1     144.987 130.037 118.361  1.00  0.00     0.006 C 
BRANCH   4   5
ATOM      5  C   UNL     1     144.649 128.553 118.556  1.00  0.00     0.053 C 
BRANCH   5   6
ATOM      6  C   UNL     1     145.817 127.825 119.141  1.00  0.00     0.041 C 
ATOM      7  O   UNL     1     146.360 126.883 118.507  1.00  0.00    -0.550 OA
ATOM      8  O   UNL     1     146.339 128.220 120.367  1.00  0.00    -0.550 OA
ENDBRANCH   5   6
ENDBRANCH   4   5
ENDBRANCH   3   4
ENDBRANCH   2   3
ENDBRANCH   1   2
BRANCH   1   9
ATOM      9  C   UNL     1     145.624 127.964 114.426  1.00  0.00     0.000 C 
BRANCH   9  10
ATOM     10  C   UNL     1     144.578 127.165 115.222  1.00  0.00    -0.000 C 
BRANCH  10  11
ATOM     11  C   UNL     1     143.135 127.448 114.766  1.00  0.00    -0.000 C 
BRANCH  11  12
ATOM     12  C   UNL     1     142.201 128.004 115.858  1.00  0.00    -0.000 C 
BRANCH  12  13
ATOM     13  C   UNL     1     141.219 129.056 115.325  1.00  0.00    -0.003 C 
ATOM     14  C   UNL     1     141.933 130.080 114.447  1.00  0.00     0.004 C 
ENDBRANCH  12  13
ENDBRANCH  11  12
ENDBRANCH  10  11
ENDBRANCH   9  10
ENDBRANCH   1   9
TORSDOF 10
ENDMDL
MODEL 5
REMARK VINA RESULT:    -3.264      2.633      4.363
REMARK INTER + INTRA:          -6.925
REMARK INTER:                  -6.237
REMARK INTRA:                  -0.688
REMARK UNBOUND:                -1.753
REMARK SMILES CCCCCCCCCCCC(=O)[O-]
REMARK SMILES IDX 7 1 8 2 9 3 10 4 11 5 12 6 13 7 14 8 6 9 5 10 4 11 3 12 2 13
REMARK SMILES IDX 1 14
REMARK H PARENT
REMARK Flexibility Score: inf
ROOT
ATOM      1  C   UNL     1     142.687 128.951 114.849  1.00  0.00     0.000 C 
ENDROOT
BRANCH   1   2
ATOM      2  C   UNL     1     144.167 129.366 114.857  1.00  0.00     0.000 C 
BRANCH   2   3
ATOM      3  C   UNL     1     145.069 128.186 114.469  1.00  0.00     0.000 C 
BRANCH   3   4
ATOM      4  C   UNL     1     145.960 127.713 115.629  1.00  0.00     0.006 C 
BRANCH   4   5
ATOM      5  C   UNL     1     145.663 128.452 116.941  1.00  0.00     0.053 C 
BRANCH   5   6
ATOM      6  C   UNL     1     145.457 127.474 118.054  1.00  0.00     0.041 C 
ATOM      7  O   UNL     1     146.392 127.225 118.859  1.00  0.00    -0.550 OA
ATOM      8  O   UNL     1     144.216 126.875 118.233  1.00  0.00    -0.550 OA
ENDBRANCH   5   6
ENDBRANCH   4   5
ENDBRANCH   3   4
ENDBRANCH   2   3
ENDBRANCH   1   2
BRANCH   1   9
ATOM      9  C   UNL     1     142.477 127.492 115.285  1.00  0.00     0.000 C 
BRANCH   9  10
ATOM     10  C   UNL     1     141.161 126.900 114.752  1.00  0.00    -0.000 C 
BRANCH  10  11
ATOM     11  C   UNL     1     139.916 127.643 115.270  1.00  0.00    -0.000 C 
BRANCH  11  12
ATOM     12  C   UNL     1     138.591 127.253 114.590  1.00  0.00    -0.000 C 
BRANCH  12  13
ATOM     13  C   UNL     1     138.513 127.708 113.126  1.00  0.00    -0.003 C 
ATOM     14  C   UNL     1     138.896 129.179 112.987  1.00  0.00     0.004 C 
ENDBRANCH  12  13
ENDBRANCH  11  12
ENDBRANCH  10  11
ENDBRANCH   9  10
ENDBRANCH   1   9
TORSDOF 10
ENDMDL
MODEL 6
REMARK VINA RESULT:    -3.229      2.647      4.403
REMARK INTER + INTRA:          -6.870
REMARK INTER:                  -5.540
REMARK INTRA:                  -1.330
REMARK UNBOUND:                -1.753
REMARK SMILES CCCCCCCCCCCC(=O)[O-]
REMARK SMILES IDX 7 1 8 2 9 3 10 4 11 5 12 6 13 7 14 8 6 9 5 10 4 11 3 12 2 13
REMARK SMILES IDX 1 14
REMARK H PARENT
REMARK Flexibility Score: inf
ROOT
ATOM      1  C   UNL     1     145.097 131.005 115.791  1.00  0.00     0.000 C 
ENDROOT
BRANCH   1   2
ATOM      2  C   UNL     1     143.755 130.464 116.311  1.00  0.00     0.000 C 
BRANCH   2   3
ATOM      3  C   UNL     1     142.603 130.871 115.381  1.00  0.00     0.000 C 
BRANCH   3   4
ATOM      4  C   UNL     1     141.478 129.825 115.338  1.00  0.00     0.006 C 
BRANCH   4   5
ATOM      5  C   UNL     1     141.999 128.407 115.070  1.00  0.00     0.053 C 
BRANCH   5   6
ATOM      6  C   UNL     1     141.050 127.390 115.621  1.00  0.00     0.041 C 
ATOM      7  O   UNL     1     140.172 126.876 114.880  1.00  0.00    -0.550 OA
ATOM      8  O   UNL     1     141.167 126.973 116.941  1.00  0.00    -0.550 OA
ENDBRANCH   5   6
ENDBRANCH   4   5
ENDBRANCH   3   4
ENDBRANCH   2   3
ENDBRANCH   1   2
BRANCH   1   9
ATOM      9  C   UNL     1     146.058 129.887 115.353  1.00  0.00     0.000 C 
BRANCH   9  10
ATOM     10  C   UNL     1     145.440 128.958 114.295  1.00  0.00    -0.000 C 
BRANCH  10  11
ATOM     11  C   UNL     1     145.760 127.473 114.541  1.00  0.00    -0.000 C 
BRANCH  11  12
ATOM     12  C   UNL     1     146.053 127.102 116.007  1.00  0.00    -0.000 C 
BRANCH  12  13
ATOM     13  C   UNL     1     144.780 126.875 116.833  1.00  0.00    -0.003 C 
ATOM     14  C   UNL     1     144.913 127.485 118.226  1.00  0.00     0.004 C 
ENDBRANCH  12  13
ENDBRANCH  11  12
ENDBRANCH  10  11
ENDBRANCH   9  10
ENDBRANCH   1   9
TORSDOF 10
ENDMDL
MODEL 7
REMARK VINA RESULT:    -3.186      2.682      3.746
REMARK INTER + INTRA:          -6.800
REMARK INTER:                  -6.033
REMARK INTRA:                  -0.767
REMARK UNBOUND:                -1.753
REMARK SMILES CCCCCCCCCCCC(=O)[O-]
REMARK SMILES IDX 7 1 8 2 9 3 10 4 11 5 12 6 13 7 14 8 6 9 5 10 4 11 3 12 2 13
REMARK SMILES IDX 1 14
REMARK H PARENT
REMARK Flexibility Score: inf
ROOT
ATOM      1  C   UNL     1     144.987 130.783 116.248  1.00  0.00     0.000 C 
ENDROOT
BRANCH   1   2
ATOM      2  C   UNL     1     144.310 130.050 115.079  1.00  0.00     0.000 C 
BRANCH   2   3
ATOM      3  C   UNL     1     145.290 129.087 114.395  1.00  0.00     0.000 C 
BRANCH   3   4
ATOM      4  C   UNL     1     144.965 127.611 114.677  1.00  0.00     0.006 C 
BRANCH   4   5
ATOM      5  C   UNL     1     145.978 126.953 115.625  1.00  0.00     0.053 C 
BRANCH   5   6
ATOM      6  C   UNL     1     145.492 127.026 117.038  1.00  0.00     0.041 C 
ATOM      7  O   UNL     1     146.305 127.219 117.979  1.00  0.00    -0.550 OA
ATOM      8  O   UNL     1     144.133 126.930 117.312  1.00  0.00    -0.550 OA
ENDBRANCH   5   6
ENDBRANCH   4   5
ENDBRANCH   3   4
ENDBRANCH   2   3
ENDBRANCH   1   2
BRANCH   1   9
ATOM      9  C   UNL     1     146.332 131.415 115.853  1.00  0.00     0.000 C 
BRANCH   9  10
ATOM     10  C   UNL     1     146.384 132.924 116.146  1.00  0.00    -0.000 C 
BRANCH  10  11
ATOM     11  C   UNL     1     145.045 133.633 115.874  1.00  0.00    -0.000 C 
BRANCH  11  12
ATOM     12  C   UNL     1     145.154 134.959 115.098  1.00  0.00    -0.000 C 
BRANCH  12  13
ATOM     13  C   UNL     1     146.440 135.062 114.266  1.00  0.00    -0.003 C 
ATOM     14  C   UNL     1     147.116 136.415 114.466  1.00  0.00     0.004 C 
ENDBRANCH  12  13
ENDBRANCH  11  12
ENDBRANCH  10  11
ENDBRANCH   9  10
ENDBRANCH   1   9
TORSDOF 10
ENDMDL
MODEL 8
REMARK VINA RESULT:    -3.124      2.239      4.032
REMARK INTER + INTRA:          -6.703
REMARK INTER:                  -5.140
REMARK INTRA:                  -1.563
REMARK UNBOUND:                -1.753
REMARK SMILES CCCCCCCCCCCC(=O)[O-]
REMARK SMILES IDX 7 1 8 2 9 3 10 4 11 5 12 6 13 7 14 8 6 9 5 10 4 11 3 12 2 13
REMARK SMILES IDX 1 14
REMARK H PARENT
REMARK Flexibility Score: inf
ROOT
ATOM      1  C   UNL     1     145.506 127.049 117.231  1.00  0.00     0.000 C 
ENDROOT
BRANCH   1   2
ATOM      2  C   UNL     1     145.559 126.876 115.704  1.00  0.00     0.000 C 
BRANCH   2   3
ATOM      3  C   UNL     1     145.281 128.207 114.992  1.00  0.00     0.000 C 
BRANCH   3   4
ATOM      4  C   UNL     1     145.982 129.398 115.666  1.00  0.00     0.006 C 
BRANCH   4   5
ATOM      5  C   UNL     1     145.147 130.684 115.610  1.00  0.00     0.053 C 
BRANCH   5   6
ATOM      6  C   UNL     1     145.770 131.747 116.459  1.00  0.00     0.041 C 
ATOM      7  O   UNL     1     145.376 131.926 117.641  1.00  0.00    -0.550 OA
ATOM      8  O   UNL     1     146.821 132.508 115.962  1.00  0.00    -0.550 OA
ENDBRANCH   5   6
ENDBRANCH   4   5
ENDBRANCH   3   4
ENDBRANCH   2   3
ENDBRANCH   1   2
BRANCH   1   9
ATOM      9  C   UNL     1     144.082 126.915 117.795  1.00  0.00     0.000 C 
BRANCH   9  10
ATOM     10  C   UNL     1     143.516 128.256 118.293  1.00  0.00    -0.000 C 
BRANCH  10  11
ATOM     11  C   UNL     1     142.385 128.798 117.400  1.00  0.00    -0.000 C 
BRANCH  11  12
ATOM     12  C   UNL     1     141.726 127.757 116.476  1.00  0.00    -0.000 C 
BRANCH  12  13
ATOM     13  C   UNL     1     141.536 128.267 115.041  1.00  0.00    -0.003 C 
ATOM     14  C   UNL     1     141.630 129.789 114.982  1.00  0.00     0.004 C 
ENDBRANCH  12  13
ENDBRANCH  11  12
ENDBRANCH  10  11
ENDBRANCH   9  10
ENDBRANCH   1   9
TORSDOF 10
ENDMDL
MODEL 9
REMARK VINA RESULT:    -3.119      3.473      5.115
REMARK INTER + INTRA:          -6.695
REMARK INTER:                  -5.558
REMARK INTRA:                  -1.137
REMARK UNBOUND:                -1.753
REMARK SMILES CCCCCCCCCCCC(=O)[O-]
REMARK SMILES IDX 7 1 8 2 9 3 10 4 11 5 12 6 13 7 14 8 6 9 5 10 4 11 3 12 2 13
REMARK SMILES IDX 1 14
REMARK H PARENT
REMARK Flexibility Score: inf
ROOT
ATOM      1  C   UNL     1     145.551 129.520 114.773  1.00  0.00     0.000 C 
ENDROOT
BRANCH   1   2
ATOM      2  C   UNL     1     146.002 129.710 116.230  1.00  0.00     0.000 C 
BRANCH   2   3
ATOM      3  C   UNL     1     145.639 131.114 116.737  1.00  0.00     0.000 C 
BRANCH   3   4
ATOM      4  C   UNL     1     146.291 132.231 115.906  1.00  0.00     0.006 C 
BRANCH   4   5
ATOM      5  C   UNL     1     145.479 133.533 115.926  1.00  0.00     0.053 C 
BRANCH   5   6
ATOM      6  C   UNL     1     146.384 134.714 115.781  1.00  0.00     0.041 C 
ATOM      7  O   UNL     1     147.125 135.066 116.737  1.00  0.00    -0.550 OA
ATOM      8  O   UNL     1     146.448 135.399 114.574  1.00  0.00    -0.550 OA
ENDBRANCH   5   6
ENDBRANCH   4   5
ENDBRANCH   3   4
ENDBRANCH   2   3
ENDBRANCH   1   2
BRANCH   1   9
ATOM      9  C   UNL     1     145.480 128.040 114.362  1.00  0.00     0.000 C 
BRANCH   9  10
ATOM     10  C   UNL     1     144.536 127.223 115.259  1.00  0.00    -0.000 C 
BRANCH  10  11
ATOM     11  C   UNL     1     143.059 127.627 115.100  1.00  0.00    -0.000 C 
BRANCH  11  12
ATOM     12  C   UNL     1     142.386 128.163 116.377  1.00  0.00    -0.000 C 
BRANCH  12  13
ATOM     13  C   UNL     1     142.175 129.683 116.349  1.00  0.00    -0.003 C 
ATOM     14  C   UNL     1     141.948 130.180 114.924  1.00  0.00     0.004 C 
ENDBRANCH  12  13
ENDBRANCH  11  12
ENDBRANCH  10  11
ENDBRANCH   9  10
ENDBRANCH   1   9
TORSDOF 10
ENDMDL
