MODEL 1
REMARK VINA RESULT:    -6.695      0.000      0.000
REMARK INTER + INTRA:          -7.748
REMARK INTER:                  -7.869
REMARK INTRA:                   0.121
REMARK UNBOUND:                 0.121
REMARK SMILES Oc1ccc(-c2[o+]c3cc(O)cc(O)c3cc2O)cc1.[Cl-]
REMARK SMILES IDX 6 1 7 2 8 3 9 4 10 5 12 6 13 7 15 8 16 9 17 10 5 11 4 12
REMARK SMILES IDX 3 13 2 14 19 15 20 16 1 17 18 19 11 21 14 23
REMARK H PARENT 1 18 18 20 11 22 14 24
REMARK Flexibility Score: inf
ROOT
ATOM      1  C   UNL     1      50.312  77.520  26.175  1.00  0.00     0.401 A 
ATOM      2  O   UNL     1      49.072  77.238  26.574  1.00  0.00    -0.202 OA
ATOM      3  C   UNL     1      48.561  77.671  27.721  1.00  0.00     0.368 A 
ATOM      4  C   UNL     1      47.249  77.334  28.066  1.00  0.00     0.162 A 
ATOM      5  C   UNL     1      46.698  77.788  29.271  1.00  0.00     0.128 A 
ATOM      6  C   UNL     1      47.463  78.581  30.134  1.00  0.00     0.093 A 
ATOM      7  C   UNL     1      48.781  78.925  29.803  1.00  0.00     0.136 A 
ATOM      8  C   UNL     1      49.335  78.470  28.591  1.00  0.00     0.125 A 
ATOM      9  C   UNL     1      50.647  78.776  28.213  1.00  0.00     0.078 A 
ATOM     10  C   UNL     1      51.152  78.293  27.002  1.00  0.00     0.223 A 
ENDROOT
BRANCH   1  11
ATOM     11  C   UNL     1      50.765  76.987  24.869  1.00  0.00     0.084 A 
ATOM     12  C   UNL     1      49.907  77.061  23.758  1.00  0.00     0.022 A 
ATOM     13  C   UNL     1      50.321  76.582  22.511  1.00  0.00     0.047 A 
ATOM     14  C   UNL     1      51.603  76.040  22.356  1.00  0.00     0.115 A 
ATOM     15  C   UNL     1      52.057  76.459  24.701  1.00  0.00     0.022 A 
ATOM     16  C   UNL     1      52.468  75.982  23.452  1.00  0.00     0.047 A 
BRANCH  14  17
ATOM     17  O   UNL     1      52.027  75.561  21.119  1.00  0.00    -0.508 OA
ATOM     18  H   UNL     1      51.669  75.944  20.252  1.00  0.00     0.293 HD
ENDBRANCH  14  17
ENDBRANCH   1  11
BRANCH  10  19
ATOM     19  O   UNL     1      52.475  78.552  26.642  1.00  0.00    -0.500 OA
ATOM     20  H   UNL     1      52.731  79.387  26.130  1.00  0.00     0.294 HD
ENDBRANCH  10  19
BRANCH   5  21
ATOM     21  O   UNL     1      45.390  77.458  29.622  1.00  0.00    -0.507 OA
ATOM     22  H   UNL     1      45.186  76.907  30.448  1.00  0.00     0.293 HD
ENDBRANCH   5  21
BRANCH   7  23
ATOM     23  O   UNL     1      49.534  79.714  30.672  1.00  0.00    -0.507 OA
ATOM     24  H   UNL     1      49.304  80.687  30.841  1.00  0.00     0.293 HD
ENDBRANCH   7  23
TORSDOF 5
ENDMDL
MODEL 2
REMARK VINA RESULT:    -6.660      1.989      7.153
REMARK INTER + INTRA:          -7.707
REMARK INTER:                  -7.451
REMARK INTRA:                  -0.256
REMARK UNBOUND:                 0.121
REMARK SMILES Oc1ccc(-c2[o+]c3cc(O)cc(O)c3cc2O)cc1.[Cl-]
REMARK SMILES IDX 6 1 7 2 8 3 9 4 10 5 12 6 13 7 15 8 16 9 17 10 5 11 4 12
REMARK SMILES IDX 3 13 2 14 19 15 20 16 1 17 18 19 11 21 14 23
REMARK H PARENT 1 18 18 20 11 22 14 24
REMARK Flexibility Score: inf
ROOT
ATOM      1  C   UNL     1      48.204  77.741  25.688  1.00  0.00     0.401 A 
ATOM      2  O   UNL     1      49.461  77.319  25.810  1.00  0.00    -0.202 OA
ATOM      3  C   UNL     1      50.202  76.932  24.778  1.00  0.00     0.368 A 
ATOM      4  C   UNL     1      51.517  76.506  24.990  1.00  0.00     0.162 A 
ATOM      5  C   UNL     1      52.309  76.098  23.909  1.00  0.00     0.128 A 
ATOM      6  C   UNL     1      51.784  76.117  22.612  1.00  0.00     0.093 A 
ATOM      7  C   UNL     1      50.466  76.540  22.384  1.00  0.00     0.136 A 
ATOM      8  C   UNL     1      49.670  76.951  23.470  1.00  0.00     0.125 A 
ATOM      9  C   UNL     1      48.347  77.375  23.303  1.00  0.00     0.078 A 
ATOM     10  C   UNL     1      47.596  77.764  24.415  1.00  0.00     0.223 A 
ENDROOT
BRANCH   1  11
ATOM     11  C   UNL     1      47.482  78.156  26.913  1.00  0.00     0.084 A 
ATOM     12  C   UNL     1      47.138  77.190  27.873  1.00  0.00     0.022 A 
ATOM     13  C   UNL     1      46.475  77.562  29.047  1.00  0.00     0.047 A 
ATOM     14  C   UNL     1      46.162  78.907  29.282  1.00  0.00     0.115 A 
ATOM     15  C   UNL     1      47.182  79.507  27.165  1.00  0.00     0.022 A 
ATOM     16  C   UNL     1      46.520  79.876  28.340  1.00  0.00     0.047 A 
BRANCH  14  17
ATOM     17  O   UNL     1      45.502  79.289  30.447  1.00  0.00    -0.508 OA
ATOM     18  H   UNL     1      44.585  78.927  30.680  1.00  0.00     0.293 HD
ENDBRANCH  14  17
ENDBRANCH   1  11
BRANCH  10  19
ATOM     19  O   UNL     1      46.262  78.140  24.263  1.00  0.00    -0.500 OA
ATOM     20  H   UNL     1      45.755  77.960  23.405  1.00  0.00     0.294 HD
ENDBRANCH  10  19
BRANCH   5  21
ATOM     21  O   UNL     1      53.621  75.673  24.111  1.00  0.00    -0.507 OA
ATOM     22  H   UNL     1      54.313  75.720  23.373  1.00  0.00     0.293 HD
ENDBRANCH   5  21
BRANCH   7  23
ATOM     23  O   UNL     1      49.953  76.553  21.087  1.00  0.00    -0.507 OA
ATOM     24  H   UNL     1      49.096  76.066  20.850  1.00  0.00     0.293 HD
ENDBRANCH   7  23
TORSDOF 5
ENDMDL
MODEL 3
REMARK VINA RESULT:    -6.604      1.664      6.731
REMARK INTER + INTRA:          -7.642
REMARK INTER:                  -7.348
REMARK INTRA:                  -0.294
REMARK UNBOUND:                 0.121
REMARK SMILES Oc1ccc(-c2[o+]c3cc(O)cc(O)c3cc2O)cc1.[Cl-]
REMARK SMILES IDX 6 1 7 2 8 3 9 4 10 5 12 6 13 7 15 8 16 9 17 10 5 11 4 12
REMARK SMILES IDX 3 13 2 14 19 15 20 16 1 17 18 19 11 21 14 23
REMARK H PARENT 1 18 18 20 11 22 14 24
REMARK Flexibility Score: inf
ROOT
ATOM      1  C   UNL     1      49.038  77.492  26.486  1.00  0.00     0.401 A 
ATOM      2  O   UNL     1      48.722  77.441  25.193  1.00  0.00    -0.202 OA
ATOM      3  C   UNL     1      49.587  77.092  24.246  1.00  0.00     0.368 A 
ATOM      4  C   UNL     1      49.176  77.059  22.911  1.00  0.00     0.162 A 
ATOM      5  C   UNL     1      50.077  76.689  21.904  1.00  0.00     0.128 A 
ATOM      6  C   UNL     1      51.394  76.351  22.236  1.00  0.00     0.093 A 
ATOM      7  C   UNL     1      51.821  76.381  23.571  1.00  0.00     0.136 A 
ATOM      8  C   UNL     1      50.915  76.752  24.583  1.00  0.00     0.125 A 
ATOM      9  C   UNL     1      51.289  76.807  25.930  1.00  0.00     0.078 A 
ATOM     10  C   UNL     1      50.353  77.189  26.896  1.00  0.00     0.223 A 
ENDROOT
BRANCH   1  11
ATOM     11  C   UNL     1      47.984  77.886  27.449  1.00  0.00     0.084 A 
ATOM     12  C   UNL     1      47.330  76.896  28.201  1.00  0.00     0.022 A 
ATOM     13  C   UNL     1      46.346  77.246  29.131  1.00  0.00     0.047 A 
ATOM     14  C   UNL     1      46.014  78.592  29.330  1.00  0.00     0.115 A 
ATOM     15  C   UNL     1      47.658  79.237  27.668  1.00  0.00     0.022 A 
ATOM     16  C   UNL     1      46.674  79.584  28.598  1.00  0.00     0.047 A 
BRANCH  14  17
ATOM     17  O   UNL     1      45.035  78.953  30.253  1.00  0.00    -0.508 OA
ATOM     18  H   UNL     1      44.922  79.913  30.556  1.00  0.00     0.293 HD
ENDBRANCH  14  17
ENDBRANCH   1  11
BRANCH  10  19
ATOM     19  O   UNL     1      50.731  77.295  28.234  1.00  0.00    -0.500 OA
ATOM     20  H   UNL     1      51.690  77.480  28.501  1.00  0.00     0.294 HD
ENDBRANCH  10  19
BRANCH   5  21
ATOM     21  O   UNL     1      49.675  76.653  20.570  1.00  0.00    -0.507 OA
ATOM     22  H   UNL     1      49.227  77.448  20.130  1.00  0.00     0.293 HD
ENDBRANCH   5  21
BRANCH   7  23
ATOM     23  O   UNL     1      53.137  76.044  23.888  1.00  0.00    -0.507 OA
ATOM     24  H   UNL     1      53.808  76.744  24.185  1.00  0.00     0.293 HD
ENDBRANCH   7  23
TORSDOF 5
ENDMDL
MODEL 4
REMARK VINA RESULT:    -6.557      1.438      3.367
REMARK INTER + INTRA:          -7.586
REMARK INTER:                  -7.814
REMARK INTRA:                   0.227
REMARK UNBOUND:                 0.121
REMARK SMILES Oc1ccc(-c2[o+]c3cc(O)cc(O)c3cc2O)cc1.[Cl-]
REMARK SMILES IDX 6 1 7 2 8 3 9 4 10 5 12 6 13 7 15 8 16 9 17 10 5 11 4 12
REMARK SMILES IDX 3 13 2 14 19 15 20 16 1 17 18 19 11 21 14 23
REMARK H PARENT 1 18 18 20 11 22 14 24
REMARK Flexibility Score: inf
ROOT
ATOM      1  C   UNL     1      50.679  77.503  26.143  1.00  0.00     0.401 A 
ATOM      2  O   UNL     1      51.656  78.036  26.874  1.00  0.00    -0.202 OA
ATOM      3  C   UNL     1      51.472  78.505  28.104  1.00  0.00     0.368 A 
ATOM      4  C   UNL     1      52.551  79.046  28.808  1.00  0.00     0.162 A 
ATOM      5  C   UNL     1      52.370  79.541  30.106  1.00  0.00     0.128 A 
ATOM      6  C   UNL     1      51.104  79.493  30.701  1.00  0.00     0.093 A 
ATOM      7  C   UNL     1      50.012  78.955  30.006  1.00  0.00     0.136 A 
ATOM      8  C   UNL     1      50.194  78.457  28.701  1.00  0.00     0.125 A 
ATOM      9  C   UNL     1      49.138  77.916  27.959  1.00  0.00     0.078 A 
ATOM     10  C   UNL     1      49.370  77.443  26.664  1.00  0.00     0.223 A 
ENDROOT
BRANCH   1  11
ATOM     11  C   UNL     1      51.011  77.005  24.788  1.00  0.00     0.084 A 
ATOM     12  C   UNL     1      52.260  76.403  24.560  1.00  0.00     0.022 A 
ATOM     13  C   UNL     1      52.588  75.907  23.294  1.00  0.00     0.047 A 
ATOM     14  C   UNL     1      51.664  75.994  22.245  1.00  0.00     0.115 A 
ATOM     15  C   UNL     1      50.082  77.071  23.734  1.00  0.00     0.022 A 
ATOM     16  C   UNL     1      50.413  76.574  22.469  1.00  0.00     0.047 A 
BRANCH  14  17
ATOM     17  O   UNL     1      51.979  75.504  20.979  1.00  0.00    -0.508 OA
ATOM     18  H   UNL     1      52.928  75.520  20.626  1.00  0.00     0.293 HD
ENDBRANCH  14  17
ENDBRANCH   1  11
BRANCH  10  19
ATOM     19  O   UNL     1      48.314  76.948  25.899  1.00  0.00    -0.500 OA
ATOM     20  H   UNL     1      48.428  76.726  24.918  1.00  0.00     0.294 HD
ENDBRANCH  10  19
BRANCH   5  21
ATOM     21  O   UNL     1      53.441  80.081  30.815  1.00  0.00    -0.507 OA
ATOM     22  H   UNL     1      54.251  79.523  31.058  1.00  0.00     0.293 HD
ENDBRANCH   5  21
BRANCH   7  23
ATOM     23  O   UNL     1      48.754  78.914  30.609  1.00  0.00    -0.507 OA
ATOM     24  H   UNL     1      47.923  78.658  30.088  1.00  0.00     0.293 HD
ENDBRANCH   7  23
TORSDOF 5
ENDMDL
MODEL 5
REMARK VINA RESULT:    -6.228      9.048     12.748
REMARK INTER + INTRA:          -7.199
REMARK INTER:                  -7.057
REMARK INTRA:                  -0.142
REMARK UNBOUND:                 0.121
REMARK SMILES Oc1ccc(-c2[o+]c3cc(O)cc(O)c3cc2O)cc1.[Cl-]
REMARK SMILES IDX 6 1 7 2 8 3 9 4 10 5 12 6 13 7 15 8 16 9 17 10 5 11 4 12
REMARK SMILES IDX 3 13 2 14 19 15 20 16 1 17 18 19 11 21 14 23
REMARK H PARENT 1 18 18 20 11 22 14 24
REMARK Flexibility Score: inf
ROOT
ATOM      1  C   UNL     1      53.977  69.053  17.800  1.00  0.00     0.401 A 
ATOM      2  O   UNL     1      54.286  69.128  19.093  1.00  0.00    -0.202 OA
ATOM      3  C   UNL     1      54.186  70.247  19.802  1.00  0.00     0.368 A 
ATOM      4  C   UNL     1      54.527  70.242  21.157  1.00  0.00     0.162 A 
ATOM      5  C   UNL     1      54.422  71.416  21.915  1.00  0.00     0.128 A 
ATOM      6  C   UNL     1      53.974  72.598  21.314  1.00  0.00     0.093 A 
ATOM      7  C   UNL     1      53.631  72.618  19.955  1.00  0.00     0.136 A 
ATOM      8  C   UNL     1      53.735  71.439  19.193  1.00  0.00     0.125 A 
ATOM      9  C   UNL     1      53.413  71.403  17.832  1.00  0.00     0.078 A 
ATOM     10  C   UNL     1      53.542  70.208  17.118  1.00  0.00     0.223 A 
ENDROOT
BRANCH   1  11
ATOM     11  C   UNL     1      54.121  67.744  17.121  1.00  0.00     0.084 A 
ATOM     12  C   UNL     1      53.301  66.671  17.508  1.00  0.00     0.022 A 
ATOM     13  C   UNL     1      53.405  65.432  16.867  1.00  0.00     0.047 A 
ATOM     14  C   UNL     1      54.320  65.256  15.821  1.00  0.00     0.115 A 
ATOM     15  C   UNL     1      55.023  67.565  16.057  1.00  0.00     0.022 A 
ATOM     16  C   UNL     1      55.125  66.326  15.418  1.00  0.00     0.047 A 
BRANCH  14  17
ATOM     17  O   UNL     1      54.433  64.027  15.175  1.00  0.00    -0.508 OA
ATOM     18  H   UNL     1      54.916  63.247  15.603  1.00  0.00     0.293 HD
ENDBRANCH  14  17
ENDBRANCH   1  11
BRANCH  10  19
ATOM     19  O   UNL     1      53.271  70.176  15.750  1.00  0.00    -0.500 OA
ATOM     20  H   UNL     1      52.634  70.836  15.320  1.00  0.00     0.294 HD
ENDBRANCH  10  19
BRANCH   5  21
ATOM     21  O   UNL     1      54.759  71.419  23.267  1.00  0.00    -0.507 OA
ATOM     22  H   UNL     1      55.514  71.994  23.623  1.00  0.00     0.293 HD
ENDBRANCH   5  21
BRANCH   7  23
ATOM     23  O   UNL     1      53.188  73.803  19.366  1.00  0.00    -0.507 OA
ATOM     24  H   UNL     1      52.220  74.098  19.429  1.00  0.00     0.293 HD
ENDBRANCH   7  23
TORSDOF 5
ENDMDL
MODEL 6
REMARK VINA RESULT:    -5.615     10.680     13.671
REMARK INTER + INTRA:          -6.479
REMARK INTER:                  -6.548
REMARK INTRA:                   0.070
REMARK UNBOUND:                 0.121
REMARK SMILES Oc1ccc(-c2[o+]c3cc(O)cc(O)c3cc2O)cc1.[Cl-]
REMARK SMILES IDX 6 1 7 2 8 3 9 4 10 5 12 6 13 7 15 8 16 9 17 10 5 11 4 12
REMARK SMILES IDX 3 13 2 14 19 15 20 16 1 17 18 19 11 21 14 23
REMARK H PARENT 1 18 18 20 11 22 14 24
REMARK Flexibility Score: inf
ROOT
ATOM      1  C   UNL     1      54.159  69.307  17.180  1.00  0.00     0.401 A 
ATOM      2  O   UNL     1      54.102  70.229  16.221  1.00  0.00    -0.202 OA
ATOM      3  C   UNL     1      54.057  71.534  16.468  1.00  0.00     0.368 A 
ATOM      4  C   UNL     1      54.002  72.439  15.404  1.00  0.00     0.162 A 
ATOM      5  C   UNL     1      53.957  73.817  15.652  1.00  0.00     0.128 A 
ATOM      6  C   UNL     1      53.967  74.290  16.969  1.00  0.00     0.093 A 
ATOM      7  C   UNL     1      54.020  73.394  18.046  1.00  0.00     0.136 A 
ATOM      8  C   UNL     1      54.066  72.009  17.797  1.00  0.00     0.125 A 
ATOM      9  C   UNL     1      54.111  71.069  18.833  1.00  0.00     0.078 A 
ATOM     10  C   UNL     1      54.148  69.705  18.533  1.00  0.00     0.223 A 
ENDROOT
BRANCH   1  11
ATOM     11  C   UNL     1      54.217  67.882  16.778  1.00  0.00     0.084 A 
ATOM     12  C   UNL     1      53.347  66.959  17.382  1.00  0.00     0.022 A 
ATOM     13  C   UNL     1      53.369  65.612  17.005  1.00  0.00     0.047 A 
ATOM     14  C   UNL     1      54.250  65.176  16.007  1.00  0.00     0.115 A 
ATOM     15  C   UNL     1      55.085  67.440  15.764  1.00  0.00     0.022 A 
ATOM     16  C   UNL     1      55.105  66.093  15.388  1.00  0.00     0.047 A 
BRANCH  14  17
ATOM     17  O   UNL     1      54.282  63.838  15.622  1.00  0.00    -0.508 OA
ATOM     18  H   UNL     1      54.966  63.493  14.959  1.00  0.00     0.293 HD
ENDBRANCH  14  17
ENDBRANCH   1  11
BRANCH  10  19
ATOM     19  O   UNL     1      54.142  68.761  19.560  1.00  0.00    -0.500 OA
ATOM     20  H   UNL     1      53.521  67.962  19.542  1.00  0.00     0.294 HD
ENDBRANCH  10  19
BRANCH   5  21
ATOM     21  O   UNL     1      53.904  74.726  14.597  1.00  0.00    -0.507 OA
ATOM     22  H   UNL     1      53.416  74.510  13.736  1.00  0.00     0.293 HD
ENDBRANCH   5  21
BRANCH   7  23
ATOM     23  O   UNL     1      54.027  73.878  19.355  1.00  0.00    -0.507 OA
ATOM     24  H   UNL     1      53.345  73.569  20.039  1.00  0.00     0.293 HD
ENDBRANCH   7  23
TORSDOF 5
ENDMDL
MODEL 7
REMARK VINA RESULT:    -5.601      8.479     11.775
REMARK INTER + INTRA:          -6.463
REMARK INTER:                  -6.367
REMARK INTRA:                  -0.096
REMARK UNBOUND:                 0.121
REMARK SMILES Oc1ccc(-c2[o+]c3cc(O)cc(O)c3cc2O)cc1.[Cl-]
REMARK SMILES IDX 6 1 7 2 8 3 9 4 10 5 12 6 13 7 15 8 16 9 17 10 5 11 4 12
REMARK SMILES IDX 3 13 2 14 19 15 20 16 1 17 18 19 11 21 14 23
REMARK H PARENT 1 18 18 20 11 22 14 24
REMARK Flexibility Score: inf
ROOT
ATOM      1  C   UNL     1      53.945  72.635  16.577  1.00  0.00     0.401 A 
ATOM      2  O   UNL     1      53.796  73.284  17.731  1.00  0.00    -0.202 OA
ATOM      3  C   UNL     1      53.738  72.670  18.908  1.00  0.00     0.368 A 
ATOM      4  C   UNL     1      53.585  73.424  20.075  1.00  0.00     0.162 A 
ATOM      5  C   UNL     1      53.525  72.788  21.323  1.00  0.00     0.128 A 
ATOM      6  C   UNL     1      53.620  71.394  21.401  1.00  0.00     0.093 A 
ATOM      7  C   UNL     1      53.772  70.625  20.238  1.00  0.00     0.136 A 
ATOM      8  C   UNL     1      53.832  71.263  18.985  1.00  0.00     0.125 A 
ATOM      9  C   UNL     1      53.975  70.546  17.792  1.00  0.00     0.078 A 
ATOM     10  C   UNL     1      54.022  71.227  16.572  1.00  0.00     0.223 A 
ENDROOT
BRANCH   1  11
ATOM     11  C   UNL     1      54.007  73.432  15.330  1.00  0.00     0.084 A 
ATOM     12  C   UNL     1      53.002  74.378  15.064  1.00  0.00     0.022 A 
ATOM     13  C   UNL     1      53.050  75.155  13.902  1.00  0.00     0.047 A 
ATOM     14  C   UNL     1      54.112  75.007  13.001  1.00  0.00     0.115 A 
ATOM     15  C   UNL     1      55.079  73.303  14.429  1.00  0.00     0.022 A 
ATOM     16  C   UNL     1      55.125  74.082  13.269  1.00  0.00     0.047 A 
BRANCH  14  17
ATOM     17  O   UNL     1      54.171  75.776  11.841  1.00  0.00    -0.508 OA
ATOM     18  H   UNL     1      55.055  76.009  11.404  1.00  0.00     0.293 HD
ENDBRANCH  14  17
ENDBRANCH   1  11
BRANCH  10  19
ATOM     19  O   UNL     1      54.114  70.516  15.376  1.00  0.00    -0.500 OA
ATOM     20  H   UNL     1      53.331  70.447  14.738  1.00  0.00     0.294 HD
ENDBRANCH  10  19
BRANCH   5  21
ATOM     21  O   UNL     1      53.373  73.532  22.491  1.00  0.00    -0.507 OA
ATOM     22  H   UNL     1      53.304  74.542  22.470  1.00  0.00     0.293 HD
ENDBRANCH   5  21
BRANCH   7  23
ATOM     23  O   UNL     1      53.862  69.236  20.329  1.00  0.00    -0.507 OA
ATOM     24  H   UNL     1      54.553  68.713  19.803  1.00  0.00     0.293 HD
ENDBRANCH   7  23
TORSDOF 5
ENDMDL
MODEL 8
REMARK VINA RESULT:    -5.491      9.352     13.434
REMARK INTER + INTRA:          -6.333
REMARK INTER:                  -6.042
REMARK INTRA:                  -0.291
REMARK UNBOUND:                 0.121
REMARK SMILES Oc1ccc(-c2[o+]c3cc(O)cc(O)c3cc2O)cc1.[Cl-]
REMARK SMILES IDX 6 1 7 2 8 3 9 4 10 5 12 6 13 7 15 8 16 9 17 10 5 11 4 12
REMARK SMILES IDX 3 13 2 14 19 15 20 16 1 17 18 19 11 21 14 23
REMARK H PARENT 1 18 18 20 11 22 14 24
REMARK Flexibility Score: inf
ROOT
ATOM      1  C   UNL     1      54.052  68.643  17.434  1.00  0.00     0.401 A 
ATOM      2  O   UNL     1      53.832  69.251  18.598  1.00  0.00    -0.202 OA
ATOM      3  C   UNL     1      53.812  70.573  18.737  1.00  0.00     0.368 A 
ATOM      4  C   UNL     1      53.570  71.134  19.994  1.00  0.00     0.162 A 
ATOM      5  C   UNL     1      53.543  72.526  20.152  1.00  0.00     0.128 A 
ATOM      6  C   UNL     1      53.761  73.358  19.048  1.00  0.00     0.093 A 
ATOM      7  C   UNL     1      54.008  72.809  17.781  1.00  0.00     0.136 A 
ATOM      8  C   UNL     1      54.033  71.410  17.622  1.00  0.00     0.125 A 
ATOM      9  C   UNL     1      54.282  70.808  16.384  1.00  0.00     0.078 A 
ATOM     10  C   UNL     1      54.305  69.414  16.281  1.00  0.00     0.223 A 
ENDROOT
BRANCH   1  11
ATOM     11  C   UNL     1      54.039  67.163  17.405  1.00  0.00     0.084 A 
ATOM     12  C   UNL     1      55.125  66.451  17.943  1.00  0.00     0.022 A 
ATOM     13  C   UNL     1      55.125  65.053  17.944  1.00  0.00     0.047 A 
ATOM     14  C   UNL     1      54.033  64.349  17.422  1.00  0.00     0.115 A 
ATOM     15  C   UNL     1      52.938  66.448  16.899  1.00  0.00     0.022 A 
ATOM     16  C   UNL     1      52.941  65.050  16.902  1.00  0.00     0.047 A 
BRANCH  14  17
ATOM     17  O   UNL     1      54.022  62.956  17.417  1.00  0.00    -0.508 OA
ATOM     18  H   UNL     1      54.682  62.420  17.968  1.00  0.00     0.293 HD
ENDBRANCH  14  17
ENDBRANCH   1  11
BRANCH  10  19
ATOM     19  O   UNL     1      54.602  68.807  15.061  1.00  0.00    -0.500 OA
ATOM     20  H   UNL     1      55.092  67.922  15.014  1.00  0.00     0.294 HD
ENDBRANCH  10  19
BRANCH   5  21
ATOM     21  O   UNL     1      53.301  73.094  21.402  1.00  0.00    -0.507 OA
ATOM     22  H   UNL     1      53.832  72.819  22.220  1.00  0.00     0.293 HD
ENDBRANCH   5  21
BRANCH   7  23
ATOM     23  O   UNL     1      54.225  73.649  16.689  1.00  0.00    -0.507 OA
ATOM     24  H   UNL     1      53.487  74.232  16.312  1.00  0.00     0.293 HD
ENDBRANCH   7  23
TORSDOF 5
ENDMDL
