MODEL 1
REMARK VINA RESULT:    -7.051      0.000      0.000
REMARK INTER + INTRA:          -7.669
REMARK INTER:                  -7.669
REMARK INTRA:                   0.000
REMARK UNBOUND:                 0.000
REMARK SMILES Cc1cc(O)c2c(c1)C(=O)c1cc(O)cc(O)c1C2=O
REMARK SMILES IDX 1 1 2 2 8 3 7 4 6 5 4 6 3 7 19 8 20 9 18 10 11 11 9 12 10 13
REMARK SMILES IDX 12 14 13 15 15 16 16 17 5 18 17 20 14 22
REMARK H PARENT 5 19 17 21 14 23
REMARK Flexibility Score: inf
ROOT
ATOM      1  C   UNL     1      54.081  44.984  74.711  1.00  0.00     0.044 C 
ATOM      2  C   UNL     1      52.635  44.706  75.004  1.00  0.00    -0.047 A 
ATOM      3  C   UNL     1      52.129  44.899  76.295  1.00  0.00     0.016 A 
ATOM      4  C   UNL     1      50.770  44.674  76.573  1.00  0.00     0.038 A 
ATOM      5  C   UNL     1      49.899  44.271  75.539  1.00  0.00     0.076 A 
ATOM      6  C   UNL     1      50.412  44.089  74.234  1.00  0.00     0.127 A 
ATOM      7  C   UNL     1      51.771  44.315  73.976  1.00  0.00     0.050 A 
ATOM      8  C   UNL     1      48.457  44.075  75.842  1.00  0.00     0.201 C 
ATOM      9  O   UNL     1      47.620  44.072  74.900  1.00  0.00    -0.288 OA
ATOM     10  C   UNL     1      47.993  44.000  77.256  1.00  0.00     0.076 A 
ATOM     11  C   UNL     1      48.857  44.469  78.273  1.00  0.00     0.041 A 
ATOM     12  C   UNL     1      50.247  44.866  77.945  1.00  0.00     0.194 C 
ATOM     13  O   UNL     1      50.992  45.350  78.841  1.00  0.00    -0.289 OA
ATOM     14  C   UNL     1      48.397  44.551  79.599  1.00  0.00     0.059 A 
ATOM     15  C   UNL     1      47.098  44.156  79.926  1.00  0.00     0.120 A 
ATOM     16  C   UNL     1      46.260  43.648  78.936  1.00  0.00     0.093 A 
ATOM     17  C   UNL     1      46.699  43.531  77.614  1.00  0.00     0.131 A 
ENDROOT
BRANCH   6  18
ATOM     18  O   UNL     1      49.580  43.677  73.193  1.00  0.00    -0.507 OA
ATOM     19  H   UNL     1      49.443  44.243  72.363  1.00  0.00     0.293 HD
ENDBRANCH   6  18
BRANCH  17  20
ATOM     20  O   UNL     1      45.834  42.913  76.708  1.00  0.00    -0.507 OA
ATOM     21  H   UNL     1      45.415  43.388  75.921  1.00  0.00     0.293 HD
ENDBRANCH  17  20
BRANCH  15  22
ATOM     22  O   UNL     1      46.636  44.251  81.237  1.00  0.00    -0.508 OA
ATOM     23  H   UNL     1      46.566  43.436  81.835  1.00  0.00     0.293 HD
ENDBRANCH  15  22
TORSDOF 3
ENDMDL
MODEL 2
REMARK VINA RESULT:    -7.043     17.663     19.061
REMARK INTER + INTRA:          -7.660
REMARK INTER:                  -7.660
REMARK INTRA:                   0.000
REMARK UNBOUND:                 0.000
REMARK SMILES Cc1cc(O)c2c(c1)C(=O)c1cc(O)cc(O)c1C2=O
REMARK SMILES IDX 1 1 2 2 8 3 7 4 6 5 4 6 3 7 19 8 20 9 18 10 11 11 9 12 10 13
REMARK SMILES IDX 12 14 13 15 15 16 16 17 5 18 17 20 14 22
REMARK H PARENT 5 19 17 21 14 23
REMARK Flexibility Score: inf
ROOT
ATOM      1  C   UNL     1      40.583  31.223  63.581  1.00  0.00     0.044 C 
ATOM      2  C   UNL     1      41.912  30.940  64.220  1.00  0.00    -0.047 A 
ATOM      3  C   UNL     1      43.061  31.606  63.779  1.00  0.00     0.016 A 
ATOM      4  C   UNL     1      44.304  31.375  64.393  1.00  0.00     0.038 A 
ATOM      5  C   UNL     1      44.394  30.478  65.478  1.00  0.00     0.076 A 
ATOM      6  C   UNL     1      43.228  29.816  65.929  1.00  0.00     0.127 A 
ATOM      7  C   UNL     1      41.999  30.058  65.302  1.00  0.00     0.050 A 
ATOM      8  C   UNL     1      45.710  30.274  66.141  1.00  0.00     0.201 C 
ATOM      9  O   UNL     1      45.750  29.780  67.300  1.00  0.00    -0.288 OA
ATOM     10  C   UNL     1      46.959  30.756  65.489  1.00  0.00     0.076 A 
ATOM     11  C   UNL     1      46.849  31.704  64.444  1.00  0.00     0.041 A 
ATOM     12  C   UNL     1      45.517  32.072  63.910  1.00  0.00     0.194 C 
ATOM     13  O   UNL     1      45.418  32.970  63.028  1.00  0.00    -0.289 OA
ATOM     14  C   UNL     1      48.009  32.291  63.907  1.00  0.00     0.059 A 
ATOM     15  C   UNL     1      49.272  31.933  64.384  1.00  0.00     0.120 A 
ATOM     16  C   UNL     1      49.387  30.965  65.379  1.00  0.00     0.093 A 
ATOM     17  C   UNL     1      48.253  30.346  65.912  1.00  0.00     0.131 A 
ENDROOT
BRANCH   6  18
ATOM     18  O   UNL     1      43.288  28.913  66.990  1.00  0.00    -0.507 OA
ATOM     19  H   UNL     1      43.171  27.916  66.850  1.00  0.00     0.293 HD
ENDBRANCH   6  18
BRANCH  17  20
ATOM     20  O   UNL     1      48.463  29.312  66.828  1.00  0.00    -0.507 OA
ATOM     21  H   UNL     1      47.863  29.135  67.620  1.00  0.00     0.293 HD
ENDBRANCH  17  20
BRANCH  15  22
ATOM     22  O   UNL     1      50.421  32.525  63.864  1.00  0.00    -0.508 OA
ATOM     23  H   UNL     1      51.316  32.051  63.881  1.00  0.00     0.293 HD
ENDBRANCH  15  22
TORSDOF 3
ENDMDL
MODEL 3
REMARK VINA RESULT:    -6.990      2.265      5.405
REMARK INTER + INTRA:          -7.603
REMARK INTER:                  -7.603
REMARK INTRA:                   0.000
REMARK UNBOUND:                 0.000
REMARK SMILES Cc1cc(O)c2c(c1)C(=O)c1cc(O)cc(O)c1C2=O
REMARK SMILES IDX 1 1 2 2 8 3 7 4 6 5 4 6 3 7 19 8 20 9 18 10 11 11 9 12 10 13
REMARK SMILES IDX 12 14 13 15 15 16 16 17 5 18 17 20 14 22
REMARK H PARENT 5 19 17 21 14 23
REMARK Flexibility Score: inf
ROOT
ATOM      1  C   UNL     1      46.719  39.902  74.127  1.00  0.00     0.044 C 
ATOM      2  C   UNL     1      47.218  41.013  75.005  1.00  0.00    -0.047 A 
ATOM      3  C   UNL     1      48.173  41.916  74.523  1.00  0.00     0.016 A 
ATOM      4  C   UNL     1      48.622  42.980  75.324  1.00  0.00     0.038 A 
ATOM      5  C   UNL     1      48.092  43.155  76.620  1.00  0.00     0.076 A 
ATOM      6  C   UNL     1      47.118  42.248  77.098  1.00  0.00     0.127 A 
ATOM      7  C   UNL     1      46.685  41.191  76.285  1.00  0.00     0.050 A 
ATOM      8  C   UNL     1      48.549  44.309  77.439  1.00  0.00     0.201 C 
ATOM      9  O   UNL     1      47.852  44.689  78.417  1.00  0.00    -0.288 OA
ATOM     10  C   UNL     1      49.758  45.080  77.037  1.00  0.00     0.076 A 
ATOM     11  C   UNL     1      50.237  44.938  75.713  1.00  0.00     0.041 A 
ATOM     12  C   UNL     1      49.644  43.921  74.812  1.00  0.00     0.194 C 
ATOM     13  O   UNL     1      50.024  43.845  73.611  1.00  0.00    -0.289 OA
ATOM     14  C   UNL     1      51.283  45.758  75.255  1.00  0.00     0.059 A 
ATOM     15  C   UNL     1      51.868  46.702  76.102  1.00  0.00     0.120 A 
ATOM     16  C   UNL     1      51.433  46.812  77.421  1.00  0.00     0.093 A 
ATOM     17  C   UNL     1      50.412  45.991  77.910  1.00  0.00     0.131 A 
ENDROOT
BRANCH   6  18
ATOM     18  O   UNL     1      46.585  42.387  78.379  1.00  0.00    -0.507 OA
ATOM     19  H   UNL     1      45.667  42.788  78.535  1.00  0.00     0.293 HD
ENDBRANCH   6  18
BRANCH  17  20
ATOM     20  O   UNL     1      50.111  46.093  79.271  1.00  0.00    -0.507 OA
ATOM     21  H   UNL     1      50.768  45.880  80.007  1.00  0.00     0.293 HD
ENDBRANCH  17  20
BRANCH  15  22
ATOM     22  O   UNL     1      52.894  47.526  75.645  1.00  0.00    -0.508 OA
ATOM     23  H   UNL     1      52.718  48.480  75.353  1.00  0.00     0.293 HD
ENDBRANCH  15  22
TORSDOF 3
ENDMDL
MODEL 4
REMARK VINA RESULT:    -6.725      1.244      5.490
REMARK INTER + INTRA:          -7.314
REMARK INTER:                  -7.314
REMARK INTRA:                   0.000
REMARK UNBOUND:                 0.000
REMARK SMILES Cc1cc(O)c2c(c1)C(=O)c1cc(O)cc(O)c1C2=O
REMARK SMILES IDX 1 1 2 2 8 3 7 4 6 5 4 6 3 7 19 8 20 9 18 10 11 11 9 12 10 13
REMARK SMILES IDX 12 14 13 15 15 16 16 17 5 18 17 20 14 22
REMARK H PARENT 5 19 17 21 14 23
REMARK Flexibility Score: inf
ROOT
ATOM      1  C   UNL     1      46.288  44.229  81.257  1.00  0.00     0.044 C 
ATOM      2  C   UNL     1      46.895  44.069  79.893  1.00  0.00    -0.047 A 
ATOM      3  C   UNL     1      48.210  44.484  79.655  1.00  0.00     0.016 A 
ATOM      4  C   UNL     1      48.800  44.308  78.391  1.00  0.00     0.038 A 
ATOM      5  C   UNL     1      48.068  43.688  77.356  1.00  0.00     0.076 A 
ATOM      6  C   UNL     1      46.744  43.260  77.605  1.00  0.00     0.127 A 
ATOM      7  C   UNL     1      46.172  43.446  78.870  1.00  0.00     0.050 A 
ATOM      8  C   UNL     1      48.720  43.475  76.037  1.00  0.00     0.201 C 
ATOM      9  O   UNL     1      48.239  42.628  75.237  1.00  0.00    -0.288 OA
ATOM     10  C   UNL     1      49.996  44.171  75.711  1.00  0.00     0.076 A 
ATOM     11  C   UNL     1      50.747  44.731  76.772  1.00  0.00     0.041 A 
ATOM     12  C   UNL     1      50.186  44.763  78.144  1.00  0.00     0.194 C 
ATOM     13  O   UNL     1      50.886  45.198  79.100  1.00  0.00    -0.289 OA
ATOM     14  C   UNL     1      52.023  45.264  76.521  1.00  0.00     0.059 A 
ATOM     15  C   UNL     1      52.552  45.262  75.229  1.00  0.00     0.120 A 
ATOM     16  C   UNL     1      51.797  44.757  74.173  1.00  0.00     0.093 A 
ATOM     17  C   UNL     1      50.514  44.245  74.389  1.00  0.00     0.131 A 
ENDROOT
BRANCH   6  18
ATOM     18  O   UNL     1      45.990  42.657  76.597  1.00  0.00    -0.507 OA
ATOM     19  H   UNL     1      45.208  42.048  76.808  1.00  0.00     0.293 HD
ENDBRANCH   6  18
BRANCH  17  20
ATOM     20  O   UNL     1      49.785  43.857  73.262  1.00  0.00    -0.507 OA
ATOM     21  H   UNL     1      49.156  43.067  73.246  1.00  0.00     0.293 HD
ENDBRANCH  17  20
BRANCH  15  22
ATOM     22  O   UNL     1      53.823  45.776  74.981  1.00  0.00    -0.508 OA
ATOM     23  H   UNL     1      54.658  45.223  75.134  1.00  0.00     0.293 HD
ENDBRANCH  15  22
TORSDOF 3
ENDMDL
MODEL 5
REMARK VINA RESULT:    -6.716      2.051      4.026
REMARK INTER + INTRA:          -7.305
REMARK INTER:                  -7.305
REMARK INTRA:                   0.000
REMARK UNBOUND:                 0.000
REMARK SMILES Cc1cc(O)c2c(c1)C(=O)c1cc(O)cc(O)c1C2=O
REMARK SMILES IDX 1 1 2 2 8 3 7 4 6 5 4 6 3 7 19 8 20 9 18 10 11 11 9 12 10 13
REMARK SMILES IDX 12 14 13 15 15 16 16 17 5 18 17 20 14 22
REMARK H PARENT 5 19 17 21 14 23
REMARK Flexibility Score: inf
ROOT
ATOM      1  C   UNL     1      52.633  48.201  75.293  1.00  0.00     0.044 C 
ATOM      2  C   UNL     1      51.665  47.221  75.891  1.00  0.00    -0.047 A 
ATOM      3  C   UNL     1      51.193  46.145  75.131  1.00  0.00     0.016 A 
ATOM      4  C   UNL     1      50.313  45.203  75.691  1.00  0.00     0.038 A 
ATOM      5  C   UNL     1      49.916  45.328  77.040  1.00  0.00     0.076 A 
ATOM      6  C   UNL     1      50.406  46.411  77.807  1.00  0.00     0.127 A 
ATOM      7  C   UNL     1      51.280  47.341  77.230  1.00  0.00     0.050 A 
ATOM      8  C   UNL     1      49.016  44.302  77.628  1.00  0.00     0.201 C 
ATOM      9  O   UNL     1      48.942  44.187  78.881  1.00  0.00    -0.288 OA
ATOM     10  C   UNL     1      48.299  43.340  76.745  1.00  0.00     0.076 A 
ATOM     11  C   UNL     1      48.753  43.183  75.413  1.00  0.00     0.041 A 
ATOM     12  C   UNL     1      49.806  44.076  74.876  1.00  0.00     0.194 C 
ATOM     13  O   UNL     1      50.259  43.888  73.713  1.00  0.00    -0.289 OA
ATOM     14  C   UNL     1      48.197  42.182  74.598  1.00  0.00     0.059 A 
ATOM     15  C   UNL     1      47.186  41.350  75.085  1.00  0.00     0.120 A 
ATOM     16  C   UNL     1      46.702  41.533  76.378  1.00  0.00     0.093 A 
ATOM     17  C   UNL     1      47.218  42.538  77.202  1.00  0.00     0.131 A 
ENDROOT
BRANCH   6  18
ATOM     18  O   UNL     1      50.021  46.570  79.138  1.00  0.00    -0.507 OA
ATOM     19  H   UNL     1      49.685  45.791  79.693  1.00  0.00     0.293 HD
ENDBRANCH   6  18
BRANCH  17  20
ATOM     20  O   UNL     1      46.604  42.722  78.443  1.00  0.00    -0.507 OA
ATOM     21  H   UNL     1      46.578  43.607  78.929  1.00  0.00     0.293 HD
ENDBRANCH  17  20
BRANCH  15  22
ATOM     22  O   UNL     1      46.644  40.347  74.283  1.00  0.00    -0.508 OA
ATOM     23  H   UNL     1      46.643  39.377  74.576  1.00  0.00     0.293 HD
ENDBRANCH  15  22
TORSDOF 3
ENDMDL
MODEL 6
REMARK VINA RESULT:    -6.392      1.393      3.499
REMARK INTER + INTRA:          -6.952
REMARK INTER:                  -6.952
REMARK INTRA:                   0.000
REMARK UNBOUND:                 0.000
REMARK SMILES Cc1cc(O)c2c(c1)C(=O)c1cc(O)cc(O)c1C2=O
REMARK SMILES IDX 1 1 2 2 8 3 7 4 6 5 4 6 3 7 19 8 20 9 18 10 11 11 9 12 10 13
REMARK SMILES IDX 12 14 13 15 15 16 16 17 5 18 17 20 14 22
REMARK H PARENT 5 19 17 21 14 23
REMARK Flexibility Score: inf
ROOT
ATOM      1  C   UNL     1      53.665  44.699  71.806  1.00  0.00     0.044 C 
ATOM      2  C   UNL     1      53.038  44.755  73.168  1.00  0.00    -0.047 A 
ATOM      3  C   UNL     1      51.735  44.282  73.363  1.00  0.00     0.016 A 
ATOM      4  C   UNL     1      51.149  44.299  74.641  1.00  0.00     0.038 A 
ATOM      5  C   UNL     1      51.887  44.777  75.745  1.00  0.00     0.076 A 
ATOM      6  C   UNL     1      53.208  45.242  75.545  1.00  0.00     0.127 A 
ATOM      7  C   UNL     1      53.773  45.221  74.263  1.00  0.00     0.050 A 
ATOM      8  C   UNL     1      51.267  44.751  77.096  1.00  0.00     0.201 C 
ATOM      9  O   UNL     1      52.003  44.825  78.117  1.00  0.00    -0.288 OA
ATOM     10  C   UNL     1      49.803  44.523  77.243  1.00  0.00     0.076 A 
ATOM     11  C   UNL     1      49.092  43.984  76.144  1.00  0.00     0.041 A 
ATOM     12  C   UNL     1      49.765  43.811  74.835  1.00  0.00     0.194 C 
ATOM     13  O   UNL     1      49.151  43.264  73.878  1.00  0.00    -0.289 OA
ATOM     14  C   UNL     1      47.743  43.618  76.295  1.00  0.00     0.059 A 
ATOM     15  C   UNL     1      47.090  43.800  77.516  1.00  0.00     0.120 A 
ATOM     16  C   UNL     1      47.771  44.376  78.586  1.00  0.00     0.093 A 
ATOM     17  C   UNL     1      49.106  44.773  78.457  1.00  0.00     0.131 A 
ENDROOT
BRANCH   6  18
ATOM     18  O   UNL     1      53.958  45.734  76.614  1.00  0.00    -0.507 OA
ATOM     19  H   UNL     1      54.902  45.412  76.796  1.00  0.00     0.293 HD
ENDBRANCH   6  18
BRANCH  17  20
ATOM     20  O   UNL     1      49.680  45.438  79.543  1.00  0.00    -0.507 OA
ATOM     21  H   UNL     1      50.634  45.298  79.845  1.00  0.00     0.293 HD
ENDBRANCH  17  20
BRANCH  15  22
ATOM     22  O   UNL     1      45.757  43.424  77.672  1.00  0.00    -0.508 OA
ATOM     23  H   UNL     1      45.489  42.667  78.288  1.00  0.00     0.293 HD
ENDBRANCH  15  22
TORSDOF 3
ENDMDL
MODEL 7
REMARK VINA RESULT:    -6.358     19.051     20.545
REMARK INTER + INTRA:          -6.916
REMARK INTER:                  -6.916
REMARK INTRA:                   0.000
REMARK UNBOUND:                 0.000
REMARK SMILES Cc1cc(O)c2c(c1)C(=O)c1cc(O)cc(O)c1C2=O
REMARK SMILES IDX 1 1 2 2 8 3 7 4 6 5 4 6 3 7 19 8 20 9 18 10 11 11 9 12 10 13
REMARK SMILES IDX 12 14 13 15 15 16 16 17 5 18 17 20 14 22
REMARK H PARENT 5 19 17 21 14 23
REMARK Flexibility Score: inf
ROOT
ATOM      1  C   UNL     1      44.011  31.696  64.344  1.00  0.00     0.044 C 
ATOM      2  C   UNL     1      42.535  31.444  64.234  1.00  0.00    -0.047 A 
ATOM      3  C   UNL     1      41.621  32.401  64.691  1.00  0.00     0.016 A 
ATOM      4  C   UNL     1      40.238  32.191  64.562  1.00  0.00     0.038 A 
ATOM      5  C   UNL     1      39.761  31.014  63.947  1.00  0.00     0.076 A 
ATOM      6  C   UNL     1      40.688  30.055  63.476  1.00  0.00     0.127 A 
ATOM      7  C   UNL     1      42.064  30.281  63.616  1.00  0.00     0.050 A 
ATOM      8  C   UNL     1      38.296  30.825  63.783  1.00  0.00     0.201 C 
ATOM      9  O   UNL     1      37.868  29.989  62.942  1.00  0.00    -0.288 OA
ATOM     10  C   UNL     1      37.341  31.698  64.522  1.00  0.00     0.076 A 
ATOM     11  C   UNL     1      37.826  32.906  65.077  1.00  0.00     0.041 A 
ATOM     12  C   UNL     1      39.278  33.202  65.062  1.00  0.00     0.194 C 
ATOM     13  O   UNL     1      39.700  34.310  65.493  1.00  0.00    -0.289 OA
ATOM     14  C   UNL     1      36.928  33.822  65.652  1.00  0.00     0.059 A 
ATOM     15  C   UNL     1      35.560  33.543  65.696  1.00  0.00     0.120 A 
ATOM     16  C   UNL     1      35.084  32.334  65.195  1.00  0.00     0.093 A 
ATOM     17  C   UNL     1      35.958  31.393  64.642  1.00  0.00     0.131 A 
ENDROOT
BRANCH   6  18
ATOM     18  O   UNL     1      40.248  28.875  62.876  1.00  0.00    -0.507 OA
ATOM     19  H   UNL     1      40.781  28.416  62.147  1.00  0.00     0.293 HD
ENDBRANCH   6  18
BRANCH  17  20
ATOM     20  O   UNL     1      35.412  30.164  64.261  1.00  0.00    -0.507 OA
ATOM     21  H   UNL     1      35.193  29.921  63.306  1.00  0.00     0.293 HD
ENDBRANCH  17  20
BRANCH  15  22
ATOM     22  O   UNL     1      34.667  34.457  66.251  1.00  0.00    -0.508 OA
ATOM     23  H   UNL     1      33.972  34.929  65.686  1.00  0.00     0.293 HD
ENDBRANCH  15  22
TORSDOF 3
ENDMDL
MODEL 8
REMARK VINA RESULT:    -6.100      1.847      3.484
REMARK INTER + INTRA:          -6.635
REMARK INTER:                  -6.635
REMARK INTRA:                   0.000
REMARK UNBOUND:                 0.000
REMARK SMILES Cc1cc(O)c2c(c1)C(=O)c1cc(O)cc(O)c1C2=O
REMARK SMILES IDX 1 1 2 2 8 3 7 4 6 5 4 6 3 7 19 8 20 9 18 10 11 11 9 12 10 13
REMARK SMILES IDX 12 14 13 15 15 16 16 17 5 18 17 20 14 22
REMARK H PARENT 5 19 17 21 14 23
REMARK Flexibility Score: inf
ROOT
ATOM      1  C   UNL     1      50.518  45.486  70.812  1.00  0.00     0.044 C 
ATOM      2  C   UNL     1      50.497  45.491  72.313  1.00  0.00    -0.047 A 
ATOM      3  C   UNL     1      49.551  44.727  73.006  1.00  0.00     0.016 A 
ATOM      4  C   UNL     1      49.543  44.697  74.411  1.00  0.00     0.038 A 
ATOM      5  C   UNL     1      50.511  45.426  75.133  1.00  0.00     0.076 A 
ATOM      6  C   UNL     1      51.473  46.187  74.429  1.00  0.00     0.127 A 
ATOM      7  C   UNL     1      51.462  46.207  73.028  1.00  0.00     0.050 A 
ATOM      8  C   UNL     1      50.513  45.353  76.618  1.00  0.00     0.201 C 
ATOM      9  O   UNL     1      51.549  45.685  77.254  1.00  0.00    -0.288 OA
ATOM     10  C   UNL     1      49.343  44.781  77.341  1.00  0.00     0.076 A 
ATOM     11  C   UNL     1      48.417  43.999  76.610  1.00  0.00     0.041 A 
ATOM     12  C   UNL     1      48.529  43.898  75.136  1.00  0.00     0.194 C 
ATOM     13  O   UNL     1      47.746  43.144  74.495  1.00  0.00    -0.289 OA
ATOM     14  C   UNL     1      47.385  43.324  77.285  1.00  0.00     0.059 A 
ATOM     15  C   UNL     1      47.253  43.432  78.671  1.00  0.00     0.120 A 
ATOM     16  C   UNL     1      48.132  44.240  79.389  1.00  0.00     0.093 A 
ATOM     17  C   UNL     1      49.152  44.943  78.741  1.00  0.00     0.131 A 
ENDROOT
BRANCH   6  18
ATOM     18  O   UNL     1      52.433  46.930  75.115  1.00  0.00    -0.507 OA
ATOM     19  H   UNL     1      53.242  46.492  75.542  1.00  0.00     0.293 HD
ENDBRANCH   6  18
BRANCH  17  20
ATOM     20  O   UNL     1      49.920  45.812  79.519  1.00  0.00    -0.507 OA
ATOM     21  H   UNL     1      50.166  45.632  80.482  1.00  0.00     0.293 HD
ENDBRANCH  17  20
BRANCH  15  22
ATOM     22  O   UNL     1      46.240  42.752  79.343  1.00  0.00    -0.508 OA
ATOM     23  H   UNL     1      46.338  41.778  79.604  1.00  0.00     0.293 HD
ENDBRANCH  15  22
TORSDOF 3
ENDMDL
