MODEL 1
REMARK VINA RESULT:    -4.490      0.000      0.000
REMARK INTER + INTRA:          -8.598
REMARK INTER:                  -6.984
REMARK INTRA:                  -1.614
REMARK UNBOUND:                -1.614
REMARK SMILES COc1cc(CNC(=O)CCCCC=CC(C)C)ccc1O
REMARK SMILES IDX 11 1 12 2 13 3 14 4 15 5 16 6 17 7 18 8 10 9 8 10 9 11 7 12
REMARK SMILES IDX 6 14 5 15 4 16 19 17 3 18 20 19 21 20 2 21 1 22 22 23
REMARK H PARENT 7 13 22 24
REMARK Flexibility Score: inf
ROOT
ATOM      1  C   UNL     1     168.822 164.498 170.753  1.00  0.00     0.010 C 
ENDROOT
BRANCH   1   2
ATOM      2  C   UNL     1     168.348 165.545 171.775  1.00  0.00     0.005 C 
BRANCH   2   3
ATOM      3  C   UNL     1     169.362 166.680 172.022  1.00  0.00     0.027 C 
BRANCH   3   4
ATOM      4  C   UNL     1     168.857 168.006 171.506  1.00  0.00    -0.031 C 
ATOM      5  C   UNL     1     169.404 168.751 170.521  1.00  0.00    -0.028 C 
BRANCH   5   6
ATOM      6  C   UNL     1     170.573 168.402 169.616  1.00  0.00     0.005 C 
ATOM      7  C   UNL     1     170.203 168.297 168.132  1.00  0.00     0.012 C 
ATOM      8  C   UNL     1     171.786 169.311 169.852  1.00  0.00     0.012 C 
ENDBRANCH   5   6
ENDBRANCH   3   4
ENDBRANCH   2   3
ENDBRANCH   1   2
BRANCH   1   9
ATOM      9  C   UNL     1     168.922 165.057 169.328  1.00  0.00     0.100 C 
BRANCH   9  10
ATOM     10  C   UNL     1     167.553 165.302 168.770  1.00  0.00     0.220 C 
ATOM     11  O   UNL     1     166.913 164.342 168.258  1.00  0.00    -0.275 OA
ATOM     12  N   UNL     1     166.955 166.601 168.874  1.00  0.00    -0.352 N 
ATOM     13  H   UNL     1     167.505 167.382 169.299  1.00  0.00     0.163 HD
BRANCH  12  14
ATOM     14  C   UNL     1     165.566 166.857 168.505  1.00  0.00     0.151 C 
BRANCH  14  15
ATOM     15  C   UNL     1     164.657 166.490 169.647  1.00  0.00    -0.025 A 
ATOM     16  C   UNL     1     165.045 166.742 170.973  1.00  0.00     0.056 A 
ATOM     17  C   UNL     1     163.389 165.951 169.390  1.00  0.00     0.009 A 
ATOM     18  C   UNL     1     164.180 166.435 172.043  1.00  0.00     0.160 A 
ATOM     19  C   UNL     1     162.529 165.640 170.444  1.00  0.00     0.050 A 
ATOM     20  C   UNL     1     162.917 165.878 171.767  1.00  0.00     0.157 A 
BRANCH  18  21
ATOM     21  O   UNL     1     164.539 166.675 173.380  1.00  0.00    -0.493 OA
ATOM     22  C   UNL     1     165.225 165.745 174.212  1.00  0.00     0.278 C 
ENDBRANCH  18  21
BRANCH  20  23
ATOM     23  O   UNL     1     162.032 165.553 172.796  1.00  0.00    -0.504 OA
ATOM     24  H   UNL     1     161.027 165.555 172.666  1.00  0.00     0.293 HD
ENDBRANCH  20  23
ENDBRANCH  14  15
ENDBRANCH  12  14
ENDBRANCH   9  10
ENDBRANCH   1   9
TORSDOF 10
ENDMDL
MODEL 2
REMARK VINA RESULT:    -4.445      3.471      4.390
REMARK INTER + INTRA:          -8.528
REMARK INTER:                  -6.986
REMARK INTRA:                  -1.541
REMARK UNBOUND:                -1.614
REMARK SMILES COc1cc(CNC(=O)CCCCC=CC(C)C)ccc1O
REMARK SMILES IDX 11 1 12 2 13 3 14 4 15 5 16 6 17 7 18 8 10 9 8 10 9 11 7 12
REMARK SMILES IDX 6 14 5 15 4 16 19 17 3 18 20 19 21 20 2 21 1 22 22 23
REMARK H PARENT 7 13 22 24
REMARK Flexibility Score: inf
ROOT
ATOM      1  C   UNL     1     166.502 166.435 170.079  1.00  0.00     0.010 C 
ENDROOT
BRANCH   1   2
ATOM      2  C   UNL     1     167.640 165.480 169.681  1.00  0.00     0.005 C 
BRANCH   2   3
ATOM      3  C   UNL     1     169.009 165.855 170.283  1.00  0.00     0.027 C 
BRANCH   3   4
ATOM      4  C   UNL     1     168.982 167.216 170.935  1.00  0.00    -0.031 C 
ATOM      5  C   UNL     1     169.781 168.266 170.647  1.00  0.00    -0.028 C 
BRANCH   5   6
ATOM      6  C   UNL     1     170.812 168.387 169.538  1.00  0.00     0.005 C 
ATOM      7  C   UNL     1     170.205 168.558 168.139  1.00  0.00     0.012 C 
ATOM      8  C   UNL     1     171.879 169.446 169.844  1.00  0.00     0.012 C 
ENDBRANCH   5   6
ENDBRANCH   3   4
ENDBRANCH   2   3
ENDBRANCH   1   2
BRANCH   1   9
ATOM      9  C   UNL     1     165.539 166.731 168.922  1.00  0.00     0.100 C 
BRANCH   9  10
ATOM     10  C   UNL     1     165.593 168.184 168.562  1.00  0.00     0.220 C 
ATOM     11  O   UNL     1     164.570 168.738 168.071  1.00  0.00    -0.275 OA
ATOM     12  N   UNL     1     166.776 168.950 168.830  1.00  0.00    -0.352 N 
ATOM     13  H   UNL     1     167.612 168.469 169.234  1.00  0.00     0.163 HD
BRANCH  12  14
ATOM     14  C   UNL     1     166.828 170.399 168.660  1.00  0.00     0.151 C 
BRANCH  14  15
ATOM     15  C   UNL     1     166.406 171.078 169.934  1.00  0.00    -0.025 A 
ATOM     16  C   UNL     1     166.766 170.540 171.180  1.00  0.00     0.056 A 
ATOM     17  C   UNL     1     165.703 172.291 169.885  1.00  0.00     0.009 A 
ATOM     18  C   UNL     1     166.405 171.195 172.375  1.00  0.00     0.160 A 
ATOM     19  C   UNL     1     165.338 172.943 171.063  1.00  0.00     0.050 A 
ATOM     20  C   UNL     1     165.684 172.402 172.306  1.00  0.00     0.157 A 
BRANCH  18  21
ATOM     21  O   UNL     1     166.750 170.682 173.637  1.00  0.00    -0.493 OA
ATOM     22  C   UNL     1     165.935 169.797 174.400  1.00  0.00     0.278 C 
ENDBRANCH  18  21
BRANCH  20  23
ATOM     23  O   UNL     1     165.301 173.081 173.464  1.00  0.00    -0.504 OA
ATOM     24  H   UNL     1     164.992 174.046 173.448  1.00  0.00     0.293 HD
ENDBRANCH  20  23
ENDBRANCH  14  15
ENDBRANCH  12  14
ENDBRANCH   9  10
ENDBRANCH   1   9
TORSDOF 10
ENDMDL
MODEL 3
REMARK VINA RESULT:    -4.423      4.370      6.724
REMARK INTER + INTRA:          -8.493
REMARK INTER:                  -7.768
REMARK INTRA:                  -0.725
REMARK UNBOUND:                -1.614
REMARK SMILES COc1cc(CNC(=O)CCCCC=CC(C)C)ccc1O
REMARK SMILES IDX 11 1 12 2 13 3 14 4 15 5 16 6 17 7 18 8 10 9 8 10 9 11 7 12
REMARK SMILES IDX 6 14 5 15 4 16 19 17 3 18 20 19 21 20 2 21 1 22 22 23
REMARK H PARENT 7 13 22 24
REMARK Flexibility Score: inf
ROOT
ATOM      1  C   UNL     1     169.553 162.682 171.640  1.00  0.00     0.010 C 
ENDROOT
BRANCH   1   2
ATOM      2  C   UNL     1     170.812 162.759 172.519  1.00  0.00     0.005 C 
BRANCH   2   3
ATOM      3  C   UNL     1     171.830 161.632 172.251  1.00  0.00     0.027 C 
BRANCH   3   4
ATOM      4  C   UNL     1     173.253 162.134 172.319  1.00  0.00    -0.031 C 
ATOM      5  C   UNL     1     174.375 161.410 172.118  1.00  0.00    -0.028 C 
BRANCH   5   6
ATOM      6  C   UNL     1     174.494 159.965 171.664  1.00  0.00     0.005 C 
ATOM      7  C   UNL     1     175.532 159.742 170.557  1.00  0.00     0.012 C 
ATOM      8  C   UNL     1     174.679 158.997 172.841  1.00  0.00     0.012 C 
ENDBRANCH   5   6
ENDBRANCH   3   4
ENDBRANCH   2   3
ENDBRANCH   1   2
BRANCH   1   9
ATOM      9  C   UNL     1     169.866 162.351 170.175  1.00  0.00     0.100 C 
BRANCH   9  10
ATOM     10  C   UNL     1     168.971 163.135 169.264  1.00  0.00     0.220 C 
ATOM     11  O   UNL     1     168.461 162.567 168.258  1.00  0.00    -0.275 OA
ATOM     12  N   UNL     1     168.650 164.499 169.568  1.00  0.00    -0.352 N 
ATOM     13  H   UNL     1     169.086 164.950 170.405  1.00  0.00     0.163 HD
BRANCH  12  14
ATOM     14  C   UNL     1     167.654 165.257 168.816  1.00  0.00     0.151 C 
BRANCH  14  15
ATOM     15  C   UNL     1     168.109 166.683 168.659  1.00  0.00    -0.025 A 
ATOM     16  C   UNL     1     169.458 167.024 168.846  1.00  0.00     0.056 A 
ATOM     17  C   UNL     1     167.197 167.672 168.264  1.00  0.00     0.009 A 
ATOM     18  C   UNL     1     169.894 168.352 168.662  1.00  0.00     0.160 A 
ATOM     19  C   UNL     1     167.619 168.989 168.085  1.00  0.00     0.050 A 
ATOM     20  C   UNL     1     168.960 169.335 168.283  1.00  0.00     0.157 A 
BRANCH  18  21
ATOM     21  O   UNL     1     171.237 168.725 168.842  1.00  0.00    -0.493 OA
ATOM     22  C   UNL     1     171.791 169.183 170.071  1.00  0.00     0.278 C 
ENDBRANCH  18  21
BRANCH  20  23
ATOM     23  O   UNL     1     169.347 170.663 168.096  1.00  0.00    -0.504 OA
ATOM     24  H   UNL     1     170.008 170.938 167.377  1.00  0.00     0.293 HD
ENDBRANCH  20  23
ENDBRANCH  14  15
ENDBRANCH  12  14
ENDBRANCH   9  10
ENDBRANCH   1   9
TORSDOF 10
ENDMDL
MODEL 4
REMARK VINA RESULT:    -4.370      3.851      6.286
REMARK INTER + INTRA:          -8.411
REMARK INTER:                  -7.493
REMARK INTRA:                  -0.918
REMARK UNBOUND:                -1.614
REMARK SMILES COc1cc(CNC(=O)CCCCC=CC(C)C)ccc1O
REMARK SMILES IDX 11 1 12 2 13 3 14 4 15 5 16 6 17 7 18 8 10 9 8 10 9 11 7 12
REMARK SMILES IDX 6 14 5 15 4 16 19 17 3 18 20 19 21 20 2 21 1 22 22 23
REMARK H PARENT 7 13 22 24
REMARK Flexibility Score: inf
ROOT
ATOM      1  C   UNL     1     170.013 163.204 171.411  1.00  0.00     0.010 C 
ENDROOT
BRANCH   1   2
ATOM      2  C   UNL     1     169.412 162.756 172.754  1.00  0.00     0.005 C 
BRANCH   2   3
ATOM      3  C   UNL     1     170.377 161.925 173.623  1.00  0.00     0.027 C 
BRANCH   3   4
ATOM      4  C   UNL     1     171.641 162.686 173.944  1.00  0.00    -0.031 C 
ATOM      5  C   UNL     1     172.888 162.400 173.510  1.00  0.00    -0.028 C 
BRANCH   5   6
ATOM      6  C   UNL     1     173.317 161.334 172.516  1.00  0.00     0.005 C 
ATOM      7  C   UNL     1     174.562 161.707 171.702  1.00  0.00     0.012 C 
ATOM      8  C   UNL     1     173.435 159.947 173.160  1.00  0.00     0.012 C 
ENDBRANCH   5   6
ENDBRANCH   3   4
ENDBRANCH   2   3
ENDBRANCH   1   2
BRANCH   1   9
ATOM      9  C   UNL     1     169.838 162.160 170.301  1.00  0.00     0.100 C 
BRANCH   9  10
ATOM     10  C   UNL     1     169.100 162.756 169.140  1.00  0.00     0.220 C 
ATOM     11  O   UNL     1     168.375 162.014 168.421  1.00  0.00    -0.275 OA
ATOM     12  N   UNL     1     169.171 164.166 168.889  1.00  0.00    -0.352 N 
ATOM     13  H   UNL     1     169.780 164.761 169.496  1.00  0.00     0.163 HD
BRANCH  12  14
ATOM     14  C   UNL     1     168.343 164.826 167.884  1.00  0.00     0.151 C 
BRANCH  14  15
ATOM     15  C   UNL     1     168.606 166.308 167.899  1.00  0.00    -0.025 A 
ATOM     16  C   UNL     1     167.541 167.218 168.000  1.00  0.00     0.056 A 
ATOM     17  C   UNL     1     169.923 166.788 167.875  1.00  0.00     0.009 A 
ATOM     18  C   UNL     1     167.786 168.605 168.053  1.00  0.00     0.160 A 
ATOM     19  C   UNL     1     170.173 168.160 167.923  1.00  0.00     0.050 A 
ATOM     20  C   UNL     1     169.114 169.070 168.010  1.00  0.00     0.157 A 
BRANCH  18  21
ATOM     21  O   UNL     1     166.742 169.540 168.154  1.00  0.00    -0.493 OA
ATOM     22  C   UNL     1     165.377 169.206 168.383  1.00  0.00     0.278 C 
ENDBRANCH  18  21
BRANCH  20  23
ATOM     23  O   UNL     1     169.402 170.435 168.054  1.00  0.00    -0.504 OA
ATOM     24  H   UNL     1     170.043 170.831 168.732  1.00  0.00     0.293 HD
ENDBRANCH  20  23
ENDBRANCH  14  15
ENDBRANCH  12  14
ENDBRANCH   9  10
ENDBRANCH   1   9
TORSDOF 10
ENDMDL
MODEL 5
REMARK VINA RESULT:    -4.329      4.775      5.855
REMARK INTER + INTRA:          -8.347
REMARK INTER:                  -6.962
REMARK INTRA:                  -1.385
REMARK UNBOUND:                -1.614
REMARK SMILES COc1cc(CNC(=O)CCCCC=CC(C)C)ccc1O
REMARK SMILES IDX 11 1 12 2 13 3 14 4 15 5 16 6 17 7 18 8 10 9 8 10 9 11 7 12
REMARK SMILES IDX 6 14 5 15 4 16 19 17 3 18 20 19 21 20 2 21 1 22 22 23
REMARK H PARENT 7 13 22 24
REMARK Flexibility Score: inf
ROOT
ATOM      1  C   UNL     1     165.588 168.474 168.486  1.00  0.00     0.010 C 
ENDROOT
BRANCH   1   2
ATOM      2  C   UNL     1     165.880 167.026 168.911  1.00  0.00     0.005 C 
BRANCH   2   3
ATOM      3  C   UNL     1     167.144 166.428 168.261  1.00  0.00     0.027 C 
BRANCH   3   4
ATOM      4  C   UNL     1     168.087 165.855 169.293  1.00  0.00    -0.031 C 
ATOM      5  C   UNL     1     168.997 166.537 170.022  1.00  0.00    -0.028 C 
BRANCH   5   6
ATOM      6  C   UNL     1     169.222 168.039 170.080  1.00  0.00     0.005 C 
ATOM      7  C   UNL     1     168.927 168.660 171.451  1.00  0.00     0.012 C 
ATOM      8  C   UNL     1     170.599 168.445 169.540  1.00  0.00     0.012 C 
ENDBRANCH   5   6
ENDBRANCH   3   4
ENDBRANCH   2   3
ENDBRANCH   1   2
BRANCH   1   9
ATOM      9  C   UNL     1     166.809 169.177 167.879  1.00  0.00     0.100 C 
BRANCH   9  10
ATOM     10  C   UNL     1     166.963 170.548 168.465  1.00  0.00     0.220 C 
ATOM     11  O   UNL     1     167.991 171.226 168.191  1.00  0.00    -0.275 OA
ATOM     12  N   UNL     1     165.921 171.104 169.278  1.00  0.00    -0.352 N 
ATOM     13  H   UNL     1     165.079 170.523 169.495  1.00  0.00     0.163 HD
BRANCH  12  14
ATOM     14  C   UNL     1     165.937 172.492 169.733  1.00  0.00     0.151 C 
BRANCH  14  15
ATOM     15  C   UNL     1     165.652 172.549 171.209  1.00  0.00    -0.025 A 
ATOM     16  C   UNL     1     164.675 173.423 171.712  1.00  0.00     0.056 A 
ATOM     17  C   UNL     1     166.318 171.682 172.088  1.00  0.00     0.009 A 
ATOM     18  C   UNL     1     164.379 173.452 173.090  1.00  0.00     0.160 A 
ATOM     19  C   UNL     1     166.034 171.708 173.453  1.00  0.00     0.050 A 
ATOM     20  C   UNL     1     165.071 172.587 173.959  1.00  0.00     0.157 A 
BRANCH  18  21
ATOM     21  O   UNL     1     163.408 174.316 173.623  1.00  0.00    -0.493 OA
ATOM     22  C   UNL     1     162.016 174.022 173.692  1.00  0.00     0.278 C 
ENDBRANCH  18  21
BRANCH  20  23
ATOM     23  O   UNL     1     164.813 172.586 175.331  1.00  0.00    -0.504 OA
ATOM     24  H   UNL     1     165.537 172.406 176.017  1.00  0.00     0.293 HD
ENDBRANCH  20  23
ENDBRANCH  14  15
ENDBRANCH  12  14
ENDBRANCH   9  10
ENDBRANCH   1   9
TORSDOF 10
ENDMDL
MODEL 6
REMARK VINA RESULT:    -4.317      4.242      7.930
REMARK INTER + INTRA:          -8.329
REMARK INTER:                  -7.050
REMARK INTRA:                  -1.279
REMARK UNBOUND:                -1.614
REMARK SMILES COc1cc(CNC(=O)CCCCC=CC(C)C)ccc1O
REMARK SMILES IDX 11 1 12 2 13 3 14 4 15 5 16 6 17 7 18 8 10 9 8 10 9 11 7 12
REMARK SMILES IDX 6 14 5 15 4 16 19 17 3 18 20 19 21 20 2 21 1 22 22 23
REMARK H PARENT 7 13 22 24
REMARK Flexibility Score: inf
ROOT
ATOM      1  C   UNL     1     168.197 169.094 169.270  1.00  0.00     0.010 C 
ENDROOT
BRANCH   1   2
ATOM      2  C   UNL     1     166.694 169.056 168.946  1.00  0.00     0.005 C 
BRANCH   2   3
ATOM      3  C   UNL     1     166.312 168.015 167.875  1.00  0.00     0.027 C 
BRANCH   3   4
ATOM      4  C   UNL     1     165.669 166.792 168.486  1.00  0.00    -0.031 C 
ATOM      5  C   UNL     1     166.300 165.677 168.913  1.00  0.00    -0.028 C 
BRANCH   5   6
ATOM      6  C   UNL     1     167.794 165.415 168.999  1.00  0.00     0.005 C 
ATOM      7  C   UNL     1     168.367 165.531 170.417  1.00  0.00     0.012 C 
ATOM      8  C   UNL     1     168.197 164.103 168.312  1.00  0.00     0.012 C 
ENDBRANCH   5   6
ENDBRANCH   3   4
ENDBRANCH   2   3
ENDBRANCH   1   2
BRANCH   1   9
ATOM      9  C   UNL     1     169.071 168.620 168.102  1.00  0.00     0.100 C 
BRANCH   9  10
ATOM     10  C   UNL     1     170.490 168.446 168.554  1.00  0.00     0.220 C 
ATOM     11  O   UNL     1     171.143 167.437 168.168  1.00  0.00    -0.275 OA
ATOM     12  N   UNL     1     171.115 169.449 169.366  1.00  0.00    -0.352 N 
ATOM     13  H   UNL     1     170.553 170.275 169.676  1.00  0.00     0.163 HD
BRANCH  12  14
ATOM     14  C   UNL     1     172.537 169.420 169.693  1.00  0.00     0.151 C 
BRANCH  14  15
ATOM     15  C   UNL     1     172.730 169.685 171.161  1.00  0.00    -0.025 A 
ATOM     16  C   UNL     1     173.711 170.589 171.598  1.00  0.00     0.056 A 
ATOM     17  C   UNL     1     171.886 169.077 172.102  1.00  0.00     0.009 A 
ATOM     18  C   UNL     1     173.869 170.869 172.971  1.00  0.00     0.160 A 
ATOM     19  C   UNL     1     172.039 169.345 173.462  1.00  0.00     0.050 A 
ATOM     20  C   UNL     1     173.025 170.235 173.902  1.00  0.00     0.157 A 
BRANCH  18  21
ATOM     21  O   UNL     1     174.842 171.768 173.439  1.00  0.00    -0.493 OA
ATOM     22  C   UNL     1     174.994 173.107 172.977  1.00  0.00     0.278 C 
ENDBRANCH  18  21
BRANCH  20  23
ATOM     23  O   UNL     1     173.149 170.478 175.271  1.00  0.00    -0.504 OA
ATOM     24  H   UNL     1     173.982 170.893 175.673  1.00  0.00     0.293 HD
ENDBRANCH  20  23
ENDBRANCH  14  15
ENDBRANCH  12  14
ENDBRANCH   9  10
ENDBRANCH   1   9
TORSDOF 10
ENDMDL
MODEL 7
REMARK VINA RESULT:    -4.272      2.692      5.004
REMARK INTER + INTRA:          -8.258
REMARK INTER:                  -6.449
REMARK INTRA:                  -1.808
REMARK UNBOUND:                -1.614
REMARK SMILES COc1cc(CNC(=O)CCCCC=CC(C)C)ccc1O
REMARK SMILES IDX 11 1 12 2 13 3 14 4 15 5 16 6 17 7 18 8 10 9 8 10 9 11 7 12
REMARK SMILES IDX 6 14 5 15 4 16 19 17 3 18 20 19 21 20 2 21 1 22 22 23
REMARK H PARENT 7 13 22 24
REMARK Flexibility Score: inf
ROOT
ATOM      1  C   UNL     1     170.903 169.172 171.916  1.00  0.00     0.010 C 
ENDROOT
BRANCH   1   2
ATOM      2  C   UNL     1     171.134 168.024 172.913  1.00  0.00     0.005 C 
BRANCH   2   3
ATOM      3  C   UNL     1     169.840 167.314 173.359  1.00  0.00     0.027 C 
BRANCH   3   4
ATOM      4  C   UNL     1     169.158 166.615 172.208  1.00  0.00    -0.031 C 
ATOM      5  C   UNL     1     167.880 166.780 171.805  1.00  0.00    -0.028 C 
BRANCH   5   6
ATOM      6  C   UNL     1     166.853 167.776 172.318  1.00  0.00     0.005 C 
ATOM      7  C   UNL     1     166.491 167.592 173.797  1.00  0.00     0.012 C 
ATOM      8  C   UNL     1     167.230 169.226 171.986  1.00  0.00     0.012 C 
ENDBRANCH   5   6
ENDBRANCH   3   4
ENDBRANCH   2   3
ENDBRANCH   1   2
BRANCH   1   9
ATOM      9  C   UNL     1     172.084 169.377 170.958  1.00  0.00     0.100 C 
BRANCH   9  10
ATOM     10  C   UNL     1     171.682 169.024 169.557  1.00  0.00     0.220 C 
ATOM     11  O   UNL     1     172.560 168.622 168.744  1.00  0.00    -0.275 OA
ATOM     12  N   UNL     1     170.304 169.086 169.166  1.00  0.00    -0.352 N 
ATOM     13  H   UNL     1     169.594 169.425 169.856  1.00  0.00     0.163 HD
BRANCH  12  14
ATOM     14  C   UNL     1     169.832 168.594 167.875  1.00  0.00     0.151 C 
BRANCH  14  15
ATOM     15  C   UNL     1     168.582 167.778 168.065  1.00  0.00    -0.025 A 
ATOM     16  C   UNL     1     168.626 166.378 167.970  1.00  0.00     0.056 A 
ATOM     17  C   UNL     1     167.376 168.408 168.400  1.00  0.00     0.009 A 
ATOM     18  C   UNL     1     167.465 165.608 168.185  1.00  0.00     0.160 A 
ATOM     19  C   UNL     1     166.221 167.654 168.609  1.00  0.00     0.050 A 
ATOM     20  C   UNL     1     166.258 166.259 168.503  1.00  0.00     0.157 A 
BRANCH  18  21
ATOM     21  O   UNL     1     167.477 164.206 168.097  1.00  0.00    -0.493 OA
ATOM     22  C   UNL     1     168.493 163.370 168.644  1.00  0.00     0.278 C 
ENDBRANCH  18  21
BRANCH  20  23
ATOM     23  O   UNL     1     165.084 165.537 168.718  1.00  0.00    -0.504 OA
ATOM     24  H   UNL     1     164.165 165.944 168.582  1.00  0.00     0.293 HD
ENDBRANCH  20  23
ENDBRANCH  14  15
ENDBRANCH  12  14
ENDBRANCH   9  10
ENDBRANCH   1   9
TORSDOF 10
ENDMDL
MODEL 8
REMARK VINA RESULT:    -4.198      2.438      4.651
REMARK INTER + INTRA:          -8.143
REMARK INTER:                  -6.314
REMARK INTRA:                  -1.829
REMARK UNBOUND:                -1.614
REMARK SMILES COc1cc(CNC(=O)CCCCC=CC(C)C)ccc1O
REMARK SMILES IDX 11 1 12 2 13 3 14 4 15 5 16 6 17 7 18 8 10 9 8 10 9 11 7 12
REMARK SMILES IDX 6 14 5 15 4 16 19 17 3 18 20 19 21 20 2 21 1 22 22 23
REMARK H PARENT 7 13 22 24
REMARK Flexibility Score: inf
ROOT
ATOM      1  C   UNL     1     165.153 167.567 169.653  1.00  0.00     0.010 C 
ENDROOT
BRANCH   1   2
ATOM      2  C   UNL     1     165.604 167.059 171.032  1.00  0.00     0.005 C 
BRANCH   2   3
ATOM      3  C   UNL     1     166.364 168.109 171.867  1.00  0.00     0.027 C 
BRANCH   3   4
ATOM      4  C   UNL     1     166.975 169.181 170.997  1.00  0.00    -0.031 C 
ATOM      5  C   UNL     1     168.243 169.219 170.533  1.00  0.00    -0.028 C 
BRANCH   5   6
ATOM      6  C   UNL     1     169.324 168.160 170.662  1.00  0.00     0.005 C 
ATOM      7  C   UNL     1     170.380 168.208 169.550  1.00  0.00     0.012 C 
ATOM      8  C   UNL     1     169.952 168.133 172.061  1.00  0.00     0.012 C 
ENDBRANCH   5   6
ENDBRANCH   3   4
ENDBRANCH   2   3
ENDBRANCH   1   2
BRANCH   1   9
ATOM      9  C   UNL     1     165.273 166.501 168.556  1.00  0.00     0.100 C 
BRANCH   9  10
ATOM     10  C   UNL     1     166.714 166.182 168.299  1.00  0.00     0.220 C 
ATOM     11  O   UNL     1     167.483 167.089 167.875  1.00  0.00    -0.275 OA
ATOM     12  N   UNL     1     167.225 164.874 168.590  1.00  0.00    -0.352 N 
ATOM     13  H   UNL     1     166.569 164.138 168.937  1.00  0.00     0.163 HD
BRANCH  12  14
ATOM     14  C   UNL     1     168.648 164.555 168.523  1.00  0.00     0.151 C 
BRANCH  14  15
ATOM     15  C   UNL     1     169.100 163.956 169.827  1.00  0.00    -0.025 A 
ATOM     16  C   UNL     1     168.741 164.552 171.046  1.00  0.00     0.056 A 
ATOM     17  C   UNL     1     169.831 162.759 169.835  1.00  0.00     0.009 A 
ATOM     18  C   UNL     1     169.130 163.973 172.271  1.00  0.00     0.160 A 
ATOM     19  C   UNL     1     170.224 162.181 171.042  1.00  0.00     0.050 A 
ATOM     20  C   UNL     1     169.879 162.781 172.259  1.00  0.00     0.157 A 
BRANCH  18  21
ATOM     21  O   UNL     1     168.787 164.546 173.507  1.00  0.00    -0.493 OA
ATOM     22  C   UNL     1     167.539 165.171 173.789  1.00  0.00     0.278 C 
ENDBRANCH  18  21
BRANCH  20  23
ATOM     23  O   UNL     1     170.291 162.175 173.447  1.00  0.00    -0.504 OA
ATOM     24  H   UNL     1     169.684 161.563 173.980  1.00  0.00     0.293 HD
ENDBRANCH  20  23
ENDBRANCH  14  15
ENDBRANCH  12  14
ENDBRANCH   9  10
ENDBRANCH   1   9
TORSDOF 10
ENDMDL
MODEL 9
REMARK VINA RESULT:    -4.179      3.211      5.251
REMARK INTER + INTRA:          -8.113
REMARK INTER:                  -6.187
REMARK INTRA:                  -1.927
REMARK UNBOUND:                -1.614
REMARK SMILES COc1cc(CNC(=O)CCCCC=CC(C)C)ccc1O
REMARK SMILES IDX 11 1 12 2 13 3 14 4 15 5 16 6 17 7 18 8 10 9 8 10 9 11 7 12
REMARK SMILES IDX 6 14 5 15 4 16 19 17 3 18 20 19 21 20 2 21 1 22 22 23
REMARK H PARENT 7 13 22 24
REMARK Flexibility Score: inf
ROOT
ATOM      1  C   UNL     1     166.764 169.598 168.936  1.00  0.00     0.010 C 
ENDROOT
BRANCH   1   2
ATOM      2  C   UNL     1     167.622 170.538 168.074  1.00  0.00     0.005 C 
BRANCH   2   3
ATOM      3  C   UNL     1     169.125 170.194 168.081  1.00  0.00     0.027 C 
BRANCH   3   4
ATOM      4  C   UNL     1     169.368 168.747 168.436  1.00  0.00    -0.031 C 
ATOM      5  C   UNL     1     170.130 168.281 169.449  1.00  0.00    -0.028 C 
BRANCH   5   6
ATOM      6  C   UNL     1     170.831 169.072 170.541  1.00  0.00     0.005 C 
ATOM      7  C   UNL     1     170.786 168.403 171.920  1.00  0.00     0.012 C 
ATOM      8  C   UNL     1     172.252 169.489 170.140  1.00  0.00     0.012 C 
ENDBRANCH   5   6
ENDBRANCH   3   4
ENDBRANCH   2   3
ENDBRANCH   1   2
BRANCH   1   9
ATOM      9  C   UNL     1     166.503 170.150 170.343  1.00  0.00     0.100 C 
BRANCH   9  10
ATOM     10  C   UNL     1     167.073 169.226 171.377  1.00  0.00     0.220 C 
ATOM     11  O   UNL     1     167.556 169.709 172.438  1.00  0.00    -0.275 OA
ATOM     12  N   UNL     1     167.011 167.807 171.186  1.00  0.00    -0.352 N 
ATOM     13  H   UNL     1     166.609 167.430 170.297  1.00  0.00     0.163 HD
BRANCH  12  14
ATOM     14  C   UNL     1     167.392 166.858 172.228  1.00  0.00     0.151 C 
BRANCH  14  15
ATOM     15  C   UNL     1     168.092 165.676 171.612  1.00  0.00    -0.025 A 
ATOM     16  C   UNL     1     168.670 164.689 172.426  1.00  0.00     0.056 A 
ATOM     17  C   UNL     1     168.116 165.522 170.219  1.00  0.00     0.009 A 
ATOM     18  C   UNL     1     169.293 163.562 171.853  1.00  0.00     0.160 A 
ATOM     19  C   UNL     1     168.735 164.411 169.644  1.00  0.00     0.050 A 
ATOM     20  C   UNL     1     169.324 163.432 170.452  1.00  0.00     0.157 A 
BRANCH  18  21
ATOM     21  O   UNL     1     169.881 162.557 172.640  1.00  0.00    -0.493 OA
ATOM     22  C   UNL     1     170.874 162.788 173.635  1.00  0.00     0.278 C 
ENDBRANCH  18  21
BRANCH  20  23
ATOM     23  O   UNL     1     169.935 162.335 169.842  1.00  0.00    -0.504 OA
ATOM     24  H   UNL     1     170.490 162.426 168.999  1.00  0.00     0.293 HD
ENDBRANCH  20  23
ENDBRANCH  14  15
ENDBRANCH  12  14
ENDBRANCH   9  10
ENDBRANCH   1   9
TORSDOF 10
ENDMDL
