MODEL 1
REMARK VINA RESULT:    -5.696      0.000      0.000
REMARK INTER + INTRA:         -11.449
REMARK INTER:                 -10.359
REMARK INTRA:                  -1.090
REMARK UNBOUND:                -1.090
REMARK SMILES CCCCCCCCCCCCCC[C@H](C)C(=O)[O-]
REMARK SMILES IDX 9 1 10 2 11 3 12 4 13 5 14 6 15 7 16 8 17 9 18 10 19 11 8 12
REMARK SMILES IDX 7 13 6 14 5 15 4 16 3 17 2 18 1 19
REMARK H PARENT
REMARK Flexibility Score: inf
ROOT
ATOM      1  C   UNL     1     -16.922  -7.047  42.688  1.00  0.00     0.000 C 
ENDROOT
BRANCH   1   2
ATOM      2  C   UNL     1     -17.614  -7.240  44.048  1.00  0.00     0.000 C 
BRANCH   2   3
ATOM      3  C   UNL     1     -17.950  -8.700  44.414  1.00  0.00     0.000 C 
BRANCH   3   4
ATOM      4  C   UNL     1     -17.155  -9.774  43.650  1.00  0.00     0.000 C 
BRANCH   4   5
ATOM      5  C   UNL     1     -16.441 -10.768  44.581  1.00  0.00     0.001 C 
BRANCH   5   6
ATOM      6  C   UNL     1     -15.097 -10.243  45.128  1.00  0.00     0.009 C 
BRANCH   6   7
ATOM      7  C   UNL     1     -14.917 -10.258  46.667  1.00  0.00     0.032 C 
ATOM      8  C   UNL     1     -15.015 -11.671  47.263  1.00  0.00     0.014 C 
BRANCH   7   9
ATOM      9  C   UNL     1     -15.822  -9.266  47.358  1.00  0.00     0.044 C 
ATOM     10  O   UNL     1     -16.945  -9.615  47.814  1.00  0.00    -0.550 OA
ATOM     11  O   UNL     1     -15.404  -7.952  47.523  1.00  0.00    -0.550 OA
ENDBRANCH   7   9
ENDBRANCH   6   7
ENDBRANCH   5   6
ENDBRANCH   4   5
ENDBRANCH   3   4
ENDBRANCH   2   3
ENDBRANCH   1   2
BRANCH   1  12
ATOM     12  C   UNL     1     -17.906  -6.686  41.564  1.00  0.00     0.000 C 
BRANCH  12  13
ATOM     13  C   UNL     1     -17.859  -7.727  40.440  1.00  0.00    -0.000 C 
BRANCH  13  14
ATOM     14  C   UNL     1     -17.516  -7.069  39.095  1.00  0.00    -0.000 C 
BRANCH  14  15
ATOM     15  C   UNL     1     -17.218  -5.567  39.230  1.00  0.00    -0.000 C 
BRANCH  15  16
ATOM     16  C   UNL     1     -15.726  -5.277  39.467  1.00  0.00    -0.000 C 
BRANCH  16  17
ATOM     17  C   UNL     1     -14.812  -6.232  38.670  1.00  0.00    -0.000 C 
BRANCH  17  18
ATOM     18  C   UNL     1     -14.827  -5.973  37.154  1.00  0.00    -0.003 C 
ATOM     19  C   UNL     1     -13.876  -6.886  36.382  1.00  0.00     0.004 C 
ENDBRANCH  17  18
ENDBRANCH  16  17
ENDBRANCH  15  16
ENDBRANCH  14  15
ENDBRANCH  13  14
ENDBRANCH  12  13
ENDBRANCH   1  12
TORSDOF 14
ENDMDL
MODEL 2
REMARK VINA RESULT:    -5.593      1.581      2.307
REMARK INTER + INTRA:         -11.260
REMARK INTER:                  -9.946
REMARK INTRA:                  -1.313
REMARK UNBOUND:                -1.090
REMARK SMILES CCCCCCCCCCCCCC[C@H](C)C(=O)[O-]
REMARK SMILES IDX 9 1 10 2 11 3 12 4 13 5 14 6 15 7 16 8 17 9 18 10 19 11 8 12
REMARK SMILES IDX 7 13 6 14 5 15 4 16 3 17 2 18 1 19
REMARK H PARENT
REMARK Flexibility Score: inf
ROOT
ATOM      1  C   UNL     1     -17.614  -8.323  43.242  1.00  0.00     0.000 C 
ENDROOT
BRANCH   1   2
ATOM      2  C   UNL     1     -18.125  -8.491  44.684  1.00  0.00     0.000 C 
BRANCH   2   3
ATOM      3  C   UNL     1     -17.454  -7.578  45.731  1.00  0.00     0.000 C 
BRANCH   3   4
ATOM      4  C   UNL     1     -17.103  -8.252  47.069  1.00  0.00     0.000 C 
BRANCH   4   5
ATOM      5  C   UNL     1     -17.236  -9.783  47.024  1.00  0.00     0.001 C 
BRANCH   5   6
ATOM      6  C   UNL     1     -16.061 -10.523  47.696  1.00  0.00     0.009 C 
BRANCH   6   7
ATOM      7  C   UNL     1     -14.919 -11.009  46.768  1.00  0.00     0.032 C 
ATOM      8  C   UNL     1     -13.523 -10.728  47.347  1.00  0.00     0.014 C 
BRANCH   7   9
ATOM      9  C   UNL     1     -15.078 -10.505  45.354  1.00  0.00     0.044 C 
ATOM     10  O   UNL     1     -15.806 -11.113  44.522  1.00  0.00    -0.550 OA
ATOM     11  O   UNL     1     -14.438  -9.336  44.964  1.00  0.00    -0.550 OA
ENDBRANCH   7   9
ENDBRANCH   6   7
ENDBRANCH   5   6
ENDBRANCH   4   5
ENDBRANCH   3   4
ENDBRANCH   2   3
ENDBRANCH   1   2
BRANCH   1  12
ATOM     12  C   UNL     1     -16.579  -7.196  43.104  1.00  0.00     0.000 C 
BRANCH  12  13
ATOM     13  C   UNL     1     -16.732  -6.473  41.761  1.00  0.00    -0.000 C 
BRANCH  13  14
ATOM     14  C   UNL     1     -17.978  -6.966  41.010  1.00  0.00    -0.000 C 
BRANCH  14  15
ATOM     15  C   UNL     1     -17.712  -7.213  39.517  1.00  0.00    -0.000 C 
BRANCH  15  16
ATOM     16  C   UNL     1     -17.045  -6.010  38.826  1.00  0.00    -0.000 C 
BRANCH  16  17
ATOM     17  C   UNL     1     -15.691  -6.383  38.185  1.00  0.00    -0.000 C 
BRANCH  17  18
ATOM     18  C   UNL     1     -14.497  -5.621  38.784  1.00  0.00    -0.003 C 
ATOM     19  C   UNL     1     -13.316  -6.529  39.123  1.00  0.00     0.004 C 
ENDBRANCH  17  18
ENDBRANCH  16  17
ENDBRANCH  15  16
ENDBRANCH  14  15
ENDBRANCH  13  14
ENDBRANCH  12  13
ENDBRANCH   1  12
TORSDOF 14
ENDMDL
MODEL 3
REMARK VINA RESULT:    -5.551      4.893      8.203
REMARK INTER + INTRA:         -11.184
REMARK INTER:                 -10.210
REMARK INTRA:                  -0.974
REMARK UNBOUND:                -1.090
REMARK SMILES CCCCCCCCCCCCCC[C@H](C)C(=O)[O-]
REMARK SMILES IDX 9 1 10 2 11 3 12 4 13 5 14 6 15 7 16 8 17 9 18 10 19 11 8 12
REMARK SMILES IDX 7 13 6 14 5 15 4 16 3 17 2 18 1 19
REMARK H PARENT
REMARK Flexibility Score: inf
ROOT
ATOM      1  C   UNL     1     -15.510  -5.326  38.774  1.00  0.00     0.000 C 
ENDROOT
BRANCH   1   2
ATOM      2  C   UNL     1     -15.094  -6.395  37.748  1.00  0.00     0.000 C 
BRANCH   2   3
ATOM      3  C   UNL     1     -13.610  -6.814  37.799  1.00  0.00     0.000 C 
BRANCH   3   4
ATOM      4  C   UNL     1     -12.973  -6.824  39.200  1.00  0.00     0.000 C 
BRANCH   4   5
ATOM      5  C   UNL     1     -11.735  -7.730  39.290  1.00  0.00     0.001 C 
BRANCH   5   6
ATOM      6  C   UNL     1     -11.513  -8.597  38.033  1.00  0.00     0.009 C 
BRANCH   6   7
ATOM      7  C   UNL     1     -10.604  -9.842  38.195  1.00  0.00     0.032 C 
ATOM      8  C   UNL     1     -10.115 -10.037  39.639  1.00  0.00     0.014 C 
BRANCH   7   9
ATOM      9  C   UNL     1      -9.479  -9.862  37.188  1.00  0.00     0.044 C 
ATOM     10  O   UNL     1      -8.335 -10.294  37.495  1.00  0.00    -0.550 OA
ATOM     11  O   UNL     1      -9.710  -9.425  35.890  1.00  0.00    -0.550 OA
ENDBRANCH   7   9
ENDBRANCH   6   7
ENDBRANCH   5   6
ENDBRANCH   4   5
ENDBRANCH   3   4
ENDBRANCH   2   3
ENDBRANCH   1   2
BRANCH   1  12
ATOM     12  C   UNL     1     -16.965  -5.483  39.241  1.00  0.00     0.000 C 
BRANCH  12  13
ATOM     13  C   UNL     1     -17.059  -6.450  40.427  1.00  0.00    -0.000 C 
BRANCH  13  14
ATOM     14  C   UNL     1     -15.921  -6.203  41.428  1.00  0.00    -0.000 C 
BRANCH  14  15
ATOM     15  C   UNL     1     -16.329  -6.508  42.878  1.00  0.00    -0.000 C 
BRANCH  15  16
ATOM     16  C   UNL     1     -17.345  -7.660  42.979  1.00  0.00    -0.000 C 
BRANCH  16  17
ATOM     17  C   UNL     1     -18.104  -7.651  44.323  1.00  0.00    -0.000 C 
BRANCH  17  18
ATOM     18  C   UNL     1     -17.727  -8.820  45.249  1.00  0.00    -0.003 C 
ATOM     19  C   UNL     1     -17.552  -8.398  46.707  1.00  0.00     0.004 C 
ENDBRANCH  17  18
ENDBRANCH  16  17
ENDBRANCH  15  16
ENDBRANCH  14  15
ENDBRANCH  13  14
ENDBRANCH  12  13
ENDBRANCH   1  12
TORSDOF 14
ENDMDL
MODEL 4
REMARK VINA RESULT:    -5.543      3.442      6.302
REMARK INTER + INTRA:         -11.171
REMARK INTER:                 -10.192
REMARK INTRA:                  -0.978
REMARK UNBOUND:                -1.090
REMARK SMILES CCCCCCCCCCCCCC[C@H](C)C(=O)[O-]
REMARK SMILES IDX 9 1 10 2 11 3 12 4 13 5 14 6 15 7 16 8 17 9 18 10 19 11 8 12
REMARK SMILES IDX 7 13 6 14 5 15 4 16 3 17 2 18 1 19
REMARK H PARENT
REMARK Flexibility Score: inf
ROOT
ATOM      1  C   UNL     1     -14.032  -6.601  38.508  1.00  0.00     0.000 C 
ENDROOT
BRANCH   1   2
ATOM      2  C   UNL     1     -15.198  -5.601  38.408  1.00  0.00     0.000 C 
BRANCH   2   3
ATOM      3  C   UNL     1     -16.531  -6.193  37.903  1.00  0.00     0.000 C 
BRANCH   3   4
ATOM      4  C   UNL     1     -17.355  -6.959  38.954  1.00  0.00     0.000 C 
BRANCH   4   5
ATOM      5  C   UNL     1     -17.474  -6.207  40.289  1.00  0.00     0.001 C 
BRANCH   5   6
ATOM      6  C   UNL     1     -17.705  -7.134  41.500  1.00  0.00     0.009 C 
BRANCH   6   7
ATOM      7  C   UNL     1     -16.960  -6.771  42.810  1.00  0.00     0.032 C 
ATOM      8  C   UNL     1     -15.568  -6.171  42.554  1.00  0.00     0.014 C 
BRANCH   7   9
ATOM      9  C   UNL     1     -16.932  -7.920  43.789  1.00  0.00     0.044 C 
ATOM     10  O   UNL     1     -17.929  -8.677  43.935  1.00  0.00    -0.550 OA
ATOM     11  O   UNL     1     -15.780  -8.170  44.523  1.00  0.00    -0.550 OA
ENDBRANCH   7   9
ENDBRANCH   6   7
ENDBRANCH   5   6
ENDBRANCH   4   5
ENDBRANCH   3   4
ENDBRANCH   2   3
ENDBRANCH   1   2
BRANCH   1  12
ATOM     12  C   UNL     1     -13.443  -6.968  37.138  1.00  0.00     0.000 C 
BRANCH  12  13
ATOM     13  C   UNL     1     -12.333  -8.016  37.281  1.00  0.00    -0.000 C 
BRANCH  13  14
ATOM     14  C   UNL     1     -11.805  -8.063  38.722  1.00  0.00    -0.000 C 
BRANCH  14  15
ATOM     15  C   UNL     1     -10.734  -9.147  38.927  1.00  0.00    -0.000 C 
BRANCH  15  16
ATOM     16  C   UNL     1     -10.300  -9.282  40.397  1.00  0.00    -0.000 C 
BRANCH  16  17
ATOM     17  C   UNL     1      -9.642 -10.648  40.687  1.00  0.00    -0.000 C 
BRANCH  17  18
ATOM     18  C   UNL     1      -9.524 -10.967  42.187  1.00  0.00    -0.003 C 
ATOM     19  C   UNL     1     -10.127  -9.884  43.079  1.00  0.00     0.004 C 
ENDBRANCH  17  18
ENDBRANCH  16  17
ENDBRANCH  15  16
ENDBRANCH  14  15
ENDBRANCH  13  14
ENDBRANCH  12  13
ENDBRANCH   1  12
TORSDOF 14
ENDMDL
MODEL 5
REMARK VINA RESULT:    -5.476      1.590      2.271
REMARK INTER + INTRA:         -11.047
REMARK INTER:                 -10.157
REMARK INTRA:                  -0.890
REMARK UNBOUND:                -1.090
REMARK SMILES CCCCCCCCCCCCCC[C@H](C)C(=O)[O-]
REMARK SMILES IDX 9 1 10 2 11 3 12 4 13 5 14 6 15 7 16 8 17 9 18 10 19 11 8 12
REMARK SMILES IDX 7 13 6 14 5 15 4 16 3 17 2 18 1 19
REMARK H PARENT
REMARK Flexibility Score: inf
ROOT
ATOM      1  C   UNL     1     -17.882  -7.462  42.107  1.00  0.00     0.000 C 
ENDROOT
BRANCH   1   2
ATOM      2  C   UNL     1     -16.855  -7.208  43.224  1.00  0.00     0.000 C 
BRANCH   2   3
ATOM      3  C   UNL     1     -17.266  -7.711  44.624  1.00  0.00     0.000 C 
BRANCH   3   4
ATOM      4  C   UNL     1     -16.261  -7.422  45.753  1.00  0.00     0.000 C 
BRANCH   4   5
ATOM      5  C   UNL     1     -16.818  -7.740  47.149  1.00  0.00     0.001 C 
BRANCH   5   6
ATOM      6  C   UNL     1     -17.263  -9.208  47.315  1.00  0.00     0.009 C 
BRANCH   6   7
ATOM      7  C   UNL     1     -16.316 -10.139  48.115  1.00  0.00     0.032 C 
ATOM      8  C   UNL     1     -15.447  -9.374  49.126  1.00  0.00     0.014 C 
BRANCH   7   9
ATOM      9  C   UNL     1     -15.509 -11.044  47.215  1.00  0.00     0.044 C 
ATOM     10  O   UNL     1     -14.778 -11.955  47.691  1.00  0.00    -0.550 OA
ATOM     11  O   UNL     1     -15.591 -10.894  45.837  1.00  0.00    -0.550 OA
ENDBRANCH   7   9
ENDBRANCH   6   7
ENDBRANCH   5   6
ENDBRANCH   4   5
ENDBRANCH   3   4
ENDBRANCH   2   3
ENDBRANCH   1   2
BRANCH   1  12
ATOM     12  C   UNL     1     -17.729  -6.494  40.924  1.00  0.00     0.000 C 
BRANCH  12  13
ATOM     13  C   UNL     1     -17.730  -7.252  39.591  1.00  0.00    -0.000 C 
BRANCH  13  14
ATOM     14  C   UNL     1     -16.976  -6.464  38.511  1.00  0.00    -0.000 C 
BRANCH  14  15
ATOM     15  C   UNL     1     -15.982  -5.451  39.101  1.00  0.00    -0.000 C 
BRANCH  15  16
ATOM     16  C   UNL     1     -14.527  -5.738  38.690  1.00  0.00    -0.000 C 
BRANCH  16  17
ATOM     17  C   UNL     1     -14.424  -6.272  37.245  1.00  0.00    -0.000 C 
BRANCH  17  18
ATOM     18  C   UNL     1     -13.217  -7.196  37.015  1.00  0.00    -0.003 C 
ATOM     19  C   UNL     1     -12.472  -7.541  38.304  1.00  0.00     0.004 C 
ENDBRANCH  17  18
ENDBRANCH  16  17
ENDBRANCH  15  16
ENDBRANCH  14  15
ENDBRANCH  13  14
ENDBRANCH  12  13
ENDBRANCH   1  12
TORSDOF 14
ENDMDL
MODEL 6
REMARK VINA RESULT:    -5.474      1.764      2.414
REMARK INTER + INTRA:         -11.044
REMARK INTER:                 -10.290
REMARK INTRA:                  -0.753
REMARK UNBOUND:                -1.090
REMARK SMILES CCCCCCCCCCCCCC[C@H](C)C(=O)[O-]
REMARK SMILES IDX 9 1 10 2 11 3 12 4 13 5 14 6 15 7 16 8 17 9 18 10 19 11 8 12
REMARK SMILES IDX 7 13 6 14 5 15 4 16 3 17 2 18 1 19
REMARK H PARENT
REMARK Flexibility Score: inf
ROOT
ATOM      1  C   UNL     1     -17.160  -6.861  41.475  1.00  0.00     0.000 C 
ENDROOT
BRANCH   1   2
ATOM      2  C   UNL     1     -18.125  -6.662  42.657  1.00  0.00     0.000 C 
BRANCH   2   3
ATOM      3  C   UNL     1     -18.119  -7.791  43.708  1.00  0.00     0.000 C 
BRANCH   3   4
ATOM      4  C   UNL     1     -16.763  -8.484  43.928  1.00  0.00     0.000 C 
BRANCH   4   5
ATOM      5  C   UNL     1     -16.901  -9.925  44.445  1.00  0.00     0.001 C 
BRANCH   5   6
ATOM      6  C   UNL     1     -15.550 -10.600  44.760  1.00  0.00     0.009 C 
BRANCH   6   7
ATOM      7  C   UNL     1     -14.648  -9.902  45.810  1.00  0.00     0.032 C 
ATOM      8  C   UNL     1     -13.307  -9.434  45.224  1.00  0.00     0.014 C 
BRANCH   7   9
ATOM      9  C   UNL     1     -14.484 -10.730  47.062  1.00  0.00     0.044 C 
ATOM     10  O   UNL     1     -13.864 -10.281  48.065  1.00  0.00    -0.550 OA
ATOM     11  O   UNL     1     -15.049 -11.996  47.128  1.00  0.00    -0.550 OA
ENDBRANCH   7   9
ENDBRANCH   6   7
ENDBRANCH   5   6
ENDBRANCH   4   5
ENDBRANCH   3   4
ENDBRANCH   2   3
ENDBRANCH   1   2
BRANCH   1  12
ATOM     12  C   UNL     1     -17.751  -6.394  40.137  1.00  0.00     0.000 C 
BRANCH  12  13
ATOM     13  C   UNL     1     -16.751  -5.519  39.371  1.00  0.00    -0.000 C 
BRANCH  13  14
ATOM     14  C   UNL     1     -16.290  -6.214  38.081  1.00  0.00    -0.000 C 
BRANCH  14  15
ATOM     15  C   UNL     1     -14.918  -5.717  37.598  1.00  0.00    -0.000 C 
BRANCH  15  16
ATOM     16  C   UNL     1     -13.835  -6.808  37.665  1.00  0.00    -0.000 C 
BRANCH  16  17
ATOM     17  C   UNL     1     -13.064  -6.783  39.001  1.00  0.00    -0.000 C 
BRANCH  17  18
ATOM     18  C   UNL     1     -11.771  -7.616  38.982  1.00  0.00    -0.003 C 
ATOM     19  C   UNL     1     -11.700  -8.583  37.802  1.00  0.00     0.004 C 
ENDBRANCH  17  18
ENDBRANCH  16  17
ENDBRANCH  15  16
ENDBRANCH  14  15
ENDBRANCH  13  14
ENDBRANCH  12  13
ENDBRANCH   1  12
TORSDOF 14
ENDMDL
MODEL 7
REMARK VINA RESULT:    -5.409      1.535      3.732
REMARK INTER + INTRA:         -10.926
REMARK INTER:                  -9.347
REMARK INTRA:                  -1.580
REMARK UNBOUND:                -1.090
REMARK SMILES CCCCCCCCCCCCCC[C@H](C)C(=O)[O-]
REMARK SMILES IDX 9 1 10 2 11 3 12 4 13 5 14 6 15 7 16 8 17 9 18 10 19 11 8 12
REMARK SMILES IDX 7 13 6 14 5 15 4 16 3 17 2 18 1 19
REMARK H PARENT
REMARK Flexibility Score: inf
ROOT
ATOM      1  C   UNL     1     -16.445 -10.582  44.400  1.00  0.00     0.000 C 
ENDROOT
BRANCH   1   2
ATOM      2  C   UNL     1     -15.253 -10.043  45.209  1.00  0.00     0.000 C 
BRANCH   2   3
ATOM      3  C   UNL     1     -14.960 -10.791  46.526  1.00  0.00     0.000 C 
BRANCH   3   4
ATOM      4  C   UNL     1     -16.156 -10.937  47.485  1.00  0.00     0.000 C 
BRANCH   4   5
ATOM      5  C   UNL     1     -16.717  -9.585  47.955  1.00  0.00     0.001 C 
BRANCH   5   6
ATOM      6  C   UNL     1     -15.819  -8.871  48.987  1.00  0.00     0.009 C 
BRANCH   6   7
ATOM      7  C   UNL     1     -15.238  -7.495  48.573  1.00  0.00     0.032 C 
ATOM      8  C   UNL     1     -15.971  -6.878  47.372  1.00  0.00     0.014 C 
BRANCH   7   9
ATOM      9  C   UNL     1     -13.740  -7.539  48.386  1.00  0.00     0.044 C 
ATOM     10  O   UNL     1     -13.093  -6.510  48.054  1.00  0.00    -0.550 OA
ATOM     11  O   UNL     1     -13.054  -8.725  48.612  1.00  0.00    -0.550 OA
ENDBRANCH   7   9
ENDBRANCH   6   7
ENDBRANCH   5   6
ENDBRANCH   4   5
ENDBRANCH   3   4
ENDBRANCH   2   3
ENDBRANCH   1   2
BRANCH   1  12
ATOM     12  C   UNL     1     -17.400  -9.472  43.934  1.00  0.00     0.000 C 
BRANCH  12  13
ATOM     13  C   UNL     1     -16.718  -8.100  43.999  1.00  0.00    -0.000 C 
BRANCH  13  14
ATOM     14  C   UNL     1     -17.594  -7.021  43.346  1.00  0.00    -0.000 C 
BRANCH  14  15
ATOM     15  C   UNL     1     -17.183  -6.720  41.896  1.00  0.00    -0.000 C 
BRANCH  15  16
ATOM     16  C   UNL     1     -18.040  -7.479  40.867  1.00  0.00    -0.000 C 
BRANCH  16  17
ATOM     17  C   UNL     1     -17.702  -7.074  39.416  1.00  0.00    -0.000 C 
BRANCH  17  18
ATOM     18  C   UNL     1     -16.924  -5.751  39.312  1.00  0.00    -0.003 C 
ATOM     19  C   UNL     1     -15.627  -5.880  38.517  1.00  0.00     0.004 C 
ENDBRANCH  17  18
ENDBRANCH  16  17
ENDBRANCH  15  16
ENDBRANCH  14  15
ENDBRANCH  13  14
ENDBRANCH  12  13
ENDBRANCH   1  12
TORSDOF 14
ENDMDL
MODEL 8
REMARK VINA RESULT:    -5.346      1.514      3.016
REMARK INTER + INTRA:         -10.812
REMARK INTER:                  -9.541
REMARK INTRA:                  -1.271
REMARK UNBOUND:                -1.090
REMARK SMILES CCCCCCCCCCCCCC[C@H](C)C(=O)[O-]
REMARK SMILES IDX 9 1 10 2 11 3 12 4 13 5 14 6 15 7 16 8 17 9 18 10 19 11 8 12
REMARK SMILES IDX 7 13 6 14 5 15 4 16 3 17 2 18 1 19
REMARK H PARENT
REMARK Flexibility Score: inf
ROOT
ATOM      1  C   UNL     1     -17.607  -9.138  44.554  1.00  0.00     0.000 C 
ENDROOT
BRANCH   1   2
ATOM      2  C   UNL     1     -16.733 -10.402  44.486  1.00  0.00     0.000 C 
BRANCH   2   3
ATOM      3  C   UNL     1     -15.327 -10.264  45.107  1.00  0.00     0.000 C 
BRANCH   3   4
ATOM      4  C   UNL     1     -15.118 -11.001  46.442  1.00  0.00     0.000 C 
BRANCH   4   5
ATOM      5  C   UNL     1     -16.188 -10.659  47.490  1.00  0.00     0.001 C 
BRANCH   5   6
ATOM      6  C   UNL     1     -15.604 -10.135  48.819  1.00  0.00     0.009 C 
BRANCH   6   7
ATOM      7  C   UNL     1     -15.410  -8.602  48.940  1.00  0.00     0.032 C 
ATOM      8  C   UNL     1     -16.153  -7.822  47.844  1.00  0.00     0.014 C 
BRANCH   7   9
ATOM      9  C   UNL     1     -13.954  -8.217  49.050  1.00  0.00     0.044 C 
ATOM     10  O   UNL     1     -13.076  -8.776  48.338  1.00  0.00    -0.550 OA
ATOM     11  O   UNL     1     -13.574  -7.210  49.927  1.00  0.00    -0.550 OA
ENDBRANCH   7   9
ENDBRANCH   6   7
ENDBRANCH   5   6
ENDBRANCH   4   5
ENDBRANCH   3   4
ENDBRANCH   2   3
ENDBRANCH   1   2
BRANCH   1  12
ATOM     12  C   UNL     1     -17.713  -8.413  43.203  1.00  0.00     0.000 C 
BRANCH  12  13
ATOM     13  C   UNL     1     -16.689  -7.274  43.111  1.00  0.00    -0.000 C 
BRANCH  13  14
ATOM     14  C   UNL     1     -16.909  -6.441  41.840  1.00  0.00    -0.000 C 
BRANCH  14  15
ATOM     15  C   UNL     1     -18.053  -6.981  40.967  1.00  0.00    -0.000 C 
BRANCH  15  16
ATOM     16  C   UNL     1     -17.631  -7.196  39.502  1.00  0.00    -0.000 C 
BRANCH  16  17
ATOM     17  C   UNL     1     -17.042  -5.917  38.872  1.00  0.00    -0.000 C 
BRANCH  17  18
ATOM     18  C   UNL     1     -15.744  -6.162  38.083  1.00  0.00    -0.003 C 
ATOM     19  C   UNL     1     -14.489  -6.059  38.947  1.00  0.00     0.004 C 
ENDBRANCH  17  18
ENDBRANCH  16  17
ENDBRANCH  15  16
ENDBRANCH  14  15
ENDBRANCH  13  14
ENDBRANCH  12  13
ENDBRANCH   1  12
TORSDOF 14
ENDMDL
MODEL 9
REMARK VINA RESULT:    -5.298      1.837      3.806
REMARK INTER + INTRA:         -10.725
REMARK INTER:                  -8.643
REMARK INTRA:                  -2.081
REMARK UNBOUND:                -1.090
REMARK SMILES CCCCCCCCCCCCCC[C@H](C)C(=O)[O-]
REMARK SMILES IDX 9 1 10 2 11 3 12 4 13 5 14 6 15 7 16 8 17 9 18 10 19 11 8 12
REMARK SMILES IDX 7 13 6 14 5 15 4 16 3 17 2 18 1 19
REMARK H PARENT
REMARK Flexibility Score: inf
ROOT
ATOM      1  C   UNL     1     -14.075  -8.225  45.305  1.00  0.00     0.000 C 
ENDROOT
BRANCH   1   2
ATOM      2  C   UNL     1     -13.846  -9.745  45.226  1.00  0.00     0.000 C 
BRANCH   2   3
ATOM      3  C   UNL     1     -15.121 -10.608  45.318  1.00  0.00     0.000 C 
BRANCH   3   4
ATOM      4  C   UNL     1     -16.421  -9.920  44.862  1.00  0.00     0.000 C 
BRANCH   4   5
ATOM      5  C   UNL     1     -17.369  -9.595  46.028  1.00  0.00     0.001 C 
BRANCH   5   6
ATOM      6  C   UNL     1     -16.940 -10.233  47.366  1.00  0.00     0.009 C 
BRANCH   6   7
ATOM      7  C   UNL     1     -16.327  -9.284  48.427  1.00  0.00     0.032 C 
ATOM      8  C   UNL     1     -16.285  -7.820  47.961  1.00  0.00     0.014 C 
BRANCH   7   9
ATOM      9  C   UNL     1     -14.991  -9.776  48.930  1.00  0.00     0.044 C 
ATOM     10  O   UNL     1     -14.829 -10.974  49.288  1.00  0.00    -0.550 OA
ATOM     11  O   UNL     1     -13.909  -8.907  48.972  1.00  0.00    -0.550 OA
ENDBRANCH   7   9
ENDBRANCH   6   7
ENDBRANCH   5   6
ENDBRANCH   4   5
ENDBRANCH   3   4
ENDBRANCH   2   3
ENDBRANCH   1   2
BRANCH   1  12
ATOM     12  C   UNL     1     -13.491  -7.471  44.101  1.00  0.00     0.000 C 
BRANCH  12  13
ATOM     13  C   UNL     1     -14.419  -6.329  43.667  1.00  0.00    -0.000 C 
BRANCH  13  14
ATOM     14  C   UNL     1     -15.663  -6.262  44.565  1.00  0.00    -0.000 C 
BRANCH  14  15
ATOM     15  C   UNL     1     -16.967  -6.518  43.792  1.00  0.00    -0.000 C 
BRANCH  15  16
ATOM     16  C   UNL     1     -16.728  -6.769  42.292  1.00  0.00    -0.000 C 
BRANCH  16  17
ATOM     17  C   UNL     1     -17.960  -6.403  41.438  1.00  0.00    -0.000 C 
BRANCH  17  18
ATOM     18  C   UNL     1     -17.734  -6.581  39.926  1.00  0.00    -0.003 C 
ATOM     19  C   UNL     1     -16.606  -5.708  39.382  1.00  0.00     0.004 C 
ENDBRANCH  17  18
ENDBRANCH  16  17
ENDBRANCH  15  16
ENDBRANCH  14  15
ENDBRANCH  13  14
ENDBRANCH  12  13
ENDBRANCH   1  12
TORSDOF 14
ENDMDL
