MODEL 1
REMARK VINA RESULT:    -4.431      0.000      0.000
REMARK INTER + INTRA:          -7.142
REMARK INTER:                  -6.762
REMARK INTRA:                  -0.380
REMARK UNBOUND:                -0.380
REMARK SMILES CCCCCCCCCCC(=O)[O-]
REMARK SMILES IDX 7 1 8 2 9 3 10 4 11 5 12 6 13 7 6 8 5 9 4 10 3 11 2 12 1 13
REMARK H PARENT
REMARK Flexibility Score: inf
ROOT
ATOM      1  C   UNL     1     -32.592 -22.762 -35.159  1.00  0.00     0.000 C 
ENDROOT
BRANCH   1   2
ATOM      2  C   UNL     1     -31.503 -22.745 -34.075  1.00  0.00     0.000 C 
BRANCH   2   3
ATOM      3  C   UNL     1     -31.185 -21.327 -33.576  1.00  0.00     0.006 C 
BRANCH   3   4
ATOM      4  C   UNL     1     -29.983 -21.291 -32.623  1.00  0.00     0.053 C 
BRANCH   4   5
ATOM      5  C   UNL     1     -30.427 -21.526 -31.215  1.00  0.00     0.041 C 
ATOM      6  O   UNL     1     -30.383 -22.685 -30.722  1.00  0.00    -0.550 OA
ATOM      7  O   UNL     1     -30.935 -20.476 -30.461  1.00  0.00    -0.550 OA
ENDBRANCH   4   5
ENDBRANCH   3   4
ENDBRANCH   2   3
ENDBRANCH   1   2
BRANCH   1   8
ATOM      8  C   UNL     1     -32.411 -23.963 -36.100  1.00  0.00     0.000 C 
BRANCH   8   9
ATOM      9  C   UNL     1     -31.155 -23.840 -36.978  1.00  0.00    -0.000 C 
BRANCH   9  10
ATOM     10  C   UNL     1     -30.959 -25.053 -37.904  1.00  0.00    -0.000 C 
BRANCH  10  11
ATOM     11  C   UNL     1     -32.273 -25.798 -38.188  1.00  0.00    -0.000 C 
BRANCH  11  12
ATOM     12  C   UNL     1     -32.053 -27.287 -38.491  1.00  0.00    -0.003 C 
ATOM     13  C   UNL     1     -33.381 -28.037 -38.556  1.00  0.00     0.004 C 
ENDBRANCH  11  12
ENDBRANCH  10  11
ENDBRANCH   9  10
ENDBRANCH   8   9
ENDBRANCH   1   8
TORSDOF 9
ENDMDL
MODEL 2
REMARK VINA RESULT:    -4.250      0.966      1.881
REMARK INTER + INTRA:          -6.866
REMARK INTER:                  -6.492
REMARK INTRA:                  -0.374
REMARK UNBOUND:                -0.380
REMARK SMILES CCCCCCCCCCC(=O)[O-]
REMARK SMILES IDX 7 1 8 2 9 3 10 4 11 5 12 6 13 7 6 8 5 9 4 10 3 11 2 12 1 13
REMARK H PARENT
REMARK Flexibility Score: inf
ROOT
ATOM      1  C   UNL     1     -31.415 -22.527 -33.783  1.00  0.00     0.000 C 
ENDROOT
BRANCH   1   2
ATOM      2  C   UNL     1     -30.943 -21.151 -33.288  1.00  0.00     0.000 C 
BRANCH   2   3
ATOM      3  C   UNL     1     -29.503 -21.175 -32.753  1.00  0.00     0.006 C 
BRANCH   3   4
ATOM      4  C   UNL     1     -29.341 -20.370 -31.456  1.00  0.00     0.053 C 
BRANCH   4   5
ATOM      5  C   UNL     1     -30.280 -20.875 -30.408  1.00  0.00     0.041 C 
ATOM      6  O   UNL     1     -30.292 -22.097 -30.104  1.00  0.00    -0.550 OA
ATOM      7  O   UNL     1     -31.176 -20.005 -29.800  1.00  0.00    -0.550 OA
ENDBRANCH   4   5
ENDBRANCH   3   4
ENDBRANCH   2   3
ENDBRANCH   1   2
BRANCH   1   8
ATOM      8  C   UNL     1     -32.386 -22.382 -34.965  1.00  0.00     0.000 C 
BRANCH   8   9
ATOM      9  C   UNL     1     -32.551 -23.689 -35.756  1.00  0.00    -0.000 C 
BRANCH   9  10
ATOM     10  C   UNL     1     -32.803 -23.447 -37.255  1.00  0.00    -0.000 C 
BRANCH  10  11
ATOM     11  C   UNL     1     -31.548 -23.686 -38.110  1.00  0.00    -0.000 C 
BRANCH  11  12
ATOM     12  C   UNL     1     -30.968 -25.096 -37.923  1.00  0.00    -0.003 C 
ATOM     13  C   UNL     1     -31.962 -26.164 -38.373  1.00  0.00     0.004 C 
ENDBRANCH  11  12
ENDBRANCH  10  11
ENDBRANCH   9  10
ENDBRANCH   8   9
ENDBRANCH   1   8
TORSDOF 9
ENDMDL
MODEL 3
REMARK VINA RESULT:    -4.161      4.345      7.586
REMARK INTER + INTRA:          -6.730
REMARK INTER:                  -6.418
REMARK INTRA:                  -0.312
REMARK UNBOUND:                -0.380
REMARK SMILES CCCCCCCCCCC(=O)[O-]
REMARK SMILES IDX 7 1 8 2 9 3 10 4 11 5 12 6 13 7 6 8 5 9 4 10 3 11 2 12 1 13
REMARK H PARENT
REMARK Flexibility Score: inf
ROOT
ATOM      1  C   UNL     1     -31.739 -23.632 -37.223  1.00  0.00     0.000 C 
ENDROOT
BRANCH   1   2
ATOM      2  C   UNL     1     -31.085 -24.956 -37.648  1.00  0.00     0.000 C 
BRANCH   2   3
ATOM      3  C   UNL     1     -31.959 -25.763 -38.620  1.00  0.00     0.006 C 
BRANCH   3   4
ATOM      4  C   UNL     1     -32.843 -26.794 -37.904  1.00  0.00     0.053 C 
BRANCH   4   5
ATOM      5  C   UNL     1     -32.695 -28.139 -38.539  1.00  0.00     0.041 C 
ATOM      6  O   UNL     1     -31.571 -28.520 -38.961  1.00  0.00    -0.550 OA
ATOM      7  O   UNL     1     -33.807 -28.954 -38.712  1.00  0.00    -0.550 OA
ENDBRANCH   4   5
ENDBRANCH   3   4
ENDBRANCH   2   3
ENDBRANCH   1   2
BRANCH   1   8
ATOM      8  C   UNL     1     -32.265 -23.718 -35.782  1.00  0.00     0.000 C 
BRANCH   8   9
ATOM      9  C   UNL     1     -32.167 -22.378 -35.036  1.00  0.00    -0.000 C 
BRANCH   9  10
ATOM     10  C   UNL     1     -31.446 -22.505 -33.682  1.00  0.00    -0.000 C 
BRANCH  10  11
ATOM     11  C   UNL     1     -30.878 -21.165 -33.188  1.00  0.00    -0.000 C 
BRANCH  11  12
ATOM     12  C   UNL     1     -29.965 -21.328 -31.964  1.00  0.00    -0.003 C 
ATOM     13  C   UNL     1     -30.447 -22.463 -31.065  1.00  0.00     0.004 C 
ENDBRANCH  11  12
ENDBRANCH  10  11
ENDBRANCH   9  10
ENDBRANCH   8   9
ENDBRANCH   1   8
TORSDOF 9
ENDMDL
MODEL 4
REMARK VINA RESULT:    -4.048      1.253      2.080
REMARK INTER + INTRA:          -6.558
REMARK INTER:                  -5.973
REMARK INTRA:                  -0.585
REMARK UNBOUND:                -0.380
REMARK SMILES CCCCCCCCCCC(=O)[O-]
REMARK SMILES IDX 7 1 8 2 9 3 10 4 11 5 12 6 13 7 6 8 5 9 4 10 3 11 2 12 1 13
REMARK H PARENT
REMARK Flexibility Score: inf
ROOT
ATOM      1  C   UNL     1     -31.477 -22.500 -34.075  1.00  0.00     0.000 C 
ENDROOT
BRANCH   1   2
ATOM      2  C   UNL     1     -31.836 -21.010 -33.964  1.00  0.00     0.000 C 
BRANCH   2   3
ATOM      3  C   UNL     1     -31.019 -20.282 -32.886  1.00  0.00     0.006 C 
BRANCH   3   4
ATOM      4  C   UNL     1     -29.941 -21.175 -32.256  1.00  0.00     0.053 C 
BRANCH   4   5
ATOM      5  C   UNL     1     -30.376 -21.642 -30.904  1.00  0.00     0.041 C 
ATOM      6  O   UNL     1     -30.413 -22.873 -30.641  1.00  0.00    -0.550 OA
ATOM      7  O   UNL     1     -30.787 -20.721 -29.948  1.00  0.00    -0.550 OA
ENDBRANCH   4   5
ENDBRANCH   3   4
ENDBRANCH   2   3
ENDBRANCH   1   2
BRANCH   1   8
ATOM      8  C   UNL     1     -32.303 -23.182 -35.176  1.00  0.00     0.000 C 
BRANCH   8   9
ATOM      9  C   UNL     1     -33.045 -22.173 -36.068  1.00  0.00    -0.000 C 
BRANCH   9  10
ATOM     10  C   UNL     1     -33.010 -22.560 -37.557  1.00  0.00    -0.000 C 
BRANCH  10  11
ATOM     11  C   UNL     1     -31.595 -22.914 -38.041  1.00  0.00    -0.000 C 
BRANCH  11  12
ATOM     12  C   UNL     1     -31.574 -24.158 -38.942  1.00  0.00    -0.003 C 
ATOM     13  C   UNL     1     -31.591 -25.438 -38.112  1.00  0.00     0.004 C 
ENDBRANCH  11  12
ENDBRANCH  10  11
ENDBRANCH   9  10
ENDBRANCH   8   9
ENDBRANCH   1   8
TORSDOF 9
ENDMDL
MODEL 5
REMARK VINA RESULT:    -4.027      4.196      7.441
REMARK INTER + INTRA:          -6.525
REMARK INTER:                  -6.165
REMARK INTRA:                  -0.360
REMARK UNBOUND:                -0.380
REMARK SMILES CCCCCCCCCCC(=O)[O-]
REMARK SMILES IDX 7 1 8 2 9 3 10 4 11 5 12 6 13 7 6 8 5 9 4 10 3 11 2 12 1 13
REMARK H PARENT
REMARK Flexibility Score: inf
ROOT
ATOM      1  C   UNL     1     -32.897 -23.790 -36.722  1.00  0.00     0.000 C 
ENDROOT
BRANCH   1   2
ATOM      2  C   UNL     1     -31.496 -24.226 -37.177  1.00  0.00     0.000 C 
BRANCH   2   3
ATOM      3  C   UNL     1     -31.512 -25.551 -37.956  1.00  0.00     0.006 C 
BRANCH   3   4
ATOM      4  C   UNL     1     -32.829 -26.320 -37.790  1.00  0.00     0.053 C 
BRANCH   4   5
ATOM      5  C   UNL     1     -32.735 -27.662 -38.443  1.00  0.00     0.041 C 
ATOM      6  O   UNL     1     -33.781 -28.308 -38.717  1.00  0.00    -0.550 OA
ATOM      7  O   UNL     1     -31.491 -28.224 -38.703  1.00  0.00    -0.550 OA
ENDBRANCH   4   5
ENDBRANCH   3   4
ENDBRANCH   2   3
ENDBRANCH   1   2
BRANCH   1   8
ATOM      8  C   UNL     1     -32.817 -22.562 -35.802  1.00  0.00     0.000 C 
BRANCH   8   9
ATOM      9  C   UNL     1     -31.871 -22.779 -34.610  1.00  0.00    -0.000 C 
BRANCH   9  10
ATOM     10  C   UNL     1     -31.452 -21.460 -33.938  1.00  0.00    -0.000 C 
BRANCH  10  11
ATOM     11  C   UNL     1     -30.277 -21.640 -32.964  1.00  0.00    -0.000 C 
BRANCH  11  12
ATOM     12  C   UNL     1     -30.666 -21.341 -31.508  1.00  0.00    -0.003 C 
ATOM     13  C   UNL     1     -30.299 -22.505 -30.592  1.00  0.00     0.004 C 
ENDBRANCH  11  12
ENDBRANCH  10  11
ENDBRANCH   9  10
ENDBRANCH   8   9
ENDBRANCH   1   8
TORSDOF 9
ENDMDL
MODEL 6
REMARK VINA RESULT:    -3.959      3.743      7.043
REMARK INTER + INTRA:          -6.422
REMARK INTER:                  -5.917
REMARK INTRA:                  -0.505
REMARK UNBOUND:                -0.380
REMARK SMILES CCCCCCCCCCC(=O)[O-]
REMARK SMILES IDX 7 1 8 2 9 3 10 4 11 5 12 6 13 7 6 8 5 9 4 10 3 11 2 12 1 13
REMARK H PARENT
REMARK Flexibility Score: inf
ROOT
ATOM      1  C   UNL     1     -31.163 -22.149 -33.834  1.00  0.00     0.000 C 
ENDROOT
BRANCH   1   2
ATOM      2  C   UNL     1     -32.302 -22.612 -34.756  1.00  0.00     0.000 C 
BRANCH   2   3
ATOM      3  C   UNL     1     -31.842 -23.648 -35.793  1.00  0.00     0.006 C 
BRANCH   3   4
ATOM      4  C   UNL     1     -32.830 -23.799 -36.957  1.00  0.00     0.053 C 
BRANCH   4   5
ATOM      5  C   UNL     1     -32.656 -22.683 -37.937  1.00  0.00     0.041 C 
ATOM      6  O   UNL     1     -31.674 -22.681 -38.727  1.00  0.00    -0.550 OA
ATOM      7  O   UNL     1     -33.549 -21.619 -37.946  1.00  0.00    -0.550 OA
ENDBRANCH   4   5
ENDBRANCH   3   4
ENDBRANCH   2   3
ENDBRANCH   1   2
BRANCH   1   8
ATOM      8  C   UNL     1     -31.321 -20.664 -33.472  1.00  0.00     0.000 C 
BRANCH   8   9
ATOM      9  C   UNL     1     -29.986 -20.006 -33.086  1.00  0.00    -0.000 C 
BRANCH   9  10
ATOM     10  C   UNL     1     -29.252 -20.766 -31.967  1.00  0.00    -0.000 C 
BRANCH  10  11
ATOM     11  C   UNL     1     -29.704 -20.331 -30.564  1.00  0.00    -0.000 C 
BRANCH  11  12
ATOM     12  C   UNL     1     -30.404 -21.461 -29.793  1.00  0.00    -0.003 C 
ATOM     13  C   UNL     1     -30.355 -22.771 -30.575  1.00  0.00     0.004 C 
ENDBRANCH  11  12
ENDBRANCH  10  11
ENDBRANCH   9  10
ENDBRANCH   8   9
ENDBRANCH   1   8
TORSDOF 9
ENDMDL
MODEL 7
REMARK VINA RESULT:    -3.870      3.660      7.182
REMARK INTER + INTRA:          -6.285
REMARK INTER:                  -5.747
REMARK INTRA:                  -0.539
REMARK UNBOUND:                -0.380
REMARK SMILES CCCCCCCCCCC(=O)[O-]
REMARK SMILES IDX 7 1 8 2 9 3 10 4 11 5 12 6 13 7 6 8 5 9 4 10 3 11 2 12 1 13
REMARK H PARENT
REMARK Flexibility Score: inf
ROOT
ATOM      1  C   UNL     1     -32.343 -22.898 -34.579  1.00  0.00     0.000 C 
ENDROOT
BRANCH   1   2
ATOM      2  C   UNL     1     -32.945 -22.074 -35.727  1.00  0.00     0.000 C 
BRANCH   2   3
ATOM      3  C   UNL     1     -33.325 -22.936 -36.940  1.00  0.00     0.006 C 
BRANCH   3   4
ATOM      4  C   UNL     1     -32.707 -24.340 -36.886  1.00  0.00     0.053 C 
BRANCH   4   5
ATOM      5  C   UNL     1     -31.683 -24.501 -37.963  1.00  0.00     0.041 C 
ATOM      6  O   UNL     1     -30.957 -25.531 -37.998  1.00  0.00    -0.550 OA
ATOM      7  O   UNL     1     -31.493 -23.493 -38.900  1.00  0.00    -0.550 OA
ENDBRANCH   4   5
ENDBRANCH   3   4
ENDBRANCH   2   3
ENDBRANCH   1   2
BRANCH   1   8
ATOM      8  C   UNL     1     -31.117 -22.191 -33.981  1.00  0.00     0.000 C 
BRANCH   8   9
ATOM      9  C   UNL     1     -31.422 -20.750 -33.542  1.00  0.00    -0.000 C 
BRANCH   9  10
ATOM     10  C   UNL     1     -30.575 -20.306 -32.336  1.00  0.00    -0.000 C 
BRANCH  10  11
ATOM     11  C   UNL     1     -30.251 -21.468 -31.383  1.00  0.00    -0.000 C 
BRANCH  11  12
ATOM     12  C   UNL     1     -30.527 -21.119 -29.913  1.00  0.00    -0.003 C 
ATOM     13  C   UNL     1     -31.473 -19.926 -29.800  1.00  0.00     0.004 C 
ENDBRANCH  11  12
ENDBRANCH  10  11
ENDBRANCH   9  10
ENDBRANCH   8   9
ENDBRANCH   1   8
TORSDOF 9
ENDMDL
MODEL 8
REMARK VINA RESULT:    -3.602      3.701      7.246
REMARK INTER + INTRA:          -5.877
REMARK INTER:                  -5.343
REMARK INTRA:                  -0.535
REMARK UNBOUND:                -0.380
REMARK SMILES CCCCCCCCCCC(=O)[O-]
REMARK SMILES IDX 7 1 8 2 9 3 10 4 11 5 12 6 13 7 6 8 5 9 4 10 3 11 2 12 1 13
REMARK H PARENT
REMARK Flexibility Score: inf
ROOT
ATOM      1  C   UNL     1     -32.278 -22.846 -34.626  1.00  0.00     0.000 C 
ENDROOT
BRANCH   1   2
ATOM      2  C   UNL     1     -33.182 -21.900 -35.432  1.00  0.00     0.000 C 
BRANCH   2   3
ATOM      3  C   UNL     1     -33.248 -22.268 -36.922  1.00  0.00     0.006 C 
BRANCH   3   4
ATOM      4  C   UNL     1     -32.963 -23.754 -37.178  1.00  0.00     0.053 C 
BRANCH   4   5
ATOM      5  C   UNL     1     -31.809 -23.909 -38.117  1.00  0.00     0.041 C 
ATOM      6  O   UNL     1     -31.116 -22.909 -38.440  1.00  0.00    -0.550 OA
ATOM      7  O   UNL     1     -31.529 -25.150 -38.675  1.00  0.00    -0.550 OA
ENDBRANCH   4   5
ENDBRANCH   3   4
ENDBRANCH   2   3
ENDBRANCH   1   2
BRANCH   1   8
ATOM      8  C   UNL     1     -31.125 -22.072 -33.967  1.00  0.00     0.000 C 
BRANCH   8   9
ATOM      9  C   UNL     1     -31.523 -20.640 -33.577  1.00  0.00    -0.000 C 
BRANCH   9  10
ATOM     10  C   UNL     1     -30.525 -19.993 -32.600  1.00  0.00    -0.000 C 
BRANCH  10  11
ATOM     11  C   UNL     1     -29.066 -20.157 -33.052  1.00  0.00    -0.000 C 
BRANCH  11  12
ATOM     12  C   UNL     1     -28.063 -19.887 -31.920  1.00  0.00    -0.003 C 
ATOM     13  C   UNL     1     -28.758 -19.886 -30.561  1.00  0.00     0.004 C 
ENDBRANCH  11  12
ENDBRANCH  10  11
ENDBRANCH   9  10
ENDBRANCH   8   9
ENDBRANCH   1   8
TORSDOF 9
ENDMDL
MODEL 9
REMARK VINA RESULT:    -2.652      3.034      3.692
REMARK INTER + INTRA:          -4.427
REMARK INTER:                  -4.333
REMARK INTRA:                  -0.093
REMARK UNBOUND:                -0.380
REMARK SMILES CCCCCCCCCCC(=O)[O-]
REMARK SMILES IDX 7 1 8 2 9 3 10 4 11 5 12 6 13 7 6 8 5 9 4 10 3 11 2 12 1 13
REMARK H PARENT
REMARK Flexibility Score: inf
ROOT
ATOM      1  C   UNL     1     -31.248 -23.278 -37.603  1.00  0.00     0.000 C 
ENDROOT
BRANCH   1   2
ATOM      2  C   UNL     1     -32.547 -22.872 -38.316  1.00  0.00     0.000 C 
BRANCH   2   3
ATOM      3  C   UNL     1     -33.684 -22.546 -37.336  1.00  0.00     0.006 C 
BRANCH   3   4
ATOM      4  C   UNL     1     -33.662 -21.084 -36.868  1.00  0.00     0.053 C 
BRANCH   4   5
ATOM      5  C   UNL     1     -33.307 -21.006 -35.418  1.00  0.00     0.041 C 
ATOM      6  O   UNL     1     -32.750 -21.981 -34.849  1.00  0.00    -0.550 OA
ATOM      7  O   UNL     1     -33.637 -19.875 -34.681  1.00  0.00    -0.550 OA
ENDBRANCH   4   5
ENDBRANCH   3   4
ENDBRANCH   2   3
ENDBRANCH   1   2
BRANCH   1   8
ATOM      8  C   UNL     1     -31.206 -24.794 -37.360  1.00  0.00     0.000 C 
BRANCH   8   9
ATOM      9  C   UNL     1     -32.595 -25.446 -37.459  1.00  0.00    -0.000 C 
BRANCH   9  10
ATOM     10  C   UNL     1     -32.730 -26.370 -38.682  1.00  0.00    -0.000 C 
BRANCH  10  11
ATOM     11  C   UNL     1     -31.806 -27.595 -38.601  1.00  0.00    -0.000 C 
BRANCH  11  12
ATOM     12  C   UNL     1     -32.530 -28.904 -38.950  1.00  0.00    -0.003 C 
ATOM     13  C   UNL     1     -34.044 -28.740 -38.842  1.00  0.00     0.004 C 
ENDBRANCH  11  12
ENDBRANCH  10  11
ENDBRANCH   9  10
ENDBRANCH   8   9
ENDBRANCH   1   8
TORSDOF 9
ENDMDL
