MODEL 1
REMARK VINA RESULT:    -3.875      0.000      0.000
REMARK INTER + INTRA:          -5.028
REMARK INTER:                  -4.782
REMARK INTRA:                  -0.247
REMARK UNBOUND:                -0.247
REMARK SMILES CCCCCC(=O)[O-]
REMARK SMILES IDX 4 1 5 2 6 3 7 4 8 5 3 6 2 7 1 8
REMARK H PARENT
REMARK Flexibility Score: inf
ROOT
ATOM      1  C   UNL     1      41.645  58.606  48.998  1.00  0.00     0.006 C 
ENDROOT
BRANCH   1   2
ATOM      2  C   UNL     1      42.260  59.773  48.219  1.00  0.00     0.053 C 
BRANCH   2   3
ATOM      3  C   UNL     1      43.146  60.587  49.108  1.00  0.00     0.041 C 
ATOM      4  O   UNL     1      42.650  61.459  49.870  1.00  0.00    -0.550 OA
ATOM      5  O   UNL     1      44.524  60.418  49.059  1.00  0.00    -0.550 OA
ENDBRANCH   2   3
ENDBRANCH   1   2
BRANCH   1   6
ATOM      6  C   UNL     1      42.627  57.429  49.090  1.00  0.00     0.000 C 
BRANCH   6   7
ATOM      7  C   UNL     1      43.318  57.132  47.750  1.00  0.00    -0.003 C 
ATOM      8  C   UNL     1      44.838  57.034  47.876  1.00  0.00     0.004 C 
ENDBRANCH   6   7
ENDBRANCH   1   6
TORSDOF 4
ENDMDL
MODEL 2
REMARK VINA RESULT:    -3.844      3.198      4.289
REMARK INTER + INTRA:          -4.989
REMARK INTER:                  -4.738
REMARK INTRA:                  -0.252
REMARK UNBOUND:                -0.247
REMARK SMILES CCCCCC(=O)[O-]
REMARK SMILES IDX 4 1 5 2 6 3 7 4 8 5 3 6 2 7 1 8
REMARK H PARENT
REMARK Flexibility Score: inf
ROOT
ATOM      1  C   UNL     1      43.831  57.325  47.429  1.00  0.00     0.006 C 
ENDROOT
BRANCH   1   2
ATOM      2  C   UNL     1      43.246  58.271  46.374  1.00  0.00     0.053 C 
BRANCH   2   3
ATOM      3  C   UNL     1      42.339  57.525  45.447  1.00  0.00     0.041 C 
ATOM      4  O   UNL     1      42.821  56.809  44.530  1.00  0.00    -0.550 OA
ATOM      5  O   UNL     1      40.961  57.660  45.564  1.00  0.00    -0.550 OA
ENDBRANCH   2   3
ENDBRANCH   1   2
BRANCH   1   6
ATOM      6  C   UNL     1      42.764  56.923  48.458  1.00  0.00     0.000 C 
BRANCH   6   7
ATOM      7  C   UNL     1      42.152  58.136  49.176  1.00  0.00    -0.003 C 
ATOM      8  C   UNL     1      40.627  58.170  49.085  1.00  0.00     0.004 C 
ENDBRANCH   6   7
ENDBRANCH   1   6
TORSDOF 4
ENDMDL
MODEL 3
REMARK VINA RESULT:    -3.844      1.090      1.508
REMARK INTER + INTRA:          -4.989
REMARK INTER:                  -4.776
REMARK INTRA:                  -0.213
REMARK UNBOUND:                -0.247
REMARK SMILES CCCCCC(=O)[O-]
REMARK SMILES IDX 4 1 5 2 6 3 7 4 8 5 3 6 2 7 1 8
REMARK H PARENT
REMARK Flexibility Score: inf
ROOT
ATOM      1  C   UNL     1      42.585  59.880  46.976  1.00  0.00     0.006 C 
ENDROOT
BRANCH   1   2
ATOM      2  C   UNL     1      42.022  60.039  48.393  1.00  0.00     0.053 C 
BRANCH   2   3
ATOM      3  C   UNL     1      43.060  60.604  49.309  1.00  0.00     0.041 C 
ATOM      4  O   UNL     1      42.866  61.710  49.881  1.00  0.00    -0.550 OA
ATOM      5  O   UNL     1      44.263  59.935  49.494  1.00  0.00    -0.550 OA
ENDBRANCH   2   3
ENDBRANCH   1   2
BRANCH   1   6
ATOM      6  C   UNL     1      42.437  58.432  46.487  1.00  0.00     0.000 C 
BRANCH   6   7
ATOM      7  C   UNL     1      43.787  57.702  46.388  1.00  0.00    -0.003 C 
ATOM      8  C   UNL     1      44.125  56.909  47.649  1.00  0.00     0.004 C 
ENDBRANCH   6   7
ENDBRANCH   1   6
TORSDOF 4
ENDMDL
MODEL 4
REMARK VINA RESULT:    -3.839      3.053      3.585
REMARK INTER + INTRA:          -4.983
REMARK INTER:                  -4.750
REMARK INTRA:                  -0.233
REMARK UNBOUND:                -0.247
REMARK SMILES CCCCCC(=O)[O-]
REMARK SMILES IDX 4 1 5 2 6 3 7 4 8 5 3 6 2 7 1 8
REMARK H PARENT
REMARK Flexibility Score: inf
ROOT
ATOM      1  C   UNL     1      41.843  59.661  48.252  1.00  0.00     0.006 C 
ENDROOT
BRANCH   1   2
ATOM      2  C   UNL     1      41.645  58.197  48.663  1.00  0.00     0.053 C 
BRANCH   2   3
ATOM      3  C   UNL     1      40.405  57.641  48.038  1.00  0.00     0.041 C 
ATOM      4  O   UNL     1      39.302  57.716  48.641  1.00  0.00    -0.550 OA
ATOM      5  O   UNL     1      40.475  56.994  46.810  1.00  0.00    -0.550 OA
ENDBRANCH   2   3
ENDBRANCH   1   2
BRANCH   1   6
ATOM      6  C   UNL     1      42.646  59.759  46.946  1.00  0.00     0.000 C 
BRANCH   6   7
ATOM      7  C   UNL     1      43.772  58.717  46.867  1.00  0.00    -0.003 C 
ATOM      8  C   UNL     1      43.739  57.907  45.571  1.00  0.00     0.004 C 
ENDBRANCH   6   7
ENDBRANCH   1   6
TORSDOF 4
ENDMDL
MODEL 5
REMARK VINA RESULT:    -3.809      2.233      3.545
REMARK INTER + INTRA:          -4.947
REMARK INTER:                  -4.697
REMARK INTRA:                  -0.250
REMARK UNBOUND:                -0.247
REMARK SMILES CCCCCC(=O)[O-]
REMARK SMILES IDX 4 1 5 2 6 3 7 4 8 5 3 6 2 7 1 8
REMARK H PARENT
REMARK Flexibility Score: inf
ROOT
ATOM      1  C   UNL     1      42.328  57.830  49.159  1.00  0.00     0.006 C 
ENDROOT
BRANCH   1   2
ATOM      2  C   UNL     1      42.670  56.925  47.971  1.00  0.00     0.053 C 
BRANCH   2   3
ATOM      3  C   UNL     1      43.996  57.301  47.390  1.00  0.00     0.041 C 
ATOM      4  O   UNL     1      45.058  56.830  47.877  1.00  0.00    -0.550 OA
ATOM      5  O   UNL     1      44.064  58.212  46.342  1.00  0.00    -0.550 OA
ENDBRANCH   2   3
ENDBRANCH   1   2
BRANCH   1   6
ATOM      6  C   UNL     1      41.306  58.903  48.755  1.00  0.00     0.000 C 
BRANCH   6   7
ATOM      7  C   UNL     1      41.963  60.257  48.445  1.00  0.00    -0.003 C 
ATOM      8  C   UNL     1      43.204  60.522  49.297  1.00  0.00     0.004 C 
ENDBRANCH   6   7
ENDBRANCH   1   6
TORSDOF 4
ENDMDL
MODEL 6
REMARK VINA RESULT:    -3.805      1.783      3.587
REMARK INTER + INTRA:          -4.941
REMARK INTER:                  -4.717
REMARK INTRA:                  -0.224
REMARK UNBOUND:                -0.247
REMARK SMILES CCCCCC(=O)[O-]
REMARK SMILES IDX 4 1 5 2 6 3 7 4 8 5 3 6 2 7 1 8
REMARK H PARENT
REMARK Flexibility Score: inf
ROOT
ATOM      1  C   UNL     1      43.741  58.990  46.841  1.00  0.00     0.006 C 
ENDROOT
BRANCH   1   2
ATOM      2  C   UNL     1      44.004  57.795  47.765  1.00  0.00     0.053 C 
BRANCH   2   3
ATOM      3  C   UNL     1      45.211  58.043  48.612  1.00  0.00     0.041 C 
ATOM      4  O   UNL     1      46.242  57.334  48.470  1.00  0.00    -0.550 OA
ATOM      5  O   UNL     1      45.180  59.026  49.594  1.00  0.00    -0.550 OA
ENDBRANCH   2   3
ENDBRANCH   1   2
BRANCH   1   6
ATOM      6  C   UNL     1      42.290  59.476  46.974  1.00  0.00     0.000 C 
BRANCH   6   7
ATOM      7  C   UNL     1      41.840  59.596  48.439  1.00  0.00    -0.003 C 
ATOM      8  C   UNL     1      42.210  60.940  49.064  1.00  0.00     0.004 C 
ENDBRANCH   6   7
ENDBRANCH   1   6
TORSDOF 4
ENDMDL
MODEL 7
REMARK VINA RESULT:    -3.797      1.576      2.207
REMARK INTER + INTRA:          -4.931
REMARK INTER:                  -4.692
REMARK INTRA:                  -0.240
REMARK UNBOUND:                -0.247
REMARK SMILES CCCCCC(=O)[O-]
REMARK SMILES IDX 4 1 5 2 6 3 7 4 8 5 3 6 2 7 1 8
REMARK H PARENT
REMARK Flexibility Score: inf
ROOT
ATOM      1  C   UNL     1      43.676  59.076  46.790  1.00  0.00     0.006 C 
ENDROOT
BRANCH   1   2
ATOM      2  C   UNL     1      42.226  59.522  47.010  1.00  0.00     0.053 C 
BRANCH   2   3
ATOM      3  C   UNL     1      41.953  59.717  48.467  1.00  0.00     0.041 C 
ATOM      4  O   UNL     1      41.524  58.761  49.165  1.00  0.00    -0.550 OA
ATOM      5  O   UNL     1      42.125  60.969  49.045  1.00  0.00    -0.550 OA
ENDBRANCH   2   3
ENDBRANCH   1   2
BRANCH   1   6
ATOM      6  C   UNL     1      43.778  57.544  46.747  1.00  0.00     0.000 C 
BRANCH   6   7
ATOM      7  C   UNL     1      44.611  56.976  47.907  1.00  0.00    -0.003 C 
ATOM      8  C   UNL     1      45.358  58.058  48.685  1.00  0.00     0.004 C 
ENDBRANCH   6   7
ENDBRANCH   1   6
TORSDOF 4
ENDMDL
MODEL 8
REMARK VINA RESULT:    -3.765      3.092      4.253
REMARK INTER + INTRA:          -4.892
REMARK INTER:                  -4.712
REMARK INTRA:                  -0.180
REMARK UNBOUND:                -0.247
REMARK SMILES CCCCCC(=O)[O-]
REMARK SMILES IDX 4 1 5 2 6 3 7 4 8 5 3 6 2 7 1 8
REMARK H PARENT
REMARK Flexibility Score: inf
ROOT
ATOM      1  C   UNL     1      42.357  56.983  48.044  1.00  0.00     0.006 C 
ENDROOT
BRANCH   1   2
ATOM      2  C   UNL     1      43.147  57.467  46.823  1.00  0.00     0.053 C 
BRANCH   2   3
ATOM      3  C   UNL     1      42.321  57.344  45.582  1.00  0.00     0.041 C 
ATOM      4  O   UNL     1      42.854  56.988  44.499  1.00  0.00    -0.550 OA
ATOM      5  O   UNL     1      40.970  57.670  45.611  1.00  0.00    -0.550 OA
ENDBRANCH   2   3
ENDBRANCH   1   2
BRANCH   1   6
ATOM      6  C   UNL     1      42.338  58.055  49.144  1.00  0.00     0.000 C 
BRANCH   6   7
ATOM      7  C   UNL     1      41.813  59.409  48.640  1.00  0.00    -0.003 C 
ATOM      8  C   UNL     1      42.615  60.592  49.178  1.00  0.00     0.004 C 
ENDBRANCH   6   7
ENDBRANCH   1   6
TORSDOF 4
ENDMDL
MODEL 9
REMARK VINA RESULT:    -3.731      3.031      3.503
REMARK INTER + INTRA:          -4.850
REMARK INTER:                  -4.591
REMARK INTRA:                  -0.259
REMARK UNBOUND:                -0.247
REMARK SMILES CCCCCC(=O)[O-]
REMARK SMILES IDX 4 1 5 2 6 3 7 4 8 5 3 6 2 7 1 8
REMARK H PARENT
REMARK Flexibility Score: inf
ROOT
ATOM      1  C   UNL     1      41.969  58.845  48.333  1.00  0.00     0.006 C 
ENDROOT
BRANCH   1   2
ATOM      2  C   UNL     1      42.195  59.009  46.826  1.00  0.00     0.053 C 
BRANCH   2   3
ATOM      3  C   UNL     1      41.749  57.785  46.093  1.00  0.00     0.041 C 
ATOM      4  O   UNL     1      42.520  57.219  45.273  1.00  0.00    -0.550 OA
ATOM      5  O   UNL     1      40.461  57.295  46.277  1.00  0.00    -0.550 OA
ENDBRANCH   2   3
ENDBRANCH   1   2
BRANCH   1   6
ATOM      6  C   UNL     1      42.875  57.745  48.906  1.00  0.00     0.000 C 
BRANCH   6   7
ATOM      7  C   UNL     1      44.367  58.028  48.672  1.00  0.00    -0.003 C 
ATOM      8  C   UNL     1      45.080  56.886  47.950  1.00  0.00     0.004 C 
ENDBRANCH   6   7
ENDBRANCH   1   6
TORSDOF 4
ENDMDL
