MODEL 1
REMARK VINA RESULT:    -6.082      0.000      0.000
REMARK INTER + INTRA:          -6.082
REMARK INTER:                  -6.082
REMARK INTRA:                   0.000
REMARK UNBOUND:                 0.000
REMARK SMILES CC1=CC[C@@]2(C)CCCC(C)(C)[C@@]23C[C@@H]13
REMARK SMILES IDX 1 1 2 2 3 3 4 4 5 5 7 6 8 7 9 8 10 9 13 10 15 11 14 12 11 13
REMARK SMILES IDX 12 14 6 15
REMARK H PARENT
REMARK Flexibility Score: inf
ROOT
ATOM      1  C   UNL     1     -55.530 -46.277  20.944  1.00  0.00     0.039 C 
ATOM      2  C   UNL     1     -54.449 -46.926  21.758  1.00  0.00    -0.074 C 
ATOM      3  C   UNL     1     -54.134 -46.411  22.966  1.00  0.00    -0.027 C 
ATOM      4  C   UNL     1     -53.065 -47.019  23.841  1.00  0.00     0.034 C 
ATOM      5  C   UNL     1     -51.909 -47.610  22.982  1.00  0.00    -0.022 C 
ATOM      6  C   UNL     1     -50.936 -48.374  23.912  1.00  0.00     0.008 C 
ATOM      7  C   UNL     1     -49.831 -49.127  23.148  1.00  0.00     0.001 C 
ATOM      8  C   UNL     1     -50.397 -50.109  22.111  1.00  0.00     0.007 C 
ATOM      9  C   UNL     1     -51.385 -49.478  21.087  1.00  0.00    -0.029 C 
ATOM     10  C   UNL     1     -52.451 -48.620  21.893  1.00  0.00    -0.012 C 
ATOM     11  C   UNL     1     -53.738 -48.149  21.197  1.00  0.00     0.022 C 
ATOM     12  C   UNL     1     -53.803 -49.340  22.151  1.00  0.00     0.017 C 
ATOM     13  C   UNL     1     -50.625 -48.595  20.063  1.00  0.00     0.012 C 
ATOM     14  C   UNL     1     -51.985 -50.660  20.269  1.00  0.00     0.012 C 
ATOM     15  C   UNL     1     -51.184 -46.393  22.326  1.00  0.00     0.012 C 
ENDROOT
TORSDOF 0
ENDMDL
MODEL 2
REMARK VINA RESULT:    -5.920      9.707     12.700
REMARK INTER + INTRA:          -5.920
REMARK INTER:                  -5.920
REMARK INTRA:                   0.000
REMARK UNBOUND:                 0.000
REMARK SMILES CC1=CC[C@@]2(C)CCCC(C)(C)[C@@]23C[C@@H]13
REMARK SMILES IDX 1 1 2 2 3 3 4 4 5 5 7 6 8 7 9 8 10 9 13 10 15 11 14 12 11 13
REMARK SMILES IDX 12 14 6 15
REMARK H PARENT
REMARK Flexibility Score: inf
ROOT
ATOM      1  C   UNL     1     -38.755 -46.666  29.250  1.00  0.00     0.039 C 
ATOM      2  C   UNL     1     -39.868 -47.250  28.427  1.00  0.00    -0.074 C 
ATOM      3  C   UNL     1     -40.272 -46.603  27.313  1.00  0.00    -0.027 C 
ATOM      4  C   UNL     1     -41.377 -47.139  26.435  1.00  0.00     0.034 C 
ATOM      5  C   UNL     1     -42.459 -47.870  27.282  1.00  0.00    -0.022 C 
ATOM      6  C   UNL     1     -43.468 -48.551  26.324  1.00  0.00     0.008 C 
ATOM      7  C   UNL     1     -44.500 -49.430  27.054  1.00  0.00     0.001 C 
ATOM      8  C   UNL     1     -43.841 -50.509  27.927  1.00  0.00     0.007 C 
ATOM      9  C   UNL     1     -42.809 -49.973  28.961  1.00  0.00    -0.029 C 
ATOM     10  C   UNL     1     -41.821 -48.985  28.204  1.00  0.00    -0.012 C 
ATOM     11  C   UNL     1     -40.506 -48.556  28.875  1.00  0.00     0.022 C 
ATOM     12  C   UNL     1     -40.468 -49.620  27.779  1.00  0.00     0.017 C 
ATOM     13  C   UNL     1     -43.527 -49.248  30.128  1.00  0.00     0.012 C 
ATOM     14  C   UNL     1     -42.125 -51.223  29.589  1.00  0.00     0.012 C 
ATOM     15  C   UNL     1     -43.175 -46.769  28.125  1.00  0.00     0.012 C 
ENDROOT
TORSDOF 0
ENDMDL
MODEL 3
REMARK VINA RESULT:    -5.657      9.988     12.742
REMARK INTER + INTRA:          -5.657
REMARK INTER:                  -5.657
REMARK INTRA:                   0.000
REMARK UNBOUND:                 0.000
REMARK SMILES CC1=CC[C@@]2(C)CCCC(C)(C)[C@@]23C[C@@H]13
REMARK SMILES IDX 1 1 2 2 3 3 4 4 5 5 7 6 8 7 9 8 10 9 13 10 15 11 14 12 11 13
REMARK SMILES IDX 12 14 6 15
REMARK H PARENT
REMARK Flexibility Score: inf
ROOT
ATOM      1  C   UNL     1     -43.458 -48.376  25.057  1.00  0.00     0.039 C 
ATOM      2  C   UNL     1     -42.631 -48.185  26.296  1.00  0.00    -0.074 C 
ATOM      3  C   UNL     1     -41.500 -47.451  26.227  1.00  0.00    -0.027 C 
ATOM      4  C   UNL     1     -40.628 -47.210  27.434  1.00  0.00     0.034 C 
ATOM      5  C   UNL     1     -40.633 -48.445  28.383  1.00  0.00    -0.022 C 
ATOM      6  C   UNL     1     -39.874 -48.081  29.682  1.00  0.00     0.008 C 
ATOM      7  C   UNL     1     -39.945 -49.182  30.756  1.00  0.00     0.001 C 
ATOM      8  C   UNL     1     -41.389 -49.561  31.116  1.00  0.00     0.007 C 
ATOM      9  C   UNL     1     -42.278 -49.972  29.906  1.00  0.00    -0.029 C 
ATOM     10  C   UNL     1     -42.104 -48.875  28.771  1.00  0.00    -0.012 C 
ATOM     11  C   UNL     1     -43.094 -48.827  27.596  1.00  0.00     0.022 C 
ATOM     12  C   UNL     1     -43.230 -47.805  28.724  1.00  0.00     0.017 C 
ATOM     13  C   UNL     1     -41.877 -51.376  29.383  1.00  0.00     0.012 C 
ATOM     14  C   UNL     1     -43.728 -50.118  30.455  1.00  0.00     0.012 C 
ATOM     15  C   UNL     1     -39.884 -49.584  27.622  1.00  0.00     0.012 C 
ENDROOT
TORSDOF 0
ENDMDL
MODEL 4
REMARK VINA RESULT:    -5.520      9.703     12.476
REMARK INTER + INTRA:          -5.520
REMARK INTER:                  -5.520
REMARK INTRA:                   0.000
REMARK UNBOUND:                 0.000
REMARK SMILES CC1=CC[C@@]2(C)CCCC(C)(C)[C@@]23C[C@@H]13
REMARK SMILES IDX 1 1 2 2 3 3 4 4 5 5 7 6 8 7 9 8 10 9 13 10 15 11 14 12 11 13
REMARK SMILES IDX 12 14 6 15
REMARK H PARENT
REMARK Flexibility Score: inf
ROOT
ATOM      1  C   UNL     1     -44.196 -48.944  26.631  1.00  0.00     0.039 C 
ATOM      2  C   UNL     1     -43.677 -49.211  28.015  1.00  0.00    -0.074 C 
ATOM      3  C   UNL     1     -42.346 -49.167  28.240  1.00  0.00    -0.027 C 
ATOM      4  C   UNL     1     -41.758 -49.416  29.607  1.00  0.00     0.034 C 
ATOM      5  C   UNL     1     -42.590 -50.473  30.389  1.00  0.00    -0.022 C 
ATOM      6  C   UNL     1     -42.055 -50.558  31.840  1.00  0.00     0.008 C 
ATOM      7  C   UNL     1     -42.902 -51.468  32.748  1.00  0.00     0.001 C 
ATOM      8  C   UNL     1     -44.379 -51.047  32.790  1.00  0.00     0.007 C 
ATOM      9  C   UNL     1     -45.066 -50.936  31.398  1.00  0.00    -0.029 C 
ATOM     10  C   UNL     1     -44.122 -50.083  30.448  1.00  0.00    -0.012 C 
ATOM     11  C   UNL     1     -44.670 -49.525  29.124  1.00  0.00     0.022 C 
ATOM     12  C   UNL     1     -44.514 -48.584  30.318  1.00  0.00     0.017 C 
ATOM     13  C   UNL     1     -45.325 -52.343  30.799  1.00  0.00     0.012 C 
ATOM     14  C   UNL     1     -46.471 -50.313  31.649  1.00  0.00     0.012 C 
ATOM     15  C   UNL     1     -42.373 -51.833  29.654  1.00  0.00     0.012 C 
ENDROOT
TORSDOF 0
ENDMDL
MODEL 5
REMARK VINA RESULT:    -5.428      8.750     11.763
REMARK INTER + INTRA:          -5.428
REMARK INTER:                  -5.428
REMARK INTRA:                   0.000
REMARK UNBOUND:                 0.000
REMARK SMILES CC1=CC[C@@]2(C)CCCC(C)(C)[C@@]23C[C@@H]13
REMARK SMILES IDX 1 1 2 2 3 3 4 4 5 5 7 6 8 7 9 8 10 9 13 10 15 11 14 12 11 13
REMARK SMILES IDX 12 14 6 15
REMARK H PARENT
REMARK Flexibility Score: inf
ROOT
ATOM      1  C   UNL     1     -42.170 -49.990  30.749  1.00  0.00     0.039 C 
ATOM      2  C   UNL     1     -42.048 -49.435  29.359  1.00  0.00    -0.074 C 
ATOM      3  C   UNL     1     -40.832 -49.385  28.773  1.00  0.00    -0.027 C 
ATOM      4  C   UNL     1     -40.639 -48.849  27.376  1.00  0.00     0.034 C 
ATOM      5  C   UNL     1     -41.633 -47.688  27.080  1.00  0.00    -0.022 C 
ATOM      6  C   UNL     1     -41.517 -47.299  25.586  1.00  0.00     0.008 C 
ATOM      7  C   UNL     1     -42.563 -46.258  25.146  1.00  0.00     0.001 C 
ATOM      8  C   UNL     1     -44.002 -46.716  25.428  1.00  0.00     0.007 C 
ATOM      9  C   UNL     1     -44.281 -47.125  26.903  1.00  0.00    -0.029 C 
ATOM     10  C   UNL     1     -43.128 -48.115  27.366  1.00  0.00    -0.012 C 
ATOM     11  C   UNL     1     -43.301 -48.943  28.650  1.00  0.00     0.022 C 
ATOM     12  C   UNL     1     -43.500 -49.623  27.296  1.00  0.00     0.017 C 
ATOM     13  C   UNL     1     -44.336 -45.875  27.819  1.00  0.00     0.012 C 
ATOM     14  C   UNL     1     -45.713 -47.737  26.927  1.00  0.00     0.012 C 
ATOM     15  C   UNL     1     -41.194 -46.494  27.985  1.00  0.00     0.012 C 
ENDROOT
TORSDOF 0
ENDMDL
MODEL 6
REMARK VINA RESULT:    -5.396      8.454     11.082
REMARK INTER + INTRA:          -5.396
REMARK INTER:                  -5.396
REMARK INTRA:                   0.000
REMARK UNBOUND:                 0.000
REMARK SMILES CC1=CC[C@@]2(C)CCCC(C)(C)[C@@]23C[C@@H]13
REMARK SMILES IDX 1 1 2 2 3 3 4 4 5 5 7 6 8 7 9 8 10 9 13 10 15 11 14 12 11 13
REMARK SMILES IDX 12 14 6 15
REMARK H PARENT
REMARK Flexibility Score: inf
ROOT
ATOM      1  C   UNL     1     -45.550 -45.908  24.909  1.00  0.00     0.039 C 
ATOM      2  C   UNL     1     -44.290 -46.283  25.634  1.00  0.00    -0.074 C 
ATOM      3  C   UNL     1     -43.096 -46.011  25.063  1.00  0.00    -0.027 C 
ATOM      4  C   UNL     1     -41.791 -46.351  25.741  1.00  0.00     0.034 C 
ATOM      5  C   UNL     1     -41.916 -47.662  26.570  1.00  0.00    -0.022 C 
ATOM      6  C   UNL     1     -40.614 -47.866  27.383  1.00  0.00     0.008 C 
ATOM      7  C   UNL     1     -40.686 -49.058  28.356  1.00  0.00     0.001 C 
ATOM      8  C   UNL     1     -41.867 -48.949  29.333  1.00  0.00     0.007 C 
ATOM      9  C   UNL     1     -43.256 -48.758  28.659  1.00  0.00    -0.029 C 
ATOM     10  C   UNL     1     -43.128 -47.596  27.584  1.00  0.00    -0.012 C 
ATOM     11  C   UNL     1     -44.396 -46.958  26.994  1.00  0.00     0.022 C 
ATOM     12  C   UNL     1     -43.618 -46.204  28.071  1.00  0.00     0.017 C 
ATOM     13  C   UNL     1     -43.729 -50.077  27.993  1.00  0.00     0.012 C 
ATOM     14  C   UNL     1     -44.267 -48.473  29.809  1.00  0.00     0.012 C 
ATOM     15  C   UNL     1     -42.094 -48.819  25.538  1.00  0.00     0.012 C 
ENDROOT
TORSDOF 0
ENDMDL
MODEL 7
REMARK VINA RESULT:    -5.372      8.100     11.108
REMARK INTER + INTRA:          -5.372
REMARK INTER:                  -5.372
REMARK INTRA:                   0.000
REMARK UNBOUND:                 0.000
REMARK SMILES CC1=CC[C@@]2(C)CCCC(C)(C)[C@@]23C[C@@H]13
REMARK SMILES IDX 1 1 2 2 3 3 4 4 5 5 7 6 8 7 9 8 10 9 13 10 15 11 14 12 11 13
REMARK SMILES IDX 12 14 6 15
REMARK H PARENT
REMARK Flexibility Score: inf
ROOT
ATOM      1  C   UNL     1     -39.556 -48.708  28.138  1.00  0.00     0.039 C 
ATOM      2  C   UNL     1     -40.798 -48.026  27.642  1.00  0.00    -0.074 C 
ATOM      3  C   UNL     1     -41.072 -46.771  28.060  1.00  0.00    -0.027 C 
ATOM      4  C   UNL     1     -42.297 -46.023  27.594  1.00  0.00     0.034 C 
ATOM      5  C   UNL     1     -43.495 -46.993  27.376  1.00  0.00    -0.022 C 
ATOM      6  C   UNL     1     -44.663 -46.208  26.730  1.00  0.00     0.008 C 
ATOM      7  C   UNL     1     -45.851 -47.104  26.332  1.00  0.00     0.001 C 
ATOM      8  C   UNL     1     -45.439 -48.243  25.388  1.00  0.00     0.007 C 
ATOM      9  C   UNL     1     -44.279 -49.139  25.912  1.00  0.00    -0.029 C 
ATOM     10  C   UNL     1     -43.110 -48.189  26.415  1.00  0.00    -0.012 C 
ATOM     11  C   UNL     1     -41.712 -48.770  26.679  1.00  0.00     0.022 C 
ATOM     12  C   UNL     1     -41.956 -47.982  25.394  1.00  0.00     0.017 C 
ATOM     13  C   UNL     1     -44.772 -50.061  27.057  1.00  0.00     0.012 C 
ATOM     14  C   UNL     1     -43.889 -50.085  24.738  1.00  0.00     0.012 C 
ATOM     15  C   UNL     1     -43.908 -47.505  28.791  1.00  0.00     0.012 C 
ENDROOT
TORSDOF 0
ENDMDL
MODEL 8
REMARK VINA RESULT:    -5.285      1.589      3.872
REMARK INTER + INTRA:          -5.285
REMARK INTER:                  -5.285
REMARK INTRA:                   0.000
REMARK UNBOUND:                 0.000
REMARK SMILES CC1=CC[C@@]2(C)CCCC(C)(C)[C@@]23C[C@@H]13
REMARK SMILES IDX 1 1 2 2 3 3 4 4 5 5 7 6 8 7 9 8 10 9 13 10 15 11 14 12 11 13
REMARK SMILES IDX 12 14 6 15
REMARK H PARENT
REMARK Flexibility Score: inf
ROOT
ATOM      1  C   UNL     1     -48.281 -46.348  25.141  1.00  0.00     0.039 C 
ATOM      2  C   UNL     1     -49.606 -46.587  24.477  1.00  0.00    -0.074 C 
ATOM      3  C   UNL     1     -50.742 -46.354  25.170  1.00  0.00    -0.027 C 
ATOM      4  C   UNL     1     -52.106 -46.562  24.562  1.00  0.00     0.034 C 
ATOM      5  C   UNL     1     -52.098 -47.760  23.567  1.00  0.00    -0.022 C 
ATOM      6  C   UNL     1     -53.464 -47.817  22.841  1.00  0.00     0.008 C 
ATOM      7  C   UNL     1     -53.515 -48.876  21.724  1.00  0.00     0.001 C 
ATOM      8  C   UNL     1     -52.407 -48.680  20.677  1.00  0.00     0.007 C 
ATOM      9  C   UNL     1     -50.964 -48.621  21.258  1.00  0.00    -0.029 C 
ATOM     10  C   UNL     1     -50.963 -47.603  22.477  1.00  0.00    -0.012 C 
ATOM     11  C   UNL     1     -49.630 -47.085  23.040  1.00  0.00     0.022 C 
ATOM     12  C   UNL     1     -50.454 -46.176  22.130  1.00  0.00     0.017 C 
ATOM     13  C   UNL     1     -50.498 -50.028  21.714  1.00  0.00     0.012 C 
ATOM     14  C   UNL     1     -50.031 -48.223  20.076  1.00  0.00     0.012 C 
ATOM     15  C   UNL     1     -51.891 -49.044  24.429  1.00  0.00     0.012 C 
ENDROOT
TORSDOF 0
ENDMDL
MODEL 9
REMARK VINA RESULT:    -5.208      8.292     11.001
REMARK INTER + INTRA:          -5.208
REMARK INTER:                  -5.208
REMARK INTRA:                   0.000
REMARK UNBOUND:                 0.000
REMARK SMILES CC1=CC[C@@]2(C)CCCC(C)(C)[C@@]23C[C@@H]13
REMARK SMILES IDX 1 1 2 2 3 3 4 4 5 5 7 6 8 7 9 8 10 9 13 10 15 11 14 12 11 13
REMARK SMILES IDX 12 14 6 15
REMARK H PARENT
REMARK Flexibility Score: inf
ROOT
ATOM      1  C   UNL     1     -46.207 -48.551  24.940  1.00  0.00     0.039 C 
ATOM      2  C   UNL     1     -45.003 -48.898  25.768  1.00  0.00    -0.074 C 
ATOM      3  C   UNL     1     -45.057 -49.963  26.596  1.00  0.00    -0.027 C 
ATOM      4  C   UNL     1     -43.881 -50.374  27.448  1.00  0.00     0.034 C 
ATOM      5  C   UNL     1     -43.071 -49.131  27.919  1.00  0.00    -0.022 C 
ATOM      6  C   UNL     1     -41.784 -49.613  28.632  1.00  0.00     0.008 C 
ATOM      7  C   UNL     1     -40.831 -48.464  29.010  1.00  0.00     0.001 C 
ATOM      8  C   UNL     1     -40.433 -47.608  27.797  1.00  0.00     0.007 C 
ATOM      9  C   UNL     1     -41.628 -47.032  26.984  1.00  0.00    -0.029 C 
ATOM     10  C   UNL     1     -42.648 -48.215  26.700  1.00  0.00    -0.012 C 
ATOM     11  C   UNL     1     -43.754 -48.036  25.648  1.00  0.00     0.022 C 
ATOM     12  C   UNL     1     -42.519 -48.861  25.293  1.00  0.00     0.017 C 
ATOM     13  C   UNL     1     -42.318 -45.882  27.763  1.00  0.00     0.012 C 
ATOM     14  C   UNL     1     -41.018 -46.379  25.709  1.00  0.00     0.012 C 
ATOM     15  C   UNL     1     -43.988 -48.363  28.922  1.00  0.00     0.012 C 
ENDROOT
TORSDOF 0
ENDMDL
