MODEL 1
REMARK VINA RESULT:    -2.549      0.000      0.000
REMARK INTER + INTRA:          -2.549
REMARK INTER:                  -2.549
REMARK INTRA:                   0.000
REMARK UNBOUND:                 0.000
REMARK SMILES CC(=O)[O-]
REMARK SMILES IDX 1 1 2 2 3 3 4 4
REMARK H PARENT
REMARK Flexibility Score: inf
ROOT
ATOM      1  C   UNL     1      15.594  13.134   2.402  1.00  0.00     0.063 C 
ATOM      2  C   UNL     1      16.345  13.394   3.663  1.00  0.00     0.038 C 
ATOM      3  O   UNL     1      15.779  13.243   4.778  1.00  0.00    -0.550 OA
ATOM      4  O   UNL     1      17.687  13.748   3.615  1.00  0.00    -0.550 OA
ENDROOT
TORSDOF 0
ENDMDL
MODEL 2
REMARK VINA RESULT:    -2.528      1.393      1.949
REMARK INTER + INTRA:          -2.528
REMARK INTER:                  -2.528
REMARK INTRA:                   0.000
REMARK UNBOUND:                 0.000
REMARK SMILES CC(=O)[O-]
REMARK SMILES IDX 1 1 2 2 3 3 4 4
REMARK H PARENT
REMARK Flexibility Score: inf
ROOT
ATOM      1  C   UNL     1      15.340  13.423   4.487  1.00  0.00     0.063 C 
ATOM      2  C   UNL     1      16.339  13.338   3.384  1.00  0.00     0.038 C 
ATOM      3  O   UNL     1      17.544  13.636   3.599  1.00  0.00    -0.550 OA
ATOM      4  O   UNL     1      15.956  12.877   2.131  1.00  0.00    -0.550 OA
ENDROOT
TORSDOF 0
ENDMDL
MODEL 3
REMARK VINA RESULT:    -2.409     13.076     13.254
REMARK INTER + INTRA:          -2.409
REMARK INTER:                  -2.409
REMARK INTRA:                   0.000
REMARK UNBOUND:                 0.000
REMARK SMILES CC(=O)[O-]
REMARK SMILES IDX 1 1 2 2 3 3 4 4
REMARK H PARENT
REMARK Flexibility Score: inf
ROOT
ATOM      1  C   UNL     1       9.092  24.817   6.834  1.00  0.00     0.063 C 
ATOM      2  C   UNL     1      10.581  24.771   6.789  1.00  0.00     0.038 C 
ATOM      3  O   UNL     1      11.187  23.689   7.012  1.00  0.00    -0.550 OA
ATOM      4  O   UNL     1      11.304  25.907   6.448  1.00  0.00    -0.550 OA
ENDROOT
TORSDOF 0
ENDMDL
MODEL 4
REMARK VINA RESULT:    -2.311      9.650     10.193
REMARK INTER + INTRA:          -2.311
REMARK INTER:                  -2.311
REMARK INTRA:                   0.000
REMARK UNBOUND:                 0.000
REMARK SMILES CC(=O)[O-]
REMARK SMILES IDX 1 1 2 2 3 3 4 4
REMARK H PARENT
REMARK Flexibility Score: inf
ROOT
ATOM      1  C   UNL     1       8.743  11.633   7.300  1.00  0.00     0.063 C 
ATOM      2  C   UNL     1       7.273  11.744   7.520  1.00  0.00     0.038 C 
ATOM      3  O   UNL     1       6.544  12.295   6.653  1.00  0.00    -0.550 OA
ATOM      4  O   UNL     1       6.694  11.191   8.655  1.00  0.00    -0.550 OA
ENDROOT
TORSDOF 0
ENDMDL
MODEL 5
REMARK VINA RESULT:    -2.263     12.035     12.524
REMARK INTER + INTRA:          -2.263
REMARK INTER:                  -2.263
REMARK INTRA:                   0.000
REMARK UNBOUND:                 0.000
REMARK SMILES CC(=O)[O-]
REMARK SMILES IDX 1 1 2 2 3 3 4 4
REMARK H PARENT
REMARK Flexibility Score: inf
ROOT
ATOM      1  C   UNL     1      23.680  16.321  14.894  1.00  0.00     0.063 C 
ATOM      2  C   UNL     1      22.933  15.808  13.711  1.00  0.00     0.038 C 
ATOM      3  O   UNL     1      23.219  14.683  13.222  1.00  0.00    -0.550 OA
ATOM      4  O   UNL     1      21.883  16.544  13.177  1.00  0.00    -0.550 OA
ENDROOT
TORSDOF 0
ENDMDL
MODEL 6
REMARK VINA RESULT:    -2.256     11.636     11.665
REMARK INTER + INTRA:          -2.256
REMARK INTER:                  -2.256
REMARK INTRA:                   0.000
REMARK UNBOUND:                 0.000
REMARK SMILES CC(=O)[O-]
REMARK SMILES IDX 1 1 2 2 3 3 4 4
REMARK H PARENT
REMARK Flexibility Score: inf
ROOT
ATOM      1  C   UNL     1      23.677  16.730  11.918  1.00  0.00     0.063 C 
ATOM      2  C   UNL     1      22.936  15.819  12.836  1.00  0.00     0.038 C 
ATOM      3  O   UNL     1      21.880  16.213  13.399  1.00  0.00    -0.550 OA
ATOM      4  O   UNL     1      23.375  14.516  13.030  1.00  0.00    -0.550 OA
ENDROOT
TORSDOF 0
ENDMDL
MODEL 7
REMARK VINA RESULT:    -2.243     11.157     11.542
REMARK INTER + INTRA:          -2.243
REMARK INTER:                  -2.243
REMARK INTRA:                   0.000
REMARK UNBOUND:                 0.000
REMARK SMILES CC(=O)[O-]
REMARK SMILES IDX 1 1 2 2 3 3 4 4
REMARK H PARENT
REMARK Flexibility Score: inf
ROOT
ATOM      1  C   UNL     1      22.484  16.958  13.010  1.00  0.00     0.063 C 
ATOM      2  C   UNL     1      23.132  15.780  12.367  1.00  0.00     0.038 C 
ATOM      3  O   UNL     1      23.620  15.880  11.211  1.00  0.00    -0.550 OA
ATOM      4  O   UNL     1      23.250  14.584  13.063  1.00  0.00    -0.550 OA
ENDROOT
TORSDOF 0
ENDMDL
MODEL 8
REMARK VINA RESULT:    -2.107      8.695      9.269
REMARK INTER + INTRA:          -2.107
REMARK INTER:                  -2.107
REMARK INTRA:                   0.000
REMARK UNBOUND:                 0.000
REMARK SMILES CC(=O)[O-]
REMARK SMILES IDX 1 1 2 2 3 3 4 4
REMARK H PARENT
REMARK Flexibility Score: inf
ROOT
ATOM      1  C   UNL     1       8.473  11.336   5.716  1.00  0.00     0.063 C 
ATOM      2  C   UNL     1       7.506  12.423   6.038  1.00  0.00     0.038 C 
ATOM      3  O   UNL     1       6.450  12.161   6.672  1.00  0.00    -0.550 OA
ATOM      4  O   UNL     1       7.792  13.737   5.689  1.00  0.00    -0.550 OA
ENDROOT
TORSDOF 0
ENDMDL
MODEL 9
REMARK VINA RESULT:    -2.063      7.185      7.698
REMARK INTER + INTRA:          -2.063
REMARK INTER:                  -2.063
REMARK INTRA:                   0.000
REMARK UNBOUND:                 0.000
REMARK SMILES CC(=O)[O-]
REMARK SMILES IDX 1 1 2 2 3 3 4 4
REMARK H PARENT
REMARK Flexibility Score: inf
ROOT
ATOM      1  C   UNL     1      24.009  16.087   3.258  1.00  0.00     0.063 C 
ATOM      2  C   UNL     1      22.878  17.001   2.930  1.00  0.00     0.038 C 
ATOM      3  O   UNL     1      21.887  17.083   3.704  1.00  0.00    -0.550 OA
ATOM      4  O   UNL     1      22.938  17.807   1.800  1.00  0.00    -0.550 OA
ENDROOT
TORSDOF 0
ENDMDL
