MODEL 1
REMARK VINA RESULT:    -7.186      0.000      0.000
REMARK INTER + INTRA:         -11.605
REMARK INTER:                  -9.916
REMARK INTRA:                  -1.689
REMARK UNBOUND:                -1.689
REMARK SMILES O=C([O-])[C@@H]1O[C@H](Oc2cc3oc(-c4ccccc4)cc(=O)c3c(O)c2O)[C@@H](O)[C@H](O)[C@@H]1O
REMARK SMILES IDX 7 1 6 2 4 3 31 4 5 5 29 6 27 7 2 8 1 9 3 10 32 11 30 13
REMARK SMILES IDX 28 15 8 17 25 18 9 19 23 20 10 21 22 22 11 23 20 24 12 25
REMARK SMILES IDX 19 26 21 27 26 28 24 30 13 32 14 33 18 34 15 35 17 36 16 37
REMARK H PARENT 32 12 30 14 28 16 26 29 24 31
REMARK Flexibility Score: inf
ROOT
ATOM      1  O   UNL     1      18.925 -13.073  35.834  1.00  0.00    -0.458 OA
ENDROOT
BRANCH   1   2
ATOM      2  C   UNL     1      19.638 -13.051  37.076  1.00  0.00     0.339 C 
ATOM      3  C   UNL     1      17.765 -13.596  38.443  1.00  0.00     0.199 C 
ATOM      4  C   UNL     1      18.303 -15.033  38.696  1.00  0.00     0.180 C 
ATOM      5  O   UNL     1      18.797 -12.660  38.155  1.00  0.00    -0.328 OA
ATOM      6  C   UNL     1      19.279 -15.499  37.600  1.00  0.00     0.181 C 
ATOM      7  C   UNL     1      20.321 -14.404  37.330  1.00  0.00     0.214 C 
BRANCH   3   8
ATOM      8  C   UNL     1      16.614 -13.472  37.472  1.00  0.00     0.073 C 
ATOM      9  O   UNL     1      16.129 -14.477  36.889  1.00  0.00    -0.547 OA
ATOM     10  O   UNL     1      16.086 -12.215  37.204  1.00  0.00    -0.547 OA
ENDBRANCH   3   8
BRANCH   4  11
ATOM     11  O   UNL     1      17.254 -15.957  38.836  1.00  0.00    -0.387 OA
ATOM     12  H   UNL     1      16.411 -15.458  38.680  1.00  0.00     0.211 HD
ENDBRANCH   4  11
BRANCH   6  13
ATOM     13  O   UNL     1      18.605 -15.811  36.408  1.00  0.00    -0.387 OA
ATOM     14  H   UNL     1      18.317 -14.953  36.003  1.00  0.00     0.211 HD
ENDBRANCH   6  13
BRANCH   7  15
ATOM     15  O   UNL     1      21.190 -14.278  38.427  1.00  0.00    -0.384 OA
ATOM     16  H   UNL     1      20.621 -14.187  39.236  1.00  0.00     0.211 HD
ENDBRANCH   7  15
ENDBRANCH   1   2
BRANCH   1  17
ATOM     17  C   UNL     1      19.417 -12.595  34.608  1.00  0.00     0.172 A 
ATOM     18  C   UNL     1      19.951 -13.517  33.690  1.00  0.00     0.201 A 
ATOM     19  C   UNL     1      19.383 -11.230  34.273  1.00  0.00     0.098 A 
ATOM     20  C   UNL     1      20.448 -13.080  32.447  1.00  0.00     0.176 A 
ATOM     21  C   UNL     1      19.874 -10.785  33.044  1.00  0.00     0.146 A 
ATOM     22  C   UNL     1      20.410 -11.706  32.115  1.00  0.00     0.111 A 
ATOM     23  O   UNL     1      19.827  -9.488  32.762  1.00  0.00    -0.456 OA
ATOM     24  C   UNL     1      20.885 -11.194  30.890  1.00  0.00     0.197 A 
ATOM     25  C   UNL     1      20.261  -8.974  31.614  1.00  0.00     0.138 A 
ATOM     26  C   UNL     1      20.808  -9.823  30.639  1.00  0.00     0.100 A 
ATOM     27  O   UNL     1      21.382 -11.947  30.011  1.00  0.00    -0.289 OA
BRANCH  18  28
ATOM     28  O   UNL     1      19.989 -14.877  34.001  1.00  0.00    -0.502 OA
ATOM     29  H   UNL     1      19.241 -15.513  33.751  1.00  0.00     0.293 HD
ENDBRANCH  18  28
BRANCH  20  30
ATOM     30  O   UNL     1      20.977 -14.008  31.545  1.00  0.00    -0.504 OA
ATOM     31  H   UNL     1      21.046 -14.995  31.757  1.00  0.00     0.293 HD
ENDBRANCH  20  30
BRANCH  25  32
ATOM     32  C   UNL     1      20.164  -7.508  31.407  1.00  0.00     0.017 A 
ATOM     33  C   UNL     1      19.656  -6.653  32.405  1.00  0.00     0.012 A 
ATOM     34  C   UNL     1      20.618  -6.947  30.199  1.00  0.00     0.012 A 
ATOM     35  C   UNL     1      19.588  -5.273  32.187  1.00  0.00     0.001 A 
ATOM     36  C   UNL     1      20.543  -5.567  29.986  1.00  0.00     0.001 A 
ATOM     37  C   UNL     1      20.028  -4.732  30.976  1.00  0.00     0.000 A 
ENDBRANCH  25  32
ENDBRANCH   1  17
TORSDOF 9
ENDMDL
MODEL 2
REMARK VINA RESULT:    -7.058      4.729      6.980
REMARK INTER + INTRA:         -11.430
REMARK INTER:                  -9.806
REMARK INTRA:                  -1.623
REMARK UNBOUND:                -1.689
REMARK SMILES O=C([O-])[C@@H]1O[C@H](Oc2cc3oc(-c4ccccc4)cc(=O)c3c(O)c2O)[C@@H](O)[C@H](O)[C@@H]1O
REMARK SMILES IDX 7 1 6 2 4 3 31 4 5 5 29 6 27 7 2 8 1 9 3 10 32 11 30 13
REMARK SMILES IDX 28 15 8 17 25 18 9 19 23 20 10 21 22 22 11 23 20 24 12 25
REMARK SMILES IDX 19 26 21 27 26 28 24 30 13 32 14 33 18 34 15 35 17 36 16 37
REMARK H PARENT 32 12 30 14 28 16 26 29 24 31
REMARK Flexibility Score: inf
ROOT
ATOM      1  O   UNL     1      19.434 -10.984  30.713  1.00  0.00    -0.458 OA
ENDROOT
BRANCH   1   2
ATOM      2  C   UNL     1      20.527 -11.030  31.637  1.00  0.00     0.339 C 
ATOM      3  C   UNL     1      19.202 -11.478  33.565  1.00  0.00     0.199 C 
ATOM      4  C   UNL     1      19.698 -12.952  33.625  1.00  0.00     0.180 C 
ATOM      5  O   UNL     1      20.134 -10.605  32.936  1.00  0.00    -0.328 OA
ATOM      6  C   UNL     1      20.208 -13.459  32.264  1.00  0.00     0.181 C 
ATOM      7  C   UNL     1      21.165 -12.428  31.648  1.00  0.00     0.214 C 
BRANCH   3   8
ATOM      8  C   UNL     1      17.800 -11.264  33.045  1.00  0.00     0.073 C 
ATOM      9  O   UNL     1      17.060 -12.229  32.719  1.00  0.00    -0.547 OA
ATOM     10  O   UNL     1      17.319  -9.968  32.910  1.00  0.00    -0.547 OA
ENDBRANCH   3   8
BRANCH   4  11
ATOM     11  O   UNL     1      18.702 -13.809  34.120  1.00  0.00    -0.387 OA
ATOM     12  H   UNL     1      19.169 -14.564  34.565  1.00  0.00     0.211 HD
ENDBRANCH   4  11
BRANCH   6  13
ATOM     13  O   UNL     1      19.148 -13.706  31.376  1.00  0.00    -0.387 OA
ATOM     14  H   UNL     1      18.308 -13.635  31.898  1.00  0.00     0.211 HD
ENDBRANCH   6  13
BRANCH   7  15
ATOM     15  O   UNL     1      22.363 -12.377  32.382  1.00  0.00    -0.384 OA
ATOM     16  H   UNL     1      22.983 -11.788  31.879  1.00  0.00     0.211 HD
ENDBRANCH   7  15
ENDBRANCH   1   2
BRANCH   1  17
ATOM     17  C   UNL     1      19.283 -10.045  29.679  1.00  0.00     0.172 A 
ATOM     18  C   UNL     1      19.212  -8.680  30.013  1.00  0.00     0.201 A 
ATOM     19  C   UNL     1      19.208 -10.429  28.330  1.00  0.00     0.098 A 
ATOM     20  C   UNL     1      19.068  -7.706  29.006  1.00  0.00     0.176 A 
ATOM     21  C   UNL     1      19.064  -9.472  27.323  1.00  0.00     0.146 A 
ATOM     22  C   UNL     1      18.994  -8.099  27.650  1.00  0.00     0.111 A 
ATOM     23  O   UNL     1      18.995  -9.872  26.058  1.00  0.00    -0.456 OA
ATOM     24  C   UNL     1      18.853  -7.182  26.587  1.00  0.00     0.197 A 
ATOM     25  C   UNL     1      18.869  -9.033  25.033  1.00  0.00     0.138 A 
ATOM     26  C   UNL     1      18.792  -7.652  25.274  1.00  0.00     0.100 A 
ATOM     27  O   UNL     1      18.779  -5.941  26.794  1.00  0.00    -0.289 OA
BRANCH  18  28
ATOM     28  O   UNL     1      19.290  -8.277  31.347  1.00  0.00    -0.502 OA
ATOM     29  H   UNL     1      18.873  -7.416  31.679  1.00  0.00     0.293 HD
ENDBRANCH  18  28
BRANCH  20  30
ATOM     30  O   UNL     1      18.998  -6.354  29.353  1.00  0.00    -0.504 OA
ATOM     31  H   UNL     1      19.549  -5.643  28.890  1.00  0.00     0.293 HD
ENDBRANCH  20  30
BRANCH  25  32
ATOM     32  C   UNL     1      18.797  -9.591  23.660  1.00  0.00     0.017 A 
ATOM     33  C   UNL     1      17.892 -10.617  23.326  1.00  0.00     0.012 A 
ATOM     34  C   UNL     1      19.629  -9.065  22.654  1.00  0.00     0.012 A 
ATOM     35  C   UNL     1      17.838 -11.116  22.020  1.00  0.00     0.001 A 
ATOM     36  C   UNL     1      19.573  -9.570  21.352  1.00  0.00     0.001 A 
ATOM     37  C   UNL     1      18.682 -10.595  21.035  1.00  0.00     0.000 A 
ENDBRANCH  25  32
ENDBRANCH   1  17
TORSDOF 9
ENDMDL
MODEL 3
REMARK VINA RESULT:    -6.999      6.594     10.129
REMARK INTER + INTRA:         -11.347
REMARK INTER:                  -9.616
REMARK INTRA:                  -1.731
REMARK UNBOUND:                -1.689
REMARK SMILES O=C([O-])[C@@H]1O[C@H](Oc2cc3oc(-c4ccccc4)cc(=O)c3c(O)c2O)[C@@H](O)[C@H](O)[C@@H]1O
REMARK SMILES IDX 7 1 6 2 4 3 31 4 5 5 29 6 27 7 2 8 1 9 3 10 32 11 30 13
REMARK SMILES IDX 28 15 8 17 25 18 9 19 23 20 10 21 22 22 11 23 20 24 12 25
REMARK SMILES IDX 19 26 21 27 26 28 24 30 13 32 14 33 18 34 15 35 17 36 16 37
REMARK H PARENT 32 12 30 14 28 16 26 29 24 31
REMARK Flexibility Score: inf
ROOT
ATOM      1  O   UNL     1      18.564  -8.109  29.237  1.00  0.00    -0.458 OA
ENDROOT
BRANCH   1   2
ATOM      2  C   UNL     1      17.931  -6.928  29.743  1.00  0.00     0.339 C 
ATOM      3  C   UNL     1      19.756  -6.238  31.110  1.00  0.00     0.199 C 
ATOM      4  C   UNL     1      20.106  -5.072  30.141  1.00  0.00     0.180 C 
ATOM      5  O   UNL     1      18.384  -6.612  31.054  1.00  0.00    -0.328 OA
ATOM      6  C   UNL     1      19.583  -5.313  28.713  1.00  0.00     0.181 C 
ATOM      7  C   UNL     1      18.114  -5.757  28.764  1.00  0.00     0.214 C 
BRANCH   3   8
ATOM      8  C   UNL     1      20.665  -7.444  31.062  1.00  0.00     0.073 C 
ATOM      9  O   UNL     1      21.502  -7.605  30.137  1.00  0.00    -0.547 OA
ATOM     10  O   UNL     1      20.563  -8.407  32.058  1.00  0.00    -0.547 OA
ENDBRANCH   3   8
BRANCH   4  11
ATOM     11  O   UNL     1      21.488  -4.823  30.116  1.00  0.00    -0.387 OA
ATOM     12  H   UNL     1      21.638  -3.988  30.633  1.00  0.00     0.211 HD
ENDBRANCH   4  11
BRANCH   6  13
ATOM     13  O   UNL     1      20.345  -6.284  28.043  1.00  0.00    -0.387 OA
ATOM     14  H   UNL     1      20.669  -5.870  27.202  1.00  0.00     0.211 HD
ENDBRANCH   6  13
BRANCH   7  15
ATOM     15  O   UNL     1      17.297  -4.689  29.172  1.00  0.00    -0.384 OA
ATOM     16  H   UNL     1      16.838  -4.350  28.360  1.00  0.00     0.211 HD
ENDBRANCH   7  15
ENDBRANCH   1   2
BRANCH   1  17
ATOM     17  C   UNL     1      18.142  -8.839  28.113  1.00  0.00     0.172 A 
ATOM     18  C   UNL     1      19.116  -9.363  27.245  1.00  0.00     0.201 A 
ATOM     19  C   UNL     1      16.782  -9.062  27.838  1.00  0.00     0.098 A 
ATOM     20  C   UNL     1      18.736 -10.106  26.110  1.00  0.00     0.176 A 
ATOM     21  C   UNL     1      16.393  -9.796  26.716  1.00  0.00     0.146 A 
ATOM     22  C   UNL     1      17.366 -10.329  25.840  1.00  0.00     0.111 A 
ATOM     23  O   UNL     1      15.098  -9.987  26.487  1.00  0.00    -0.456 OA
ATOM     24  C   UNL     1      16.909 -11.064  24.727  1.00  0.00     0.197 A 
ATOM     25  C   UNL     1      14.634 -10.681  25.451  1.00  0.00     0.138 A 
ATOM     26  C   UNL     1      15.537 -11.242  24.534  1.00  0.00     0.100 A 
ATOM     27  O   UNL     1      17.711 -11.568  23.896  1.00  0.00    -0.289 OA
BRANCH  18  28
ATOM     28  O   UNL     1      20.473  -9.156  27.502  1.00  0.00    -0.502 OA
ATOM     29  H   UNL     1      21.054  -9.857  27.947  1.00  0.00     0.293 HD
ENDBRANCH  18  28
BRANCH  20  30
ATOM     30  O   UNL     1      19.716 -10.620  25.256  1.00  0.00    -0.504 OA
ATOM     31  H   UNL     1      19.542 -10.806  24.276  1.00  0.00     0.293 HD
ENDBRANCH  20  30
BRANCH  25  32
ATOM     32  C   UNL     1      13.167 -10.827  25.290  1.00  0.00     0.017 A 
ATOM     33  C   UNL     1      12.531 -12.077  25.416  1.00  0.00     0.012 A 
ATOM     34  C   UNL     1      12.381  -9.688  25.035  1.00  0.00     0.012 A 
ATOM     35  C   UNL     1      11.143 -12.183  25.270  1.00  0.00     0.001 A 
ATOM     36  C   UNL     1      10.995  -9.801  24.887  1.00  0.00     0.001 A 
ATOM     37  C   UNL     1      10.377 -11.046  25.002  1.00  0.00     0.000 A 
ENDBRANCH  25  32
ENDBRANCH   1  17
TORSDOF 9
ENDMDL
MODEL 4
REMARK VINA RESULT:    -6.885      3.586      9.300
REMARK INTER + INTRA:         -11.191
REMARK INTER:                  -9.598
REMARK INTRA:                  -1.592
REMARK UNBOUND:                -1.689
REMARK SMILES O=C([O-])[C@@H]1O[C@H](Oc2cc3oc(-c4ccccc4)cc(=O)c3c(O)c2O)[C@@H](O)[C@H](O)[C@@H]1O
REMARK SMILES IDX 7 1 6 2 4 3 31 4 5 5 29 6 27 7 2 8 1 9 3 10 32 11 30 13
REMARK SMILES IDX 28 15 8 17 25 18 9 19 23 20 10 21 22 22 11 23 20 24 12 25
REMARK SMILES IDX 19 26 21 27 26 28 24 30 13 32 14 33 18 34 15 35 17 36 16 37
REMARK H PARENT 32 12 30 14 28 16 26 29 24 31
REMARK Flexibility Score: inf
ROOT
ATOM      1  O   UNL     1      19.135  -7.501  30.443  1.00  0.00    -0.458 OA
ENDROOT
BRANCH   1   2
ATOM      2  C   UNL     1      20.043  -6.397  30.519  1.00  0.00     0.339 C 
ATOM      3  C   UNL     1      20.937  -6.661  28.327  1.00  0.00     0.199 C 
ATOM      4  C   UNL     1      20.181  -5.403  27.812  1.00  0.00     0.180 C 
ATOM      5  O   UNL     1      21.202  -6.615  29.725  1.00  0.00    -0.328 OA
ATOM      6  C   UNL     1      18.949  -5.061  28.670  1.00  0.00     0.181 C 
ATOM      7  C   UNL     1      19.327  -5.085  30.158  1.00  0.00     0.214 C 
BRANCH   3   8
ATOM      8  C   UNL     1      20.371  -8.000  27.911  1.00  0.00     0.073 C 
ATOM      9  O   UNL     1      19.335  -8.088  27.202  1.00  0.00    -0.547 OA
ATOM     10  O   UNL     1      21.003  -9.162  28.335  1.00  0.00    -0.547 OA
ENDBRANCH   3   8
BRANCH   4  11
ATOM     11  O   UNL     1      19.811  -5.542  26.464  1.00  0.00    -0.387 OA
ATOM     12  H   UNL     1      20.612  -5.873  25.980  1.00  0.00     0.211 HD
ENDBRANCH   4  11
BRANCH   6  13
ATOM     13  O   UNL     1      17.895  -5.960  28.438  1.00  0.00    -0.387 OA
ATOM     14  H   UNL     1      17.444  -6.111  29.308  1.00  0.00     0.211 HD
ENDBRANCH   6  13
BRANCH   7  15
ATOM     15  O   UNL     1      20.174  -4.005  30.462  1.00  0.00    -0.384 OA
ATOM     16  H   UNL     1      21.105  -4.328  30.348  1.00  0.00     0.211 HD
ENDBRANCH   7  15
ENDBRANCH   1   2
BRANCH   1  17
ATOM     17  C   UNL     1      18.940  -8.462  31.449  1.00  0.00     0.172 A 
ATOM     18  C   UNL     1      20.049  -9.199  31.901  1.00  0.00     0.201 A 
ATOM     19  C   UNL     1      17.676  -8.701  32.016  1.00  0.00     0.098 A 
ATOM     20  C   UNL     1      19.897 -10.168  32.913  1.00  0.00     0.176 A 
ATOM     21  C   UNL     1      17.514  -9.658  33.018  1.00  0.00     0.146 A 
ATOM     22  C   UNL     1      18.623 -10.402  33.480  1.00  0.00     0.111 A 
ATOM     23  O   UNL     1      16.304  -9.859  33.530  1.00  0.00    -0.456 OA
ATOM     24  C   UNL     1      18.395 -11.352  34.497  1.00  0.00     0.197 A 
ATOM     25  C   UNL     1      16.056 -10.741  34.494  1.00  0.00     0.138 A 
ATOM     26  C   UNL     1      17.106 -11.520  35.007  1.00  0.00     0.100 A 
ATOM     27  O   UNL     1      19.329 -12.058  34.961  1.00  0.00    -0.289 OA
BRANCH  18  28
ATOM     28  O   UNL     1      21.314  -8.974  31.355  1.00  0.00    -0.502 OA
ATOM     29  H   UNL     1      21.790  -8.085  31.438  1.00  0.00     0.293 HD
ENDBRANCH  18  28
BRANCH  20  30
ATOM     30  O   UNL     1      21.009 -10.893  33.351  1.00  0.00    -0.504 OA
ATOM     31  H   UNL     1      21.280 -11.777  32.939  1.00  0.00     0.293 HD
ENDBRANCH  20  30
BRANCH  25  32
ATOM     32  C   UNL     1      14.664 -10.885  34.989  1.00  0.00     0.017 A 
ATOM     33  C   UNL     1      14.275 -10.396  36.251  1.00  0.00     0.012 A 
ATOM     34  C   UNL     1      13.697 -11.496  34.169  1.00  0.00     0.012 A 
ATOM     35  C   UNL     1      12.953 -10.535  36.686  1.00  0.00     0.001 A 
ATOM     36  C   UNL     1      12.378 -11.634  34.611  1.00  0.00     0.001 A 
ATOM     37  C   UNL     1      12.007 -11.158  35.868  1.00  0.00     0.000 A 
ENDBRANCH  25  32
ENDBRANCH   1  17
TORSDOF 9
ENDMDL
MODEL 5
REMARK VINA RESULT:    -6.839      3.198      9.349
REMARK INTER + INTRA:         -11.127
REMARK INTER:                  -9.492
REMARK INTRA:                  -1.635
REMARK UNBOUND:                -1.689
REMARK SMILES O=C([O-])[C@@H]1O[C@H](Oc2cc3oc(-c4ccccc4)cc(=O)c3c(O)c2O)[C@@H](O)[C@H](O)[C@@H]1O
REMARK SMILES IDX 7 1 6 2 4 3 31 4 5 5 29 6 27 7 2 8 1 9 3 10 32 11 30 13
REMARK SMILES IDX 28 15 8 17 25 18 9 19 23 20 10 21 22 22 11 23 20 24 12 25
REMARK SMILES IDX 19 26 21 27 26 28 24 30 13 32 14 33 18 34 15 35 17 36 16 37
REMARK H PARENT 32 12 30 14 28 16 26 29 24 31
REMARK Flexibility Score: inf
ROOT
ATOM      1  O   UNL     1      20.653  -7.163  31.512  1.00  0.00    -0.458 OA
ENDROOT
BRANCH   1   2
ATOM      2  C   UNL     1      20.186  -7.768  30.302  1.00  0.00     0.339 C 
ATOM      3  C   UNL     1      18.498  -6.149  29.851  1.00  0.00     0.199 C 
ATOM      4  C   UNL     1      19.323  -5.541  28.680  1.00  0.00     0.180 C 
ATOM      5  O   UNL     1      18.802  -7.519  30.090  1.00  0.00    -0.328 OA
ATOM      6  C   UNL     1      20.830  -5.834  28.804  1.00  0.00     0.181 C 
ATOM      7  C   UNL     1      21.048  -7.322  29.109  1.00  0.00     0.214 C 
BRANCH   3   8
ATOM      8  C   UNL     1      18.469  -5.352  31.135  1.00  0.00     0.073 C 
ATOM      9  O   UNL     1      19.271  -4.405  31.343  1.00  0.00    -0.547 OA
ATOM     10  O   UNL     1      17.544  -5.684  32.116  1.00  0.00    -0.547 OA
ENDBRANCH   3   8
BRANCH   4  11
ATOM     11  O   UNL     1      19.105  -4.159  28.562  1.00  0.00    -0.387 OA
ATOM     12  H   UNL     1      19.846  -3.799  28.007  1.00  0.00     0.211 HD
ENDBRANCH   4  11
BRANCH   6  13
ATOM     13  O   UNL     1      21.424  -5.055  29.811  1.00  0.00    -0.387 OA
ATOM     14  H   UNL     1      20.688  -4.645  30.334  1.00  0.00     0.211 HD
ENDBRANCH   6  13
BRANCH   7  15
ATOM     15  O   UNL     1      20.715  -8.103  27.988  1.00  0.00    -0.384 OA
ATOM     16  H   UNL     1      20.872  -9.050  28.241  1.00  0.00     0.211 HD
ENDBRANCH   7  15
ENDBRANCH   1   2
BRANCH   1  17
ATOM     17  C   UNL     1      20.439  -7.667  32.807  1.00  0.00     0.172 A 
ATOM     18  C   UNL     1      20.493  -6.776  33.893  1.00  0.00     0.201 A 
ATOM     19  C   UNL     1      20.171  -9.026  33.042  1.00  0.00     0.098 A 
ATOM     20  C   UNL     1      20.278  -7.239  35.207  1.00  0.00     0.176 A 
ATOM     21  C   UNL     1      19.958  -9.496  34.338  1.00  0.00     0.146 A 
ATOM     22  C   UNL     1      20.007  -8.607  35.437  1.00  0.00     0.111 A 
ATOM     23  O   UNL     1      19.708 -10.788  34.524  1.00  0.00    -0.456 OA
ATOM     24  C   UNL     1      19.779  -9.143  36.721  1.00  0.00     0.197 A 
ATOM     25  C   UNL     1      19.482 -11.324  35.720  1.00  0.00     0.138 A 
ATOM     26  C   UNL     1      19.514 -10.507  36.862  1.00  0.00     0.100 A 
ATOM     27  O   UNL     1      19.810  -8.419  37.751  1.00  0.00    -0.289 OA
BRANCH  18  28
ATOM     28  O   UNL     1      20.753  -5.421  33.681  1.00  0.00    -0.502 OA
ATOM     29  H   UNL     1      20.034  -4.769  33.391  1.00  0.00     0.293 HD
ENDBRANCH  18  28
BRANCH  20  30
ATOM     30  O   UNL     1      20.335  -6.342  36.277  1.00  0.00    -0.504 OA
ATOM     31  H   UNL     1      20.940  -5.530  36.277  1.00  0.00     0.293 HD
ENDBRANCH  20  30
BRANCH  25  32
ATOM     32  C   UNL     1      19.217 -12.781  35.810  1.00  0.00     0.017 A 
ATOM     33  C   UNL     1      20.114 -13.729  35.280  1.00  0.00     0.012 A 
ATOM     34  C   UNL     1      18.059 -13.235  36.467  1.00  0.00     0.012 A 
ATOM     35  C   UNL     1      19.844 -15.097  35.390  1.00  0.00     0.001 A 
ATOM     36  C   UNL     1      17.793 -14.604  36.571  1.00  0.00     0.001 A 
ATOM     37  C   UNL     1      18.682 -15.533  36.031  1.00  0.00     0.000 A 
ENDBRANCH  25  32
ENDBRANCH   1  17
TORSDOF 9
ENDMDL
MODEL 6
REMARK VINA RESULT:    -6.755      3.333      9.368
REMARK INTER + INTRA:         -11.011
REMARK INTER:                  -9.310
REMARK INTRA:                  -1.701
REMARK UNBOUND:                -1.689
REMARK SMILES O=C([O-])[C@@H]1O[C@H](Oc2cc3oc(-c4ccccc4)cc(=O)c3c(O)c2O)[C@@H](O)[C@H](O)[C@@H]1O
REMARK SMILES IDX 7 1 6 2 4 3 31 4 5 5 29 6 27 7 2 8 1 9 3 10 32 11 30 13
REMARK SMILES IDX 28 15 8 17 25 18 9 19 23 20 10 21 22 22 11 23 20 24 12 25
REMARK SMILES IDX 19 26 21 27 26 28 24 30 13 32 14 33 18 34 15 35 17 36 16 37
REMARK H PARENT 32 12 30 14 28 16 26 29 24 31
REMARK Flexibility Score: inf
ROOT
ATOM      1  O   UNL     1      19.163  -7.753  29.884  1.00  0.00    -0.458 OA
ENDROOT
BRANCH   1   2
ATOM      2  C   UNL     1      18.048  -7.225  29.159  1.00  0.00     0.339 C 
ATOM      3  C   UNL     1      18.966  -5.048  28.847  1.00  0.00     0.199 C 
ATOM      4  C   UNL     1      19.223  -5.318  27.337  1.00  0.00     0.180 C 
ATOM      5  O   UNL     1      17.897  -5.827  29.375  1.00  0.00    -0.328 OA
ATOM      6  C   UNL     1      19.327  -6.821  27.014  1.00  0.00     0.181 C 
ATOM      7  C   UNL     1      18.160  -7.575  27.666  1.00  0.00     0.214 C 
BRANCH   3   8
ATOM      8  C   UNL     1      20.177  -5.081  29.750  1.00  0.00     0.073 C 
ATOM      9  O   UNL     1      21.312  -5.419  29.323  1.00  0.00    -0.547 OA
ATOM     10  O   UNL     1      20.032  -4.744  31.090  1.00  0.00    -0.547 OA
ENDBRANCH   3   8
BRANCH   4  11
ATOM     11  O   UNL     1      20.370  -4.645  26.883  1.00  0.00    -0.387 OA
ATOM     12  H   UNL     1      21.106  -4.882  27.506  1.00  0.00     0.211 HD
ENDBRANCH   4  11
BRANCH   6  13
ATOM     13  O   UNL     1      20.544  -7.360  27.462  1.00  0.00    -0.387 OA
ATOM     14  H   UNL     1      21.249  -7.046  26.839  1.00  0.00     0.211 HD
ENDBRANCH   6  13
BRANCH   7  15
ATOM     15  O   UNL     1      16.951  -7.246  27.028  1.00  0.00    -0.384 OA
ATOM     16  H   UNL     1      16.219  -7.556  27.623  1.00  0.00     0.211 HD
ENDBRANCH   7  15
ENDBRANCH   1   2
BRANCH   1  17
ATOM     17  C   UNL     1      19.232  -9.041  30.441  1.00  0.00     0.172 A 
ATOM     18  C   UNL     1      20.227  -9.923  29.979  1.00  0.00     0.201 A 
ATOM     19  C   UNL     1      18.345  -9.467  31.444  1.00  0.00     0.098 A 
ATOM     20  C   UNL     1      20.335 -11.221  30.516  1.00  0.00     0.176 A 
ATOM     21  C   UNL     1      18.443 -10.751  31.983  1.00  0.00     0.146 A 
ATOM     22  C   UNL     1      19.440 -11.643  31.527  1.00  0.00     0.111 A 
ATOM     23  O   UNL     1      17.586 -11.121  32.929  1.00  0.00    -0.456 OA
ATOM     24  C   UNL     1      19.489 -12.924  32.114  1.00  0.00     0.197 A 
ATOM     25  C   UNL     1      17.609 -12.319  33.508  1.00  0.00     0.138 A 
ATOM     26  C   UNL     1      18.570 -13.262  33.109  1.00  0.00     0.100 A 
ATOM     27  O   UNL     1      20.344 -13.778  31.760  1.00  0.00    -0.289 OA
BRANCH  18  28
ATOM     28  O   UNL     1      21.121  -9.517  28.987  1.00  0.00    -0.502 OA
ATOM     29  H   UNL     1      20.873  -8.839  28.277  1.00  0.00     0.293 HD
ENDBRANCH  18  28
BRANCH  20  30
ATOM     30  O   UNL     1      21.327 -12.085  30.047  1.00  0.00    -0.504 OA
ATOM     31  H   UNL     1      21.367 -12.400  29.086  1.00  0.00     0.293 HD
ENDBRANCH  20  30
BRANCH  25  32
ATOM     32  C   UNL     1      16.600 -12.626  34.552  1.00  0.00     0.017 A 
ATOM     33  C   UNL     1      15.461 -11.818  34.738  1.00  0.00     0.012 A 
ATOM     34  C   UNL     1      16.764 -13.767  35.359  1.00  0.00     0.012 A 
ATOM     35  C   UNL     1      14.521 -12.139  35.723  1.00  0.00     0.001 A 
ATOM     36  C   UNL     1      15.822 -14.079  36.344  1.00  0.00     0.001 A 
ATOM     37  C   UNL     1      14.704 -13.266  36.527  1.00  0.00     0.000 A 
ENDBRANCH  25  32
ENDBRANCH   1  17
TORSDOF 9
ENDMDL
MODEL 7
REMARK VINA RESULT:    -6.723      6.458      9.572
REMARK INTER + INTRA:         -10.967
REMARK INTER:                  -9.216
REMARK INTRA:                  -1.751
REMARK UNBOUND:                -1.689
REMARK SMILES O=C([O-])[C@@H]1O[C@H](Oc2cc3oc(-c4ccccc4)cc(=O)c3c(O)c2O)[C@@H](O)[C@H](O)[C@@H]1O
REMARK SMILES IDX 7 1 6 2 4 3 31 4 5 5 29 6 27 7 2 8 1 9 3 10 32 11 30 13
REMARK SMILES IDX 28 15 8 17 25 18 9 19 23 20 10 21 22 22 11 23 20 24 12 25
REMARK SMILES IDX 19 26 21 27 26 28 24 30 13 32 14 33 18 34 15 35 17 36 16 37
REMARK H PARENT 32 12 30 14 28 16 26 29 24 31
REMARK Flexibility Score: inf
ROOT
ATOM      1  O   UNL     1      18.646  -9.189  29.070  1.00  0.00    -0.458 OA
ENDROOT
BRANCH   1   2
ATOM      2  C   UNL     1      19.444  -9.861  30.050  1.00  0.00     0.339 C 
ATOM      3  C   UNL     1      20.829  -7.992  30.565  1.00  0.00     0.199 C 
ATOM      4  C   UNL     1      20.135  -7.794  31.944  1.00  0.00     0.180 C 
ATOM      5  O   UNL     1      20.765  -9.336  30.101  1.00  0.00    -0.328 OA
ATOM      6  C   UNL     1      18.721  -8.403  31.987  1.00  0.00     0.181 C 
ATOM      7  C   UNL     1      18.752  -9.831  31.422  1.00  0.00     0.214 C 
BRANCH   3   8
ATOM      8  C   UNL     1      20.454  -7.009  29.480  1.00  0.00     0.073 C 
ATOM      9  O   UNL     1      19.556  -6.144  29.651  1.00  0.00    -0.547 OA
ATOM     10  O   UNL     1      21.109  -7.072  28.256  1.00  0.00    -0.547 OA
ENDBRANCH   3   8
BRANCH   4  11
ATOM     11  O   UNL     1      20.090  -6.438  32.306  1.00  0.00    -0.387 OA
ATOM     12  H   UNL     1      20.916  -6.253  32.825  1.00  0.00     0.211 HD
ENDBRANCH   4  11
BRANCH   6  13
ATOM     13  O   UNL     1      17.805  -7.629  31.258  1.00  0.00    -0.387 OA
ATOM     14  H   UNL     1      17.924  -6.688  31.546  1.00  0.00     0.211 HD
ENDBRANCH   6  13
BRANCH   7  15
ATOM     15  O   UNL     1      19.440 -10.687  32.300  1.00  0.00    -0.384 OA
ATOM     16  H   UNL     1      20.369 -10.761  31.959  1.00  0.00     0.211 HD
ENDBRANCH   7  15
ENDBRANCH   1   2
BRANCH   1  17
ATOM     17  C   UNL     1      18.295  -9.709  27.813  1.00  0.00     0.172 A 
ATOM     18  C   UNL     1      19.300  -9.852  26.839  1.00  0.00     0.201 A 
ATOM     19  C   UNL     1      16.979 -10.092  27.507  1.00  0.00     0.098 A 
ATOM     20  C   UNL     1      18.991 -10.376  25.568  1.00  0.00     0.176 A 
ATOM     21  C   UNL     1      16.661 -10.611  26.251  1.00  0.00     0.146 A 
ATOM     22  C   UNL     1      17.664 -10.761  25.266  1.00  0.00     0.111 A 
ATOM     23  O   UNL     1      15.405 -10.962  25.996  1.00  0.00    -0.456 OA
ATOM     24  C   UNL     1      17.281 -11.296  24.019  1.00  0.00     0.197 A 
ATOM     25  C   UNL     1      15.011 -11.475  24.833  1.00  0.00     0.138 A 
ATOM     26  C   UNL     1      15.949 -11.655  23.803  1.00  0.00     0.100 A 
ATOM     27  O   UNL     1      18.114 -11.457  23.088  1.00  0.00    -0.289 OA
BRANCH  18  28
ATOM     28  O   UNL     1      20.615  -9.482  27.124  1.00  0.00    -0.502 OA
ATOM     29  H   UNL     1      21.132  -9.871  27.904  1.00  0.00     0.293 HD
ENDBRANCH  18  28
BRANCH  20  30
ATOM     30  O   UNL     1      20.000 -10.512  24.610  1.00  0.00    -0.504 OA
ATOM     31  H   UNL     1      20.098  -9.877  23.827  1.00  0.00     0.293 HD
ENDBRANCH  20  30
BRANCH  25  32
ATOM     32  C   UNL     1      13.581 -11.827  24.656  1.00  0.00     0.017 A 
ATOM     33  C   UNL     1      13.134 -12.566  23.543  1.00  0.00     0.012 A 
ATOM     34  C   UNL     1      12.647 -11.443  25.636  1.00  0.00     0.012 A 
ATOM     35  C   UNL     1      11.781 -12.894  23.409  1.00  0.00     0.001 A 
ATOM     36  C   UNL     1      11.295 -11.771  25.494  1.00  0.00     0.001 A 
ATOM     37  C   UNL     1      10.862 -12.493  24.382  1.00  0.00     0.000 A 
ENDBRANCH  25  32
ENDBRANCH   1  17
TORSDOF 9
ENDMDL
MODEL 8
REMARK VINA RESULT:    -6.711      2.968      9.138
REMARK INTER + INTRA:         -10.950
REMARK INTER:                  -9.219
REMARK INTRA:                  -1.731
REMARK UNBOUND:                -1.689
REMARK SMILES O=C([O-])[C@@H]1O[C@H](Oc2cc3oc(-c4ccccc4)cc(=O)c3c(O)c2O)[C@@H](O)[C@H](O)[C@@H]1O
REMARK SMILES IDX 7 1 6 2 4 3 31 4 5 5 29 6 27 7 2 8 1 9 3 10 32 11 30 13
REMARK SMILES IDX 28 15 8 17 25 18 9 19 23 20 10 21 22 22 11 23 20 24 12 25
REMARK SMILES IDX 19 26 21 27 26 28 24 30 13 32 14 33 18 34 15 35 17 36 16 37
REMARK H PARENT 32 12 30 14 28 16 26 29 24 31
REMARK Flexibility Score: inf
ROOT
ATOM      1  O   UNL     1      19.573  -7.917  29.837  1.00  0.00    -0.458 OA
ENDROOT
BRANCH   1   2
ATOM      2  C   UNL     1      20.552  -6.908  29.568  1.00  0.00     0.339 C 
ATOM      3  C   UNL     1      19.770  -6.383  27.380  1.00  0.00     0.199 C 
ATOM      4  C   UNL     1      19.182  -5.025  27.861  1.00  0.00     0.180 C 
ATOM      5  O   UNL     1      20.858  -6.831  28.181  1.00  0.00    -0.328 OA
ATOM      6  C   UNL     1      18.891  -5.010  29.373  1.00  0.00     0.181 C 
ATOM      7  C   UNL     1      20.103  -5.554  30.142  1.00  0.00     0.214 C 
BRANCH   3   8
ATOM      8  C   UNL     1      18.775  -7.491  27.123  1.00  0.00     0.073 C 
ATOM      9  O   UNL     1      17.544  -7.337  27.335  1.00  0.00    -0.547 OA
ATOM     10  O   UNL     1      19.233  -8.716  26.653  1.00  0.00    -0.547 OA
ENDBRANCH   3   8
BRANCH   4  11
ATOM     11  O   UNL     1      18.025  -4.683  27.141  1.00  0.00    -0.387 OA
ATOM     12  H   UNL     1      17.550  -3.993  27.675  1.00  0.00     0.211 HD
ENDBRANCH   4  11
BRANCH   6  13
ATOM     13  O   UNL     1      17.755  -5.773  29.687  1.00  0.00    -0.387 OA
ATOM     14  H   UNL     1      18.002  -6.371  30.438  1.00  0.00     0.211 HD
ENDBRANCH   6  13
BRANCH   7  15
ATOM     15  O   UNL     1      21.175  -4.648  30.066  1.00  0.00    -0.384 OA
ATOM     16  H   UNL     1      21.334  -4.311  30.986  1.00  0.00     0.211 HD
ENDBRANCH   7  15
ENDBRANCH   1   2
BRANCH   1  17
ATOM     17  C   UNL     1      19.833  -9.160  30.438  1.00  0.00     0.172 A 
ATOM     18  C   UNL     1      20.594 -10.106  29.728  1.00  0.00     0.201 A 
ATOM     19  C   UNL     1      19.361  -9.479  31.723  1.00  0.00     0.098 A 
ATOM     20  C   UNL     1      20.882 -11.363  30.298  1.00  0.00     0.176 A 
ATOM     21  C   UNL     1      19.640 -10.720  32.297  1.00  0.00     0.146 A 
ATOM     22  C   UNL     1      20.405 -11.677  31.592  1.00  0.00     0.111 A 
ATOM     23  O   UNL     1      19.176 -10.988  33.513  1.00  0.00    -0.456 OA
ATOM     24  C   UNL     1      20.656 -12.910  32.228  1.00  0.00     0.197 A 
ATOM     25  C   UNL     1      19.400 -12.139  34.143  1.00  0.00     0.138 A 
ATOM     26  C   UNL     1      20.152 -13.140  33.509  1.00  0.00     0.100 A 
ATOM     27  O   UNL     1      21.326 -13.817  31.665  1.00  0.00    -0.289 OA
BRANCH  18  28
ATOM     28  O   UNL     1      21.076  -9.808  28.453  1.00  0.00    -0.502 OA
ATOM     29  H   UNL     1      20.678  -9.074  27.880  1.00  0.00     0.293 HD
ENDBRANCH  18  28
BRANCH  20  30
ATOM     30  O   UNL     1      21.639 -12.293  29.580  1.00  0.00    -0.504 OA
ATOM     31  H   UNL     1      22.644 -12.221  29.485  1.00  0.00     0.293 HD
ENDBRANCH  20  30
BRANCH  25  32
ATOM     32  C   UNL     1      18.829 -12.331  35.499  1.00  0.00     0.017 A 
ATOM     33  C   UNL     1      17.474 -12.665  35.690  1.00  0.00     0.012 A 
ATOM     34  C   UNL     1      19.664 -12.209  36.626  1.00  0.00     0.012 A 
ATOM     35  C   UNL     1      16.966 -12.853  36.979  1.00  0.00     0.001 A 
ATOM     36  C   UNL     1      19.149 -12.394  37.912  1.00  0.00     0.001 A 
ATOM     37  C   UNL     1      17.803 -12.713  38.090  1.00  0.00     0.000 A 
ENDBRANCH  25  32
ENDBRANCH   1  17
TORSDOF 9
ENDMDL
MODEL 9
REMARK VINA RESULT:    -6.659      2.479      8.293
REMARK INTER + INTRA:         -10.878
REMARK INTER:                  -9.307
REMARK INTRA:                  -1.571
REMARK UNBOUND:                -1.689
REMARK SMILES O=C([O-])[C@@H]1O[C@H](Oc2cc3oc(-c4ccccc4)cc(=O)c3c(O)c2O)[C@@H](O)[C@H](O)[C@@H]1O
REMARK SMILES IDX 7 1 6 2 4 3 31 4 5 5 29 6 27 7 2 8 1 9 3 10 32 11 30 13
REMARK SMILES IDX 28 15 8 17 25 18 9 19 23 20 10 21 22 22 11 23 20 24 12 25
REMARK SMILES IDX 19 26 21 27 26 28 24 30 13 32 14 33 18 34 15 35 17 36 16 37
REMARK H PARENT 32 12 30 14 28 16 26 29 24 31
REMARK Flexibility Score: inf
ROOT
ATOM      1  O   UNL     1      19.688  -9.682  32.210  1.00  0.00    -0.458 OA
ENDROOT
BRANCH   1   2
ATOM      2  C   UNL     1      19.326  -9.396  30.854  1.00  0.00     0.339 C 
ATOM      3  C   UNL     1      18.890  -7.080  31.199  1.00  0.00     0.199 C 
ATOM      4  C   UNL     1      20.189  -6.672  30.447  1.00  0.00     0.180 C 
ATOM      5  O   UNL     1      18.377  -8.339  30.777  1.00  0.00    -0.328 OA
ATOM      6  C   UNL     1      21.239  -7.798  30.429  1.00  0.00     0.181 C 
ATOM      7  C   UNL     1      20.579  -9.119  30.009  1.00  0.00     0.214 C 
BRANCH   3   8
ATOM      8  C   UNL     1      18.924  -6.969  32.706  1.00  0.00     0.073 C 
ATOM      9  O   UNL     1      19.969  -6.632  33.321  1.00  0.00    -0.547 OA
ATOM     10  O   UNL     1      17.777  -7.262  33.432  1.00  0.00    -0.547 OA
ENDBRANCH   3   8
BRANCH   4  11
ATOM     11  O   UNL     1      20.746  -5.499  30.984  1.00  0.00    -0.387 OA
ATOM     12  H   UNL     1      21.468  -5.782  31.603  1.00  0.00     0.211 HD
ENDBRANCH   4  11
BRANCH   6  13
ATOM     13  O   UNL     1      21.848  -7.955  31.684  1.00  0.00    -0.387 OA
ATOM     14  H   UNL     1      21.666  -7.129  32.202  1.00  0.00     0.211 HD
ENDBRANCH   6  13
BRANCH   7  15
ATOM     15  O   UNL     1      20.213  -9.070  28.652  1.00  0.00    -0.384 OA
ATOM     16  H   UNL     1      19.297  -9.449  28.588  1.00  0.00     0.211 HD
ENDBRANCH   7  15
ENDBRANCH   1   2
BRANCH   1  17
ATOM     17  C   UNL     1      19.198 -10.756  32.972  1.00  0.00     0.172 A 
ATOM     18  C   UNL     1      19.982 -11.919  33.078  1.00  0.00     0.201 A 
ATOM     19  C   UNL     1      17.958 -10.698  33.630  1.00  0.00     0.098 A 
ATOM     20  C   UNL     1      19.531 -13.017  33.838  1.00  0.00     0.176 A 
ATOM     21  C   UNL     1      17.501 -11.780  34.385  1.00  0.00     0.146 A 
ATOM     22  C   UNL     1      18.283 -12.951  34.499  1.00  0.00     0.111 A 
ATOM     23  O   UNL     1      16.323 -11.691  34.993  1.00  0.00    -0.456 OA
ATOM     24  C   UNL     1      17.768 -14.007  35.279  1.00  0.00     0.197 A 
ATOM     25  C   UNL     1      15.811 -12.665  35.741  1.00  0.00     0.138 A 
ATOM     26  C   UNL     1      16.527 -13.861  35.903  1.00  0.00     0.100 A 
ATOM     27  O   UNL     1      18.401 -15.086  35.428  1.00  0.00    -0.289 OA
BRANCH  18  28
ATOM     28  O   UNL     1      21.219 -11.995  32.436  1.00  0.00    -0.502 OA
ATOM     29  H   UNL     1      21.507 -11.327  31.731  1.00  0.00     0.293 HD
ENDBRANCH  18  28
BRANCH  20  30
ATOM     30  O   UNL     1      20.321 -14.166  33.934  1.00  0.00    -0.504 OA
ATOM     31  H   UNL     1      20.010 -15.002  34.411  1.00  0.00     0.293 HD
ENDBRANCH  20  30
BRANCH  25  32
ATOM     32  C   UNL     1      14.483 -12.458  36.370  1.00  0.00     0.017 A 
ATOM     33  C   UNL     1      13.589 -11.476  35.901  1.00  0.00     0.012 A 
ATOM     34  C   UNL     1      14.089 -13.280  37.442  1.00  0.00     0.012 A 
ATOM     35  C   UNL     1      12.338 -11.312  36.506  1.00  0.00     0.001 A 
ATOM     36  C   UNL     1      12.840 -13.108  38.045  1.00  0.00     0.001 A 
ATOM     37  C   UNL     1      11.967 -12.125  37.580  1.00  0.00     0.000 A 
ENDBRANCH  25  32
ENDBRANCH   1  17
TORSDOF 9
ENDMDL
