MODEL 1
REMARK VINA RESULT:     5.039      0.000      0.000
REMARK INTER + INTRA:          10.636
REMARK INTER:                  11.520
REMARK INTRA:                  -0.884
REMARK UNBOUND:                -0.884
REMARK SMILES CCCCCCCCCCCCCCCCCCCCCCCC(=O)[O-]
REMARK SMILES IDX 13 1 14 2 15 3 16 4 17 5 18 6 19 7 20 8 21 9 22 10 23 11
REMARK SMILES IDX 24 12 25 13 26 14 12 15 11 16 10 17 9 18 8 19 7 20 6 21 5 22
REMARK SMILES IDX 4 23 3 24 2 25 1 26
REMARK H PARENT
REMARK Flexibility Score: inf
ROOT
ATOM      1  C   UNL     1      36.107  25.047  31.361  1.00  0.00     0.000 C 
ENDROOT
BRANCH   1   2
ATOM      2  C   UNL     1      37.125  23.966  30.959  1.00  0.00     0.000 C 
BRANCH   2   3
ATOM      3  C   UNL     1      36.538  22.863  30.051  1.00  0.00     0.000 C 
BRANCH   3   4
ATOM      4  C   UNL     1      36.313  23.356  28.612  1.00  0.00     0.000 C 
BRANCH   4   5
ATOM      5  C   UNL     1      35.260  24.469  28.564  1.00  0.00     0.000 C 
BRANCH   5   6
ATOM      6  C   UNL     1      33.970  23.968  27.896  1.00  0.00     0.000 C 
BRANCH   6   7
ATOM      7  C   UNL     1      32.766  24.886  28.158  1.00  0.00     0.000 C 
BRANCH   7   8
ATOM      8  C   UNL     1      31.421  24.154  28.013  1.00  0.00     0.000 C 
BRANCH   8   9
ATOM      9  C   UNL     1      30.210  25.089  28.190  1.00  0.00     0.000 C 
BRANCH   9  10
ATOM     10  C   UNL     1      29.515  25.003  29.562  1.00  0.00     0.006 C 
BRANCH  10  11
ATOM     11  C   UNL     1      30.497  25.125  30.736  1.00  0.00     0.053 C 
BRANCH  11  12
ATOM     12  C   UNL     1      30.120  24.186  31.840  1.00  0.00     0.041 C 
ATOM     13  O   UNL     1      30.408  22.961  31.757  1.00  0.00    -0.550 OA
ATOM     14  O   UNL     1      29.478  24.668  32.973  1.00  0.00    -0.550 OA
ENDBRANCH  11  12
ENDBRANCH  10  11
ENDBRANCH   9  10
ENDBRANCH   8   9
ENDBRANCH   7   8
ENDBRANCH   6   7
ENDBRANCH   5   6
ENDBRANCH   4   5
ENDBRANCH   3   4
ENDBRANCH   2   3
ENDBRANCH   1   2
BRANCH   1  15
ATOM     15  C   UNL     1      35.884  25.122  32.880  1.00  0.00     0.000 C 
BRANCH  15  16
ATOM     16  C   UNL     1      34.401  24.999  33.267  1.00  0.00     0.000 C 
BRANCH  16  17
ATOM     17  C   UNL     1      34.101  23.675  33.995  1.00  0.00     0.000 C 
BRANCH  17  18
ATOM     18  C   UNL     1      32.629  23.549  34.421  1.00  0.00    -0.000 C 
BRANCH  18  19
ATOM     19  C   UNL     1      32.246  24.552  35.524  1.00  0.00    -0.000 C 
BRANCH  19  20
ATOM     20  C   UNL     1      32.891  24.213  36.884  1.00  0.00    -0.000 C 
BRANCH  20  21
ATOM     21  C   UNL     1      32.014  23.333  37.794  1.00  0.00    -0.000 C 
BRANCH  21  22
ATOM     22  C   UNL     1      31.660  21.942  37.230  1.00  0.00    -0.000 C 
BRANCH  22  23
ATOM     23  C   UNL     1      31.680  20.794  38.261  1.00  0.00    -0.000 C 
BRANCH  23  24
ATOM     24  C   UNL     1      30.710  19.636  37.936  1.00  0.00    -0.000 C 
BRANCH  24  25
ATOM     25  C   UNL     1      31.418  18.296  37.666  1.00  0.00    -0.003 C 
ATOM     26  C   UNL     1      30.680  17.421  36.654  1.00  0.00     0.004 C 
ENDBRANCH  24  25
ENDBRANCH  23  24
ENDBRANCH  22  23
ENDBRANCH  21  22
ENDBRANCH  20  21
ENDBRANCH  19  20
ENDBRANCH  18  19
ENDBRANCH  17  18
ENDBRANCH  16  17
ENDBRANCH  15  16
ENDBRANCH   1  15
TORSDOF 22
ENDMDL
MODEL 2
REMARK VINA RESULT:     7.934      5.991     12.364
REMARK INTER + INTRA:          17.253
REMARK INTER:                  18.392
REMARK INTRA:                  -1.139
REMARK UNBOUND:                -0.884
REMARK SMILES CCCCCCCCCCCCCCCCCCCCCCCC(=O)[O-]
REMARK SMILES IDX 13 1 14 2 15 3 16 4 17 5 18 6 19 7 20 8 21 9 22 10 23 11
REMARK SMILES IDX 24 12 25 13 26 14 12 15 11 16 10 17 9 18 8 19 7 20 6 21 5 22
REMARK SMILES IDX 4 23 3 24 2 25 1 26
REMARK H PARENT
REMARK Flexibility Score: inf
ROOT
ATOM      1  C   UNL     1      31.753  18.207  37.689  1.00  0.00     0.000 C 
ENDROOT
BRANCH   1   2
ATOM      2  C   UNL     1      32.368  18.204  39.100  1.00  0.00     0.000 C 
BRANCH   2   3
ATOM      3  C   UNL     1      33.855  17.788  39.131  1.00  0.00     0.000 C 
BRANCH   3   4
ATOM      4  C   UNL     1      34.150  16.775  40.249  1.00  0.00     0.000 C 
BRANCH   4   5
ATOM      5  C   UNL     1      33.712  17.314  41.616  1.00  0.00     0.000 C 
BRANCH   5   6
ATOM      6  C   UNL     1      34.745  16.960  42.696  1.00  0.00     0.000 C 
BRANCH   6   7
ATOM      7  C   UNL     1      34.563  15.540  43.255  1.00  0.00     0.000 C 
BRANCH   7   8
ATOM      8  C   UNL     1      35.777  14.636  42.984  1.00  0.00     0.000 C 
BRANCH   8   9
ATOM      9  C   UNL     1      35.378  13.206  42.575  1.00  0.00     0.000 C 
BRANCH   9  10
ATOM     10  C   UNL     1      34.231  13.117  41.551  1.00  0.00     0.006 C 
BRANCH  10  11
ATOM     11  C   UNL     1      34.347  11.891  40.633  1.00  0.00     0.053 C 
BRANCH  11  12
ATOM     12  C   UNL     1      33.161  10.993  40.800  1.00  0.00     0.041 C 
ATOM     13  O   UNL     1      32.423  11.097  41.817  1.00  0.00    -0.550 OA
ATOM     14  O   UNL     1      32.852  10.060  39.818  1.00  0.00    -0.550 OA
ENDBRANCH  11  12
ENDBRANCH  10  11
ENDBRANCH   9  10
ENDBRANCH   8   9
ENDBRANCH   7   8
ENDBRANCH   6   7
ENDBRANCH   5   6
ENDBRANCH   4   5
ENDBRANCH   3   4
ENDBRANCH   2   3
ENDBRANCH   1   2
BRANCH   1  15
ATOM     15  C   UNL     1      31.057  19.534  37.344  1.00  0.00     0.000 C 
BRANCH  15  16
ATOM     16  C   UNL     1      31.768  20.751  37.960  1.00  0.00     0.000 C 
BRANCH  16  17
ATOM     17  C   UNL     1      31.154  22.081  37.482  1.00  0.00     0.000 C 
BRANCH  17  18
ATOM     18  C   UNL     1      32.212  23.086  37.000  1.00  0.00    -0.000 C 
BRANCH  18  19
ATOM     19  C   UNL     1      31.597  24.425  36.554  1.00  0.00    -0.000 C 
BRANCH  19  20
ATOM     20  C   UNL     1      32.425  25.123  35.455  1.00  0.00    -0.000 C 
BRANCH  20  21
ATOM     21  C   UNL     1      32.333  24.447  34.075  1.00  0.00    -0.000 C 
BRANCH  21  22
ATOM     22  C   UNL     1      31.231  24.990  33.142  1.00  0.00    -0.000 C 
BRANCH  22  23
ATOM     23  C   UNL     1      31.575  24.959  31.638  1.00  0.00    -0.000 C 
BRANCH  23  24
ATOM     24  C   UNL     1      30.413  24.489  30.734  1.00  0.00    -0.000 C 
BRANCH  24  25
ATOM     25  C   UNL     1      30.861  24.061  29.325  1.00  0.00    -0.003 C 
ATOM     26  C   UNL     1      29.715  24.033  28.315  1.00  0.00     0.004 C 
ENDBRANCH  24  25
ENDBRANCH  23  24
ENDBRANCH  22  23
ENDBRANCH  21  22
ENDBRANCH  20  21
ENDBRANCH  19  20
ENDBRANCH  18  19
ENDBRANCH  17  18
ENDBRANCH  16  17
ENDBRANCH  15  16
ENDBRANCH   1  15
TORSDOF 22
ENDMDL
