MODEL 1
REMARK VINA RESULT:    -4.057      0.000      0.000
REMARK INTER + INTRA:          -6.325
REMARK INTER:                  -5.717
REMARK INTRA:                  -0.608
REMARK UNBOUND:                -0.608
REMARK SMILES CCCCCCCCC(=O)[O-]
REMARK SMILES IDX 6 1 7 2 8 3 9 4 10 5 11 6 5 7 4 8 3 9 2 10 1 11
REMARK H PARENT
REMARK Flexibility Score: inf
ROOT
ATOM      1  C   UNL     1      17.691  18.681  34.306  1.00  0.00     0.000 C 
ENDROOT
BRANCH   1   2
ATOM      2  C   UNL     1      17.625  17.351  35.071  1.00  0.00     0.006 C 
BRANCH   2   3
ATOM      3  C   UNL     1      17.199  17.543  36.533  1.00  0.00     0.053 C 
BRANCH   3   4
ATOM      4  C   UNL     1      16.009  16.703  36.881  1.00  0.00     0.041 C 
ATOM      5  O   UNL     1      15.486  15.956  36.014  1.00  0.00    -0.550 OA
ATOM      6  O   UNL     1      15.456  16.772  38.154  1.00  0.00    -0.550 OA
ENDBRANCH   3   4
ENDBRANCH   2   3
ENDBRANCH   1   2
BRANCH   1   7
ATOM      7  C   UNL     1      18.056  19.837  35.245  1.00  0.00     0.000 C 
BRANCH   7   8
ATOM      8  C   UNL     1      19.422  20.433  34.880  1.00  0.00    -0.000 C 
BRANCH   8   9
ATOM      9  C   UNL     1      20.554  19.706  35.622  1.00  0.00    -0.000 C 
BRANCH   9  10
ATOM     10  C   UNL     1      20.255  19.519  37.117  1.00  0.00    -0.003 C 
ATOM     11  C   UNL     1      20.556  20.770  37.941  1.00  0.00     0.004 C 
ENDBRANCH   9  10
ENDBRANCH   8   9
ENDBRANCH   7   8
ENDBRANCH   1   7
TORSDOF 7
ENDMDL
MODEL 2
REMARK VINA RESULT:    -4.038      1.557      2.399
REMARK INTER + INTRA:          -6.299
REMARK INTER:                  -5.624
REMARK INTRA:                  -0.675
REMARK UNBOUND:                -0.608
REMARK SMILES CCCCCCCCC(=O)[O-]
REMARK SMILES IDX 6 1 7 2 8 3 9 4 10 5 11 6 5 7 4 8 3 9 2 10 1 11
REMARK H PARENT
REMARK Flexibility Score: inf
ROOT
ATOM      1  C   UNL     1      18.046  16.523  34.793  1.00  0.00     0.000 C 
ENDROOT
BRANCH   1   2
ATOM      2  C   UNL     1      17.689  16.325  36.273  1.00  0.00     0.006 C 
BRANCH   2   3
ATOM      3  C   UNL     1      16.413  17.081  36.669  1.00  0.00     0.053 C 
BRANCH   3   4
ATOM      4  C   UNL     1      15.406  16.176  37.309  1.00  0.00     0.041 C 
ATOM      5  O   UNL     1      14.306  16.637  37.711  1.00  0.00    -0.550 OA
ATOM      6  O   UNL     1      15.697  14.830  37.493  1.00  0.00    -0.550 OA
ENDBRANCH   3   4
ENDBRANCH   2   3
ENDBRANCH   1   2
BRANCH   1   7
ATOM      7  C   UNL     1      17.055  17.475  34.112  1.00  0.00     0.000 C 
BRANCH   7   8
ATOM      8  C   UNL     1      17.782  18.678  33.496  1.00  0.00    -0.000 C 
BRANCH   8   9
ATOM      9  C   UNL     1      17.769  19.878  34.455  1.00  0.00    -0.000 C 
BRANCH   9  10
ATOM     10  C   UNL     1      19.135  20.125  35.111  1.00  0.00    -0.003 C 
ATOM     11  C   UNL     1      20.290  19.512  34.320  1.00  0.00     0.004 C 
ENDBRANCH   9  10
ENDBRANCH   8   9
ENDBRANCH   7   8
ENDBRANCH   1   7
TORSDOF 7
ENDMDL
MODEL 3
REMARK VINA RESULT:    -4.019      0.728      1.302
REMARK INTER + INTRA:          -6.271
REMARK INTER:                  -5.595
REMARK INTRA:                  -0.676
REMARK UNBOUND:                -0.608
REMARK SMILES CCCCCCCCC(=O)[O-]
REMARK SMILES IDX 6 1 7 2 8 3 9 4 10 5 11 6 5 7 4 8 3 9 2 10 1 11
REMARK H PARENT
REMARK Flexibility Score: inf
ROOT
ATOM      1  C   UNL     1      17.382  18.138  33.899  1.00  0.00     0.000 C 
ENDROOT
BRANCH   1   2
ATOM      2  C   UNL     1      17.709  17.177  35.051  1.00  0.00     0.006 C 
BRANCH   2   3
ATOM      3  C   UNL     1      17.144  17.664  36.392  1.00  0.00     0.053 C 
BRANCH   3   4
ATOM      4  C   UNL     1      16.010  16.805  36.862  1.00  0.00     0.041 C 
ATOM      5  O   UNL     1      15.570  16.924  38.035  1.00  0.00    -0.550 OA
ATOM      6  O   UNL     1      15.463  15.849  36.016  1.00  0.00    -0.550 OA
ENDBRANCH   3   4
ENDBRANCH   2   3
ENDBRANCH   1   2
BRANCH   1   7
ATOM      7  C   UNL     1      18.002  19.519  34.143  1.00  0.00     0.000 C 
BRANCH   7   8
ATOM      8  C   UNL     1      19.444  19.574  33.624  1.00  0.00    -0.000 C 
BRANCH   8   9
ATOM      9  C   UNL     1      20.443  19.687  34.786  1.00  0.00    -0.000 C 
BRANCH   9  10
ATOM     10  C   UNL     1      19.814  20.293  36.048  1.00  0.00    -0.003 C 
ATOM     11  C   UNL     1      20.498  19.829  37.333  1.00  0.00     0.004 C 
ENDBRANCH   9  10
ENDBRANCH   8   9
ENDBRANCH   7   8
ENDBRANCH   1   7
TORSDOF 7
ENDMDL
MODEL 4
REMARK VINA RESULT:    -3.939      1.303      2.792
REMARK INTER + INTRA:          -6.160
REMARK INTER:                  -5.486
REMARK INTRA:                  -0.673
REMARK UNBOUND:                -0.608
REMARK SMILES CCCCCCCCC(=O)[O-]
REMARK SMILES IDX 6 1 7 2 8 3 9 4 10 5 11 6 5 7 4 8 3 9 2 10 1 11
REMARK H PARENT
REMARK Flexibility Score: inf
ROOT
ATOM      1  C   UNL     1      18.116  19.869  35.630  1.00  0.00     0.000 C 
ENDROOT
BRANCH   1   2
ATOM      2  C   UNL     1      17.687  18.992  36.816  1.00  0.00     0.006 C 
BRANCH   2   3
ATOM      3  C   UNL     1      17.632  17.504  36.448  1.00  0.00     0.053 C 
BRANCH   3   4
ATOM      4  C   UNL     1      16.268  16.926  36.668  1.00  0.00     0.041 C 
ATOM      5  O   UNL     1      15.653  16.373  35.719  1.00  0.00    -0.550 OA
ATOM      6  O   UNL     1      15.661  17.029  37.914  1.00  0.00    -0.550 OA
ENDBRANCH   3   4
ENDBRANCH   2   3
ENDBRANCH   1   2
BRANCH   1   7
ATOM      7  C   UNL     1      19.604  20.224  35.719  1.00  0.00     0.000 C 
BRANCH   7   8
ATOM      8  C   UNL     1      20.434  19.365  34.757  1.00  0.00    -0.000 C 
BRANCH   8   9
ATOM      9  C   UNL     1      19.691  19.154  33.429  1.00  0.00    -0.000 C 
BRANCH   9  10
ATOM     10  C   UNL     1      19.464  17.669  33.109  1.00  0.00    -0.003 C 
ATOM     11  C   UNL     1      18.007  17.353  32.771  1.00  0.00     0.004 C 
ENDBRANCH   9  10
ENDBRANCH   8   9
ENDBRANCH   7   8
ENDBRANCH   1   7
TORSDOF 7
ENDMDL
MODEL 5
REMARK VINA RESULT:    -3.919      1.690      2.869
REMARK INTER + INTRA:          -6.132
REMARK INTER:                  -5.634
REMARK INTRA:                  -0.498
REMARK UNBOUND:                -0.608
REMARK SMILES CCCCCCCCC(=O)[O-]
REMARK SMILES IDX 6 1 7 2 8 3 9 4 10 5 11 6 5 7 4 8 3 9 2 10 1 11
REMARK H PARENT
REMARK Flexibility Score: inf
ROOT
ATOM      1  C   UNL     1      18.143  17.593  36.371  1.00  0.00     0.000 C 
ENDROOT
BRANCH   1   2
ATOM      2  C   UNL     1      16.698  17.166  36.079  1.00  0.00     0.006 C 
BRANCH   2   3
ATOM      3  C   UNL     1      16.412  15.730  36.538  1.00  0.00     0.053 C 
BRANCH   3   4
ATOM      4  C   UNL     1      15.307  15.678  37.547  1.00  0.00     0.041 C 
ATOM      5  O   UNL     1      15.180  14.674  38.296  1.00  0.00    -0.550 OA
ATOM      6  O   UNL     1      14.396  16.723  37.637  1.00  0.00    -0.550 OA
ENDBRANCH   3   4
ENDBRANCH   2   3
ENDBRANCH   1   2
BRANCH   1   7
ATOM      7  C   UNL     1      18.261  19.121  36.436  1.00  0.00     0.000 C 
BRANCH   7   8
ATOM      8  C   UNL     1      17.806  19.765  35.120  1.00  0.00    -0.000 C 
BRANCH   8   9
ATOM      9  C   UNL     1      19.013  20.168  34.259  1.00  0.00    -0.000 C 
BRANCH   9  10
ATOM     10  C   UNL     1      19.075  19.398  32.932  1.00  0.00    -0.003 C 
ATOM     11  C   UNL     1      17.799  18.608  32.646  1.00  0.00     0.004 C 
ENDBRANCH   9  10
ENDBRANCH   8   9
ENDBRANCH   7   8
ENDBRANCH   1   7
TORSDOF 7
ENDMDL
MODEL 6
REMARK VINA RESULT:    -3.910     16.319     17.383
REMARK INTER + INTRA:          -6.119
REMARK INTER:                  -5.638
REMARK INTRA:                  -0.481
REMARK UNBOUND:                -0.608
REMARK SMILES CCCCCCCCC(=O)[O-]
REMARK SMILES IDX 6 1 7 2 8 3 9 4 10 5 11 6 5 7 4 8 3 9 2 10 1 11
REMARK H PARENT
REMARK Flexibility Score: inf
ROOT
ATOM      1  C   UNL     1      10.885  31.910  29.219  1.00  0.00     0.000 C 
ENDROOT
BRANCH   1   2
ATOM      2  C   UNL     1       9.980  30.763  29.690  1.00  0.00     0.006 C 
BRANCH   2   3
ATOM      3  C   UNL     1      10.018  30.581  31.214  1.00  0.00     0.053 C 
BRANCH   3   4
ATOM      4  C   UNL     1       9.021  31.460  31.904  1.00  0.00     0.041 C 
ATOM      5  O   UNL     1       9.232  31.855  33.080  1.00  0.00    -0.550 OA
ATOM      6  O   UNL     1       7.841  31.814  31.260  1.00  0.00    -0.550 OA
ENDBRANCH   3   4
ENDBRANCH   2   3
ENDBRANCH   1   2
BRANCH   1   7
ATOM      7  C   UNL     1      10.054  33.133  28.813  1.00  0.00     0.000 C 
BRANCH   7   8
ATOM      8  C   UNL     1      10.877  34.093  27.944  1.00  0.00    -0.000 C 
BRANCH   8   9
ATOM      9  C   UNL     1      12.345  33.646  27.868  1.00  0.00    -0.000 C 
BRANCH   9  10
ATOM     10  C   UNL     1      12.827  33.448  26.423  1.00  0.00    -0.003 C 
ATOM     11  C   UNL     1      11.985  32.432  25.652  1.00  0.00     0.004 C 
ENDBRANCH   9  10
ENDBRANCH   8   9
ENDBRANCH   7   8
ENDBRANCH   1   7
TORSDOF 7
ENDMDL
MODEL 7
REMARK VINA RESULT:    -3.908      1.309      2.560
REMARK INTER + INTRA:          -6.115
REMARK INTER:                  -5.374
REMARK INTRA:                  -0.740
REMARK UNBOUND:                -0.608
REMARK SMILES CCCCCCCCC(=O)[O-]
REMARK SMILES IDX 6 1 7 2 8 3 9 4 10 5 11 6 5 7 4 8 3 9 2 10 1 11
REMARK H PARENT
REMARK Flexibility Score: inf
ROOT
ATOM      1  C   UNL     1      19.236  16.391  35.216  1.00  0.00     0.000 C 
ENDROOT
BRANCH   1   2
ATOM      2  C   UNL     1      17.712  16.567  35.154  1.00  0.00     0.006 C 
BRANCH   2   3
ATOM      3  C   UNL     1      17.168  17.339  36.364  1.00  0.00     0.053 C 
BRANCH   3   4
ATOM      4  C   UNL     1      15.952  16.682  36.942  1.00  0.00     0.041 C 
ATOM      5  O   UNL     1      15.562  16.979  38.101  1.00  0.00    -0.550 OA
ATOM      6  O   UNL     1      15.270  15.715  36.213  1.00  0.00    -0.550 OA
ENDBRANCH   3   4
ENDBRANCH   2   3
ENDBRANCH   1   2
BRANCH   1   7
ATOM      7  C   UNL     1      19.889  17.527  36.012  1.00  0.00     0.000 C 
BRANCH   7   8
ATOM      8  C   UNL     1      20.600  18.515  35.078  1.00  0.00    -0.000 C 
BRANCH   8   9
ATOM      9  C   UNL     1      20.087  19.946  35.298  1.00  0.00    -0.000 C 
BRANCH   9  10
ATOM     10  C   UNL     1      18.887  20.286  34.401  1.00  0.00    -0.003 C 
ATOM     11  C   UNL     1      18.954  19.601  33.038  1.00  0.00     0.004 C 
ENDBRANCH   9  10
ENDBRANCH   8   9
ENDBRANCH   7   8
ENDBRANCH   1   7
TORSDOF 7
ENDMDL
MODEL 8
REMARK VINA RESULT:    -3.870      2.758      4.578
REMARK INTER + INTRA:          -6.061
REMARK INTER:                  -5.392
REMARK INTRA:                  -0.669
REMARK UNBOUND:                -0.608
REMARK SMILES CCCCCCCCC(=O)[O-]
REMARK SMILES IDX 6 1 7 2 8 3 9 4 10 5 11 6 5 7 4 8 3 9 2 10 1 11
REMARK H PARENT
REMARK Flexibility Score: inf
ROOT
ATOM      1  C   UNL     1      20.289  19.461  34.070  1.00  0.00     0.000 C 
ENDROOT
BRANCH   1   2
ATOM      2  C   UNL     1      19.939  20.226  35.355  1.00  0.00     0.006 C 
BRANCH   2   3
ATOM      3  C   UNL     1      20.746  19.731  36.563  1.00  0.00     0.053 C 
BRANCH   3   4
ATOM      4  C   UNL     1      20.297  20.382  37.835  1.00  0.00     0.041 C 
ATOM      5  O   UNL     1      21.121  21.010  38.550  1.00  0.00    -0.550 OA
ATOM      6  O   UNL     1      18.976  20.265  38.249  1.00  0.00    -0.550 OA
ENDBRANCH   3   4
ENDBRANCH   2   3
ENDBRANCH   1   2
BRANCH   1   7
ATOM      7  C   UNL     1      19.031  19.183  33.238  1.00  0.00     0.000 C 
BRANCH   7   8
ATOM      8  C   UNL     1      17.764  19.322  34.092  1.00  0.00    -0.000 C 
BRANCH   8   9
ATOM      9  C   UNL     1      16.877  18.074  33.967  1.00  0.00    -0.000 C 
BRANCH   9  10
ATOM     10  C   UNL     1      17.214  17.003  35.015  1.00  0.00    -0.003 C 
ATOM     11  C   UNL     1      17.474  17.592  36.401  1.00  0.00     0.004 C 
ENDBRANCH   9  10
ENDBRANCH   8   9
ENDBRANCH   7   8
ENDBRANCH   1   7
TORSDOF 7
ENDMDL
MODEL 9
REMARK VINA RESULT:    -3.845     16.276     17.315
REMARK INTER + INTRA:          -6.027
REMARK INTER:                  -5.291
REMARK INTRA:                  -0.736
REMARK UNBOUND:                -0.608
REMARK SMILES CCCCCCCCC(=O)[O-]
REMARK SMILES IDX 6 1 7 2 8 3 9 4 10 5 11 6 5 7 4 8 3 9 2 10 1 11
REMARK H PARENT
REMARK Flexibility Score: inf
ROOT
ATOM      1  C   UNL     1       7.949  31.627  29.377  1.00  0.00     0.000 C 
ENDROOT
BRANCH   1   2
ATOM      2  C   UNL     1       9.058  30.575  29.523  1.00  0.00     0.006 C 
BRANCH   2   3
ATOM      3  C   UNL     1      10.213  31.067  30.406  1.00  0.00     0.053 C 
BRANCH   3   4
ATOM      4  C   UNL     1       9.988  30.739  31.850  1.00  0.00     0.041 C 
ATOM      5  O   UNL     1       9.428  31.572  32.609  1.00  0.00    -0.550 OA
ATOM      6  O   UNL     1      10.428  29.525  32.365  1.00  0.00    -0.550 OA
ENDBRANCH   3   4
ENDBRANCH   2   3
ENDBRANCH   1   2
BRANCH   1   7
ATOM      7  C   UNL     1       8.542  33.016  29.109  1.00  0.00     0.000 C 
BRANCH   7   8
ATOM      8  C   UNL     1       8.653  33.285  27.603  1.00  0.00    -0.000 C 
BRANCH   8   9
ATOM      9  C   UNL     1      10.124  33.338  27.161  1.00  0.00    -0.000 C 
BRANCH   9  10
ATOM     10  C   UNL     1      11.035  33.976  28.221  1.00  0.00    -0.003 C 
ATOM     11  C   UNL     1      12.387  33.273  28.338  1.00  0.00     0.004 C 
ENDBRANCH   9  10
ENDBRANCH   8   9
ENDBRANCH   7   8
ENDBRANCH   1   7
TORSDOF 7
ENDMDL
