MODEL 1
REMARK VINA RESULT:    -4.514      0.000      0.000
REMARK INTER + INTRA:          -4.791
REMARK INTER:                  -4.778
REMARK INTRA:                  -0.013
REMARK UNBOUND:                -0.013
REMARK SMILES O=Cc1ccccc1
REMARK SMILES IDX 6 1 5 2 4 3 3 4 8 5 7 6 2 7 1 8
REMARK H PARENT
REMARK Flexibility Score: inf
ROOT
ATOM      1  C   UNL     1      48.734  58.794  75.043  1.00  0.00     0.000 A 
ATOM      2  C   UNL     1      50.056  59.030  74.655  1.00  0.00     0.001 A 
ATOM      3  C   UNL     1      51.009  59.405  75.606  1.00  0.00     0.011 A 
ATOM      4  C   UNL     1      50.646  59.550  76.956  1.00  0.00     0.014 A 
ATOM      5  C   UNL     1      49.313  59.312  77.337  1.00  0.00     0.011 A 
ATOM      6  C   UNL     1      48.363  58.935  76.382  1.00  0.00     0.001 A 
ENDROOT
BRANCH   4   7
ATOM      7  C   UNL     1      51.664  59.947  77.946  1.00  0.00     0.260 C 
ATOM      8  O   UNL     1      52.710  60.555  77.595  1.00  0.00    -0.298 OA
ENDBRANCH   4   7
TORSDOF 1
ENDMDL
MODEL 2
REMARK VINA RESULT:    -4.445      2.048      3.347
REMARK INTER + INTRA:          -4.718
REMARK INTER:                  -4.705
REMARK INTRA:                  -0.014
REMARK UNBOUND:                -0.013
REMARK SMILES O=Cc1ccccc1
REMARK SMILES IDX 6 1 5 2 4 3 3 4 8 5 7 6 2 7 1 8
REMARK H PARENT
REMARK Flexibility Score: inf
ROOT
ATOM      1  C   UNL     1      53.147  60.157  76.557  1.00  0.00     0.000 A 
ATOM      2  C   UNL     1      52.486  59.697  75.415  1.00  0.00     0.001 A 
ATOM      3  C   UNL     1      51.135  59.343  75.481  1.00  0.00     0.011 A 
ATOM      4  C   UNL     1      50.435  59.444  76.695  1.00  0.00     0.014 A 
ATOM      5  C   UNL     1      51.108  59.907  77.840  1.00  0.00     0.011 A 
ATOM      6  C   UNL     1      52.459  60.262  77.767  1.00  0.00     0.001 A 
ENDROOT
BRANCH   4   7
ATOM      7  C   UNL     1      49.011  59.065  76.748  1.00  0.00     0.260 C 
ATOM      8  O   UNL     1      48.322  58.976  75.698  1.00  0.00    -0.298 OA
ENDBRANCH   4   7
TORSDOF 1
ENDMDL
MODEL 3
REMARK VINA RESULT:    -4.443      2.047      3.654
REMARK INTER + INTRA:          -4.716
REMARK INTER:                  -4.704
REMARK INTRA:                  -0.013
REMARK UNBOUND:                -0.013
REMARK SMILES O=Cc1ccccc1
REMARK SMILES IDX 6 1 5 2 4 3 3 4 8 5 7 6 2 7 1 8
REMARK H PARENT
REMARK Flexibility Score: inf
ROOT
ATOM      1  C   UNL     1      53.145  60.172  76.636  1.00  0.00     0.000 A 
ATOM      2  C   UNL     1      52.418  60.254  77.827  1.00  0.00     0.001 A 
ATOM      3  C   UNL     1      51.071  59.883  77.855  1.00  0.00     0.011 A 
ATOM      4  C   UNL     1      50.438  59.426  76.687  1.00  0.00     0.014 A 
ATOM      5  C   UNL     1      51.175  59.347  75.491  1.00  0.00     0.011 A 
ATOM      6  C   UNL     1      52.524  59.719  75.470  1.00  0.00     0.001 A 
ENDROOT
BRANCH   4   7
ATOM      7  C   UNL     1      49.016  59.039  76.732  1.00  0.00     0.260 C 
ATOM      8  O   UNL     1      48.331  58.954  75.679  1.00  0.00    -0.298 OA
ENDBRANCH   4   7
TORSDOF 1
ENDMDL
MODEL 4
REMARK VINA RESULT:    -4.386      2.169      3.879
REMARK INTER + INTRA:          -4.656
REMARK INTER:                  -4.642
REMARK INTRA:                  -0.014
REMARK UNBOUND:                -0.013
REMARK SMILES O=Cc1ccccc1
REMARK SMILES IDX 6 1 5 2 4 3 3 4 8 5 7 6 2 7 1 8
REMARK H PARENT
REMARK Flexibility Score: inf
ROOT
ATOM      1  C   UNL     1      52.384  60.223  77.947  1.00  0.00     0.000 A 
ATOM      2  C   UNL     1      51.029  59.886  77.910  1.00  0.00     0.001 A 
ATOM      3  C   UNL     1      50.437  59.484  76.709  1.00  0.00     0.011 A 
ATOM      4  C   UNL     1      51.200  59.419  75.531  1.00  0.00     0.014 A 
ATOM      5  C   UNL     1      52.564  59.762  75.575  1.00  0.00     0.011 A 
ATOM      6  C   UNL     1      53.150  60.161  76.781  1.00  0.00     0.001 A 
ENDROOT
BRANCH   4   7
ATOM      7  C   UNL     1      50.561  58.994  74.272  1.00  0.00     0.260 C 
ATOM      8  O   UNL     1      49.456  58.390  74.275  1.00  0.00    -0.298 OA
ENDBRANCH   4   7
TORSDOF 1
ENDMDL
MODEL 5
REMARK VINA RESULT:    -4.317      6.350      6.932
REMARK INTER + INTRA:          -4.583
REMARK INTER:                  -4.572
REMARK INTRA:                  -0.011
REMARK UNBOUND:                -0.013
REMARK SMILES O=Cc1ccccc1
REMARK SMILES IDX 6 1 5 2 4 3 3 4 8 5 7 6 2 7 1 8
REMARK H PARENT
REMARK Flexibility Score: inf
ROOT
ATOM      1  C   UNL     1      50.037  52.274  77.375  1.00  0.00     0.000 A 
ATOM      2  C   UNL     1      51.002  53.077  76.760  1.00  0.00     0.001 A 
ATOM      3  C   UNL     1      50.710  53.726  75.556  1.00  0.00     0.011 A 
ATOM      4  C   UNL     1      49.449  53.576  74.957  1.00  0.00     0.014 A 
ATOM      5  C   UNL     1      48.483  52.766  75.582  1.00  0.00     0.011 A 
ATOM      6  C   UNL     1      48.780  52.119  76.787  1.00  0.00     0.001 A 
ENDROOT
BRANCH   4   7
ATOM      7  C   UNL     1      49.158  54.268  73.688  1.00  0.00     0.260 C 
ATOM      8  O   UNL     1      48.067  54.872  73.512  1.00  0.00    -0.298 OA
ENDBRANCH   4   7
TORSDOF 1
ENDMDL
MODEL 6
REMARK VINA RESULT:    -4.311      0.954      2.007
REMARK INTER + INTRA:          -4.576
REMARK INTER:                  -4.564
REMARK INTRA:                  -0.012
REMARK UNBOUND:                -0.013
REMARK SMILES O=Cc1ccccc1
REMARK SMILES IDX 6 1 5 2 4 3 3 4 8 5 7 6 2 7 1 8
REMARK H PARENT
REMARK Flexibility Score: inf
ROOT
ATOM      1  C   UNL     1      48.785  58.986  76.430  1.00  0.00     0.000 A 
ATOM      2  C   UNL     1      49.139  59.349  77.733  1.00  0.00     0.001 A 
ATOM      3  C   UNL     1      50.450  59.739  78.021  1.00  0.00     0.011 A 
ATOM      4  C   UNL     1      51.421  59.767  77.006  1.00  0.00     0.014 A 
ATOM      5  C   UNL     1      51.057  59.399  75.697  1.00  0.00     0.011 A 
ATOM      6  C   UNL     1      49.743  59.011  75.414  1.00  0.00     0.001 A 
ENDROOT
BRANCH   4   7
ATOM      7  C   UNL     1      52.799  60.180  77.327  1.00  0.00     0.260 C 
ATOM      8  O   UNL     1      53.771  59.813  76.614  1.00  0.00    -0.298 OA
ENDBRANCH   4   7
TORSDOF 1
ENDMDL
MODEL 7
REMARK VINA RESULT:    -4.294     11.892     12.676
REMARK INTER + INTRA:          -4.558
REMARK INTER:                  -4.545
REMARK INTRA:                  -0.013
REMARK UNBOUND:                -0.013
REMARK SMILES O=Cc1ccccc1
REMARK SMILES IDX 6 1 5 2 4 3 3 4 8 5 7 6 2 7 1 8
REMARK H PARENT
REMARK Flexibility Score: inf
ROOT
ATOM      1  C   UNL     1      45.550  51.451  85.212  1.00  0.00     0.000 A 
ATOM      2  C   UNL     1      45.331  52.179  86.385  1.00  0.00     0.001 A 
ATOM      3  C   UNL     1      44.574  53.354  86.351  1.00  0.00     0.011 A 
ATOM      4  C   UNL     1      44.030  53.811  85.139  1.00  0.00     0.014 A 
ATOM      5  C   UNL     1      44.255  53.073  83.963  1.00  0.00     0.011 A 
ATOM      6  C   UNL     1      45.012  51.897  84.003  1.00  0.00     0.001 A 
ENDROOT
BRANCH   4   7
ATOM      7  C   UNL     1      43.234  55.052  85.120  1.00  0.00     0.260 C 
ATOM      8  O   UNL     1      42.651  55.467  86.157  1.00  0.00    -0.298 OA
ENDBRANCH   4   7
TORSDOF 1
ENDMDL
MODEL 8
REMARK VINA RESULT:    -4.282      1.973      3.089
REMARK INTER + INTRA:          -4.545
REMARK INTER:                  -4.536
REMARK INTRA:                  -0.009
REMARK UNBOUND:                -0.013
REMARK SMILES O=Cc1ccccc1
REMARK SMILES IDX 6 1 5 2 4 3 3 4 8 5 7 6 2 7 1 8
REMARK H PARENT
REMARK Flexibility Score: inf
ROOT
ATOM      1  C   UNL     1      50.480  59.738  78.037  1.00  0.00     0.000 A 
ATOM      2  C   UNL     1      51.825  60.027  77.792  1.00  0.00     0.001 A 
ATOM      3  C   UNL     1      52.353  59.875  76.507  1.00  0.00     0.011 A 
ATOM      4  C   UNL     1      51.537  59.431  75.453  1.00  0.00     0.014 A 
ATOM      5  C   UNL     1      50.184  59.142  75.707  1.00  0.00     0.011 A 
ATOM      6  C   UNL     1      49.661  59.297  76.995  1.00  0.00     0.001 A 
ENDROOT
BRANCH   4   7
ATOM      7  C   UNL     1      52.110  59.276  74.104  1.00  0.00     0.260 C 
ATOM      8  O   UNL     1      52.157  58.149  73.542  1.00  0.00    -0.298 OA
ENDBRANCH   4   7
TORSDOF 1
ENDMDL
MODEL 9
REMARK VINA RESULT:    -4.246     10.897     11.919
REMARK INTER + INTRA:          -4.507
REMARK INTER:                  -4.495
REMARK INTRA:                  -0.012
REMARK UNBOUND:                -0.013
REMARK SMILES O=Cc1ccccc1
REMARK SMILES IDX 6 1 5 2 4 3 3 4 8 5 7 6 2 7 1 8
REMARK H PARENT
REMARK Flexibility Score: inf
ROOT
ATOM      1  C   UNL     1      55.912  59.604  85.935  1.00  0.00     0.000 A 
ATOM      2  C   UNL     1      56.467  59.300  84.689  1.00  0.00     0.001 A 
ATOM      3  C   UNL     1      57.222  58.136  84.522  1.00  0.00     0.011 A 
ATOM      4  C   UNL     1      57.430  57.265  85.604  1.00  0.00     0.014 A 
ATOM      5  C   UNL     1      56.869  57.578  86.856  1.00  0.00     0.011 A 
ATOM      6  C   UNL     1      56.113  58.744  87.017  1.00  0.00     0.001 A 
ENDROOT
BRANCH   4   7
ATOM      7  C   UNL     1      58.229  56.041  85.412  1.00  0.00     0.260 C 
ATOM      8  O   UNL     1      58.759  55.449  86.390  1.00  0.00    -0.298 OA
ENDBRANCH   4   7
TORSDOF 1
ENDMDL
