MODEL 1
REMARK VINA RESULT:   128.350      0.000      0.000
REMARK INTER + INTRA:         147.026
REMARK INTER:                 147.108
REMARK INTRA:                  -0.082
REMARK UNBOUND:                -0.082
REMARK SMILES CC1(C)CC[C@]23CO[C@@]4(C=C[C@@H]5[C@]6(C)CC[C@@H](O)[C@@](C)(CO)[C@H]6CC[C@]5(C)[C@]4(C)C[C@H]2O)[C@H]3C1
REMARK SMILES IDX 1 1 2 2 4 3 5 4 6 5 7 6 8 7 9 8 33 9 34 10 10 11 11 12 12 13
REMARK SMILES IDX 13 14 15 15 16 16 17 17 19 18 23 19 24 20 25 21 26 22 28 23
REMARK SMILES IDX 30 24 31 25 29 26 27 27 20 28 14 29 3 30 32 31 21 33 22 34
REMARK SMILES IDX 18 36
REMARK H PARENT 32 32 22 35 18 37
REMARK Flexibility Score: inf
ROOT
ATOM      1  C   UNL     1       8.941  93.501   1.730  1.00  0.00     0.011 C 
ATOM      2  C   UNL     1       8.451  94.969   1.707  1.00  0.00    -0.035 C 
ATOM      3  C   UNL     1       7.464  95.211   0.545  1.00  0.00     0.007 C 
ATOM      4  C   UNL     1       8.135  95.095  -0.828  1.00  0.00     0.013 C 
ATOM      5  C   UNL     1       9.445  95.922  -0.981  1.00  0.00     0.026 C 
ATOM      6  C   UNL     1       9.180  97.434  -1.047  1.00  0.00     0.171 C 
ATOM      7  O   UNL     1      10.294  98.104  -0.486  1.00  0.00    -0.369 OA
ATOM      8  C   UNL     1      11.245  97.123  -0.125  1.00  0.00     0.096 C 
ATOM      9  C   UNL     1      10.395  95.860   0.206  1.00  0.00     0.037 C 
ATOM     10  C   UNL     1       9.644  95.948   1.575  1.00  0.00     0.014 C 
ATOM     11  C   UNL     1      12.028  97.642   1.058  1.00  0.00     0.005 C 
ATOM     12  C   UNL     1      13.117  98.404   0.926  1.00  0.00    -0.024 C 
ATOM     13  C   UNL     1      13.708  98.908  -0.392  1.00  0.00     0.024 C 
ATOM     14  C   UNL     1      13.885 100.495  -0.399  1.00  0.00    -0.022 C 
ATOM     15  C   UNL     1      14.501 100.999   0.958  1.00  0.00     0.010 C 
ATOM     16  C   UNL     1      14.413 102.513   1.159  1.00  0.00     0.033 C 
ATOM     17  C   UNL     1      12.939 102.947   1.133  1.00  0.00     0.123 C 
ATOM     18  C   UNL     1      12.256 102.663  -0.246  1.00  0.00     0.020 C 
ATOM     19  C   UNL     1      12.456 101.123  -0.624  1.00  0.00     0.006 C 
ATOM     20  C   UNL     1      11.932 100.767  -2.027  1.00  0.00     0.005 C 
ATOM     21  C   UNL     1      12.035  99.280  -2.442  1.00  0.00     0.008 C 
ATOM     22  C   UNL     1      13.019  98.271  -1.699  1.00  0.00    -0.017 C 
ATOM     23  C   UNL     1      12.265  96.873  -1.329  1.00  0.00     0.009 C 
ATOM     24  C   UNL     1      11.508  96.254  -2.578  1.00  0.00     0.043 C 
ATOM     25  C   UNL     1      10.199  95.461  -2.276  1.00  0.00     0.124 C 
ATOM     26  C   UNL     1      13.341  95.804  -0.893  1.00  0.00     0.015 C 
ATOM     27  C   UNL     1      14.153  97.951  -2.736  1.00  0.00     0.013 C 
ATOM     28  C   UNL     1      10.738 102.953  -0.039  1.00  0.00     0.017 C 
ATOM     29  C   UNL     1      14.925 100.875  -1.504  1.00  0.00     0.012 C 
ATOM     30  C   UNL     1       7.721  95.245   3.042  1.00  0.00     0.011 C 
ENDROOT
BRANCH  25  31
ATOM     31  O   UNL     1      10.428  94.068  -2.267  1.00  0.00    -0.392 OA
ATOM     32  H   UNL     1       9.561  93.594  -2.211  1.00  0.00     0.210 HD
ENDBRANCH  25  31
BRANCH  18  33
ATOM     33  C   UNL     1      12.801 103.654  -1.338  1.00  0.00     0.165 C 
BRANCH  33  34
ATOM     34  O   UNL     1      12.732 104.999  -0.926  1.00  0.00    -0.396 OA
ATOM     35  H   UNL     1      13.641 105.262  -0.607  1.00  0.00     0.210 HD
ENDBRANCH  33  34
ENDBRANCH  18  33
BRANCH  17  36
ATOM     36  O   UNL     1      12.777 104.287   1.540  1.00  0.00    -0.392 OA
ATOM     37  H   UNL     1      12.787 104.877   0.744  1.00  0.00     0.210 HD
ENDBRANCH  17  36
TORSDOF 4
ENDMDL
MODEL 2
REMARK VINA RESULT:   130.279      2.840      7.066
REMARK INTER + INTRA:         149.237
REMARK INTER:                 149.275
REMARK INTRA:                  -0.038
REMARK UNBOUND:                -0.082
REMARK SMILES CC1(C)CC[C@]23CO[C@@]4(C=C[C@@H]5[C@]6(C)CC[C@@H](O)[C@@](C)(CO)[C@H]6CC[C@]5(C)[C@]4(C)C[C@H]2O)[C@H]3C1
REMARK SMILES IDX 1 1 2 2 4 3 5 4 6 5 7 6 8 7 9 8 33 9 34 10 10 11 11 12 12 13
REMARK SMILES IDX 13 14 15 15 16 16 17 17 19 18 23 19 24 20 25 21 26 22 28 23
REMARK SMILES IDX 30 24 31 25 29 26 27 27 20 28 14 29 3 30 32 31 21 33 22 34
REMARK SMILES IDX 18 36
REMARK H PARENT 32 32 22 35 18 37
REMARK Flexibility Score: inf
ROOT
ATOM      1  C   UNL     1      17.091  95.580  -2.259  1.00  0.00     0.011 C 
ATOM      2  C   UNL     1      15.938  94.547  -2.197  1.00  0.00    -0.035 C 
ATOM      3  C   UNL     1      15.291  94.349  -3.584  1.00  0.00     0.007 C 
ATOM      4  C   UNL     1      14.551  95.600  -4.072  1.00  0.00     0.013 C 
ATOM      5  C   UNL     1      13.560  96.210  -3.037  1.00  0.00     0.026 C 
ATOM      6  C   UNL     1      12.310  95.339  -2.837  1.00  0.00     0.171 C 
ATOM      7  O   UNL     1      11.860  95.510  -1.505  1.00  0.00    -0.369 OA
ATOM      8  C   UNL     1      12.707  96.457  -0.886  1.00  0.00     0.096 C 
ATOM      9  C   UNL     1      14.077  96.285  -1.608  1.00  0.00     0.037 C 
ATOM     10  C   UNL     1      14.851  94.993  -1.187  1.00  0.00     0.014 C 
ATOM     11  C   UNL     1      12.766  96.139   0.590  1.00  0.00     0.005 C 
ATOM     12  C   UNL     1      11.877  96.614   1.467  1.00  0.00    -0.024 C 
ATOM     13  C   UNL     1      10.664  97.484   1.136  1.00  0.00     0.024 C 
ATOM     14  C   UNL     1       9.308  96.857   1.703  1.00  0.00    -0.022 C 
ATOM     15  C   UNL     1       9.499  96.337   3.175  1.00  0.00     0.010 C 
ATOM     16  C   UNL     1       8.358  95.450   3.676  1.00  0.00     0.033 C 
ATOM     17  C   UNL     1       8.232  94.218   2.766  1.00  0.00     0.123 C 
ATOM     18  C   UNL     1       7.857  94.598   1.294  1.00  0.00     0.020 C 
ATOM     19  C   UNL     1       8.908  95.671   0.744  1.00  0.00     0.006 C 
ATOM     20  C   UNL     1       8.553  96.209  -0.653  1.00  0.00     0.005 C 
ATOM     21  C   UNL     1       9.556  97.207  -1.279  1.00  0.00     0.008 C 
ATOM     22  C   UNL     1      10.622  97.990  -0.390  1.00  0.00    -0.017 C 
ATOM     23  C   UNL     1      12.109  97.928  -1.057  1.00  0.00     0.009 C 
ATOM     24  C   UNL     1      12.094  98.346  -2.588  1.00  0.00     0.043 C 
ATOM     25  C   UNL     1      13.135  97.642  -3.512  1.00  0.00     0.124 C 
ATOM     26  C   UNL     1      13.047  98.966  -0.327  1.00  0.00     0.015 C 
ATOM     27  C   UNL     1      10.151  99.487  -0.392  1.00  0.00     0.013 C 
ATOM     28  C   UNL     1       7.981  93.281   0.468  1.00  0.00     0.017 C 
ATOM     29  C   UNL     1       8.234  97.992   1.789  1.00  0.00     0.012 C 
ATOM     30  C   UNL     1      16.534  93.200  -1.731  1.00  0.00     0.011 C 
ENDROOT
BRANCH  25  31
ATOM     31  O   UNL     1      14.261  98.462  -3.742  1.00  0.00    -0.392 OA
ATOM     32  H   UNL     1      14.326  99.138  -3.022  1.00  0.00     0.210 HD
ENDBRANCH  25  31
BRANCH  18  33
ATOM     33  C   UNL     1       6.365  95.086   1.221  1.00  0.00     0.165 C 
BRANCH  33  34
ATOM     34  O   UNL     1       5.482  94.220   1.896  1.00  0.00    -0.396 OA
ATOM     35  H   UNL     1       4.631  94.718   2.049  1.00  0.00     0.210 HD
ENDBRANCH  33  34
ENDBRANCH  18  33
BRANCH  17  36
ATOM     36  O   UNL     1       7.358  93.253   3.304  1.00  0.00    -0.392 OA
ATOM     37  H   UNL     1       7.348  92.453   2.719  1.00  0.00     0.210 HD
ENDBRANCH  17  36
TORSDOF 4
ENDMDL
