MODEL 1
REMARK VINA RESULT:    -2.154      0.000      0.000
REMARK INTER + INTRA:          -5.560
REMARK INTER:                  -3.665
REMARK INTRA:                  -1.895
REMARK UNBOUND:                -1.895
REMARK SMILES CCCCCCCCCCCCCC(=O)[O-]
REMARK SMILES IDX 8 1 9 2 10 3 11 4 12 5 13 6 14 7 15 8 16 9 7 10 6 11 5 12
REMARK SMILES IDX 4 13 3 14 2 15 1 16
REMARK H PARENT
REMARK Flexibility Score: inf
ROOT
ATOM      1  C   UNL     1      -2.392   9.833  -8.381  1.00  0.00     0.000 C 
ENDROOT
BRANCH   1   2
ATOM      2  C   UNL     1      -1.108   9.024  -8.628  1.00  0.00     0.000 C 
BRANCH   2   3
ATOM      3  C   UNL     1      -0.621   9.198 -10.074  1.00  0.00     0.000 C 
BRANCH   3   4
ATOM      4  C   UNL     1       0.698   9.981 -10.167  1.00  0.00     0.000 C 
BRANCH   4   5
ATOM      5  C   UNL     1       0.485  11.459 -10.541  1.00  0.00     0.006 C 
BRANCH   5   6
ATOM      6  C   UNL     1       0.713  12.397  -9.347  1.00  0.00     0.053 C 
BRANCH   6   7
ATOM      7  C   UNL     1      -0.569  12.999  -8.859  1.00  0.00     0.041 C 
ATOM      8  O   UNL     1      -1.441  13.386  -9.683  1.00  0.00    -0.550 OA
ATOM      9  O   UNL     1      -0.814  13.107  -7.496  1.00  0.00    -0.550 OA
ENDBRANCH   6   7
ENDBRANCH   5   6
ENDBRANCH   4   5
ENDBRANCH   3   4
ENDBRANCH   2   3
ENDBRANCH   1   2
BRANCH   1  10
ATOM     10  C   UNL     1      -3.098  10.236  -9.686  1.00  0.00     0.000 C 
BRANCH  10  11
ATOM     11  C   UNL     1      -4.401   9.452  -9.919  1.00  0.00    -0.000 C 
BRANCH  11  12
ATOM     12  C   UNL     1      -4.913   8.751  -8.646  1.00  0.00    -0.000 C 
BRANCH  12  13
ATOM     13  C   UNL     1      -4.988   7.216  -8.732  1.00  0.00    -0.000 C 
BRANCH  13  14
ATOM     14  C   UNL     1      -3.882   6.517  -7.924  1.00  0.00    -0.000 C 
BRANCH  14  15
ATOM     15  C   UNL     1      -3.048   5.550  -8.779  1.00  0.00    -0.003 C 
ATOM     16  C   UNL     1      -2.747   6.105 -10.171  1.00  0.00     0.004 C 
ENDBRANCH  14  15
ENDBRANCH  13  14
ENDBRANCH  12  13
ENDBRANCH  11  12
ENDBRANCH  10  11
ENDBRANCH   1  10
TORSDOF 12
ENDMDL
MODEL 2
REMARK VINA RESULT:    -2.143      6.197      8.732
REMARK INTER + INTRA:          -5.541
REMARK INTER:                  -3.560
REMARK INTRA:                  -1.981
REMARK UNBOUND:                -1.895
REMARK SMILES CCCCCCCCCCCCCC(=O)[O-]
REMARK SMILES IDX 8 1 9 2 10 3 11 4 12 5 13 6 14 7 15 8 16 9 7 10 6 11 5 12
REMARK SMILES IDX 4 13 3 14 2 15 1 16
REMARK H PARENT
REMARK Flexibility Score: inf
ROOT
ATOM      1  C   UNL     1       1.191  17.194  -2.015  1.00  0.00     0.000 C 
ENDROOT
BRANCH   1   2
ATOM      2  C   UNL     1       1.737  17.314  -3.447  1.00  0.00     0.000 C 
BRANCH   2   3
ATOM      3  C   UNL     1       2.118  15.934  -4.006  1.00  0.00     0.000 C 
BRANCH   3   4
ATOM      4  C   UNL     1       1.088  15.395  -5.011  1.00  0.00     0.000 C 
BRANCH   4   5
ATOM      5  C   UNL     1       1.166  13.867  -5.178  1.00  0.00     0.006 C 
BRANCH   5   6
ATOM      6  C   UNL     1      -0.118  13.284  -5.784  1.00  0.00     0.053 C 
BRANCH   6   7
ATOM      7  C   UNL     1      -0.030  13.174  -7.275  1.00  0.00     0.041 C 
ATOM      8  O   UNL     1      -1.062  12.925  -7.954  1.00  0.00    -0.550 OA
ATOM      9  O   UNL     1       1.185  13.374  -7.918  1.00  0.00    -0.550 OA
ENDBRANCH   6   7
ENDBRANCH   5   6
ENDBRANCH   4   5
ENDBRANCH   3   4
ENDBRANCH   2   3
ENDBRANCH   1   2
BRANCH   1  10
ATOM     10  C   UNL     1      -0.342  17.101  -1.970  1.00  0.00     0.000 C 
BRANCH  10  11
ATOM     11  C   UNL     1      -0.836  15.806  -1.301  1.00  0.00    -0.000 C 
BRANCH  11  12
ATOM     12  C   UNL     1      -1.286  14.741  -2.319  1.00  0.00    -0.000 C 
BRANCH  12  13
ATOM     13  C   UNL     1      -0.846  13.302  -1.994  1.00  0.00    -0.000 C 
BRANCH  13  14
ATOM     14  C   UNL     1       0.473  13.243  -1.205  1.00  0.00    -0.000 C 
BRANCH  14  15
ATOM     15  C   UNL     1       1.540  12.388  -1.905  1.00  0.00    -0.003 C 
ATOM     16  C   UNL     1       2.919  13.046  -1.900  1.00  0.00     0.004 C 
ENDBRANCH  14  15
ENDBRANCH  13  14
ENDBRANCH  12  13
ENDBRANCH  11  12
ENDBRANCH  10  11
ENDBRANCH   1  10
TORSDOF 12
ENDMDL
MODEL 3
REMARK VINA RESULT:    -2.142      1.864      3.189
REMARK INTER + INTRA:          -5.540
REMARK INTER:                  -3.691
REMARK INTRA:                  -1.849
REMARK UNBOUND:                -1.895
REMARK SMILES CCCCCCCCCCCCCC(=O)[O-]
REMARK SMILES IDX 8 1 9 2 10 3 11 4 12 5 13 6 14 7 15 8 16 9 7 10 6 11 5 12
REMARK SMILES IDX 4 13 3 14 2 15 1 16
REMARK H PARENT
REMARK Flexibility Score: inf
ROOT
ATOM      1  C   UNL     1      -3.174   9.762 -11.994  1.00  0.00     0.000 C 
ENDROOT
BRANCH   1   2
ATOM      2  C   UNL     1      -2.307  11.000 -12.276  1.00  0.00     0.000 C 
BRANCH   2   3
ATOM      3  C   UNL     1      -3.169  12.270 -12.335  1.00  0.00     0.000 C 
BRANCH   3   4
ATOM      4  C   UNL     1      -2.776  13.306 -11.269  1.00  0.00     0.000 C 
BRANCH   4   5
ATOM      5  C   UNL     1      -1.883  12.710 -10.166  1.00  0.00     0.006 C 
BRANCH   5   6
ATOM      6  C   UNL     1      -0.597  13.522  -9.961  1.00  0.00     0.053 C 
BRANCH   6   7
ATOM      7  C   UNL     1      -0.053  13.365  -8.574  1.00  0.00     0.041 C 
ATOM      8  O   UNL     1      -0.803  12.970  -7.641  1.00  0.00    -0.550 OA
ATOM      9  O   UNL     1       1.287  13.626  -8.317  1.00  0.00    -0.550 OA
ENDBRANCH   6   7
ENDBRANCH   5   6
ENDBRANCH   4   5
ENDBRANCH   3   4
ENDBRANCH   2   3
ENDBRANCH   1   2
BRANCH   1  10
ATOM     10  C   UNL     1      -4.537  10.120 -11.379  1.00  0.00     0.000 C 
BRANCH  10  11
ATOM     11  C   UNL     1      -4.786   9.404 -10.040  1.00  0.00    -0.000 C 
BRANCH  11  12
ATOM     12  C   UNL     1      -3.563   9.441  -9.104  1.00  0.00    -0.000 C 
BRANCH  12  13
ATOM     13  C   UNL     1      -2.967   8.066  -8.755  1.00  0.00    -0.000 C 
BRANCH  13  14
ATOM     14  C   UNL     1      -1.434   8.094  -8.623  1.00  0.00    -0.000 C 
BRANCH  14  15
ATOM     15  C   UNL     1      -0.867   9.522  -8.651  1.00  0.00    -0.003 C 
ATOM     16  C   UNL     1       0.183   9.717  -9.744  1.00  0.00     0.004 C 
ENDBRANCH  14  15
ENDBRANCH  13  14
ENDBRANCH  12  13
ENDBRANCH  11  12
ENDBRANCH  10  11
ENDBRANCH   1  10
TORSDOF 12
ENDMDL
MODEL 4
REMARK VINA RESULT:    -2.138      8.314     10.648
REMARK INTER + INTRA:          -5.532
REMARK INTER:                  -3.655
REMARK INTRA:                  -1.878
REMARK UNBOUND:                -1.895
REMARK SMILES CCCCCCCCCCCCCC(=O)[O-]
REMARK SMILES IDX 8 1 9 2 10 3 11 4 12 5 13 6 14 7 15 8 16 9 7 10 6 11 5 12
REMARK SMILES IDX 4 13 3 14 2 15 1 16
REMARK H PARENT
REMARK Flexibility Score: inf
ROOT
ATOM      1  C   UNL     1      -1.242  15.147  -2.030  1.00  0.00     0.000 C 
ENDROOT
BRANCH   1   2
ATOM      2  C   UNL     1      -1.928  13.824  -1.653  1.00  0.00     0.000 C 
BRANCH   2   3
ATOM      3  C   UNL     1      -1.660  13.468  -0.182  1.00  0.00     0.000 C 
BRANCH   3   4
ATOM      4  C   UNL     1      -2.095  12.037   0.171  1.00  0.00     0.000 C 
BRANCH   4   5
ATOM      5  C   UNL     1      -0.975  11.226   0.847  1.00  0.00     0.006 C 
BRANCH   5   6
ATOM      6  C   UNL     1      -1.117   9.719   0.594  1.00  0.00     0.053 C 
BRANCH   6   7
ATOM      7  C   UNL     1       0.202   9.013   0.676  1.00  0.00     0.041 C 
ATOM      8  O   UNL     1       0.903   9.100   1.719  1.00  0.00    -0.550 OA
ATOM      9  O   UNL     1       0.643   8.237  -0.388  1.00  0.00    -0.550 OA
ENDBRANCH   6   7
ENDBRANCH   5   6
ENDBRANCH   4   5
ENDBRANCH   3   4
ENDBRANCH   2   3
ENDBRANCH   1   2
BRANCH   1  10
ATOM     10  C   UNL     1      -0.078  14.951  -3.015  1.00  0.00     0.000 C 
BRANCH  10  11
ATOM     11  C   UNL     1      -0.037  13.530  -3.604  1.00  0.00    -0.000 C 
BRANCH  11  12
ATOM     12  C   UNL     1       1.287  12.799  -3.311  1.00  0.00    -0.000 C 
BRANCH  12  13
ATOM     13  C   UNL     1       1.424  12.245  -1.882  1.00  0.00    -0.000 C 
BRANCH  13  14
ATOM     14  C   UNL     1       2.479  12.992  -1.049  1.00  0.00    -0.000 C 
BRANCH  14  15
ATOM     15  C   UNL     1       1.897  13.589   0.241  1.00  0.00    -0.003 C 
ATOM     16  C   UNL     1       1.781  15.112   0.186  1.00  0.00     0.004 C 
ENDBRANCH  14  15
ENDBRANCH  13  14
ENDBRANCH  12  13
ENDBRANCH  11  12
ENDBRANCH  10  11
ENDBRANCH   1  10
TORSDOF 12
ENDMDL
MODEL 5
REMARK VINA RESULT:    -2.136      8.553     10.860
REMARK INTER + INTRA:          -5.529
REMARK INTER:                  -3.658
REMARK INTRA:                  -1.871
REMARK UNBOUND:                -1.895
REMARK SMILES CCCCCCCCCCCCCC(=O)[O-]
REMARK SMILES IDX 8 1 9 2 10 3 11 4 12 5 13 6 14 7 15 8 16 9 7 10 6 11 5 12
REMARK SMILES IDX 4 13 3 14 2 15 1 16
REMARK H PARENT
REMARK Flexibility Score: inf
ROOT
ATOM      1  C   UNL     1       0.837  12.758   0.283  1.00  0.00     0.000 C 
ENDROOT
BRANCH   1   2
ATOM      2  C   UNL     1      -0.533  12.622   0.967  1.00  0.00     0.000 C 
BRANCH   2   3
ATOM      3  C   UNL     1      -1.559  11.987   0.017  1.00  0.00     0.000 C 
BRANCH   3   4
ATOM      4  C   UNL     1      -2.152  10.680   0.570  1.00  0.00     0.000 C 
BRANCH   4   5
ATOM      5  C   UNL     1      -1.417  10.182   1.828  1.00  0.00     0.006 C 
BRANCH   5   6
ATOM      6  C   UNL     1      -0.813   8.785   1.630  1.00  0.00     0.053 C 
BRANCH   6   7
ATOM      7  C   UNL     1       0.476   8.839   0.868  1.00  0.00     0.041 C 
ATOM      8  O   UNL     1       1.478   9.423   1.359  1.00  0.00    -0.550 OA
ATOM      9  O   UNL     1       0.579   8.220  -0.371  1.00  0.00    -0.550 OA
ENDBRANCH   6   7
ENDBRANCH   5   6
ENDBRANCH   4   5
ENDBRANCH   3   4
ENDBRANCH   2   3
ENDBRANCH   1   2
BRANCH   1  10
ATOM     10  C   UNL     1       0.915  11.987  -1.044  1.00  0.00     0.000 C 
BRANCH  10  11
ATOM     11  C   UNL     1       1.594  12.801  -2.160  1.00  0.00    -0.000 C 
BRANCH  11  12
ATOM     12  C   UNL     1       0.679  13.024  -3.379  1.00  0.00    -0.000 C 
BRANCH  12  13
ATOM     13  C   UNL     1      -0.636  13.766  -3.081  1.00  0.00    -0.000 C 
BRANCH  13  14
ATOM     14  C   UNL     1      -0.419  15.244  -2.715  1.00  0.00    -0.000 C 
BRANCH  14  15
ATOM     15  C   UNL     1      -0.911  15.578  -1.298  1.00  0.00    -0.003 C 
ATOM     16  C   UNL     1      -2.414  15.850  -1.245  1.00  0.00     0.004 C 
ENDBRANCH  14  15
ENDBRANCH  13  14
ENDBRANCH  12  13
ENDBRANCH  11  12
ENDBRANCH  10  11
ENDBRANCH   1  10
TORSDOF 12
ENDMDL
MODEL 6
REMARK VINA RESULT:    -2.126      6.068      8.266
REMARK INTER + INTRA:          -5.512
REMARK INTER:                  -3.882
REMARK INTRA:                  -1.630
REMARK UNBOUND:                -1.895
REMARK SMILES CCCCCCCCCCCCCC(=O)[O-]
REMARK SMILES IDX 8 1 9 2 10 3 11 4 12 5 13 6 14 7 15 8 16 9 7 10 6 11 5 12
REMARK SMILES IDX 4 13 3 14 2 15 1 16
REMARK H PARENT
REMARK Flexibility Score: inf
ROOT
ATOM      1  C   UNL     1       0.816  14.543  -4.071  1.00  0.00     0.000 C 
ENDROOT
BRANCH   1   2
ATOM      2  C   UNL     1      -0.262  13.545  -4.523  1.00  0.00     0.000 C 
BRANCH   2   3
ATOM      3  C   UNL     1      -0.102  13.203  -6.012  1.00  0.00     0.000 C 
BRANCH   3   4
ATOM      4  C   UNL     1       1.329  13.431  -6.523  1.00  0.00     0.000 C 
BRANCH   4   5
ATOM      5  C   UNL     1       1.975  12.145  -7.071  1.00  0.00     0.006 C 
BRANCH   5   6
ATOM      6  C   UNL     1       3.275  11.793  -6.336  1.00  0.00     0.053 C 
BRANCH   6   7
ATOM      7  C   UNL     1       3.193  10.454  -5.669  1.00  0.00     0.041 C 
ATOM      8  O   UNL     1       3.005   9.415  -6.356  1.00  0.00    -0.550 OA
ATOM      9  O   UNL     1       3.352  10.351  -4.293  1.00  0.00    -0.550 OA
ENDBRANCH   6   7
ENDBRANCH   5   6
ENDBRANCH   4   5
ENDBRANCH   3   4
ENDBRANCH   2   3
ENDBRANCH   1   2
BRANCH   1  10
ATOM     10  C   UNL     1       1.497  14.126  -2.757  1.00  0.00     0.000 C 
BRANCH  10  11
ATOM     11  C   UNL     1       1.355  12.620  -2.472  1.00  0.00    -0.000 C 
BRANCH  11  12
ATOM     12  C   UNL     1       0.707  12.328  -1.105  1.00  0.00    -0.000 C 
BRANCH  12  13
ATOM     13  C   UNL     1      -0.322  13.373  -0.635  1.00  0.00    -0.000 C 
BRANCH  13  14
ATOM     14  C   UNL     1      -1.744  13.084  -1.145  1.00  0.00    -0.000 C 
BRANCH  14  15
ATOM     15  C   UNL     1      -2.570  14.364  -1.343  1.00  0.00    -0.003 C 
ATOM     16  C   UNL     1      -1.698  15.607  -1.513  1.00  0.00     0.004 C 
ENDBRANCH  14  15
ENDBRANCH  13  14
ENDBRANCH  12  13
ENDBRANCH  11  12
ENDBRANCH  10  11
ENDBRANCH   1  10
TORSDOF 12
ENDMDL
MODEL 7
REMARK VINA RESULT:    -2.099      2.064      3.650
REMARK INTER + INTRA:          -5.466
REMARK INTER:                  -3.374
REMARK INTRA:                  -2.091
REMARK UNBOUND:                -1.895
REMARK SMILES CCCCCCCCCCCCCC(=O)[O-]
REMARK SMILES IDX 8 1 9 2 10 3 11 4 12 5 13 6 14 7 15 8 16 9 7 10 6 11 5 12
REMARK SMILES IDX 4 13 3 14 2 15 1 16
REMARK H PARENT
REMARK Flexibility Score: inf
ROOT
ATOM      1  C   UNL     1       1.012   6.740 -10.057  1.00  0.00     0.000 C 
ENDROOT
BRANCH   1   2
ATOM      2  C   UNL     1      -0.289   7.321 -10.633  1.00  0.00     0.000 C 
BRANCH   2   3
ATOM      3  C   UNL     1      -0.603   8.688 -10.007  1.00  0.00     0.000 C 
BRANCH   3   4
ATOM      4  C   UNL     1      -2.111   8.937  -9.848  1.00  0.00     0.000 C 
BRANCH   4   5
ATOM      5  C   UNL     1      -2.433   9.926  -8.714  1.00  0.00     0.006 C 
BRANCH   5   6
ATOM      6  C   UNL     1      -1.180  10.652  -8.206  1.00  0.00     0.053 C 
BRANCH   6   7
ATOM      7  C   UNL     1      -1.243  12.125  -8.472  1.00  0.00     0.041 C 
ATOM      8  O   UNL     1      -1.797  12.556  -9.517  1.00  0.00    -0.550 OA
ATOM      9  O   UNL     1      -0.715  13.022  -7.552  1.00  0.00    -0.550 OA
ENDBRANCH   6   7
ENDBRANCH   5   6
ENDBRANCH   4   5
ENDBRANCH   3   4
ENDBRANCH   2   3
ENDBRANCH   1   2
BRANCH   1  10
ATOM     10  C   UNL     1       1.426   7.409  -8.736  1.00  0.00     0.000 C 
BRANCH  10  11
ATOM     11  C   UNL     1       1.405   6.431  -7.548  1.00  0.00    -0.000 C 
BRANCH  11  12
ATOM     12  C   UNL     1       0.383   6.828  -6.466  1.00  0.00    -0.000 C 
BRANCH  12  13
ATOM     13  C   UNL     1      -1.093   6.658  -6.869  1.00  0.00    -0.000 C 
BRANCH  13  14
ATOM     14  C   UNL     1      -1.372   5.317  -7.569  1.00  0.00    -0.000 C 
BRANCH  14  15
ATOM     15  C   UNL     1      -2.656   5.348  -8.412  1.00  0.00    -0.003 C 
ATOM     16  C   UNL     1      -3.716   6.287  -7.836  1.00  0.00     0.004 C 
ENDBRANCH  14  15
ENDBRANCH  13  14
ENDBRANCH  12  13
ENDBRANCH  11  12
ENDBRANCH  10  11
ENDBRANCH   1  10
TORSDOF 12
ENDMDL
MODEL 8
REMARK VINA RESULT:    -2.094      7.162      9.103
REMARK INTER + INTRA:          -5.458
REMARK INTER:                  -3.635
REMARK INTRA:                  -1.822
REMARK UNBOUND:                -1.895
REMARK SMILES CCCCCCCCCCCCCC(=O)[O-]
REMARK SMILES IDX 8 1 9 2 10 3 11 4 12 5 13 6 14 7 15 8 16 9 7 10 6 11 5 12
REMARK SMILES IDX 4 13 3 14 2 15 1 16
REMARK H PARENT
REMARK Flexibility Score: inf
ROOT
ATOM      1  C   UNL     1      -0.182  15.170  -0.297  1.00  0.00     0.000 C 
ENDROOT
BRANCH   1   2
ATOM      2  C   UNL     1      -0.211  15.028  -1.827  1.00  0.00     0.000 C 
BRANCH   2   3
ATOM      3  C   UNL     1      -1.316  14.054  -2.266  1.00  0.00     0.000 C 
BRANCH   3   4
ATOM      4  C   UNL     1      -0.956  13.286  -3.548  1.00  0.00     0.000 C 
BRANCH   4   5
ATOM      5  C   UNL     1       0.490  13.544  -4.008  1.00  0.00     0.006 C 
BRANCH   5   6
ATOM      6  C   UNL     1       0.549  14.206  -5.391  1.00  0.00     0.053 C 
BRANCH   6   7
ATOM      7  C   UNL     1       0.407  13.203  -6.495  1.00  0.00     0.041 C 
ATOM      8  O   UNL     1       1.299  12.332  -6.678  1.00  0.00    -0.550 OA
ATOM      9  O   UNL     1      -0.723  13.211  -7.303  1.00  0.00    -0.550 OA
ENDBRANCH   6   7
ENDBRANCH   5   6
ENDBRANCH   4   5
ENDBRANCH   3   4
ENDBRANCH   2   3
ENDBRANCH   1   2
BRANCH   1  10
ATOM     10  C   UNL     1       1.164  14.746   0.312  1.00  0.00     0.000 C 
BRANCH  10  11
ATOM     11  C   UNL     1       2.092  14.074  -0.716  1.00  0.00    -0.000 C 
BRANCH  11  12
ATOM     12  C   UNL     1       2.317  12.578  -0.429  1.00  0.00    -0.000 C 
BRANCH  12  13
ATOM     13  C   UNL     1       1.177  11.648  -0.881  1.00  0.00    -0.000 C 
BRANCH  13  14
ATOM     14  C   UNL     1       0.414  11.020   0.298  1.00  0.00    -0.000 C 
BRANCH  14  15
ATOM     15  C   UNL     1      -0.973  11.648   0.503  1.00  0.00    -0.003 C 
ATOM     16  C   UNL     1      -2.083  10.603   0.609  1.00  0.00     0.004 C 
ENDBRANCH  14  15
ENDBRANCH  13  14
ENDBRANCH  12  13
ENDBRANCH  11  12
ENDBRANCH  10  11
ENDBRANCH   1  10
TORSDOF 12
ENDMDL
MODEL 9
REMARK VINA RESULT:    -2.088      7.677      9.906
REMARK INTER + INTRA:          -5.447
REMARK INTER:                  -3.385
REMARK INTRA:                  -2.062
REMARK UNBOUND:                -1.895
REMARK SMILES CCCCCCCCCCCCCC(=O)[O-]
REMARK SMILES IDX 8 1 9 2 10 3 11 4 12 5 13 6 14 7 15 8 16 9 7 10 6 11 5 12
REMARK SMILES IDX 4 13 3 14 2 15 1 16
REMARK H PARENT
REMARK Flexibility Score: inf
ROOT
ATOM      1  C   UNL     1       1.350  13.251  -4.687  1.00  0.00     0.000 C 
ENDROOT
BRANCH   1   2
ATOM      2  C   UNL     1       1.968  12.497  -3.500  1.00  0.00     0.000 C 
BRANCH   2   3
ATOM      3  C   UNL     1       2.925  13.404  -2.712  1.00  0.00     0.000 C 
BRANCH   3   4
ATOM      4  C   UNL     1       2.794  13.229  -1.191  1.00  0.00     0.000 C 
BRANCH   4   5
ATOM      5  C   UNL     1       2.318  11.820  -0.796  1.00  0.00     0.006 C 
BRANCH   5   6
ATOM      6  C   UNL     1       1.015  11.855   0.015  1.00  0.00     0.053 C 
BRANCH   6   7
ATOM      7  C   UNL     1       0.411  10.492   0.159  1.00  0.00     0.041 C 
ATOM      8  O   UNL     1      -0.727  10.355   0.683  1.00  0.00    -0.550 OA
ATOM      9  O   UNL     1       1.091   9.375  -0.311  1.00  0.00    -0.550 OA
ENDBRANCH   6   7
ENDBRANCH   5   6
ENDBRANCH   4   5
ENDBRANCH   3   4
ENDBRANCH   2   3
ENDBRANCH   1   2
BRANCH   1  10
ATOM     10  C   UNL     1      -0.139  13.571  -4.477  1.00  0.00     0.000 C 
BRANCH  10  11
ATOM     11  C   UNL     1      -0.628  13.202  -3.066  1.00  0.00    -0.000 C 
BRANCH  11  12
ATOM     12  C   UNL     1      -1.205  14.407  -2.298  1.00  0.00    -0.000 C 
BRANCH  12  13
ATOM     13  C   UNL     1      -0.157  15.342  -1.670  1.00  0.00    -0.000 C 
BRANCH  13  14
ATOM     14  C   UNL     1       0.015  16.658  -2.447  1.00  0.00    -0.000 C 
BRANCH  14  15
ATOM     15  C   UNL     1       1.412  16.796  -3.072  1.00  0.00    -0.003 C 
ATOM     16  C   UNL     1       1.362  17.006  -4.585  1.00  0.00     0.004 C 
ENDBRANCH  14  15
ENDBRANCH  13  14
ENDBRANCH  12  13
ENDBRANCH  11  12
ENDBRANCH  10  11
ENDBRANCH   1  10
TORSDOF 12
ENDMDL
