MODEL 1
REMARK VINA RESULT:    -2.487      0.000      0.000
REMARK INTER + INTRA:          -2.811
REMARK INTER:                  -2.777
REMARK INTRA:                  -0.034
REMARK UNBOUND:                -0.034
REMARK SMILES CCCC(=O)[O-]
REMARK SMILES IDX 3 1 4 2 5 3 6 4 2 5 1 6
REMARK H PARENT
REMARK Flexibility Score: inf
ROOT
ATOM      1  C   UNL     1      -9.709 -17.860  20.880  1.00  0.00     0.052 C 
ENDROOT
BRANCH   1   2
ATOM      2  C   UNL     1      -9.450 -18.251  22.303  1.00  0.00     0.041 C 
ATOM      3  O   UNL     1      -8.833 -17.469  23.073  1.00  0.00    -0.550 OA
ATOM      4  O   UNL     1      -9.861 -19.494  22.767  1.00  0.00    -0.550 OA
ENDBRANCH   1   2
BRANCH   1   5
ATOM      5  C   UNL     1     -11.125 -18.248  20.434  1.00  0.00     0.003 C 
ATOM      6  C   UNL     1     -11.119 -19.149  19.199  1.00  0.00     0.004 C 
ENDBRANCH   1   5
TORSDOF 2
ENDMDL
MODEL 2
REMARK VINA RESULT:    -2.447      2.014      2.775
REMARK INTER + INTRA:          -2.767
REMARK INTER:                  -2.726
REMARK INTRA:                  -0.042
REMARK UNBOUND:                -0.034
REMARK SMILES CCCC(=O)[O-]
REMARK SMILES IDX 3 1 4 2 5 3 6 4 2 5 1 6
REMARK H PARENT
REMARK Flexibility Score: inf
ROOT
ATOM      1  C   UNL     1     -10.451 -19.248  22.707  1.00  0.00     0.052 C 
ENDROOT
BRANCH   1   2
ATOM      2  C   UNL     1      -9.576 -18.164  22.155  1.00  0.00     0.041 C 
ATOM      3  O   UNL     1      -8.821 -17.507  22.918  1.00  0.00    -0.550 OA
ATOM      4  O   UNL     1      -9.620 -17.859  20.800  1.00  0.00    -0.550 OA
ENDBRANCH   1   2
BRANCH   1   5
ATOM      5  C   UNL     1     -10.057 -20.628  22.166  1.00  0.00     0.003 C 
ATOM      6  C   UNL     1      -9.008 -21.316  23.039  1.00  0.00     0.004 C 
ENDBRANCH   1   5
TORSDOF 2
ENDMDL
MODEL 3
REMARK VINA RESULT:    -2.358     18.540     18.980
REMARK INTER + INTRA:          -2.667
REMARK INTER:                  -2.623
REMARK INTRA:                  -0.044
REMARK UNBOUND:                -0.034
REMARK SMILES CCCC(=O)[O-]
REMARK SMILES IDX 3 1 4 2 5 3 6 4 2 5 1 6
REMARK H PARENT
REMARK Flexibility Score: inf
ROOT
ATOM      1  C   UNL     1       7.658 -22.324  15.386  1.00  0.00     0.052 C 
ENDROOT
BRANCH   1   2
ATOM      2  C   UNL     1       7.714 -21.280  14.312  1.00  0.00     0.041 C 
ATOM      3  O   UNL     1       8.259 -20.168  14.536  1.00  0.00    -0.550 OA
ATOM      4  O   UNL     1       7.134 -21.526  13.073  1.00  0.00    -0.550 OA
ENDBRANCH   1   2
BRANCH   1   5
ATOM      5  C   UNL     1       7.591 -21.697  16.784  1.00  0.00     0.003 C 
ATOM      6  C   UNL     1       6.157 -21.394  17.218  1.00  0.00     0.004 C 
ENDBRANCH   1   5
TORSDOF 2
ENDMDL
MODEL 4
REMARK VINA RESULT:    -2.331      2.224      3.367
REMARK INTER + INTRA:          -2.637
REMARK INTER:                  -2.623
REMARK INTRA:                  -0.014
REMARK UNBOUND:                -0.034
REMARK SMILES CCCC(=O)[O-]
REMARK SMILES IDX 3 1 4 2 5 3 6 4 2 5 1 6
REMARK H PARENT
REMARK Flexibility Score: inf
ROOT
ATOM      1  C   UNL     1     -10.061 -18.102  20.684  1.00  0.00     0.052 C 
ENDROOT
BRANCH   1   2
ATOM      2  C   UNL     1     -10.435 -19.268  19.821  1.00  0.00     0.041 C 
ATOM      3  O   UNL     1     -11.100 -19.089  18.767  1.00  0.00    -0.550 OA
ATOM      4  O   UNL     1     -10.075 -20.556  20.198  1.00  0.00    -0.550 OA
ENDBRANCH   1   2
BRANCH   1   5
ATOM      5  C   UNL     1      -9.873 -18.517  22.149  1.00  0.00     0.003 C 
ATOM      6  C   UNL     1      -8.895 -17.607  22.891  1.00  0.00     0.004 C 
ENDBRANCH   1   5
TORSDOF 2
ENDMDL
MODEL 5
REMARK VINA RESULT:    -2.324      2.221      3.004
REMARK INTER + INTRA:          -2.630
REMARK INTER:                  -2.598
REMARK INTRA:                  -0.032
REMARK UNBOUND:                -0.034
REMARK SMILES CCCC(=O)[O-]
REMARK SMILES IDX 3 1 4 2 5 3 6 4 2 5 1 6
REMARK H PARENT
REMARK Flexibility Score: inf
ROOT
ATOM      1  C   UNL     1     -10.508 -19.504  21.129  1.00  0.00     0.052 C 
ENDROOT
BRANCH   1   2
ATOM      2  C   UNL     1     -10.223 -18.062  20.840  1.00  0.00     0.041 C 
ATOM      3  O   UNL     1     -10.880 -17.450  19.957  1.00  0.00    -0.550 OA
ATOM      4  O   UNL     1      -9.208 -17.404  21.524  1.00  0.00    -0.550 OA
ENDBRANCH   1   2
BRANCH   1   5
ATOM      5  C   UNL     1     -10.386 -19.818  22.626  1.00  0.00     0.003 C 
ATOM      6  C   UNL     1      -9.417 -20.967  22.902  1.00  0.00     0.004 C 
ENDBRANCH   1   5
TORSDOF 2
ENDMDL
MODEL 6
REMARK VINA RESULT:    -2.221      2.125      2.787
REMARK INTER + INTRA:          -2.514
REMARK INTER:                  -2.468
REMARK INTRA:                  -0.046
REMARK UNBOUND:                -0.034
REMARK SMILES CCCC(=O)[O-]
REMARK SMILES IDX 3 1 4 2 5 3 6 4 2 5 1 6
REMARK H PARENT
REMARK Flexibility Score: inf
ROOT
ATOM      1  C   UNL     1     -10.503 -19.501  22.723  1.00  0.00     0.052 C 
ENDROOT
BRANCH   1   2
ATOM      2  C   UNL     1      -9.821 -20.801  22.424  1.00  0.00     0.041 C 
ATOM      3  O   UNL     1      -8.915 -21.231  23.185  1.00  0.00    -0.550 OA
ATOM      4  O   UNL     1     -10.165 -21.520  21.286  1.00  0.00    -0.550 OA
ENDBRANCH   1   2
BRANCH   1   5
ATOM      5  C   UNL     1      -9.610 -18.300  22.387  1.00  0.00     0.003 C 
ATOM      6  C   UNL     1      -9.764 -17.849  20.935  1.00  0.00     0.004 C 
ENDBRANCH   1   5
TORSDOF 2
ENDMDL
MODEL 7
REMARK VINA RESULT:    -2.167     19.821     20.306
REMARK INTER + INTRA:          -2.454
REMARK INTER:                  -2.423
REMARK INTRA:                  -0.031
REMARK UNBOUND:                -0.034
REMARK SMILES CCCC(=O)[O-]
REMARK SMILES IDX 3 1 4 2 5 3 6 4 2 5 1 6
REMARK H PARENT
REMARK Flexibility Score: inf
ROOT
ATOM      1  C   UNL     1       8.609 -19.735  13.658  1.00  0.00     0.052 C 
ENDROOT
BRANCH   1   2
ATOM      2  C   UNL     1       8.157 -19.933  12.243  1.00  0.00     0.041 C 
ATOM      3  O   UNL     1       8.298 -21.051  11.682  1.00  0.00    -0.550 OA
ATOM      4  O   UNL     1       7.609 -18.871  11.534  1.00  0.00    -0.550 OA
ENDBRANCH   1   2
BRANCH   1   5
ATOM      5  C   UNL     1       8.654 -21.060  14.430  1.00  0.00     0.003 C 
ATOM      6  C   UNL     1       7.523 -21.176  15.452  1.00  0.00     0.004 C 
ENDBRANCH   1   5
TORSDOF 2
ENDMDL
MODEL 8
REMARK VINA RESULT:    -2.153     20.817     21.268
REMARK INTER + INTRA:          -2.438
REMARK INTER:                  -2.406
REMARK INTRA:                  -0.032
REMARK UNBOUND:                -0.034
REMARK SMILES CCCC(=O)[O-]
REMARK SMILES IDX 3 1 4 2 5 3 6 4 2 5 1 6
REMARK H PARENT
REMARK Flexibility Score: inf
ROOT
ATOM      1  C   UNL     1       7.958 -19.481  11.720  1.00  0.00     0.052 C 
ENDROOT
BRANCH   1   2
ATOM      2  C   UNL     1       8.446 -20.450  10.687  1.00  0.00     0.041 C 
ATOM      3  O   UNL     1       8.348 -20.174   9.462  1.00  0.00    -0.550 OA
ATOM      4  O   UNL     1       8.979 -21.672  11.077  1.00  0.00    -0.550 OA
ENDBRANCH   1   2
BRANCH   1   5
ATOM      5  C   UNL     1       8.951 -19.341  12.881  1.00  0.00     0.003 C 
ATOM      6  C   UNL     1       8.464 -20.039  14.151  1.00  0.00     0.004 C 
ENDBRANCH   1   5
TORSDOF 2
ENDMDL
MODEL 9
REMARK VINA RESULT:    -2.145     19.539     19.942
REMARK INTER + INTRA:          -2.429
REMARK INTER:                  -2.391
REMARK INTRA:                  -0.039
REMARK UNBOUND:                -0.034
REMARK SMILES CCCC(=O)[O-]
REMARK SMILES IDX 3 1 4 2 5 3 6 4 2 5 1 6
REMARK H PARENT
REMARK Flexibility Score: inf
ROOT
ATOM      1  C   UNL     1       8.541 -19.676  14.043  1.00  0.00     0.052 C 
ENDROOT
BRANCH   1   2
ATOM      2  C   UNL     1       8.092 -20.985  14.616  1.00  0.00     0.041 C 
ATOM      3  O   UNL     1       8.253 -22.051  13.967  1.00  0.00    -0.550 OA
ATOM      4  O   UNL     1       7.465 -21.022  15.856  1.00  0.00    -0.550 OA
ENDBRANCH   1   2
BRANCH   1   5
ATOM      5  C   UNL     1       8.929 -19.807  12.565  1.00  0.00     0.003 C 
ATOM      6  C   UNL     1       7.820 -19.328  11.628  1.00  0.00     0.004 C 
ENDBRANCH   1   5
TORSDOF 2
ENDMDL
