MODEL 1
REMARK VINA RESULT:    -7.694      0.000      0.000
REMARK INTER + INTRA:          -8.376
REMARK INTER:                  -8.144
REMARK INTRA:                  -0.232
REMARK UNBOUND:                -0.232
REMARK SMILES O=c1cc(-c2ccccc2)oc2ccccc12
REMARK SMILES IDX 4 1 3 2 2 3 1 4 17 5 16 6 15 7 14 8 13 9 12 10 11 11 5 12
REMARK SMILES IDX 8 13 7 14 9 15 6 16 10 17
REMARK H PARENT
REMARK Flexibility Score: inf
ROOT
ATOM      1  C   UNL     1     -34.934  -5.366 -16.311  1.00  0.00     0.138 A 
ATOM      2  C   UNL     1     -35.596  -4.597 -17.290  1.00  0.00     0.100 A 
ATOM      3  C   UNL     1     -34.864  -3.709 -18.079  1.00  0.00     0.193 A 
ATOM      4  O   UNL     1     -35.456  -3.022 -18.956  1.00  0.00    -0.289 OA
ATOM      5  C   UNL     1     -33.480  -3.593 -17.886  1.00  0.00     0.065 A 
ATOM      6  C   UNL     1     -32.683  -2.717 -18.647  1.00  0.00     0.016 A 
ATOM      7  C   UNL     1     -31.307  -2.641 -18.413  1.00  0.00     0.001 A 
ATOM      8  C   UNL     1     -30.717  -3.434 -17.424  1.00  0.00     0.004 A 
ATOM      9  C   UNL     1     -31.501  -4.306 -16.664  1.00  0.00     0.048 A 
ATOM     10  C   UNL     1     -32.880  -4.390 -16.890  1.00  0.00     0.138 A 
ATOM     11  O   UNL     1     -33.616  -5.224 -16.161  1.00  0.00    -0.456 OA
ENDROOT
BRANCH   1  12
ATOM     12  C   UNL     1     -35.642  -6.340 -15.423  1.00  0.00     0.017 A 
ATOM     13  C   UNL     1     -36.952  -8.126 -13.673  1.00  0.00     0.000 A 
ATOM     14  C   UNL     1     -36.972  -8.355 -15.048  1.00  0.00     0.001 A 
ATOM     15  C   UNL     1     -36.284  -7.013 -13.164  1.00  0.00     0.001 A 
ATOM     16  C   UNL     1     -36.325  -7.474 -15.921  1.00  0.00     0.012 A 
ATOM     17  C   UNL     1     -35.635  -6.128 -14.028  1.00  0.00     0.012 A 
ENDBRANCH   1  12
TORSDOF 1
ENDMDL
MODEL 2
REMARK VINA RESULT:    -7.277      4.764      7.366
REMARK INTER + INTRA:          -7.934
REMARK INTER:                  -7.688
REMARK INTRA:                  -0.246
REMARK UNBOUND:                -0.232
REMARK SMILES O=c1cc(-c2ccccc2)oc2ccccc12
REMARK SMILES IDX 4 1 3 2 2 3 1 4 17 5 16 6 15 7 14 8 13 9 12 10 11 11 5 12
REMARK SMILES IDX 8 13 7 14 9 15 6 16 10 17
REMARK H PARENT
REMARK Flexibility Score: inf
ROOT
ATOM      1  C   UNL     1     -39.723  -5.805 -12.367  1.00  0.00     0.138 A 
ATOM      2  C   UNL     1     -40.421  -7.012 -12.574  1.00  0.00     0.100 A 
ATOM      3  C   UNL     1     -39.880  -7.985 -13.415  1.00  0.00     0.193 A 
ATOM      4  O   UNL     1     -40.504  -9.065 -13.601  1.00  0.00    -0.289 OA
ATOM      5  C   UNL     1     -38.649  -7.747 -14.043  1.00  0.00     0.065 A 
ATOM      6  C   UNL     1     -38.047  -8.685 -14.903  1.00  0.00     0.016 A 
ATOM      7  C   UNL     1     -36.818  -8.396 -15.503  1.00  0.00     0.001 A 
ATOM      8  C   UNL     1     -36.182  -7.177 -15.252  1.00  0.00     0.004 A 
ATOM      9  C   UNL     1     -36.772  -6.240 -14.400  1.00  0.00     0.048 A 
ATOM     10  C   UNL     1     -38.003  -6.518 -13.794  1.00  0.00     0.138 A 
ATOM     11  O   UNL     1     -38.555  -5.620 -12.984  1.00  0.00    -0.456 OA
ENDROOT
BRANCH   1  12
ATOM     12  C   UNL     1     -40.232  -4.710 -11.481  1.00  0.00     0.017 A 
ATOM     13  C   UNL     1     -41.218  -2.714  -9.747  1.00  0.00     0.000 A 
ATOM     14  C   UNL     1     -40.661  -2.359 -10.975  1.00  0.00     0.001 A 
ATOM     15  C   UNL     1     -41.287  -4.057  -9.377  1.00  0.00     0.001 A 
ATOM     16  C   UNL     1     -40.171  -3.344 -11.839  1.00  0.00     0.012 A 
ATOM     17  C   UNL     1     -40.800  -5.047 -10.234  1.00  0.00     0.012 A 
ENDBRANCH   1  12
TORSDOF 1
ENDMDL
MODEL 3
REMARK VINA RESULT:    -7.226      1.578      5.988
REMARK INTER + INTRA:          -7.881
REMARK INTER:                  -7.636
REMARK INTRA:                  -0.244
REMARK UNBOUND:                -0.232
REMARK SMILES O=c1cc(-c2ccccc2)oc2ccccc12
REMARK SMILES IDX 4 1 3 2 2 3 1 4 17 5 16 6 15 7 14 8 13 9 12 10 11 11 5 12
REMARK SMILES IDX 8 13 7 14 9 15 6 16 10 17
REMARK H PARENT
REMARK Flexibility Score: inf
ROOT
ATOM      1  C   UNL     1     -34.277  -3.692 -18.245  1.00  0.00     0.138 A 
ATOM      2  C   UNL     1     -35.422  -2.916 -18.519  1.00  0.00     0.100 A 
ATOM      3  C   UNL     1     -36.670  -3.349 -18.069  1.00  0.00     0.193 A 
ATOM      4  O   UNL     1     -37.695  -2.655 -18.314  1.00  0.00    -0.289 OA
ATOM      5  C   UNL     1     -36.767  -4.549 -17.350  1.00  0.00     0.065 A 
ATOM      6  C   UNL     1     -37.995  -5.042 -16.869  1.00  0.00     0.016 A 
ATOM      7  C   UNL     1     -38.035  -6.245 -16.157  1.00  0.00     0.001 A 
ATOM      8  C   UNL     1     -36.858  -6.962 -15.921  1.00  0.00     0.004 A 
ATOM      9  C   UNL     1     -35.635  -6.480 -16.397  1.00  0.00     0.048 A 
ATOM     10  C   UNL     1     -35.584  -5.277 -17.110  1.00  0.00     0.138 A 
ATOM     11  O   UNL     1     -34.415  -4.827 -17.557  1.00  0.00    -0.456 OA
ENDROOT
BRANCH   1  12
ATOM     12  C   UNL     1     -32.902  -3.301 -18.690  1.00  0.00     0.017 A 
ATOM     13  C   UNL     1     -30.277  -2.586 -19.441  1.00  0.00     0.000 A 
ATOM     14  C   UNL     1     -31.316  -2.502 -20.367  1.00  0.00     0.001 A 
ATOM     15  C   UNL     1     -30.537  -3.024 -18.142  1.00  0.00     0.001 A 
ATOM     16  C   UNL     1     -32.619  -2.855 -20.001  1.00  0.00     0.012 A 
ATOM     17  C   UNL     1     -31.836  -3.379 -17.768  1.00  0.00     0.012 A 
ENDBRANCH   1  12
TORSDOF 1
ENDMDL
MODEL 4
REMARK VINA RESULT:    -7.053      5.068      7.759
REMARK INTER + INTRA:          -7.698
REMARK INTER:                  -7.472
REMARK INTRA:                  -0.226
REMARK UNBOUND:                -0.232
REMARK SMILES O=c1cc(-c2ccccc2)oc2ccccc12
REMARK SMILES IDX 4 1 3 2 2 3 1 4 17 5 16 6 15 7 14 8 13 9 12 10 11 11 5 12
REMARK SMILES IDX 8 13 7 14 9 15 6 16 10 17
REMARK H PARENT
REMARK Flexibility Score: inf
ROOT
ATOM      1  C   UNL     1     -37.829  -4.521 -12.399  1.00  0.00     0.138 A 
ATOM      2  C   UNL     1     -36.773  -5.245 -12.988  1.00  0.00     0.100 A 
ATOM      3  C   UNL     1     -37.011  -6.525 -13.489  1.00  0.00     0.193 A 
ATOM      4  O   UNL     1     -36.066  -7.174 -14.016  1.00  0.00    -0.289 OA
ATOM      5  C   UNL     1     -38.299  -7.073 -13.400  1.00  0.00     0.065 A 
ATOM      6  C   UNL     1     -38.607  -8.358 -13.885  1.00  0.00     0.016 A 
ATOM      7  C   UNL     1     -39.909  -8.856 -13.770  1.00  0.00     0.001 A 
ATOM      8  C   UNL     1     -40.908  -8.080 -13.174  1.00  0.00     0.004 A 
ATOM      9  C   UNL     1     -40.610  -6.804 -12.689  1.00  0.00     0.048 A 
ATOM     10  C   UNL     1     -39.311  -6.296 -12.799  1.00  0.00     0.138 A 
ATOM     11  O   UNL     1     -39.039  -5.080 -12.334  1.00  0.00    -0.456 OA
ENDROOT
BRANCH   1  12
ATOM     12  C   UNL     1     -37.660  -3.144 -11.837  1.00  0.00     0.017 A 
ATOM     13  C   UNL     1     -37.345  -0.585 -10.689  1.00  0.00     0.000 A 
ATOM     14  C   UNL     1     -37.366  -0.730 -12.075  1.00  0.00     0.001 A 
ATOM     15  C   UNL     1     -37.479  -1.706  -9.870  1.00  0.00     0.001 A 
ATOM     16  C   UNL     1     -37.522  -1.996 -12.651  1.00  0.00     0.012 A 
ATOM     17  C   UNL     1     -37.636  -2.974 -10.436  1.00  0.00     0.012 A 
ENDBRANCH   1  12
TORSDOF 1
ENDMDL
MODEL 5
REMARK VINA RESULT:    -7.038      2.531      6.856
REMARK INTER + INTRA:          -7.681
REMARK INTER:                  -7.419
REMARK INTRA:                  -0.262
REMARK UNBOUND:                -0.232
REMARK SMILES O=c1cc(-c2ccccc2)oc2ccccc12
REMARK SMILES IDX 4 1 3 2 2 3 1 4 17 5 16 6 15 7 14 8 13 9 12 10 11 11 5 12
REMARK SMILES IDX 8 13 7 14 9 15 6 16 10 17
REMARK H PARENT
REMARK Flexibility Score: inf
ROOT
ATOM      1  C   UNL     1     -36.662  -5.848 -16.188  1.00  0.00     0.138 A 
ATOM      2  C   UNL     1     -36.248  -7.162 -15.888  1.00  0.00     0.100 A 
ATOM      3  C   UNL     1     -37.008  -7.941 -15.014  1.00  0.00     0.193 A 
ATOM      4  O   UNL     1     -36.638  -9.116 -14.746  1.00  0.00    -0.289 OA
ATOM      5  C   UNL     1     -38.173  -7.404 -14.446  1.00  0.00     0.065 A 
ATOM      6  C   UNL     1     -38.984  -8.135 -13.557  1.00  0.00     0.016 A 
ATOM      7  C   UNL     1     -40.135  -7.551 -13.020  1.00  0.00     0.001 A 
ATOM      8  C   UNL     1     -40.485  -6.242 -13.363  1.00  0.00     0.004 A 
ATOM      9  C   UNL     1     -39.685  -5.509 -14.244  1.00  0.00     0.048 A 
ATOM     10  C   UNL     1     -38.531  -6.084 -14.788  1.00  0.00     0.138 A 
ATOM     11  O   UNL     1     -37.777  -5.378 -15.625  1.00  0.00    -0.456 OA
ENDROOT
BRANCH   1  12
ATOM     12  C   UNL     1     -35.907  -4.947 -17.114  1.00  0.00     0.017 A 
ATOM     13  C   UNL     1     -34.405  -3.305 -18.850  1.00  0.00     0.000 A 
ATOM     14  C   UNL     1     -35.728  -2.980 -18.551  1.00  0.00     0.001 A 
ATOM     15  C   UNL     1     -33.825  -4.443 -18.290  1.00  0.00     0.001 A 
ATOM     16  C   UNL     1     -36.477  -3.789 -17.691  1.00  0.00     0.012 A 
ATOM     17  C   UNL     1     -34.567  -5.257 -17.430  1.00  0.00     0.012 A 
ENDBRANCH   1  12
TORSDOF 1
ENDMDL
MODEL 6
REMARK VINA RESULT:    -6.897      2.979      6.928
REMARK INTER + INTRA:          -7.533
REMARK INTER:                  -7.282
REMARK INTRA:                  -0.251
REMARK UNBOUND:                -0.232
REMARK SMILES O=c1cc(-c2ccccc2)oc2ccccc12
REMARK SMILES IDX 4 1 3 2 2 3 1 4 17 5 16 6 15 7 14 8 13 9 12 10 11 11 5 12
REMARK SMILES IDX 8 13 7 14 9 15 6 16 10 17
REMARK H PARENT
REMARK Flexibility Score: inf
ROOT
ATOM      1  C   UNL     1     -36.828  -5.642 -14.679  1.00  0.00     0.138 A 
ATOM      2  C   UNL     1     -37.615  -4.643 -14.070  1.00  0.00     0.100 A 
ATOM      3  C   UNL     1     -38.842  -4.985 -13.500  1.00  0.00     0.193 A 
ATOM      4  O   UNL     1     -39.546  -4.091 -12.955  1.00  0.00    -0.289 OA
ATOM      5  C   UNL     1     -39.275  -6.318 -13.542  1.00  0.00     0.065 A 
ATOM      6  C   UNL     1     -40.501  -6.730 -12.987  1.00  0.00     0.016 A 
ATOM      7  C   UNL     1     -40.885  -8.073 -13.057  1.00  0.00     0.001 A 
ATOM      8  C   UNL     1     -40.053  -9.010 -13.677  1.00  0.00     0.004 A 
ATOM      9  C   UNL     1     -38.834  -8.609 -14.231  1.00  0.00     0.048 A 
ATOM     10  C   UNL     1     -38.441  -7.268 -14.167  1.00  0.00     0.138 A 
ATOM     11  O   UNL     1     -37.279  -6.898 -14.696  1.00  0.00    -0.456 OA
ENDROOT
BRANCH   1  12
ATOM     12  C   UNL     1     -35.502  -5.361 -15.313  1.00  0.00     0.017 A 
ATOM     13  C   UNL     1     -33.022  -4.896 -16.577  1.00  0.00     0.000 A 
ATOM     14  C   UNL     1     -33.347  -4.214 -15.405  1.00  0.00     0.001 A 
ATOM     15  C   UNL     1     -33.923  -5.808 -17.124  1.00  0.00     0.001 A 
ATOM     16  C   UNL     1     -34.574  -4.440 -14.773  1.00  0.00     0.012 A 
ATOM     17  C   UNL     1     -35.152  -6.040 -16.499  1.00  0.00     0.012 A 
ENDBRANCH   1  12
TORSDOF 1
ENDMDL
MODEL 7
REMARK VINA RESULT:    -6.865      1.459      5.870
REMARK INTER + INTRA:          -7.499
REMARK INTER:                  -7.239
REMARK INTRA:                  -0.260
REMARK UNBOUND:                -0.232
REMARK SMILES O=c1cc(-c2ccccc2)oc2ccccc12
REMARK SMILES IDX 4 1 3 2 2 3 1 4 17 5 16 6 15 7 14 8 13 9 12 10 11 11 5 12
REMARK SMILES IDX 8 13 7 14 9 15 6 16 10 17
REMARK H PARENT
REMARK Flexibility Score: inf
ROOT
ATOM      1  C   UNL     1     -34.961  -4.926 -16.956  1.00  0.00     0.138 A 
ATOM      2  C   UNL     1     -36.165  -4.282 -17.308  1.00  0.00     0.100 A 
ATOM      3  C   UNL     1     -37.384  -4.897 -17.021  1.00  0.00     0.193 A 
ATOM      4  O   UNL     1     -38.461  -4.321 -17.335  1.00  0.00    -0.289 OA
ATOM      5  C   UNL     1     -37.394  -6.148 -16.386  1.00  0.00     0.065 A 
ATOM      6  C   UNL     1     -38.587  -6.823 -16.069  1.00  0.00     0.016 A 
ATOM      7  C   UNL     1     -38.540  -8.069 -15.436  1.00  0.00     0.001 A 
ATOM      8  C   UNL     1     -37.308  -8.648 -15.116  1.00  0.00     0.004 A 
ATOM      9  C   UNL     1     -36.118  -7.985 -15.428  1.00  0.00     0.048 A 
ATOM     10  C   UNL     1     -36.155  -6.737 -16.062  1.00  0.00     0.138 A 
ATOM     11  O   UNL     1     -35.017  -6.115 -16.354  1.00  0.00    -0.456 OA
ENDROOT
BRANCH   1  12
ATOM     12  C   UNL     1     -33.612  -4.336 -17.227  1.00  0.00     0.017 A 
ATOM     13  C   UNL     1     -31.108  -3.171 -17.808  1.00  0.00     0.000 A 
ATOM     14  C   UNL     1     -31.218  -4.119 -16.792  1.00  0.00     0.001 A 
ATOM     15  C   UNL     1     -32.237  -2.800 -18.538  1.00  0.00     0.001 A 
ATOM     16  C   UNL     1     -32.456  -4.700 -16.499  1.00  0.00     0.012 A 
ATOM     17  C   UNL     1     -33.478  -3.375 -18.252  1.00  0.00     0.012 A 
ENDBRANCH   1  12
TORSDOF 1
ENDMDL
MODEL 8
REMARK VINA RESULT:    -6.850      5.083      7.370
REMARK INTER + INTRA:          -7.483
REMARK INTER:                  -7.261
REMARK INTRA:                  -0.222
REMARK UNBOUND:                -0.232
REMARK SMILES O=c1cc(-c2ccccc2)oc2ccccc12
REMARK SMILES IDX 4 1 3 2 2 3 1 4 17 5 16 6 15 7 14 8 13 9 12 10 11 11 5 12
REMARK SMILES IDX 8 13 7 14 9 15 6 16 10 17
REMARK H PARENT
REMARK Flexibility Score: inf
ROOT
ATOM      1  C   UNL     1     -38.388  -4.528 -12.263  1.00  0.00     0.138 A 
ATOM      2  C   UNL     1     -39.701  -5.041 -12.234  1.00  0.00     0.100 A 
ATOM      3  C   UNL     1     -39.962  -6.296 -12.786  1.00  0.00     0.193 A 
ATOM      4  O   UNL     1     -41.137  -6.755 -12.761  1.00  0.00    -0.289 OA
ATOM      5  C   UNL     1     -38.914  -7.029 -13.360  1.00  0.00     0.065 A 
ATOM      6  C   UNL     1     -39.108  -8.300 -13.934  1.00  0.00     0.016 A 
ATOM      7  C   UNL     1     -38.028  -8.988 -14.494  1.00  0.00     0.001 A 
ATOM      8  C   UNL     1     -36.751  -8.417 -14.486  1.00  0.00     0.004 A 
ATOM      9  C   UNL     1     -36.549  -7.156 -13.920  1.00  0.00     0.048 A 
ATOM     10  C   UNL     1     -37.624  -6.458 -13.357  1.00  0.00     0.138 A 
ATOM     11  O   UNL     1     -37.421  -5.259 -12.820  1.00  0.00    -0.456 OA
ENDROOT
BRANCH   1  12
ATOM     12  C   UNL     1     -38.022  -3.193 -11.694  1.00  0.00     0.017 A 
ATOM     13  C   UNL     1     -37.335  -0.714 -10.534  1.00  0.00     0.000 A 
ATOM     14  C   UNL     1     -37.472  -0.823 -11.917  1.00  0.00     0.001 A 
ATOM     15  C   UNL     1     -37.537  -1.831  -9.725  1.00  0.00     0.001 A 
ATOM     16  C   UNL     1     -37.813  -2.049 -12.499  1.00  0.00     0.012 A 
ATOM     17  C   UNL     1     -37.878  -3.059 -10.297  1.00  0.00     0.012 A 
ENDBRANCH   1  12
TORSDOF 1
ENDMDL
MODEL 9
REMARK VINA RESULT:    -6.828      2.169      6.323
REMARK INTER + INTRA:          -7.459
REMARK INTER:                  -7.218
REMARK INTRA:                  -0.241
REMARK UNBOUND:                -0.232
REMARK SMILES O=c1cc(-c2ccccc2)oc2ccccc12
REMARK SMILES IDX 4 1 3 2 2 3 1 4 17 5 16 6 15 7 14 8 13 9 12 10 11 11 5 12
REMARK SMILES IDX 8 13 7 14 9 15 6 16 10 17
REMARK H PARENT
REMARK Flexibility Score: inf
ROOT
ATOM      1  C   UNL     1     -34.273  -4.011 -17.952  1.00  0.00     0.138 A 
ATOM      2  C   UNL     1     -34.425  -5.262 -17.321  1.00  0.00     0.100 A 
ATOM      3  C   UNL     1     -35.692  -5.670 -16.899  1.00  0.00     0.193 A 
ATOM      4  O   UNL     1     -35.829  -6.790 -16.334  1.00  0.00    -0.289 OA
ATOM      5  C   UNL     1     -36.794  -4.829 -17.109  1.00  0.00     0.065 A 
ATOM      6  C   UNL     1     -38.097  -5.180 -16.708  1.00  0.00     0.016 A 
ATOM      7  C   UNL     1     -39.161  -4.303 -16.942  1.00  0.00     0.001 A 
ATOM      8  C   UNL     1     -38.935  -3.077 -17.575  1.00  0.00     0.004 A 
ATOM      9  C   UNL     1     -37.644  -2.721 -17.976  1.00  0.00     0.048 A 
ATOM     10  C   UNL     1     -36.572  -3.591 -17.746  1.00  0.00     0.138 A 
ATOM     11  O   UNL     1     -35.349  -3.242 -18.132  1.00  0.00    -0.456 OA
ENDROOT
BRANCH   1  12
ATOM     12  C   UNL     1     -32.952  -3.497 -18.435  1.00  0.00     0.017 A 
ATOM     13  C   UNL     1     -30.503  -2.511 -19.431  1.00  0.00     0.000 A 
ATOM     14  C   UNL     1     -30.589  -2.968 -18.116  1.00  0.00     0.001 A 
ATOM     15  C   UNL     1     -31.629  -2.541 -20.252  1.00  0.00     0.001 A 
ATOM     16  C   UNL     1     -31.800  -3.459 -17.617  1.00  0.00     0.012 A 
ATOM     17  C   UNL     1     -32.843  -3.029 -19.761  1.00  0.00     0.012 A 
ENDBRANCH   1  12
TORSDOF 1
ENDMDL
