MODEL 1
REMARK VINA RESULT:    -4.263      0.000      0.000
REMARK INTER + INTRA:          -7.394
REMARK INTER:                  -6.756
REMARK INTRA:                  -0.639
REMARK UNBOUND:                -0.639
REMARK SMILES CCCCCCCCCCCC(=O)[O-]
REMARK SMILES IDX 7 1 8 2 9 3 10 4 11 5 12 6 13 7 14 8 6 9 5 10 4 11 3 12 2 13
REMARK SMILES IDX 1 14
REMARK H PARENT
REMARK Flexibility Score: inf
ROOT
ATOM      1  C   UNL     1      58.910  -3.472  81.723  1.00  0.00     0.000 C 
ENDROOT
BRANCH   1   2
ATOM      2  C   UNL     1      59.915  -4.547  82.176  1.00  0.00     0.000 C 
BRANCH   2   3
ATOM      3  C   UNL     1      59.330  -5.654  83.073  1.00  0.00     0.000 C 
BRANCH   3   4
ATOM      4  C   UNL     1      60.297  -6.833  83.279  1.00  0.00     0.006 C 
BRANCH   4   5
ATOM      5  C   UNL     1      61.181  -7.078  82.048  1.00  0.00     0.053 C 
BRANCH   5   6
ATOM      6  C   UNL     1      60.735  -8.279  81.272  1.00  0.00     0.041 C 
ATOM      7  O   UNL     1      61.239  -8.527  80.145  1.00  0.00    -0.550 OA
ATOM      8  O   UNL     1      59.782  -9.138  81.804  1.00  0.00    -0.550 OA
ENDBRANCH   5   6
ENDBRANCH   4   5
ENDBRANCH   3   4
ENDBRANCH   2   3
ENDBRANCH   1   2
BRANCH   1   9
ATOM      9  C   UNL     1      57.465  -3.786  82.148  1.00  0.00     0.000 C 
BRANCH   9  10
ATOM     10  C   UNL     1      56.758  -2.572  82.775  1.00  0.00    -0.000 C 
BRANCH  10  11
ATOM     11  C   UNL     1      57.680  -1.350  82.908  1.00  0.00    -0.000 C 
BRANCH  11  12
ATOM     12  C   UNL     1      57.175  -0.400  84.003  1.00  0.00    -0.000 C 
BRANCH  12  13
ATOM     13  C   UNL     1      55.724  -0.692  84.416  1.00  0.00    -0.003 C 
ATOM     14  C   UNL     1      54.737   0.345  83.882  1.00  0.00     0.004 C 
ENDBRANCH  12  13
ENDBRANCH  11  12
ENDBRANCH  10  11
ENDBRANCH   9  10
ENDBRANCH   1   9
TORSDOF 10
ENDMDL
MODEL 2
REMARK VINA RESULT:    -4.218      1.434      2.947
REMARK INTER + INTRA:          -7.322
REMARK INTER:                  -6.489
REMARK INTRA:                  -0.832
REMARK UNBOUND:                -0.639
REMARK SMILES CCCCCCCCCCCC(=O)[O-]
REMARK SMILES IDX 7 1 8 2 9 3 10 4 11 5 12 6 13 7 14 8 6 9 5 10 4 11 3 12 2 13
REMARK SMILES IDX 1 14
REMARK H PARENT
REMARK Flexibility Score: inf
ROOT
ATOM      1  C   UNL     1      60.017  -6.555  83.523  1.00  0.00     0.000 C 
ENDROOT
BRANCH   1   2
ATOM      2  C   UNL     1      61.245  -7.150  82.810  1.00  0.00     0.000 C 
BRANCH   2   3
ATOM      3  C   UNL     1      61.555  -6.546  81.428  1.00  0.00     0.000 C 
BRANCH   3   4
ATOM      4  C   UNL     1      61.678  -7.609  80.322  1.00  0.00     0.006 C 
BRANCH   4   5
ATOM      5  C   UNL     1      61.092  -8.961  80.752  1.00  0.00     0.053 C 
BRANCH   5   6
ATOM      6  C   UNL     1      59.895  -9.336  79.933  1.00  0.00     0.041 C 
ATOM      7  O   UNL     1      58.735  -9.177  80.397  1.00  0.00    -0.550 OA
ATOM      8  O   UNL     1      60.059  -9.836  78.648  1.00  0.00    -0.550 OA
ENDBRANCH   5   6
ENDBRANCH   4   5
ENDBRANCH   3   4
ENDBRANCH   2   3
ENDBRANCH   1   2
BRANCH   1   9
ATOM      9  C   UNL     1      58.799  -6.409  82.597  1.00  0.00     0.000 C 
BRANCH   9  10
ATOM     10  C   UNL     1      58.189  -4.997  82.641  1.00  0.00    -0.000 C 
BRANCH  10  11
ATOM     11  C   UNL     1      59.228  -3.893  82.390  1.00  0.00    -0.000 C 
BRANCH  11  12
ATOM     12  C   UNL     1      58.547  -2.592  81.942  1.00  0.00    -0.000 C 
BRANCH  12  13
ATOM     13  C   UNL     1      57.300  -2.260  82.776  1.00  0.00    -0.003 C 
ATOM     14  C   UNL     1      57.313  -0.830  83.314  1.00  0.00     0.004 C 
ENDBRANCH  12  13
ENDBRANCH  11  12
ENDBRANCH  10  11
ENDBRANCH   9  10
ENDBRANCH   1   9
TORSDOF 10
ENDMDL
MODEL 3
REMARK VINA RESULT:    -4.165     13.584     15.388
REMARK INTER + INTRA:          -7.239
REMARK INTER:                  -6.032
REMARK INTRA:                  -1.208
REMARK UNBOUND:                -0.639
REMARK SMILES CCCCCCCCCCCC(=O)[O-]
REMARK SMILES IDX 7 1 8 2 9 3 10 4 11 5 12 6 13 7 14 8 6 9 5 10 4 11 3 12 2 13
REMARK SMILES IDX 1 14
REMARK H PARENT
REMARK Flexibility Score: inf
ROOT
ATOM      1  C   UNL     1      51.877  -0.965  72.055  1.00  0.00     0.000 C 
ENDROOT
BRANCH   1   2
ATOM      2  C   UNL     1      50.714   0.044  72.081  1.00  0.00     0.000 C 
BRANCH   2   3
ATOM      3  C   UNL     1      49.343  -0.526  71.673  1.00  0.00     0.000 C 
BRANCH   3   4
ATOM      4  C   UNL     1      48.174   0.114  72.440  1.00  0.00     0.006 C 
BRANCH   4   5
ATOM      5  C   UNL     1      48.599   1.387  73.186  1.00  0.00     0.053 C 
BRANCH   5   6
ATOM      6  C   UNL     1      47.479   2.377  73.284  1.00  0.00     0.041 C 
ATOM      7  O   UNL     1      47.653   3.568  72.917  1.00  0.00    -0.550 OA
ATOM      8  O   UNL     1      46.235   1.977  73.756  1.00  0.00    -0.550 OA
ENDBRANCH   5   6
ENDBRANCH   4   5
ENDBRANCH   3   4
ENDBRANCH   2   3
ENDBRANCH   1   2
BRANCH   1   9
ATOM      9  C   UNL     1      51.774  -2.026  73.163  1.00  0.00     0.000 C 
BRANCH   9  10
ATOM     10  C   UNL     1      51.902  -3.460  72.620  1.00  0.00    -0.000 C 
BRANCH  10  11
ATOM     11  C   UNL     1      50.713  -4.352  73.012  1.00  0.00    -0.000 C 
BRANCH  11  12
ATOM     12  C   UNL     1      49.587  -4.250  71.973  1.00  0.00    -0.000 C 
BRANCH  12  13
ATOM     13  C   UNL     1      48.243  -3.845  72.596  1.00  0.00    -0.003 C 
ATOM     14  C   UNL     1      48.376  -3.401  74.053  1.00  0.00     0.004 C 
ENDBRANCH  12  13
ENDBRANCH  11  12
ENDBRANCH  10  11
ENDBRANCH   9  10
ENDBRANCH   1   9
TORSDOF 10
ENDMDL
MODEL 4
REMARK VINA RESULT:    -4.135     12.710     14.162
REMARK INTER + INTRA:          -7.191
REMARK INTER:                  -6.020
REMARK INTRA:                  -1.171
REMARK UNBOUND:                -0.639
REMARK SMILES CCCCCCCCCCCC(=O)[O-]
REMARK SMILES IDX 7 1 8 2 9 3 10 4 11 5 12 6 13 7 14 8 6 9 5 10 4 11 3 12 2 13
REMARK SMILES IDX 1 14
REMARK H PARENT
REMARK Flexibility Score: inf
ROOT
ATOM      1  C   UNL     1      48.792   1.239  73.700  1.00  0.00     0.000 C 
ENDROOT
BRANCH   1   2
ATOM      2  C   UNL     1      48.165   0.495  72.507  1.00  0.00     0.000 C 
BRANCH   2   3
ATOM      3  C   UNL     1      49.157  -0.292  71.630  1.00  0.00     0.000 C 
BRANCH   3   4
ATOM      4  C   UNL     1      50.626  -0.021  71.996  1.00  0.00     0.006 C 
BRANCH   4   5
ATOM      5  C   UNL     1      51.370  -1.305  72.390  1.00  0.00     0.053 C 
BRANCH   5   6
ATOM      6  C   UNL     1      52.806  -1.271  71.966  1.00  0.00     0.041 C 
ATOM      7  O   UNL     1      53.541  -2.278  72.137  1.00  0.00    -0.550 OA
ATOM      8  O   UNL     1      53.325  -0.136  71.356  1.00  0.00    -0.550 OA
ENDBRANCH   5   6
ENDBRANCH   4   5
ENDBRANCH   3   4
ENDBRANCH   2   3
ENDBRANCH   1   2
BRANCH   1   9
ATOM      9  C   UNL     1      48.601   0.498  75.034  1.00  0.00     0.000 C 
BRANCH   9  10
ATOM     10  C   UNL     1      47.789  -0.799  74.878  1.00  0.00    -0.000 C 
BRANCH  10  11
ATOM     11  C   UNL     1      48.657  -2.061  74.992  1.00  0.00    -0.000 C 
BRANCH  11  12
ATOM     12  C   UNL     1      47.937  -3.276  74.387  1.00  0.00    -0.000 C 
BRANCH  12  13
ATOM     13  C   UNL     1      48.170  -3.409  72.875  1.00  0.00    -0.003 C 
ATOM     14  C   UNL     1      48.642  -4.806  72.471  1.00  0.00     0.004 C 
ENDBRANCH  12  13
ENDBRANCH  11  12
ENDBRANCH  10  11
ENDBRANCH   9  10
ENDBRANCH   1   9
TORSDOF 10
ENDMDL
MODEL 5
REMARK VINA RESULT:    -4.120      3.643      7.373
REMARK INTER + INTRA:          -7.167
REMARK INTER:                  -5.991
REMARK INTRA:                  -1.176
REMARK UNBOUND:                -0.639
REMARK SMILES CCCCCCCCCCCC(=O)[O-]
REMARK SMILES IDX 7 1 8 2 9 3 10 4 11 5 12 6 13 7 14 8 6 9 5 10 4 11 3 12 2 13
REMARK SMILES IDX 1 14
REMARK H PARENT
REMARK Flexibility Score: inf
ROOT
ATOM      1  C   UNL     1      61.471  -7.203  80.737  1.00  0.00     0.000 C 
ENDROOT
BRANCH   1   2
ATOM      2  C   UNL     1      61.792  -7.014  82.231  1.00  0.00     0.000 C 
BRANCH   2   3
ATOM      3  C   UNL     1      60.566  -6.837  83.147  1.00  0.00     0.000 C 
BRANCH   3   4
ATOM      4  C   UNL     1      59.439  -6.020  82.491  1.00  0.00     0.006 C 
BRANCH   4   5
ATOM      5  C   UNL     1      59.482  -4.542  82.901  1.00  0.00     0.053 C 
BRANCH   5   6
ATOM      6  C   UNL     1      59.742  -3.645  81.730  1.00  0.00     0.041 C 
ATOM      7  O   UNL     1      58.885  -2.789  81.385  1.00  0.00    -0.550 OA
ATOM      8  O   UNL     1      60.941  -3.736  81.034  1.00  0.00    -0.550 OA
ENDBRANCH   5   6
ENDBRANCH   4   5
ENDBRANCH   3   4
ENDBRANCH   2   3
ENDBRANCH   1   2
BRANCH   1   9
ATOM      9  C   UNL     1      61.932  -8.565  80.193  1.00  0.00     0.000 C 
BRANCH   9  10
ATOM     10  C   UNL     1      60.765  -9.413  79.659  1.00  0.00    -0.000 C 
BRANCH  10  11
ATOM     11  C   UNL     1      59.465  -9.201  80.449  1.00  0.00    -0.000 C 
BRANCH  11  12
ATOM     12  C   UNL     1      59.411 -10.127  81.672  1.00  0.00    -0.000 C 
BRANCH  12  13
ATOM     13  C   UNL     1      60.368 -11.322  81.552  1.00  0.00    -0.003 C 
ATOM     14  C   UNL     1      61.340 -11.420  82.728  1.00  0.00     0.004 C 
ENDBRANCH  12  13
ENDBRANCH  11  12
ENDBRANCH  10  11
ENDBRANCH   9  10
ENDBRANCH   1   9
TORSDOF 10
ENDMDL
MODEL 6
REMARK VINA RESULT:    -4.110     13.694     14.788
REMARK INTER + INTRA:          -7.151
REMARK INTER:                  -6.232
REMARK INTRA:                  -0.919
REMARK UNBOUND:                -0.639
REMARK SMILES CCCCCCCCCCCC(=O)[O-]
REMARK SMILES IDX 7 1 8 2 9 3 10 4 11 5 12 6 13 7 14 8 6 9 5 10 4 11 3 12 2 13
REMARK SMILES IDX 1 14
REMARK H PARENT
REMARK Flexibility Score: inf
ROOT
ATOM      1  C   UNL     1      50.176  -3.916  71.681  1.00  0.00     0.000 C 
ENDROOT
BRANCH   1   2
ATOM      2  C   UNL     1      49.247  -4.640  72.673  1.00  0.00     0.000 C 
BRANCH   2   3
ATOM      3  C   UNL     1      47.868  -3.987  72.875  1.00  0.00     0.000 C 
BRANCH   3   4
ATOM      4  C   UNL     1      46.783  -4.993  73.297  1.00  0.00     0.006 C 
BRANCH   4   5
ATOM      5  C   UNL     1      46.850  -6.292  72.482  1.00  0.00     0.053 C 
BRANCH   5   6
ATOM      6  C   UNL     1      45.750  -7.240  72.851  1.00  0.00     0.041 C 
ATOM      7  O   UNL     1      45.721  -8.398  72.358  1.00  0.00    -0.550 OA
ATOM      8  O   UNL     1      44.773  -6.853  73.760  1.00  0.00    -0.550 OA
ENDBRANCH   5   6
ENDBRANCH   4   5
ENDBRANCH   3   4
ENDBRANCH   2   3
ENDBRANCH   1   2
BRANCH   1   9
ATOM      9  C   UNL     1      51.492  -3.448  72.326  1.00  0.00     0.000 C 
BRANCH   9  10
ATOM     10  C   UNL     1      51.354  -2.085  73.026  1.00  0.00    -0.000 C 
BRANCH  10  11
ATOM     11  C   UNL     1      51.816  -0.915  72.144  1.00  0.00    -0.000 C 
BRANCH  11  12
ATOM     12  C   UNL     1      50.744   0.183  72.085  1.00  0.00    -0.000 C 
BRANCH  12  13
ATOM     13  C   UNL     1      49.381  -0.293  72.609  1.00  0.00    -0.003 C 
ATOM     14  C   UNL     1      48.382  -0.576  71.487  1.00  0.00     0.004 C 
ENDBRANCH  12  13
ENDBRANCH  11  12
ENDBRANCH  10  11
ENDBRANCH   9  10
ENDBRANCH   1   9
TORSDOF 10
ENDMDL
MODEL 7
REMARK VINA RESULT:    -4.095      3.433      7.769
REMARK INTER + INTRA:          -7.128
REMARK INTER:                  -6.437
REMARK INTRA:                  -0.691
REMARK UNBOUND:                -0.639
REMARK SMILES CCCCCCCCCCCC(=O)[O-]
REMARK SMILES IDX 7 1 8 2 9 3 10 4 11 5 12 6 13 7 14 8 6 9 5 10 4 11 3 12 2 13
REMARK SMILES IDX 1 14
REMARK H PARENT
REMARK Flexibility Score: inf
ROOT
ATOM      1  C   UNL     1      60.205  -7.069  82.541  1.00  0.00     0.000 C 
ENDROOT
BRANCH   1   2
ATOM      2  C   UNL     1      59.506  -5.751  82.919  1.00  0.00     0.000 C 
BRANCH   2   3
ATOM      3  C   UNL     1      59.944  -4.520  82.104  1.00  0.00     0.000 C 
BRANCH   3   4
ATOM      4  C   UNL     1      59.506  -3.190  82.742  1.00  0.00     0.006 C 
BRANCH   4   5
ATOM      5  C   UNL     1      58.383  -2.509  81.948  1.00  0.00     0.053 C 
BRANCH   5   6
ATOM      6  C   UNL     1      57.371  -1.871  82.848  1.00  0.00     0.041 C 
ATOM      7  O   UNL     1      57.665  -0.831  83.495  1.00  0.00    -0.550 OA
ATOM      8  O   UNL     1      56.094  -2.408  82.953  1.00  0.00    -0.550 OA
ENDBRANCH   5   6
ENDBRANCH   4   5
ENDBRANCH   3   4
ENDBRANCH   2   3
ENDBRANCH   1   2
BRANCH   1   9
ATOM      9  C   UNL     1      61.645  -6.861  82.042  1.00  0.00     0.000 C 
BRANCH   9  10
ATOM     10  C   UNL     1      61.917  -7.581  80.710  1.00  0.00    -0.000 C 
BRANCH  10  11
ATOM     11  C   UNL     1      60.769  -8.512  80.291  1.00  0.00    -0.000 C 
BRANCH  11  12
ATOM     12  C   UNL     1      61.196  -9.984  80.385  1.00  0.00    -0.000 C 
BRANCH  12  13
ATOM     13  C   UNL     1      60.431 -10.753  81.472  1.00  0.00    -0.003 C 
ATOM     14  C   UNL     1      61.343 -11.261  82.589  1.00  0.00     0.004 C 
ENDBRANCH  12  13
ENDBRANCH  11  12
ENDBRANCH  10  11
ENDBRANCH   9  10
ENDBRANCH   1   9
TORSDOF 10
ENDMDL
MODEL 8
REMARK VINA RESULT:    -4.084      3.004      4.432
REMARK INTER + INTRA:          -7.110
REMARK INTER:                  -6.191
REMARK INTRA:                  -0.919
REMARK UNBOUND:                -0.639
REMARK SMILES CCCCCCCCCCCC(=O)[O-]
REMARK SMILES IDX 7 1 8 2 9 3 10 4 11 5 12 6 13 7 14 8 6 9 5 10 4 11 3 12 2 13
REMARK SMILES IDX 1 14
REMARK H PARENT
REMARK Flexibility Score: inf
ROOT
ATOM      1  C   UNL     1      60.663  -7.530  81.964  1.00  0.00     0.000 C 
ENDROOT
BRANCH   1   2
ATOM      2  C   UNL     1      61.615  -6.966  80.894  1.00  0.00     0.000 C 
BRANCH   2   3
ATOM      3  C   UNL     1      61.900  -7.908  79.709  1.00  0.00     0.000 C 
BRANCH   3   4
ATOM      4  C   UNL     1      61.420  -9.349  79.959  1.00  0.00     0.006 C 
BRANCH   4   5
ATOM      5  C   UNL     1      60.250  -9.735  79.044  1.00  0.00     0.053 C 
BRANCH   5   6
ATOM      6  C   UNL     1      58.975  -9.908  79.812  1.00  0.00     0.041 C 
ATOM      7  O   UNL     1      57.897  -9.436  79.364  1.00  0.00    -0.550 OA
ATOM      8  O   UNL     1      58.973 -10.612  81.009  1.00  0.00    -0.550 OA
ENDBRANCH   5   6
ENDBRANCH   4   5
ENDBRANCH   3   4
ENDBRANCH   2   3
ENDBRANCH   1   2
BRANCH   1   9
ATOM      9  C   UNL     1      60.315  -6.505  83.056  1.00  0.00     0.000 C 
BRANCH   9  10
ATOM     10  C   UNL     1      58.800  -6.261  83.175  1.00  0.00    -0.000 C 
BRANCH  10  11
ATOM     11  C   UNL     1      58.365  -4.916  82.574  1.00  0.00    -0.000 C 
BRANCH  11  12
ATOM     12  C   UNL     1      59.491  -3.878  82.683  1.00  0.00    -0.000 C 
BRANCH  12  13
ATOM     13  C   UNL     1      59.758  -3.153  81.356  1.00  0.00    -0.003 C 
ATOM     14  C   UNL     1      61.208  -3.287  80.890  1.00  0.00     0.004 C 
ENDBRANCH  12  13
ENDBRANCH  11  12
ENDBRANCH  10  11
ENDBRANCH   9  10
ENDBRANCH   1   9
TORSDOF 10
ENDMDL
MODEL 9
REMARK VINA RESULT:    -4.073     14.135     15.357
REMARK INTER + INTRA:          -7.094
REMARK INTER:                  -6.151
REMARK INTRA:                  -0.943
REMARK UNBOUND:                -0.639
REMARK SMILES CCCCCCCCCCCC(=O)[O-]
REMARK SMILES IDX 7 1 8 2 9 3 10 4 11 5 12 6 13 7 14 8 6 9 5 10 4 11 3 12 2 13
REMARK SMILES IDX 1 14
REMARK H PARENT
REMARK Flexibility Score: inf
ROOT
ATOM      1  C   UNL     1      48.875  -4.004  73.733  1.00  0.00     0.000 C 
ENDROOT
BRANCH   1   2
ATOM      2  C   UNL     1      47.476  -4.187  73.118  1.00  0.00     0.000 C 
BRANCH   2   3
ATOM      3  C   UNL     1      47.277  -5.486  72.316  1.00  0.00     0.000 C 
BRANCH   3   4
ATOM      4  C   UNL     1      46.059  -6.301  72.785  1.00  0.00     0.006 C 
BRANCH   4   5
ATOM      5  C   UNL     1      45.503  -5.792  74.122  1.00  0.00     0.053 C 
BRANCH   5   6
ATOM      6  C   UNL     1      44.182  -6.419  74.451  1.00  0.00     0.041 C 
ATOM      7  O   UNL     1      44.113  -7.330  75.317  1.00  0.00    -0.550 OA
ATOM      8  O   UNL     1      43.025  -5.978  73.822  1.00  0.00    -0.550 OA
ENDBRANCH   5   6
ENDBRANCH   4   5
ENDBRANCH   3   4
ENDBRANCH   2   3
ENDBRANCH   1   2
BRANCH   1   9
ATOM      9  C   UNL     1      50.006  -4.452  72.792  1.00  0.00     0.000 C 
BRANCH   9  10
ATOM     10  C   UNL     1      50.390  -3.366  71.773  1.00  0.00    -0.000 C 
BRANCH  10  11
ATOM     11  C   UNL     1      51.287  -2.274  72.377  1.00  0.00    -0.000 C 
BRANCH  11  12
ATOM     12  C   UNL     1      50.570  -0.916  72.378  1.00  0.00    -0.000 C 
BRANCH  12  13
ATOM     13  C   UNL     1      49.229  -0.955  71.631  1.00  0.00    -0.003 C 
ATOM     14  C   UNL     1      48.089  -0.323  72.429  1.00  0.00     0.004 C 
ENDBRANCH  12  13
ENDBRANCH  11  12
ENDBRANCH  10  11
ENDBRANCH   9  10
ENDBRANCH   1   9
TORSDOF 10
ENDMDL
