MODEL 1
REMARK VINA RESULT:    -5.357      0.000      0.000
REMARK INTER + INTRA:          -8.077
REMARK INTER:                  -7.237
REMARK INTRA:                  -0.840
REMARK UNBOUND:                -0.840
REMARK SMILES CC(=O)CCC=C(C)CCC=C(C)C
REMARK SMILES IDX 7 1 6 2 8 3 9 4 10 5 11 6 13 7 12 8 14 9 5 10 4 11 2 12 3 13
REMARK SMILES IDX 1 14
REMARK H PARENT
REMARK Flexibility Score: inf
ROOT
ATOM      1  C   UNL     1      15.293 -32.234  22.965  1.00  0.00    -0.077 C 
ATOM      2  C   UNL     1      15.733 -32.948  21.905  1.00  0.00    -0.028 C 
ATOM      3  C   UNL     1      14.316 -32.816  23.957  1.00  0.00     0.039 C 
ENDROOT
BRANCH   1   4
ATOM      4  C   UNL     1      15.801 -30.822  23.168  1.00  0.00     0.034 C 
BRANCH   4   5
ATOM      5  C   UNL     1      15.067 -29.819  22.270  1.00  0.00     0.032 C 
BRANCH   5   6
ATOM      6  C   UNL     1      13.977 -29.102  23.035  1.00  0.00    -0.028 C 
ATOM      7  C   UNL     1      11.692 -28.535  23.735  1.00  0.00     0.039 C 
ATOM      8  C   UNL     1      12.659 -29.387  22.953  1.00  0.00    -0.080 C 
ATOM      9  C   UNL     1      12.133 -30.527  22.113  1.00  0.00     0.039 C 
ENDBRANCH   5   6
ENDBRANCH   4   5
ENDBRANCH   1   4
BRANCH   2  10
ATOM     10  C   UNL     1      15.298 -34.369  21.632  1.00  0.00     0.035 C 
BRANCH  10  11
ATOM     11  C   UNL     1      15.091 -34.634  20.135  1.00  0.00     0.079 C 
BRANCH  11  12
ATOM     12  C   UNL     1      16.317 -35.234  19.499  1.00  0.00     0.130 C 
ATOM     13  O   UNL     1      16.445 -36.448  19.456  1.00  0.00    -0.300 OA
ATOM     14  C   UNL     1      17.404 -34.362  18.942  1.00  0.00     0.087 C 
ENDBRANCH  11  12
ENDBRANCH  10  11
ENDBRANCH   2  10
TORSDOF 6
ENDMDL
MODEL 2
REMARK VINA RESULT:    -5.283      1.114      1.851
REMARK INTER + INTRA:          -7.977
REMARK INTER:                  -7.017
REMARK INTRA:                  -0.960
REMARK UNBOUND:                -0.840
REMARK SMILES CC(=O)CCC=C(C)CCC=C(C)C
REMARK SMILES IDX 7 1 6 2 8 3 9 4 10 5 11 6 13 7 12 8 14 9 5 10 4 11 2 12 3 13
REMARK SMILES IDX 1 14
REMARK H PARENT
REMARK Flexibility Score: inf
ROOT
ATOM      1  C   UNL     1      15.844 -32.970  22.063  1.00  0.00    -0.077 C 
ATOM      2  C   UNL     1      15.097 -33.931  21.474  1.00  0.00    -0.028 C 
ATOM      3  C   UNL     1      16.969 -32.285  21.326  1.00  0.00     0.039 C 
ENDROOT
BRANCH   1   4
ATOM      4  C   UNL     1      15.536 -32.565  23.489  1.00  0.00     0.034 C 
BRANCH   4   5
ATOM      5  C   UNL     1      14.028 -32.562  23.767  1.00  0.00     0.032 C 
BRANCH   5   6
ATOM      6  C   UNL     1      13.501 -31.151  23.887  1.00  0.00    -0.028 C 
ATOM      7  C   UNL     1      12.497 -29.033  23.152  1.00  0.00     0.039 C 
ATOM      8  C   UNL     1      12.912 -30.457  22.888  1.00  0.00    -0.080 C 
ATOM      9  C   UNL     1      12.657 -31.065  21.528  1.00  0.00     0.039 C 
ENDBRANCH   5   6
ENDBRANCH   4   5
ENDBRANCH   1   4
BRANCH   2  10
ATOM     10  C   UNL     1      15.315 -34.386  20.050  1.00  0.00     0.035 C 
BRANCH  10  11
ATOM     11  C   UNL     1      15.779 -35.847  19.974  1.00  0.00     0.079 C 
BRANCH  11  12
ATOM     12  C   UNL     1      17.123 -35.973  19.304  1.00  0.00     0.130 C 
ATOM     13  O   UNL     1      17.579 -37.080  19.065  1.00  0.00    -0.300 OA
ATOM     14  C   UNL     1      17.928 -34.757  18.952  1.00  0.00     0.087 C 
ENDBRANCH  11  12
ENDBRANCH  10  11
ENDBRANCH   2  10
TORSDOF 6
ENDMDL
MODEL 3
REMARK VINA RESULT:    -5.242      1.124      1.668
REMARK INTER + INTRA:          -7.921
REMARK INTER:                  -7.357
REMARK INTRA:                  -0.564
REMARK UNBOUND:                -0.840
REMARK SMILES CC(=O)CCC=C(C)CCC=C(C)C
REMARK SMILES IDX 7 1 6 2 8 3 9 4 10 5 11 6 13 7 12 8 14 9 5 10 4 11 2 12 3 13
REMARK SMILES IDX 1 14
REMARK H PARENT
REMARK Flexibility Score: inf
ROOT
ATOM      1  C   UNL     1      14.961 -33.397  23.570  1.00  0.00    -0.077 C 
ATOM      2  C   UNL     1      15.006 -33.639  22.241  1.00  0.00    -0.028 C 
ATOM      3  C   UNL     1      15.971 -33.999  24.516  1.00  0.00     0.039 C 
ENDROOT
BRANCH   1   4
ATOM      4  C   UNL     1      13.879 -32.491  24.120  1.00  0.00     0.034 C 
BRANCH   4   5
ATOM      5  C   UNL     1      13.250 -31.625  23.022  1.00  0.00     0.032 C 
BRANCH   5   6
ATOM      6  C   UNL     1      12.935 -30.239  23.536  1.00  0.00    -0.028 C 
ATOM      7  C   UNL     1      13.200 -27.816  23.838  1.00  0.00     0.039 C 
ATOM      8  C   UNL     1      13.597 -29.115  23.185  1.00  0.00    -0.080 C 
ATOM      9  C   UNL     1      14.710 -29.122  22.163  1.00  0.00     0.039 C 
ENDBRANCH   5   6
ENDBRANCH   4   5
ENDBRANCH   1   4
BRANCH   2  10
ATOM     10  C   UNL     1      16.059 -34.512  21.599  1.00  0.00     0.035 C 
BRANCH  10  11
ATOM     11  C   UNL     1      15.612 -35.050  20.234  1.00  0.00     0.079 C 
BRANCH  11  12
ATOM     12  C   UNL     1      16.786 -35.450  19.379  1.00  0.00     0.130 C 
ATOM     13  O   UNL     1      16.894 -36.607  19.002  1.00  0.00    -0.300 OA
ATOM     14  C   UNL     1      17.846 -34.456  19.007  1.00  0.00     0.087 C 
ENDBRANCH  11  12
ENDBRANCH  10  11
ENDBRANCH   2  10
TORSDOF 6
ENDMDL
MODEL 4
REMARK VINA RESULT:    -5.229      1.079      1.206
REMARK INTER + INTRA:          -7.903
REMARK INTER:                  -7.002
REMARK INTRA:                  -0.901
REMARK UNBOUND:                -0.840
REMARK SMILES CC(=O)CCC=C(C)CCC=C(C)C
REMARK SMILES IDX 7 1 6 2 8 3 9 4 10 5 11 6 13 7 12 8 14 9 5 10 4 11 2 12 3 13
REMARK SMILES IDX 1 14
REMARK H PARENT
REMARK Flexibility Score: inf
ROOT
ATOM      1  C   UNL     1      15.888 -31.533  22.297  1.00  0.00    -0.077 C 
ATOM      2  C   UNL     1      15.530 -32.311  21.252  1.00  0.00    -0.028 C 
ATOM      3  C   UNL     1      15.981 -32.088  23.698  1.00  0.00     0.039 C 
ENDROOT
BRANCH   1   4
ATOM      4  C   UNL     1      16.214 -30.074  22.056  1.00  0.00     0.034 C 
BRANCH   4   5
ATOM      5  C   UNL     1      15.000 -29.299  21.529  1.00  0.00     0.032 C 
BRANCH   5   6
ATOM      6  C   UNL     1      14.118 -28.834  22.665  1.00  0.00    -0.028 C 
ATOM      7  C   UNL     1      12.128 -28.742  24.102  1.00  0.00     0.039 C 
ATOM      8  C   UNL     1      12.914 -29.362  22.976  1.00  0.00    -0.080 C 
ATOM      9  C   UNL     1      12.341 -30.549  22.236  1.00  0.00     0.039 C 
ENDBRANCH   5   6
ENDBRANCH   4   5
ENDBRANCH   1   4
BRANCH   2  10
ATOM     10  C   UNL     1      15.206 -33.780  21.391  1.00  0.00     0.035 C 
BRANCH  10  11
ATOM     11  C   UNL     1      14.973 -34.454  20.033  1.00  0.00     0.079 C 
BRANCH  11  12
ATOM     12  C   UNL     1      16.259 -34.955  19.429  1.00  0.00     0.130 C 
ATOM     13  O   UNL     1      16.935 -34.208  18.738  1.00  0.00    -0.300 OA
ATOM     14  C   UNL     1      16.710 -36.370  19.637  1.00  0.00     0.087 C 
ENDBRANCH  11  12
ENDBRANCH  10  11
ENDBRANCH   2  10
TORSDOF 6
ENDMDL
MODEL 5
REMARK VINA RESULT:    -5.156      1.404      1.851
REMARK INTER + INTRA:          -7.805
REMARK INTER:                  -7.160
REMARK INTRA:                  -0.645
REMARK UNBOUND:                -0.840
REMARK SMILES CC(=O)CCC=C(C)CCC=C(C)C
REMARK SMILES IDX 7 1 6 2 8 3 9 4 10 5 11 6 13 7 12 8 14 9 5 10 4 11 2 12 3 13
REMARK SMILES IDX 1 14
REMARK H PARENT
REMARK Flexibility Score: inf
ROOT
ATOM      1  C   UNL     1      14.438 -32.675  21.706  1.00  0.00    -0.077 C 
ATOM      2  C   UNL     1      15.106 -33.839  21.542  1.00  0.00    -0.028 C 
ATOM      3  C   UNL     1      13.482 -32.160  20.658  1.00  0.00     0.039 C 
ENDROOT
BRANCH   1   4
ATOM      4  C   UNL     1      14.645 -31.876  22.975  1.00  0.00     0.034 C 
BRANCH   4   5
ATOM      5  C   UNL     1      13.313 -31.446  23.601  1.00  0.00     0.032 C 
BRANCH   5   6
ATOM      6  C   UNL     1      13.277 -29.953  23.831  1.00  0.00    -0.028 C 
ATOM      7  C   UNL     1      12.513 -27.633  23.569  1.00  0.00     0.039 C 
ATOM      8  C   UNL     1      12.372 -29.108  23.290  1.00  0.00    -0.080 C 
ATOM      9  C   UNL     1      11.232 -29.595  22.426  1.00  0.00     0.039 C 
ENDBRANCH   5   6
ENDBRANCH   4   5
ENDBRANCH   1   4
BRANCH   2  10
ATOM     10  C   UNL     1      14.948 -34.713  20.320  1.00  0.00     0.035 C 
BRANCH  10  11
ATOM     11  C   UNL     1      15.995 -34.398  19.244  1.00  0.00     0.079 C 
BRANCH  11  12
ATOM     12  C   UNL     1      17.169 -35.340  19.313  1.00  0.00     0.130 C 
ATOM     13  O   UNL     1      18.254 -34.988  18.878  1.00  0.00    -0.300 OA
ATOM     14  C   UNL     1      17.020 -36.720  19.882  1.00  0.00     0.087 C 
ENDBRANCH  11  12
ENDBRANCH  10  11
ENDBRANCH   2  10
TORSDOF 6
ENDMDL
MODEL 6
REMARK VINA RESULT:    -5.089      1.690      2.499
REMARK INTER + INTRA:          -7.715
REMARK INTER:                  -6.472
REMARK INTRA:                  -1.243
REMARK UNBOUND:                -0.840
REMARK SMILES CC(=O)CCC=C(C)CCC=C(C)C
REMARK SMILES IDX 7 1 6 2 8 3 9 4 10 5 11 6 13 7 12 8 14 9 5 10 4 11 2 12 3 13
REMARK SMILES IDX 1 14
REMARK H PARENT
REMARK Flexibility Score: inf
ROOT
ATOM      1  C   UNL     1      17.528 -31.710  21.698  1.00  0.00    -0.077 C 
ATOM      2  C   UNL     1      17.923 -32.183  20.495  1.00  0.00    -0.028 C 
ATOM      3  C   UNL     1      17.338 -32.629  22.881  1.00  0.00     0.039 C 
ENDROOT
BRANCH   1   4
ATOM      4  C   UNL     1      17.283 -30.226  21.866  1.00  0.00     0.034 C 
BRANCH   4   5
ATOM      5  C   UNL     1      15.925 -29.944  22.518  1.00  0.00     0.032 C 
BRANCH   5   6
ATOM      6  C   UNL     1      14.790 -30.302  21.586  1.00  0.00    -0.028 C 
ATOM      7  C   UNL     1      12.755 -31.446  20.821  1.00  0.00     0.039 C 
ATOM      8  C   UNL     1      13.777 -31.144  21.887  1.00  0.00    -0.080 C 
ATOM      9  C   UNL     1      13.639 -31.781  23.250  1.00  0.00     0.039 C 
ENDBRANCH   5   6
ENDBRANCH   4   5
ENDBRANCH   1   4
BRANCH   2  10
ATOM     10  C   UNL     1      18.210 -33.643  20.237  1.00  0.00     0.035 C 
BRANCH  10  11
ATOM     11  C   UNL     1      17.341 -34.215  19.109  1.00  0.00     0.079 C 
BRANCH  11  12
ATOM     12  C   UNL     1      16.209 -35.052  19.646  1.00  0.00     0.130 C 
ATOM     13  O   UNL     1      16.255 -36.268  19.543  1.00  0.00    -0.300 OA
ATOM     14  C   UNL     1      15.008 -34.414  20.278  1.00  0.00     0.087 C 
ENDBRANCH  11  12
ENDBRANCH  10  11
ENDBRANCH   2  10
TORSDOF 6
ENDMDL
MODEL 7
REMARK VINA RESULT:    -5.068      1.569      2.370
REMARK INTER + INTRA:          -7.687
REMARK INTER:                  -6.595
REMARK INTRA:                  -1.092
REMARK UNBOUND:                -0.840
REMARK SMILES CC(=O)CCC=C(C)CCC=C(C)C
REMARK SMILES IDX 7 1 6 2 8 3 9 4 10 5 11 6 13 7 12 8 14 9 5 10 4 11 2 12 3 13
REMARK SMILES IDX 1 14
REMARK H PARENT
REMARK Flexibility Score: inf
ROOT
ATOM      1  C   UNL     1      15.472 -32.805  22.324  1.00  0.00    -0.077 C 
ATOM      2  C   UNL     1      16.645 -32.146  22.198  1.00  0.00    -0.028 C 
ATOM      3  C   UNL     1      14.723 -33.318  21.119  1.00  0.00     0.039 C 
ENDROOT
BRANCH   1   4
ATOM      4  C   UNL     1      14.903 -33.043  23.707  1.00  0.00     0.034 C 
BRANCH   4   5
ATOM      5  C   UNL     1      13.502 -32.438  23.857  1.00  0.00     0.032 C 
BRANCH   5   6
ATOM      6  C   UNL     1      13.559 -30.928  23.848  1.00  0.00    -0.028 C 
ATOM      7  C   UNL     1      13.134 -28.645  23.048  1.00  0.00     0.039 C 
ATOM      8  C   UNL     1      12.923 -30.134  22.958  1.00  0.00    -0.080 C 
ATOM      9  C   UNL     1      12.012 -30.693  21.889  1.00  0.00     0.039 C 
ENDBRANCH   5   6
ENDBRANCH   4   5
ENDBRANCH   1   4
BRANCH   2  10
ATOM     10  C   UNL     1      17.300 -31.879  20.863  1.00  0.00     0.035 C 
BRANCH  10  11
ATOM     11  C   UNL     1      18.595 -32.682  20.682  1.00  0.00     0.079 C 
BRANCH  11  12
ATOM     12  C   UNL     1      18.317 -34.120  20.330  1.00  0.00     0.130 C 
ATOM     13  O   UNL     1      18.460 -34.989  21.175  1.00  0.00    -0.300 OA
ATOM     14  C   UNL     1      17.895 -34.508  18.943  1.00  0.00     0.087 C 
ENDBRANCH  11  12
ENDBRANCH  10  11
ENDBRANCH   2  10
TORSDOF 6
ENDMDL
MODEL 8
REMARK VINA RESULT:    -4.993      2.158      5.255
REMARK INTER + INTRA:          -7.585
REMARK INTER:                  -6.288
REMARK INTRA:                  -1.297
REMARK UNBOUND:                -0.840
REMARK SMILES CC(=O)CCC=C(C)CCC=C(C)C
REMARK SMILES IDX 7 1 6 2 8 3 9 4 10 5 11 6 13 7 12 8 14 9 5 10 4 11 2 12 3 13
REMARK SMILES IDX 1 14
REMARK H PARENT
REMARK Flexibility Score: inf
ROOT
ATOM      1  C   UNL     1      16.787 -30.447  22.087  1.00  0.00    -0.077 C 
ATOM      2  C   UNL     1      15.713 -29.692  21.767  1.00  0.00    -0.028 C 
ATOM      3  C   UNL     1      17.035 -30.904  23.504  1.00  0.00     0.039 C 
ENDROOT
BRANCH   1   4
ATOM      4  C   UNL     1      17.756 -30.855  20.997  1.00  0.00     0.034 C 
BRANCH   4   5
ATOM      5  C   UNL     1      18.027 -32.364  21.012  1.00  0.00     0.032 C 
BRANCH   5   6
ATOM      6  C   UNL     1      16.886 -33.127  20.380  1.00  0.00    -0.028 C 
ATOM      7  C   UNL     1      15.072 -34.776  20.217  1.00  0.00     0.039 C 
ATOM      8  C   UNL     1      16.135 -34.057  21.009  1.00  0.00    -0.080 C 
ATOM      9  C   UNL     1      16.324 -34.390  22.471  1.00  0.00     0.039 C 
ENDBRANCH   5   6
ENDBRANCH   4   5
ENDBRANCH   1   4
BRANCH   2  10
ATOM     10  C   UNL     1      14.682 -29.255  22.782  1.00  0.00     0.035 C 
BRANCH  10  11
ATOM     11  C   UNL     1      13.310 -29.892  22.525  1.00  0.00     0.079 C 
BRANCH  11  12
ATOM     12  C   UNL     1      13.385 -31.396  22.517  1.00  0.00     0.130 C 
ATOM     13  O   UNL     1      13.228 -32.004  21.469  1.00  0.00    -0.300 OA
ATOM     14  C   UNL     1      13.617 -32.165  23.784  1.00  0.00     0.087 C 
ENDBRANCH  11  12
ENDBRANCH  10  11
ENDBRANCH   2  10
TORSDOF 6
ENDMDL
MODEL 9
REMARK VINA RESULT:    -4.989      2.944      6.661
REMARK INTER + INTRA:          -7.580
REMARK INTER:                  -7.022
REMARK INTRA:                  -0.558
REMARK UNBOUND:                -0.840
REMARK SMILES CC(=O)CCC=C(C)CCC=C(C)C
REMARK SMILES IDX 7 1 6 2 8 3 9 4 10 5 11 6 13 7 12 8 14 9 5 10 4 11 2 12 3 13
REMARK SMILES IDX 1 14
REMARK H PARENT
REMARK Flexibility Score: inf
ROOT
ATOM      1  C   UNL     1      15.189 -32.554  23.068  1.00  0.00    -0.077 C 
ATOM      2  C   UNL     1      13.909 -32.258  23.384  1.00  0.00    -0.028 C 
ATOM      3  C   UNL     1      16.284 -31.519  23.163  1.00  0.00     0.039 C 
ENDROOT
BRANCH   1   4
ATOM      4  C   UNL     1      15.535 -33.959  22.622  1.00  0.00     0.034 C 
BRANCH   4   5
ATOM      5  C   UNL     1      15.067 -34.231  21.187  1.00  0.00     0.032 C 
BRANCH   5   6
ATOM      6  C   UNL     1      16.180 -33.980  20.196  1.00  0.00    -0.028 C 
ATOM      7  C   UNL     1      18.043 -34.522  18.689  1.00  0.00     0.039 C 
ATOM      8  C   UNL     1      16.926 -34.942  19.610  1.00  0.00    -0.080 C 
ATOM      9  C   UNL     1      16.672 -36.413  19.847  1.00  0.00     0.039 C 
ENDBRANCH   5   6
ENDBRANCH   4   5
ENDBRANCH   1   4
BRANCH   2  10
ATOM     10  C   UNL     1      13.472 -30.892  23.858  1.00  0.00     0.035 C 
BRANCH  10  11
ATOM     11  C   UNL     1      12.716 -30.116  22.771  1.00  0.00     0.079 C 
BRANCH  11  12
ATOM     12  C   UNL     1      12.155 -28.820  23.297  1.00  0.00     0.130 C 
ATOM     13  O   UNL     1      10.964 -28.581  23.172  1.00  0.00    -0.300 OA
ATOM     14  C   UNL     1      13.044 -27.801  23.947  1.00  0.00     0.087 C 
ENDBRANCH  11  12
ENDBRANCH  10  11
ENDBRANCH   2  10
TORSDOF 6
ENDMDL
