MODEL 1
REMARK VINA RESULT:    -3.841      0.000      0.000
REMARK INTER + INTRA:          -7.845
REMARK INTER:                  -6.535
REMARK INTRA:                  -1.310
REMARK UNBOUND:                -1.310
REMARK SMILES CCCCCCCCCCCCCC(=O)[O-]
REMARK SMILES IDX 8 1 9 2 10 3 11 4 12 5 13 6 14 7 15 8 16 9 7 10 6 11 5 12
REMARK SMILES IDX 4 13 3 14 2 15 1 16
REMARK H PARENT
REMARK Flexibility Score: inf
ROOT
ATOM      1  C   UNL     1      39.166  25.143 224.848  1.00  0.00     0.000 C 
ENDROOT
BRANCH   1   2
ATOM      2  C   UNL     1      39.144  23.780 225.555  1.00  0.00     0.000 C 
BRANCH   2   3
ATOM      3  C   UNL     1      39.290  22.636 224.544  1.00  0.00     0.000 C 
BRANCH   3   4
ATOM      4  C   UNL     1      40.006  23.112 223.272  1.00  0.00     0.000 C 
BRANCH   4   5
ATOM      5  C   UNL     1      41.304  22.334 222.990  1.00  0.00     0.006 C 
BRANCH   5   6
ATOM      6  C   UNL     1      41.607  21.219 224.004  1.00  0.00     0.053 C 
BRANCH   6   7
ATOM      7  C   UNL     1      42.156  19.993 223.341  1.00  0.00     0.041 C 
ATOM      8  O   UNL     1      41.820  19.705 222.163  1.00  0.00    -0.550 OA
ATOM      9  O   UNL     1      43.065  19.188 224.016  1.00  0.00    -0.550 OA
ENDBRANCH   6   7
ENDBRANCH   5   6
ENDBRANCH   4   5
ENDBRANCH   3   4
ENDBRANCH   2   3
ENDBRANCH   1   2
BRANCH   1  10
ATOM     10  C   UNL     1      37.775  25.793 224.767  1.00  0.00     0.000 C 
BRANCH  10  11
ATOM     11  C   UNL     1      37.110  25.597 223.393  1.00  0.00    -0.000 C 
BRANCH  11  12
ATOM     12  C   UNL     1      36.218  24.345 223.343  1.00  0.00    -0.000 C 
BRANCH  12  13
ATOM     13  C   UNL     1      36.421  23.522 222.061  1.00  0.00    -0.000 C 
BRANCH  13  14
ATOM     14  C   UNL     1      35.739  24.198 220.863  1.00  0.00    -0.000 C 
BRANCH  14  15
ATOM     15  C   UNL     1      36.413  23.849 219.526  1.00  0.00    -0.003 C 
ATOM     16  C   UNL     1      37.734  23.101 219.707  1.00  0.00     0.004 C 
ENDBRANCH  14  15
ENDBRANCH  13  14
ENDBRANCH  12  13
ENDBRANCH  11  12
ENDBRANCH  10  11
ENDBRANCH   1  10
TORSDOF 12
ENDMDL
MODEL 2
REMARK VINA RESULT:    -3.793      2.709      3.483
REMARK INTER + INTRA:          -7.764
REMARK INTER:                  -6.556
REMARK INTRA:                  -1.208
REMARK UNBOUND:                -1.310
REMARK SMILES CCCCCCCCCCCCCC(=O)[O-]
REMARK SMILES IDX 8 1 9 2 10 3 11 4 12 5 13 6 14 7 15 8 16 9 7 10 6 11 5 12
REMARK SMILES IDX 4 13 3 14 2 15 1 16
REMARK H PARENT
REMARK Flexibility Score: inf
ROOT
ATOM      1  C   UNL     1      40.844  23.697 223.130  1.00  0.00     0.000 C 
ENDROOT
BRANCH   1   2
ATOM      2  C   UNL     1      41.449  22.297 223.307  1.00  0.00     0.000 C 
BRANCH   2   3
ATOM      3  C   UNL     1      41.249  21.790 224.741  1.00  0.00     0.000 C 
BRANCH   3   4
ATOM      4  C   UNL     1      40.075  20.803 224.817  1.00  0.00     0.000 C 
BRANCH   4   5
ATOM      5  C   UNL     1      39.110  21.110 225.977  1.00  0.00     0.006 C 
BRANCH   5   6
ATOM      6  C   UNL     1      37.660  20.665 225.727  1.00  0.00     0.053 C 
BRANCH   6   7
ATOM      7  C   UNL     1      37.433  19.241 226.134  1.00  0.00     0.041 C 
ATOM      8  O   UNL     1      36.844  18.446 225.355  1.00  0.00    -0.550 OA
ATOM      9  O   UNL     1      37.902  18.785 227.359  1.00  0.00    -0.550 OA
ENDBRANCH   6   7
ENDBRANCH   5   6
ENDBRANCH   4   5
ENDBRANCH   3   4
ENDBRANCH   2   3
ENDBRANCH   1   2
BRANCH   1  10
ATOM     10  C   UNL     1      39.453  23.666 222.476  1.00  0.00     0.000 C 
BRANCH  10  11
ATOM     11  C   UNL     1      38.315  23.662 223.512  1.00  0.00    -0.000 C 
BRANCH  11  12
ATOM     12  C   UNL     1      36.971  23.217 222.909  1.00  0.00    -0.000 C 
BRANCH  12  13
ATOM     13  C   UNL     1      36.160  24.389 222.337  1.00  0.00    -0.000 C 
BRANCH  13  14
ATOM     14  C   UNL     1      35.423  23.970 221.057  1.00  0.00    -0.000 C 
BRANCH  14  15
ATOM     15  C   UNL     1      36.134  24.450 219.781  1.00  0.00    -0.003 C 
ATOM     16  C   UNL     1      37.145  23.434 219.251  1.00  0.00     0.004 C 
ENDBRANCH  14  15
ENDBRANCH  13  14
ENDBRANCH  12  13
ENDBRANCH  11  12
ENDBRANCH  10  11
ENDBRANCH   1  10
TORSDOF 12
ENDMDL
MODEL 3
REMARK VINA RESULT:    -3.602      3.311      6.227
REMARK INTER + INTRA:          -7.438
REMARK INTER:                  -6.181
REMARK INTRA:                  -1.257
REMARK UNBOUND:                -1.310
REMARK SMILES CCCCCCCCCCCCCC(=O)[O-]
REMARK SMILES IDX 8 1 9 2 10 3 11 4 12 5 13 6 14 7 15 8 16 9 7 10 6 11 5 12
REMARK SMILES IDX 4 13 3 14 2 15 1 16
REMARK H PARENT
REMARK Flexibility Score: inf
ROOT
ATOM      1  C   UNL     1      39.845  24.464 223.697  1.00  0.00     0.000 C 
ENDROOT
BRANCH   1   2
ATOM      2  C   UNL     1      39.499  24.894 225.130  1.00  0.00     0.000 C 
BRANCH   2   3
ATOM      3  C   UNL     1      38.130  25.586 225.180  1.00  0.00     0.000 C 
BRANCH   3   4
ATOM      4  C   UNL     1      37.410  25.478 223.827  1.00  0.00     0.000 C 
BRANCH   4   5
ATOM      5  C   UNL     1      36.179  24.556 223.878  1.00  0.00     0.006 C 
BRANCH   5   6
ATOM      6  C   UNL     1      36.145  23.486 222.775  1.00  0.00     0.053 C 
BRANCH   6   7
ATOM      7  C   UNL     1      35.325  23.921 221.598  1.00  0.00     0.041 C 
ATOM      8  O   UNL     1      35.886  24.387 220.573  1.00  0.00    -0.550 OA
ATOM      9  O   UNL     1      33.943  23.779 221.624  1.00  0.00    -0.550 OA
ENDBRANCH   6   7
ENDBRANCH   5   6
ENDBRANCH   4   5
ENDBRANCH   3   4
ENDBRANCH   2   3
ENDBRANCH   1   2
BRANCH   1  10
ATOM     10  C   UNL     1      40.196  22.971 223.593  1.00  0.00     0.000 C 
BRANCH  10  11
ATOM     11  C   UNL     1      39.950  22.214 224.910  1.00  0.00    -0.000 C 
BRANCH  11  12
ATOM     12  C   UNL     1      41.217  21.517 225.436  1.00  0.00    -0.000 C 
BRANCH  12  13
ATOM     13  C   UNL     1      41.196  19.998 225.212  1.00  0.00    -0.000 C 
BRANCH  13  14
ATOM     14  C   UNL     1      42.312  19.571 224.247  1.00  0.00    -0.000 C 
BRANCH  14  15
ATOM     15  C   UNL     1      41.948  19.825 222.775  1.00  0.00    -0.003 C 
ATOM     16  C   UNL     1      42.876  20.836 222.103  1.00  0.00     0.004 C 
ENDBRANCH  14  15
ENDBRANCH  13  14
ENDBRANCH  12  13
ENDBRANCH  11  12
ENDBRANCH  10  11
ENDBRANCH   1  10
TORSDOF 12
ENDMDL
MODEL 4
REMARK VINA RESULT:    -3.597      2.977      4.992
REMARK INTER + INTRA:          -7.431
REMARK INTER:                  -5.996
REMARK INTRA:                  -1.435
REMARK UNBOUND:                -1.310
REMARK SMILES CCCCCCCCCCCCCC(=O)[O-]
REMARK SMILES IDX 8 1 9 2 10 3 11 4 12 5 13 6 14 7 15 8 16 9 7 10 6 11 5 12
REMARK SMILES IDX 4 13 3 14 2 15 1 16
REMARK H PARENT
REMARK Flexibility Score: inf
ROOT
ATOM      1  C   UNL     1      37.853  23.481 222.820  1.00  0.00     0.000 C 
ENDROOT
BRANCH   1   2
ATOM      2  C   UNL     1      37.118  22.575 223.818  1.00  0.00     0.000 C 
BRANCH   2   3
ATOM      3  C   UNL     1      37.887  22.479 225.142  1.00  0.00     0.000 C 
BRANCH   3   4
ATOM      4  C   UNL     1      38.505  21.084 225.319  1.00  0.00     0.000 C 
BRANCH   4   5
ATOM      5  C   UNL     1      37.672  20.173 226.239  1.00  0.00     0.006 C 
BRANCH   5   6
ATOM      6  C   UNL     1      37.693  18.688 225.845  1.00  0.00     0.053 C 
BRANCH   6   7
ATOM      7  C   UNL     1      38.627  17.894 226.707  1.00  0.00     0.041 C 
ATOM      8  O   UNL     1      39.756  17.550 226.269  1.00  0.00    -0.550 OA
ATOM      9  O   UNL     1      38.261  17.562 228.005  1.00  0.00    -0.550 OA
ENDBRANCH   6   7
ENDBRANCH   5   6
ENDBRANCH   4   5
ENDBRANCH   3   4
ENDBRANCH   2   3
ENDBRANCH   1   2
BRANCH   1  10
ATOM     10  C   UNL     1      38.895  24.387 223.496  1.00  0.00     0.000 C 
BRANCH  10  11
ATOM     11  C   UNL     1      40.324  24.122 222.991  1.00  0.00    -0.000 C 
BRANCH  11  12
ATOM     12  C   UNL     1      41.299  23.781 224.131  1.00  0.00    -0.000 C 
BRANCH  12  13
ATOM     13  C   UNL     1      41.814  22.335 224.060  1.00  0.00    -0.000 C 
BRANCH  13  14
ATOM     14  C   UNL     1      41.679  21.775 222.636  1.00  0.00    -0.000 C 
BRANCH  14  15
ATOM     15  C   UNL     1      41.903  20.256 222.575  1.00  0.00    -0.003 C 
ATOM     16  C   UNL     1      41.495  19.545 223.866  1.00  0.00     0.004 C 
ENDBRANCH  14  15
ENDBRANCH  13  14
ENDBRANCH  12  13
ENDBRANCH  11  12
ENDBRANCH  10  11
ENDBRANCH   1  10
TORSDOF 12
ENDMDL
MODEL 5
REMARK VINA RESULT:    -3.596      3.078      5.774
REMARK INTER + INTRA:          -7.429
REMARK INTER:                  -5.728
REMARK INTRA:                  -1.701
REMARK UNBOUND:                -1.310
REMARK SMILES CCCCCCCCCCCCCC(=O)[O-]
REMARK SMILES IDX 8 1 9 2 10 3 11 4 12 5 13 6 14 7 15 8 16 9 7 10 6 11 5 12
REMARK SMILES IDX 4 13 3 14 2 15 1 16
REMARK H PARENT
REMARK Flexibility Score: inf
ROOT
ATOM      1  C   UNL     1      41.197  23.630 223.852  1.00  0.00     0.000 C 
ENDROOT
BRANCH   1   2
ATOM      2  C   UNL     1      39.981  23.951 222.970  1.00  0.00     0.000 C 
BRANCH   2   3
ATOM      3  C   UNL     1      39.006  24.884 223.699  1.00  0.00     0.000 C 
BRANCH   3   4
ATOM      4  C   UNL     1      37.718  24.141 224.085  1.00  0.00     0.000 C 
BRANCH   4   5
ATOM      5  C   UNL     1      37.261  23.139 223.008  1.00  0.00     0.006 C 
BRANCH   5   6
ATOM      6  C   UNL     1      36.136  23.659 222.098  1.00  0.00     0.053 C 
BRANCH   6   7
ATOM      7  C   UNL     1      36.619  23.918 220.704  1.00  0.00     0.041 C 
ATOM      8  O   UNL     1      35.993  24.712 219.954  1.00  0.00    -0.550 OA
ATOM      9  O   UNL     1      37.780  23.307 220.246  1.00  0.00    -0.550 OA
ENDBRANCH   6   7
ENDBRANCH   5   6
ENDBRANCH   4   5
ENDBRANCH   3   4
ENDBRANCH   2   3
ENDBRANCH   1   2
BRANCH   1  10
ATOM     10  C   UNL     1      41.333  24.586 225.048  1.00  0.00     0.000 C 
BRANCH  10  11
ATOM     11  C   UNL     1      41.228  23.858 226.400  1.00  0.00    -0.000 C 
BRANCH  11  12
ATOM     12  C   UNL     1      40.905  22.363 226.241  1.00  0.00    -0.000 C 
BRANCH  12  13
ATOM     13  C   UNL     1      39.454  22.026 226.617  1.00  0.00    -0.000 C 
BRANCH  13  14
ATOM     14  C   UNL     1      38.873  20.970 225.666  1.00  0.00    -0.000 C 
BRANCH  14  15
ATOM     15  C   UNL     1      39.909  19.913 225.252  1.00  0.00    -0.003 C 
ATOM     16  C   UNL     1      39.504  18.497 225.659  1.00  0.00     0.004 C 
ENDBRANCH  14  15
ENDBRANCH  13  14
ENDBRANCH  12  13
ENDBRANCH  11  12
ENDBRANCH  10  11
ENDBRANCH   1  10
TORSDOF 12
ENDMDL
MODEL 6
REMARK VINA RESULT:    -3.582      1.149      2.143
REMARK INTER + INTRA:          -7.405
REMARK INTER:                  -6.142
REMARK INTRA:                  -1.263
REMARK UNBOUND:                -1.310
REMARK SMILES CCCCCCCCCCCCCC(=O)[O-]
REMARK SMILES IDX 8 1 9 2 10 3 11 4 12 5 13 6 14 7 15 8 16 9 7 10 6 11 5 12
REMARK SMILES IDX 4 13 3 14 2 15 1 16
REMARK H PARENT
REMARK Flexibility Score: inf
ROOT
ATOM      1  C   UNL     1      37.963  25.562 224.633  1.00  0.00     0.000 C 
ENDROOT
BRANCH   1   2
ATOM      2  C   UNL     1      37.277  24.995 225.884  1.00  0.00     0.000 C 
BRANCH   2   3
ATOM      3  C   UNL     1      37.942  23.687 226.330  1.00  0.00     0.000 C 
BRANCH   3   4
ATOM      4  C   UNL     1      39.453  23.719 226.059  1.00  0.00     0.000 C 
BRANCH   4   5
ATOM      5  C   UNL     1      39.897  22.664 225.028  1.00  0.00     0.006 C 
BRANCH   5   6
ATOM      6  C   UNL     1      41.340  22.839 224.526  1.00  0.00     0.053 C 
BRANCH   6   7
ATOM      7  C   UNL     1      41.766  21.706 223.643  1.00  0.00     0.041 C 
ATOM      8  O   UNL     1      42.365  20.713 224.131  1.00  0.00    -0.550 OA
ATOM      9  O   UNL     1      41.471  21.735 222.286  1.00  0.00    -0.550 OA
ENDBRANCH   6   7
ENDBRANCH   5   6
ENDBRANCH   4   5
ENDBRANCH   3   4
ENDBRANCH   2   3
ENDBRANCH   1   2
BRANCH   1  10
ATOM     10  C   UNL     1      37.041  25.576 223.403  1.00  0.00     0.000 C 
BRANCH  10  11
ATOM     11  C   UNL     1      36.082  24.373 223.370  1.00  0.00    -0.000 C 
BRANCH  11  12
ATOM     12  C   UNL     1      36.676  23.166 222.625  1.00  0.00    -0.000 C 
BRANCH  12  13
ATOM     13  C   UNL     1      37.710  23.573 221.563  1.00  0.00    -0.000 C 
BRANCH  13  14
ATOM     14  C   UNL     1      37.165  23.330 220.148  1.00  0.00    -0.000 C 
BRANCH  14  15
ATOM     15  C   UNL     1      36.289  24.489 219.646  1.00  0.00    -0.003 C 
ATOM     16  C   UNL     1      34.795  24.180 219.729  1.00  0.00     0.004 C 
ENDBRANCH  14  15
ENDBRANCH  13  14
ENDBRANCH  12  13
ENDBRANCH  11  12
ENDBRANCH  10  11
ENDBRANCH   1  10
TORSDOF 12
ENDMDL
MODEL 7
REMARK VINA RESULT:    -3.577      2.552      2.940
REMARK INTER + INTRA:          -7.397
REMARK INTER:                  -6.158
REMARK INTRA:                  -1.239
REMARK UNBOUND:                -1.310
REMARK SMILES CCCCCCCCCCCCCC(=O)[O-]
REMARK SMILES IDX 8 1 9 2 10 3 11 4 12 5 13 6 14 7 15 8 16 9 7 10 6 11 5 12
REMARK SMILES IDX 4 13 3 14 2 15 1 16
REMARK H PARENT
REMARK Flexibility Score: inf
ROOT
ATOM      1  C   UNL     1      38.639  25.170 225.204  1.00  0.00     0.000 C 
ENDROOT
BRANCH   1   2
ATOM      2  C   UNL     1      39.849  24.771 224.347  1.00  0.00     0.000 C 
BRANCH   2   3
ATOM      3  C   UNL     1      41.030  24.344 225.229  1.00  0.00     0.000 C 
BRANCH   3   4
ATOM      4  C   UNL     1      41.499  22.926 224.872  1.00  0.00     0.000 C 
BRANCH   4   5
ATOM      5  C   UNL     1      40.736  21.833 225.643  1.00  0.00     0.006 C 
BRANCH   5   6
ATOM      6  C   UNL     1      39.529  21.252 224.889  1.00  0.00     0.053 C 
BRANCH   6   7
ATOM      7  C   UNL     1      38.264  21.370 225.682  1.00  0.00     0.041 C 
ATOM      8  O   UNL     1      38.241  22.049 226.742  1.00  0.00    -0.550 OA
ATOM      9  O   UNL     1      37.102  20.755 225.232  1.00  0.00    -0.550 OA
ENDBRANCH   6   7
ENDBRANCH   5   6
ENDBRANCH   4   5
ENDBRANCH   3   4
ENDBRANCH   2   3
ENDBRANCH   1   2
BRANCH   1  10
ATOM     10  C   UNL     1      37.509  25.805 224.377  1.00  0.00     0.000 C 
BRANCH  10  11
ATOM     11  C   UNL     1      36.179  25.043 224.513  1.00  0.00    -0.000 C 
BRANCH  11  12
ATOM     12  C   UNL     1      35.738  24.385 223.195  1.00  0.00    -0.000 C 
BRANCH  12  13
ATOM     13  C   UNL     1      36.677  23.252 222.753  1.00  0.00    -0.000 C 
BRANCH  13  14
ATOM     14  C   UNL     1      37.295  23.557 221.381  1.00  0.00    -0.000 C 
BRANCH  14  15
ATOM     15  C   UNL     1      36.265  24.097 220.376  1.00  0.00    -0.003 C 
ATOM     16  C   UNL     1      36.593  23.719 218.932  1.00  0.00     0.004 C 
ENDBRANCH  14  15
ENDBRANCH  13  14
ENDBRANCH  12  13
ENDBRANCH  11  12
ENDBRANCH  10  11
ENDBRANCH   1  10
TORSDOF 12
ENDMDL
MODEL 8
REMARK VINA RESULT:    -3.574      3.527      6.221
REMARK INTER + INTRA:          -7.391
REMARK INTER:                  -6.004
REMARK INTRA:                  -1.387
REMARK UNBOUND:                -1.310
REMARK SMILES CCCCCCCCCCCCCC(=O)[O-]
REMARK SMILES IDX 8 1 9 2 10 3 11 4 12 5 13 6 14 7 15 8 16 9 7 10 6 11 5 12
REMARK SMILES IDX 4 13 3 14 2 15 1 16
REMARK H PARENT
REMARK Flexibility Score: inf
ROOT
ATOM      1  C   UNL     1      38.324  21.177 225.234  1.00  0.00     0.000 C 
ENDROOT
BRANCH   1   2
ATOM      2  C   UNL     1      37.899  22.585 224.793  1.00  0.00     0.000 C 
BRANCH   2   3
ATOM      3  C   UNL     1      36.678  22.525 223.866  1.00  0.00     0.000 C 
BRANCH   3   4
ATOM      4  C   UNL     1      36.165  23.935 223.540  1.00  0.00     0.000 C 
BRANCH   4   5
ATOM      5  C   UNL     1      36.868  24.560 222.322  1.00  0.00     0.006 C 
BRANCH   5   6
ATOM      6  C   UNL     1      36.967  23.630 221.102  1.00  0.00     0.053 C 
BRANCH   6   7
ATOM      7  C   UNL     1      36.002  24.016 220.023  1.00  0.00     0.041 C 
ATOM      8  O   UNL     1      36.422  24.321 218.876  1.00  0.00    -0.550 OA
ATOM      9  O   UNL     1      34.637  24.008 220.277  1.00  0.00    -0.550 OA
ENDBRANCH   6   7
ENDBRANCH   5   6
ENDBRANCH   4   5
ENDBRANCH   3   4
ENDBRANCH   2   3
ENDBRANCH   1   2
BRANCH   1  10
ATOM     10  C   UNL     1      39.076  21.175 226.575  1.00  0.00     0.000 C 
BRANCH  10  11
ATOM     11  C   UNL     1      40.428  20.446 226.492  1.00  0.00    -0.000 C 
BRANCH  11  12
ATOM     12  C   UNL     1      41.494  21.262 225.741  1.00  0.00    -0.000 C 
BRANCH  12  13
ATOM     13  C   UNL     1      41.663  22.681 226.307  1.00  0.00    -0.000 C 
BRANCH  13  14
ATOM     14  C   UNL     1      41.745  23.715 225.176  1.00  0.00    -0.000 C 
BRANCH  14  15
ATOM     15  C   UNL     1      41.455  23.105 223.795  1.00  0.00    -0.003 C 
ATOM     16  C   UNL     1      40.527  23.975 222.947  1.00  0.00     0.004 C 
ENDBRANCH  14  15
ENDBRANCH  13  14
ENDBRANCH  12  13
ENDBRANCH  11  12
ENDBRANCH  10  11
ENDBRANCH   1  10
TORSDOF 12
ENDMDL
MODEL 9
REMARK VINA RESULT:    -3.519      2.132      3.345
REMARK INTER + INTRA:          -7.298
REMARK INTER:                  -5.210
REMARK INTRA:                  -2.088
REMARK UNBOUND:                -1.310
REMARK SMILES CCCCCCCCCCCCCC(=O)[O-]
REMARK SMILES IDX 8 1 9 2 10 3 11 4 12 5 13 6 14 7 15 8 16 9 7 10 6 11 5 12
REMARK SMILES IDX 4 13 3 14 2 15 1 16
REMARK H PARENT
REMARK Flexibility Score: inf
ROOT
ATOM      1  C   UNL     1      40.938  24.130 226.116  1.00  0.00     0.000 C 
ENDROOT
BRANCH   1   2
ATOM      2  C   UNL     1      41.768  23.882 224.849  1.00  0.00     0.000 C 
BRANCH   2   3
ATOM      3  C   UNL     1      40.898  24.001 223.591  1.00  0.00     0.000 C 
BRANCH   3   4
ATOM      4  C   UNL     1      40.894  22.686 222.798  1.00  0.00     0.000 C 
BRANCH   4   5
ATOM      5  C   UNL     1      42.009  21.720 223.238  1.00  0.00     0.006 C 
BRANCH   5   6
ATOM      6  C   UNL     1      41.550  20.263 223.413  1.00  0.00     0.053 C 
BRANCH   6   7
ATOM      7  C   UNL     1      42.438  19.505 224.353  1.00  0.00     0.041 C 
ATOM      8  O   UNL     1      43.584  19.139 223.984  1.00  0.00    -0.550 OA
ATOM      9  O   UNL     1      42.009  19.234 225.646  1.00  0.00    -0.550 OA
ENDBRANCH   6   7
ENDBRANCH   5   6
ENDBRANCH   4   5
ENDBRANCH   3   4
ENDBRANCH   2   3
ENDBRANCH   1   2
BRANCH   1  10
ATOM     10  C   UNL     1      40.919  22.919 227.063  1.00  0.00     0.000 C 
BRANCH  10  11
ATOM     11  C   UNL     1      39.923  21.835 226.614  1.00  0.00    -0.000 C 
BRANCH  11  12
ATOM     12  C   UNL     1      38.584  22.424 226.141  1.00  0.00    -0.000 C 
BRANCH  12  13
ATOM     13  C   UNL     1      38.034  21.720 224.891  1.00  0.00    -0.000 C 
BRANCH  13  14
ATOM     14  C   UNL     1      37.127  22.663 224.086  1.00  0.00    -0.000 C 
BRANCH  14  15
ATOM     15  C   UNL     1      37.256  24.129 224.532  1.00  0.00    -0.003 C 
ATOM     16  C   UNL     1      37.094  25.114 223.374  1.00  0.00     0.004 C 
ENDBRANCH  14  15
ENDBRANCH  13  14
ENDBRANCH  12  13
ENDBRANCH  11  12
ENDBRANCH  10  11
ENDBRANCH   1  10
TORSDOF 12
ENDMDL
