MODEL 1
REMARK VINA RESULT:    -5.118      0.000      0.000
REMARK INTER + INTRA:          -5.689
REMARK INTER:                  -5.567
REMARK INTRA:                  -0.122
REMARK UNBOUND:                -0.122
REMARK SMILES C=C(C)[C@H]1CC[C@@H](C)C[C@H]1O
REMARK SMILES IDX 8 1 7 2 6 3 5 4 4 5 10 6 9 7 11 8 2 10 1 11 3 12
REMARK H PARENT 11 9
REMARK Flexibility Score: inf
ROOT
ATOM      1  C   UNL     1      -2.677  16.919  46.179  1.00  0.00     0.008 C 
ATOM      2  C   UNL     1      -2.351  17.307  47.630  1.00  0.00    -0.012 C 
ATOM      3  C   UNL     1      -3.622  17.441  48.496  1.00  0.00     0.004 C 
ATOM      4  C   UNL     1      -4.356  18.769  48.268  1.00  0.00     0.011 C 
ATOM      5  C   UNL     1      -3.418  19.962  48.536  1.00  0.00     0.043 C 
ATOM      6  C   UNL     1      -2.141  19.915  47.660  1.00  0.00     0.121 C 
ATOM      7  C   UNL     1      -1.428  18.546  47.748  1.00  0.00     0.035 C 
ENDROOT
BRANCH   6   8
ATOM      8  O   UNL     1      -2.365  20.296  46.325  1.00  0.00    -0.392 OA
ATOM      9  H   UNL     1      -2.146  19.531  45.741  1.00  0.00     0.210 HD
ENDBRANCH   6   8
BRANCH   5  10
ATOM     10  C   UNL     1      -4.138  21.305  48.445  1.00  0.00    -0.075 C 
ATOM     11  C   UNL     1      -5.212  21.483  47.657  1.00  0.00     0.008 C 
ATOM     12  C   UNL     1      -3.648  22.476  49.258  1.00  0.00     0.039 C 
ENDBRANCH   5  10
TORSDOF 2
ENDMDL
MODEL 2
REMARK VINA RESULT:    -5.072      1.629      4.576
REMARK INTER + INTRA:          -5.638
REMARK INTER:                  -5.568
REMARK INTRA:                  -0.070
REMARK UNBOUND:                -0.122
REMARK SMILES C=C(C)[C@H]1CC[C@@H](C)C[C@H]1O
REMARK SMILES IDX 8 1 7 2 6 3 5 4 4 5 10 6 9 7 11 8 2 10 1 11 3 12
REMARK H PARENT 11 9
REMARK Flexibility Score: inf
ROOT
ATOM      1  C   UNL     1      -3.029  19.961  48.898  1.00  0.00     0.008 C 
ATOM      2  C   UNL     1      -3.451  18.483  48.922  1.00  0.00    -0.012 C 
ATOM      3  C   UNL     1      -2.242  17.534  49.065  1.00  0.00     0.004 C 
ATOM      4  C   UNL     1      -1.488  17.334  47.744  1.00  0.00     0.011 C 
ATOM      5  C   UNL     1      -2.436  16.803  46.651  1.00  0.00     0.043 C 
ATOM      6  C   UNL     1      -3.651  17.738  46.421  1.00  0.00     0.121 C 
ATOM      7  C   UNL     1      -4.374  18.082  47.743  1.00  0.00     0.035 C 
ENDROOT
BRANCH   6   8
ATOM      8  O   UNL     1      -3.335  18.896  45.689  1.00  0.00    -0.392 OA
ATOM      9  H   UNL     1      -4.083  19.092  45.077  1.00  0.00     0.210 HD
ENDBRANCH   6   8
BRANCH   5  10
ATOM     10  C   UNL     1      -1.705  16.469  45.353  1.00  0.00    -0.075 C 
ATOM     11  C   UNL     1      -0.364  16.426  45.284  1.00  0.00     0.008 C 
ATOM     12  C   UNL     1      -2.494  16.170  44.103  1.00  0.00     0.039 C 
ENDBRANCH   5  10
TORSDOF 2
ENDMDL
MODEL 3
REMARK VINA RESULT:    -5.037      1.558      4.327
REMARK INTER + INTRA:          -5.600
REMARK INTER:                  -5.422
REMARK INTRA:                  -0.179
REMARK UNBOUND:                -0.122
REMARK SMILES C=C(C)[C@H]1CC[C@@H](C)C[C@H]1O
REMARK SMILES IDX 8 1 7 2 6 3 5 4 4 5 10 6 9 7 11 8 2 10 1 11 3 12
REMARK H PARENT 11 9
REMARK Flexibility Score: inf
ROOT
ATOM      1  C   UNL     1      -5.307  21.732  47.360  1.00  0.00     0.008 C 
ATOM      2  C   UNL     1      -3.865  21.463  47.818  1.00  0.00    -0.012 C 
ATOM      3  C   UNL     1      -2.887  21.355  46.629  1.00  0.00     0.004 C 
ATOM      4  C   UNL     1      -2.957  19.992  45.928  1.00  0.00     0.011 C 
ATOM      5  C   UNL     1      -2.684  18.852  46.928  1.00  0.00     0.043 C 
ATOM      6  C   UNL     1      -3.667  18.872  48.126  1.00  0.00     0.121 C 
ATOM      7  C   UNL     1      -3.737  20.265  48.793  1.00  0.00     0.035 C 
ENDROOT
BRANCH   6   8
ATOM      8  O   UNL     1      -4.947  18.387  47.807  1.00  0.00    -0.392 OA
ATOM      9  H   UNL     1      -5.322  18.945  47.085  1.00  0.00     0.210 HD
ENDBRANCH   6   8
BRANCH   5  10
ATOM     10  C   UNL     1      -2.617  17.484  46.253  1.00  0.00    -0.075 C 
ATOM     11  C   UNL     1      -3.112  17.275  45.021  1.00  0.00     0.008 C 
ATOM     12  C   UNL     1      -1.978  16.323  46.971  1.00  0.00     0.039 C 
ENDBRANCH   5  10
TORSDOF 2
ENDMDL
MODEL 4
REMARK VINA RESULT:    -5.021      1.322      4.238
REMARK INTER + INTRA:          -5.583
REMARK INTER:                  -5.412
REMARK INTRA:                  -0.171
REMARK UNBOUND:                -0.122
REMARK SMILES C=C(C)[C@H]1CC[C@@H](C)C[C@H]1O
REMARK SMILES IDX 8 1 7 2 6 3 5 4 4 5 10 6 9 7 11 8 2 10 1 11 3 12
REMARK H PARENT 11 9
REMARK Flexibility Score: inf
ROOT
ATOM      1  C   UNL     1      -2.940  20.942  48.992  1.00  0.00     0.008 C 
ATOM      2  C   UNL     1      -4.012  20.365  48.054  1.00  0.00    -0.012 C 
ATOM      3  C   UNL     1      -4.380  18.911  48.416  1.00  0.00     0.004 C 
ATOM      4  C   UNL     1      -3.345  17.896  47.914  1.00  0.00     0.011 C 
ATOM      5  C   UNL     1      -3.157  18.019  46.389  1.00  0.00     0.043 C 
ATOM      6  C   UNL     1      -2.736  19.448  45.962  1.00  0.00     0.121 C 
ATOM      7  C   UNL     1      -3.673  20.528  46.550  1.00  0.00     0.035 C 
ENDROOT
BRANCH   6   8
ATOM      8  O   UNL     1      -1.386  19.736  46.226  1.00  0.00    -0.392 OA
ATOM      9  H   UNL     1      -0.892  19.728  45.371  1.00  0.00     0.210 HD
ENDBRANCH   6   8
BRANCH   5  10
ATOM     10  C   UNL     1      -2.230  16.945  45.825  1.00  0.00    -0.075 C 
ATOM     11  C   UNL     1      -1.367  16.271  46.604  1.00  0.00     0.008 C 
ATOM     12  C   UNL     1      -2.271  16.616  44.354  1.00  0.00     0.039 C 
ENDBRANCH   5  10
TORSDOF 2
ENDMDL
MODEL 5
REMARK VINA RESULT:    -5.010      1.532      2.147
REMARK INTER + INTRA:          -5.571
REMARK INTER:                  -5.385
REMARK INTRA:                  -0.186
REMARK UNBOUND:                -0.122
REMARK SMILES C=C(C)[C@H]1CC[C@@H](C)C[C@H]1O
REMARK SMILES IDX 8 1 7 2 6 3 5 4 4 5 10 6 9 7 11 8 2 10 1 11 3 12
REMARK H PARENT 11 9
REMARK Flexibility Score: inf
ROOT
ATOM      1  C   UNL     1      -1.349  17.432  47.928  1.00  0.00     0.008 C 
ATOM      2  C   UNL     1      -2.813  17.424  47.460  1.00  0.00    -0.012 C 
ATOM      3  C   UNL     1      -2.994  18.130  46.099  1.00  0.00     0.004 C 
ATOM      4  C   UNL     1      -3.004  19.659  46.224  1.00  0.00     0.011 C 
ATOM      5  C   UNL     1      -4.108  20.119  47.195  1.00  0.00     0.043 C 
ATOM      6  C   UNL     1      -3.957  19.483  48.601  1.00  0.00     0.121 C 
ATOM      7  C   UNL     1      -3.808  17.946  48.528  1.00  0.00     0.035 C 
ENDROOT
BRANCH   6   8
ATOM      8  O   UNL     1      -2.934  20.065  49.370  1.00  0.00    -0.392 OA
ATOM      9  H   UNL     1      -2.444  20.707  48.804  1.00  0.00     0.210 HD
ENDBRANCH   6   8
BRANCH   5  10
ATOM     10  C   UNL     1      -4.241  21.639  47.256  1.00  0.00    -0.075 C 
ATOM     11  C   UNL     1      -5.309  22.237  47.812  1.00  0.00     0.008 C 
ATOM     12  C   UNL     1      -3.152  22.510  46.684  1.00  0.00     0.039 C 
ENDBRANCH   5  10
TORSDOF 2
ENDMDL
MODEL 6
REMARK VINA RESULT:    -4.877      1.365      4.523
REMARK INTER + INTRA:          -5.427
REMARK INTER:                  -5.260
REMARK INTRA:                  -0.167
REMARK UNBOUND:                -0.122
REMARK SMILES C=C(C)[C@H]1CC[C@@H](C)C[C@H]1O
REMARK SMILES IDX 8 1 7 2 6 3 5 4 4 5 10 6 9 7 11 8 2 10 1 11 3 12
REMARK H PARENT 11 9
REMARK Flexibility Score: inf
ROOT
ATOM      1  C   UNL     1      -3.682  24.344  47.510  1.00  0.00     0.008 C 
ATOM      2  C   UNL     1      -4.544  23.570  48.521  1.00  0.00    -0.012 C 
ATOM      3  C   UNL     1      -3.694  22.923  49.636  1.00  0.00     0.004 C 
ATOM      4  C   UNL     1      -3.004  21.631  49.180  1.00  0.00     0.011 C 
ATOM      5  C   UNL     1      -4.040  20.614  48.664  1.00  0.00     0.043 C 
ATOM      6  C   UNL     1      -4.897  21.184  47.504  1.00  0.00     0.121 C 
ATOM      7  C   UNL     1      -5.513  22.556  47.861  1.00  0.00     0.035 C 
ENDROOT
BRANCH   6   8
ATOM      8  O   UNL     1      -4.216  21.227  46.275  1.00  0.00    -0.392 OA
ATOM      9  H   UNL     1      -4.646  20.588  45.658  1.00  0.00     0.210 HD
ENDBRANCH   6   8
BRANCH   5  10
ATOM     10  C   UNL     1      -3.414  19.265  48.316  1.00  0.00    -0.075 C 
ATOM     11  C   UNL     1      -4.129  18.127  48.325  1.00  0.00     0.008 C 
ATOM     12  C   UNL     1      -1.955  19.188  47.945  1.00  0.00     0.039 C 
ENDBRANCH   5  10
TORSDOF 2
ENDMDL
MODEL 7
REMARK VINA RESULT:    -4.717      2.476      3.248
REMARK INTER + INTRA:          -5.252
REMARK INTER:                  -5.065
REMARK INTRA:                  -0.188
REMARK UNBOUND:                -0.122
REMARK SMILES C=C(C)[C@H]1CC[C@@H](C)C[C@H]1O
REMARK SMILES IDX 8 1 7 2 6 3 5 4 4 5 10 6 9 7 11 8 2 10 1 11 3 12
REMARK H PARENT 11 9
REMARK Flexibility Score: inf
ROOT
ATOM      1  C   UNL     1      -2.764  21.078  45.897  1.00  0.00     0.008 C 
ATOM      2  C   UNL     1      -3.214  20.477  47.237  1.00  0.00    -0.012 C 
ATOM      3  C   UNL     1      -4.734  20.623  47.460  1.00  0.00     0.004 C 
ATOM      4  C   UNL     1      -5.132  22.032  47.918  1.00  0.00     0.011 C 
ATOM      5  C   UNL     1      -4.382  22.417  49.207  1.00  0.00     0.043 C 
ATOM      6  C   UNL     1      -2.843  22.340  49.037  1.00  0.00     0.121 C 
ATOM      7  C   UNL     1      -2.393  20.982  48.451  1.00  0.00     0.035 C 
ENDROOT
BRANCH   6   8
ATOM      8  O   UNL     1      -2.305  23.419  48.312  1.00  0.00    -0.392 OA
ATOM      9  H   UNL     1      -1.755  23.963  48.925  1.00  0.00     0.210 HD
ENDBRANCH   6   8
BRANCH   5  10
ATOM     10  C   UNL     1      -4.838  23.761  49.771  1.00  0.00    -0.075 C 
ATOM     11  C   UNL     1      -5.638  24.588  49.077  1.00  0.00     0.008 C 
ATOM     12  C   UNL     1      -4.392  24.187  51.147  1.00  0.00     0.039 C 
ENDBRANCH   5  10
TORSDOF 2
ENDMDL
MODEL 8
REMARK VINA RESULT:    -4.684      1.608      4.485
REMARK INTER + INTRA:          -5.216
REMARK INTER:                  -5.036
REMARK INTRA:                  -0.180
REMARK UNBOUND:                -0.122
REMARK SMILES C=C(C)[C@H]1CC[C@@H](C)C[C@H]1O
REMARK SMILES IDX 8 1 7 2 6 3 5 4 4 5 10 6 9 7 11 8 2 10 1 11 3 12
REMARK H PARENT 11 9
REMARK Flexibility Score: inf
ROOT
ATOM      1  C   UNL     1      -4.738  23.635  49.865  1.00  0.00     0.008 C 
ATOM      2  C   UNL     1      -4.254  23.526  48.410  1.00  0.00    -0.012 C 
ATOM      3  C   UNL     1      -5.242  22.737  47.525  1.00  0.00     0.004 C 
ATOM      4  C   UNL     1      -5.125  21.220  47.716  1.00  0.00     0.011 C 
ATOM      5  C   UNL     1      -3.686  20.746  47.434  1.00  0.00     0.043 C 
ATOM      6  C   UNL     1      -2.644  21.465  48.328  1.00  0.00     0.121 C 
ATOM      7  C   UNL     1      -2.802  23.002  48.278  1.00  0.00     0.035 C 
ENDROOT
BRANCH   6   8
ATOM      8  O   UNL     1      -2.620  20.991  49.651  1.00  0.00    -0.392 OA
ATOM      9  H   UNL     1      -3.459  21.261  50.094  1.00  0.00     0.210 HD
ENDBRANCH   6   8
BRANCH   5  10
ATOM     10  C   UNL     1      -3.548  19.226  47.487  1.00  0.00    -0.075 C 
ATOM     11  C   UNL     1      -4.477  18.449  48.069  1.00  0.00     0.008 C 
ATOM     12  C   UNL     1      -2.345  18.560  46.870  1.00  0.00     0.039 C 
ENDBRANCH   5  10
TORSDOF 2
ENDMDL
MODEL 9
REMARK VINA RESULT:    -4.516      3.677      6.870
REMARK INTER + INTRA:          -5.034
REMARK INTER:                  -4.886
REMARK INTRA:                  -0.148
REMARK UNBOUND:                -0.122
REMARK SMILES C=C(C)[C@H]1CC[C@@H](C)C[C@H]1O
REMARK SMILES IDX 8 1 7 2 6 3 5 4 4 5 10 6 9 7 11 8 2 10 1 11 3 12
REMARK H PARENT 11 9
REMARK Flexibility Score: inf
ROOT
ATOM      1  C   UNL     1      -4.682  27.616  49.350  1.00  0.00     0.008 C 
ATOM      2  C   UNL     1      -5.932  26.809  48.965  1.00  0.00    -0.012 C 
ATOM      3  C   UNL     1      -6.314  25.777  50.047  1.00  0.00     0.004 C 
ATOM      4  C   UNL     1      -5.441  24.516  49.996  1.00  0.00     0.011 C 
ATOM      5  C   UNL     1      -5.515  23.859  48.605  1.00  0.00     0.043 C 
ATOM      6  C   UNL     1      -5.094  24.830  47.472  1.00  0.00     0.121 C 
ATOM      7  C   UNL     1      -5.850  26.175  47.553  1.00  0.00     0.035 C 
ENDROOT
BRANCH   6   8
ATOM      8  O   UNL     1      -3.703  25.023  47.390  1.00  0.00    -0.392 OA
ATOM      9  H   UNL     1      -3.255  24.194  47.681  1.00  0.00     0.210 HD
ENDBRANCH   6   8
BRANCH   5  10
ATOM     10  C   UNL     1      -4.762  22.532  48.543  1.00  0.00    -0.075 C 
ATOM     11  C   UNL     1      -3.751  22.249  49.381  1.00  0.00     0.008 C 
ATOM     12  C   UNL     1      -5.154  21.494  47.522  1.00  0.00     0.039 C 
ENDBRANCH   5  10
TORSDOF 2
ENDMDL
