MODEL 1
REMARK VINA RESULT:    -5.365      0.000      0.000
REMARK INTER + INTRA:          -7.911
REMARK INTER:                  -7.246
REMARK INTRA:                  -0.665
REMARK UNBOUND:                -0.665
REMARK SMILES COc1ccc(-c2cc(=O)c3c(OC)c(OC)c(OC)c(OC)c3o2)cc1
REMARK SMILES IDX 7 1 8 2 9 3 10 4 11 5 24 6 25 7 21 8 18 9 15 10 12 11 6 12
REMARK SMILES IDX 3 13 4 14 27 15 5 16 26 17 2 18 1 19 22 20 23 21 13 22 14 23
REMARK SMILES IDX 19 24 20 25 16 26 17 27
REMARK H PARENT
REMARK Flexibility Score: inf
ROOT
ATOM      1  C   UNL     1     174.107 169.730 172.981  1.00  0.00     0.138 A 
ATOM      2  C   UNL     1     172.849 170.211 172.597  1.00  0.00     0.100 A 
ATOM      3  C   UNL     1     171.733 169.385 172.721  1.00  0.00     0.197 A 
ATOM      4  O   UNL     1     170.610 169.836 172.365  1.00  0.00    -0.289 OA
ATOM      5  C   UNL     1     171.879 168.075 173.235  1.00  0.00     0.115 A 
ATOM      6  C   UNL     1     173.174 167.676 173.628  1.00  0.00     0.188 A 
ATOM      7  O   UNL     1     174.208 168.502 173.484  1.00  0.00    -0.452 OA
ATOM      8  C   UNL     1     173.395 166.401 174.161  1.00  0.00     0.209 A 
ATOM      9  C   UNL     1     172.338 165.464 174.237  1.00  0.00     0.211 A 
ATOM     10  C   UNL     1     171.025 165.859 173.859  1.00  0.00     0.208 A 
ATOM     11  C   UNL     1     170.794 167.175 173.366  1.00  0.00     0.179 A 
ENDROOT
BRANCH   1  12
ATOM     12  C   UNL     1     175.335 170.555 172.849  1.00  0.00     0.018 A 
ATOM     13  C   UNL     1     177.676 172.108 172.539  1.00  0.00     0.118 A 
ATOM     14  C   UNL     1     176.675 172.502 173.447  1.00  0.00     0.047 A 
ATOM     15  C   UNL     1     177.491 170.945 171.787  1.00  0.00     0.047 A 
ATOM     16  C   UNL     1     175.516 171.736 173.597  1.00  0.00     0.016 A 
ATOM     17  C   UNL     1     176.332 170.178 171.933  1.00  0.00     0.016 A 
BRANCH  13  18
ATOM     18  O   UNL     1     178.857 172.842 172.354  1.00  0.00    -0.497 OA
ATOM     19  C   UNL     1     180.032 172.333 171.732  1.00  0.00     0.278 C 
ENDBRANCH  13  18
ENDBRANCH   1  12
BRANCH   8  20
ATOM     20  O   UNL     1     174.678 166.067 174.602  1.00  0.00    -0.490 OA
ATOM     21  C   UNL     1     175.055 166.163 175.971  1.00  0.00     0.278 C 
ENDBRANCH   8  20
BRANCH  11  22
ATOM     22  O   UNL     1     169.513 167.635 172.989  1.00  0.00    -0.492 OA
ATOM     23  C   UNL     1     168.408 167.933 173.835  1.00  0.00     0.278 C 
ENDBRANCH  11  22
BRANCH   9  24
ATOM     24  O   UNL     1     172.541 164.144 174.678  1.00  0.00    -0.490 OA
ATOM     25  C   UNL     1     172.368 163.636 175.997  1.00  0.00     0.279 C 
ENDBRANCH   9  24
BRANCH  10  26
ATOM     26  O   UNL     1     169.924 164.985 173.942  1.00  0.00    -0.490 OA
ATOM     27  C   UNL     1     169.456 164.070 172.957  1.00  0.00     0.278 C 
ENDBRANCH  10  26
TORSDOF 6
ENDMDL
MODEL 2
REMARK VINA RESULT:    -5.293      5.425      6.044
REMARK INTER + INTRA:          -7.814
REMARK INTER:                  -7.173
REMARK INTRA:                  -0.641
REMARK UNBOUND:                -0.665
REMARK SMILES COc1ccc(-c2cc(=O)c3c(OC)c(OC)c(OC)c(OC)c3o2)cc1
REMARK SMILES IDX 7 1 8 2 9 3 10 4 11 5 24 6 25 7 21 8 18 9 15 10 12 11 6 12
REMARK SMILES IDX 3 13 4 14 27 15 5 16 26 17 2 18 1 19 22 20 23 21 13 22 14 23
REMARK SMILES IDX 19 24 20 25 16 26 17 27
REMARK H PARENT
REMARK Flexibility Score: inf
ROOT
ATOM      1  C   UNL     1     175.369 168.985 169.955  1.00  0.00     0.138 A 
ATOM      2  C   UNL     1     174.201 169.258 169.233  1.00  0.00     0.100 A 
ATOM      3  C   UNL     1     173.778 168.365 168.250  1.00  0.00     0.197 A 
ATOM      4  O   UNL     1     172.727 168.632 167.607  1.00  0.00    -0.289 OA
ATOM      5  C   UNL     1     174.528 167.192 167.994  1.00  0.00     0.115 A 
ATOM      6  C   UNL     1     175.675 166.973 168.785  1.00  0.00     0.188 A 
ATOM      7  O   UNL     1     176.038 167.862 169.708  1.00  0.00    -0.452 OA
ATOM      8  C   UNL     1     176.459 165.828 168.603  1.00  0.00     0.209 A 
ATOM      9  C   UNL     1     176.158 164.913 167.567  1.00  0.00     0.211 A 
ATOM     10  C   UNL     1     174.995 165.114 166.772  1.00  0.00     0.208 A 
ATOM     11  C   UNL     1     174.171 166.253 166.996  1.00  0.00     0.179 A 
ENDROOT
BRANCH   1  12
ATOM     12  C   UNL     1     175.881 169.912 170.996  1.00  0.00     0.018 A 
ATOM     13  C   UNL     1     176.897 171.696 172.938  1.00  0.00     0.118 A 
ATOM     14  C   UNL     1     175.534 171.347 172.937  1.00  0.00     0.047 A 
ATOM     15  C   UNL     1     177.738 171.157 171.961  1.00  0.00     0.047 A 
ATOM     16  C   UNL     1     175.031 170.468 171.974  1.00  0.00     0.016 A 
ATOM     17  C   UNL     1     177.237 170.279 170.996  1.00  0.00     0.016 A 
BRANCH  13  18
ATOM     18  O   UNL     1     177.449 172.572 173.885  1.00  0.00    -0.497 OA
ATOM     19  C   UNL     1     178.693 173.248 173.726  1.00  0.00     0.278 C 
ENDBRANCH  13  18
ENDBRANCH   1  12
BRANCH   8  20
ATOM     20  O   UNL     1     177.548 165.614 169.451  1.00  0.00    -0.490 OA
ATOM     21  C   UNL     1     178.868 166.012 169.100  1.00  0.00     0.278 C 
ENDBRANCH   8  20
BRANCH  11  22
ATOM     22  O   UNL     1     172.996 166.503 166.253  1.00  0.00    -0.492 OA
ATOM     23  C   UNL     1     172.889 166.836 164.874  1.00  0.00     0.278 C 
ENDBRANCH  11  22
BRANCH   9  24
ATOM     24  O   UNL     1     176.975 163.802 167.292  1.00  0.00    -0.490 OA
ATOM     25  C   UNL     1     176.952 162.531 167.933  1.00  0.00     0.279 C 
ENDBRANCH   9  24
BRANCH  10  26
ATOM     26  O   UNL     1     174.622 164.223 165.747  1.00  0.00    -0.490 OA
ATOM     27  C   UNL     1     173.793 163.071 165.848  1.00  0.00     0.278 C 
ENDBRANCH  10  26
TORSDOF 6
ENDMDL
MODEL 3
REMARK VINA RESULT:    -5.276      4.205      5.895
REMARK INTER + INTRA:          -7.792
REMARK INTER:                  -7.158
REMARK INTRA:                  -0.634
REMARK UNBOUND:                -0.665
REMARK SMILES COc1ccc(-c2cc(=O)c3c(OC)c(OC)c(OC)c(OC)c3o2)cc1
REMARK SMILES IDX 7 1 8 2 9 3 10 4 11 5 24 6 25 7 21 8 18 9 15 10 12 11 6 12
REMARK SMILES IDX 3 13 4 14 27 15 5 16 26 17 2 18 1 19 22 20 23 21 13 22 14 23
REMARK SMILES IDX 19 24 20 25 16 26 17 27
REMARK H PARENT
REMARK Flexibility Score: inf
ROOT
ATOM      1  C   UNL     1     173.636 170.223 170.938  1.00  0.00     0.138 A 
ATOM      2  C   UNL     1     172.548 169.822 171.724  1.00  0.00     0.100 A 
ATOM      3  C   UNL     1     171.349 169.473 171.105  1.00  0.00     0.197 A 
ATOM      4  O   UNL     1     170.379 169.121 171.831  1.00  0.00    -0.289 OA
ATOM      5  C   UNL     1     171.242 169.521 169.695  1.00  0.00     0.115 A 
ATOM      6  C   UNL     1     172.392 169.904 168.973  1.00  0.00     0.188 A 
ATOM      7  O   UNL     1     173.513 170.234 169.613  1.00  0.00    -0.452 OA
ATOM      8  C   UNL     1     172.370 169.960 167.575  1.00  0.00     0.209 A 
ATOM      9  C   UNL     1     171.170 169.712 166.869  1.00  0.00     0.211 A 
ATOM     10  C   UNL     1     170.008 169.310 167.583  1.00  0.00     0.208 A 
ATOM     11  C   UNL     1     170.049 169.204 169.002  1.00  0.00     0.179 A 
ENDROOT
BRANCH   1  12
ATOM     12  C   UNL     1     174.931 170.629 171.542  1.00  0.00     0.018 A 
ATOM     13  C   UNL     1     177.376 171.462 172.689  1.00  0.00     0.118 A 
ATOM     14  C   UNL     1     176.838 170.198 172.998  1.00  0.00     0.047 A 
ATOM     15  C   UNL     1     176.679 172.301 171.816  1.00  0.00     0.047 A 
ATOM     16  C   UNL     1     175.627 169.788 172.434  1.00  0.00     0.016 A 
ATOM     17  C   UNL     1     175.467 171.895 171.252  1.00  0.00     0.016 A 
BRANCH  13  18
ATOM     18  O   UNL     1     178.588 171.917 173.228  1.00  0.00    -0.497 OA
ATOM     19  C   UNL     1     178.812 173.242 173.700  1.00  0.00     0.278 C 
ENDBRANCH  13  18
ENDBRANCH   1  12
BRANCH   8  20
ATOM     20  O   UNL     1     173.547 170.277 166.893  1.00  0.00    -0.490 OA
ATOM     21  C   UNL     1     173.852 171.609 166.492  1.00  0.00     0.278 C 
ENDBRANCH   8  20
BRANCH  11  22
ATOM     22  O   UNL     1     168.936 168.795 169.770  1.00  0.00    -0.492 OA
ATOM     23  C   UNL     1     167.714 169.494 169.976  1.00  0.00     0.278 C 
ENDBRANCH  11  22
BRANCH   9  24
ATOM     24  O   UNL     1     171.084 169.850 165.471  1.00  0.00    -0.490 OA
ATOM     25  C   UNL     1     171.400 168.874 164.484  1.00  0.00     0.279 C 
ENDBRANCH   9  24
BRANCH  10  26
ATOM     26  O   UNL     1     168.791 169.016 166.937  1.00  0.00    -0.490 OA
ATOM     27  C   UNL     1     168.351 167.763 166.427  1.00  0.00     0.278 C 
ENDBRANCH  10  26
TORSDOF 6
ENDMDL
MODEL 4
REMARK VINA RESULT:    -5.253      1.383      3.795
REMARK INTER + INTRA:          -7.761
REMARK INTER:                  -7.131
REMARK INTRA:                  -0.629
REMARK UNBOUND:                -0.665
REMARK SMILES COc1ccc(-c2cc(=O)c3c(OC)c(OC)c(OC)c(OC)c3o2)cc1
REMARK SMILES IDX 7 1 8 2 9 3 10 4 11 5 24 6 25 7 21 8 18 9 15 10 12 11 6 12
REMARK SMILES IDX 3 13 4 14 27 15 5 16 26 17 2 18 1 19 22 20 23 21 13 22 14 23
REMARK SMILES IDX 19 24 20 25 16 26 17 27
REMARK H PARENT
REMARK Flexibility Score: inf
ROOT
ATOM      1  C   UNL     1     174.009 169.090 173.056  1.00  0.00     0.138 A 
ATOM      2  C   UNL     1     174.245 167.788 173.515  1.00  0.00     0.100 A 
ATOM      3  C   UNL     1     173.165 166.952 173.789  1.00  0.00     0.197 A 
ATOM      4  O   UNL     1     173.399 165.785 174.207  1.00  0.00    -0.289 OA
ATOM      5  C   UNL     1     171.843 167.421 173.598  1.00  0.00     0.115 A 
ATOM      6  C   UNL     1     171.689 168.733 173.103  1.00  0.00     0.188 A 
ATOM      7  O   UNL     1     172.756 169.493 172.862  1.00  0.00    -0.452 OA
ATOM      8  C   UNL     1     170.415 169.262 172.873  1.00  0.00     0.209 A 
ATOM      9  C   UNL     1     169.260 168.518 173.210  1.00  0.00     0.211 A 
ATOM     10  C   UNL     1     169.401 167.189 173.695  1.00  0.00     0.208 A 
ATOM     11  C   UNL     1     170.699 166.635 173.879  1.00  0.00     0.179 A 
ENDROOT
BRANCH   1  12
ATOM     12  C   UNL     1     175.119 170.033 172.770  1.00  0.00     0.018 A 
ATOM     13  C   UNL     1     177.230 171.849 172.285  1.00  0.00     0.118 A 
ATOM     14  C   UNL     1     177.168 170.628 171.588  1.00  0.00     0.047 A 
ATOM     15  C   UNL     1     176.241 172.147 173.226  1.00  0.00     0.047 A 
ATOM     16  C   UNL     1     176.126 169.728 171.831  1.00  0.00     0.016 A 
ATOM     17  C   UNL     1     175.199 171.248 173.472  1.00  0.00     0.016 A 
BRANCH  13  18
ATOM     18  O   UNL     1     178.254 172.785 172.075  1.00  0.00    -0.497 OA
ATOM     19  C   UNL     1     179.644 172.476 172.097  1.00  0.00     0.278 C 
ENDBRANCH  13  18
ENDBRANCH   1  12
BRANCH   8  20
ATOM     20  O   UNL     1     170.305 170.540 172.318  1.00  0.00    -0.490 OA
ATOM     21  C   UNL     1     170.112 171.698 173.123  1.00  0.00     0.278 C 
ENDBRANCH   8  20
BRANCH  11  22
ATOM     22  O   UNL     1     170.909 165.317 174.341  1.00  0.00    -0.492 OA
ATOM     23  C   UNL     1     170.615 164.787 175.629  1.00  0.00     0.278 C 
ENDBRANCH  11  22
BRANCH   9  24
ATOM     24  O   UNL     1     167.964 169.052 173.082  1.00  0.00    -0.490 OA
ATOM     25  C   UNL     1     167.143 169.059 171.919  1.00  0.00     0.279 C 
ENDBRANCH   9  24
BRANCH  10  26
ATOM     26  O   UNL     1     168.291 166.384 174.018  1.00  0.00    -0.490 OA
ATOM     27  C   UNL     1     167.566 165.508 173.161  1.00  0.00     0.278 C 
ENDBRANCH  10  26
TORSDOF 6
ENDMDL
MODEL 5
REMARK VINA RESULT:    -5.235      5.567      7.202
REMARK INTER + INTRA:          -7.735
REMARK INTER:                  -7.068
REMARK INTRA:                  -0.667
REMARK UNBOUND:                -0.665
REMARK SMILES COc1ccc(-c2cc(=O)c3c(OC)c(OC)c(OC)c(OC)c3o2)cc1
REMARK SMILES IDX 7 1 8 2 9 3 10 4 11 5 24 6 25 7 21 8 18 9 15 10 12 11 6 12
REMARK SMILES IDX 3 13 4 14 27 15 5 16 26 17 2 18 1 19 22 20 23 21 13 22 14 23
REMARK SMILES IDX 19 24 20 25 16 26 17 27
REMARK H PARENT
REMARK Flexibility Score: inf
ROOT
ATOM      1  C   UNL     1     175.439 168.956 169.775  1.00  0.00     0.138 A 
ATOM      2  C   UNL     1     175.833 167.618 169.647  1.00  0.00     0.100 A 
ATOM      3  C   UNL     1     175.326 166.852 168.599  1.00  0.00     0.197 A 
ATOM      4  O   UNL     1     175.688 165.648 168.505  1.00  0.00    -0.289 OA
ATOM      5  C   UNL     1     174.425 167.432 167.674  1.00  0.00     0.115 A 
ATOM      6  C   UNL     1     174.102 168.793 167.852  1.00  0.00     0.188 A 
ATOM      7  O   UNL     1     174.611 169.479 168.875  1.00  0.00    -0.452 OA
ATOM      8  C   UNL     1     173.231 169.441 166.969  1.00  0.00     0.209 A 
ATOM      9  C   UNL     1     172.597 168.718 165.931  1.00  0.00     0.211 A 
ATOM     10  C   UNL     1     172.926 167.349 165.731  1.00  0.00     0.208 A 
ATOM     11  C   UNL     1     173.853 166.707 166.600  1.00  0.00     0.179 A 
ENDROOT
BRANCH   1  12
ATOM     12  C   UNL     1     175.928 169.814 170.884  1.00  0.00     0.018 A 
ATOM     13  C   UNL     1     176.902 171.469 172.958  1.00  0.00     0.118 A 
ATOM     14  C   UNL     1     175.536 171.132 172.898  1.00  0.00     0.047 A 
ATOM     15  C   UNL     1     177.766 170.982 171.974  1.00  0.00     0.047 A 
ATOM     16  C   UNL     1     175.054 170.317 171.870  1.00  0.00     0.016 A 
ATOM     17  C   UNL     1     177.286 170.168 170.944  1.00  0.00     0.016 A 
BRANCH  13  18
ATOM     18  O   UNL     1     177.433 172.281 173.971  1.00  0.00    -0.497 OA
ATOM     19  C   UNL     1     178.537 173.164 173.798  1.00  0.00     0.278 C 
ENDBRANCH  13  18
ENDBRANCH   1  12
BRANCH   8  20
ATOM     20  O   UNL     1     172.990 170.806 167.139  1.00  0.00    -0.490 OA
ATOM     21  C   UNL     1     173.766 171.798 166.476  1.00  0.00     0.278 C 
ENDBRANCH   8  20
BRANCH  11  22
ATOM     22  O   UNL     1     174.234 165.356 166.447  1.00  0.00    -0.492 OA
ATOM     23  C   UNL     1     173.427 164.196 166.620  1.00  0.00     0.278 C 
ENDBRANCH  11  22
BRANCH   9  24
ATOM     24  O   UNL     1     171.645 169.311 165.083  1.00  0.00    -0.490 OA
ATOM     25  C   UNL     1     171.884 169.991 163.855  1.00  0.00     0.279 C 
ENDBRANCH   9  24
BRANCH  10  26
ATOM     26  O   UNL     1     172.355 166.582 164.696  1.00  0.00    -0.490 OA
ATOM     27  C   UNL     1     172.838 166.405 163.369  1.00  0.00     0.278 C 
ENDBRANCH  10  26
TORSDOF 6
ENDMDL
MODEL 6
REMARK VINA RESULT:    -5.212      3.673      4.826
REMARK INTER + INTRA:          -7.706
REMARK INTER:                  -7.057
REMARK INTRA:                  -0.648
REMARK UNBOUND:                -0.665
REMARK SMILES COc1ccc(-c2cc(=O)c3c(OC)c(OC)c(OC)c(OC)c3o2)cc1
REMARK SMILES IDX 7 1 8 2 9 3 10 4 11 5 24 6 25 7 21 8 18 9 15 10 12 11 6 12
REMARK SMILES IDX 3 13 4 14 27 15 5 16 26 17 2 18 1 19 22 20 23 21 13 22 14 23
REMARK SMILES IDX 19 24 20 25 16 26 17 27
REMARK H PARENT
REMARK Flexibility Score: inf
ROOT
ATOM      1  C   UNL     1     173.453 170.267 170.831  1.00  0.00     0.138 A 
ATOM      2  C   UNL     1     173.300 170.020 169.461  1.00  0.00     0.100 A 
ATOM      3  C   UNL     1     172.041 169.695 168.960  1.00  0.00     0.197 A 
ATOM      4  O   UNL     1     171.926 169.471 167.725  1.00  0.00    -0.289 OA
ATOM      5  C   UNL     1     170.931 169.623 169.835  1.00  0.00     0.115 A 
ATOM      6  C   UNL     1     171.160 169.917 171.196  1.00  0.00     0.188 A 
ATOM      7  O   UNL     1     172.386 170.216 171.624  1.00  0.00    -0.452 OA
ATOM      8  C   UNL     1     170.110 169.882 172.119  1.00  0.00     0.209 A 
ATOM      9  C   UNL     1     168.817 169.473 171.717  1.00  0.00     0.211 A 
ATOM     10  C   UNL     1     168.569 169.190 170.346  1.00  0.00     0.208 A 
ATOM     11  C   UNL     1     169.629 169.277 169.400  1.00  0.00     0.179 A 
ENDROOT
BRANCH   1  12
ATOM     12  C   UNL     1     174.774 170.593 171.426  1.00  0.00     0.018 A 
ATOM     13  C   UNL     1     177.273 171.275 172.556  1.00  0.00     0.118 A 
ATOM     14  C   UNL     1     176.667 170.041 172.860  1.00  0.00     0.047 A 
ATOM     15  C   UNL     1     176.619 172.160 171.696  1.00  0.00     0.047 A 
ATOM     16  C   UNL     1     175.429 169.706 172.305  1.00  0.00     0.016 A 
ATOM     17  C   UNL     1     175.380 171.829 171.141  1.00  0.00     0.016 A 
BRANCH  13  18
ATOM     18  O   UNL     1     178.515 171.655 173.087  1.00  0.00    -0.497 OA
ATOM     19  C   UNL     1     178.723 172.802 173.905  1.00  0.00     0.278 C 
ENDBRANCH  13  18
ENDBRANCH   1  12
BRANCH   8  20
ATOM     20  O   UNL     1     170.364 170.245 173.445  1.00  0.00    -0.490 OA
ATOM     21  C   UNL     1     170.280 171.596 173.887  1.00  0.00     0.278 C 
ENDBRANCH   8  20
BRANCH  11  22
ATOM     22  O   UNL     1     169.446 169.024 168.022  1.00  0.00    -0.492 OA
ATOM     23  C   UNL     1     169.115 167.789 167.398  1.00  0.00     0.278 C 
ENDBRANCH  11  22
BRANCH   9  24
ATOM     24  O   UNL     1     167.759 169.335 172.634  1.00  0.00    -0.490 OA
ATOM     25  C   UNL     1     166.852 170.345 173.067  1.00  0.00     0.279 C 
ENDBRANCH   9  24
BRANCH  10  26
ATOM     26  O   UNL     1     167.297 168.810 169.875  1.00  0.00    -0.490 OA
ATOM     27  C   UNL     1     166.238 169.653 169.435  1.00  0.00     0.278 C 
ENDBRANCH  10  26
TORSDOF 6
ENDMDL
MODEL 7
REMARK VINA RESULT:    -5.096      4.326      5.389
REMARK INTER + INTRA:          -7.548
REMARK INTER:                  -6.942
REMARK INTRA:                  -0.606
REMARK UNBOUND:                -0.665
REMARK SMILES COc1ccc(-c2cc(=O)c3c(OC)c(OC)c(OC)c(OC)c3o2)cc1
REMARK SMILES IDX 7 1 8 2 9 3 10 4 11 5 24 6 25 7 21 8 18 9 15 10 12 11 6 12
REMARK SMILES IDX 3 13 4 14 27 15 5 16 26 17 2 18 1 19 22 20 23 21 13 22 14 23
REMARK SMILES IDX 19 24 20 25 16 26 17 27
REMARK H PARENT
REMARK Flexibility Score: inf
ROOT
ATOM      1  C   UNL     1     175.702 167.926 171.933  1.00  0.00     0.138 A 
ATOM      2  C   UNL     1     174.809 167.255 172.778  1.00  0.00     0.100 A 
ATOM      3  C   UNL     1     174.472 165.930 172.505  1.00  0.00     0.197 A 
ATOM      4  O   UNL     1     173.662 165.346 173.275  1.00  0.00    -0.289 OA
ATOM      5  C   UNL     1     175.036 165.276 171.384  1.00  0.00     0.115 A 
ATOM      6  C   UNL     1     175.951 166.009 170.601  1.00  0.00     0.188 A 
ATOM      7  O   UNL     1     176.235 167.275 170.902  1.00  0.00    -0.452 OA
ATOM      8  C   UNL     1     176.563 165.425 169.486  1.00  0.00     0.209 A 
ATOM      9  C   UNL     1     176.211 164.116 169.081  1.00  0.00     0.211 A 
ATOM     10  C   UNL     1     175.302 163.361 169.871  1.00  0.00     0.208 A 
ATOM     11  C   UNL     1     174.721 163.940 171.034  1.00  0.00     0.179 A 
ENDROOT
BRANCH   1  12
ATOM     12  C   UNL     1     176.079 169.344 172.159  1.00  0.00     0.018 A 
ATOM     13  C   UNL     1     176.852 172.025 172.611  1.00  0.00     0.118 A 
ATOM     14  C   UNL     1     175.950 171.709 171.578  1.00  0.00     0.047 A 
ATOM     15  C   UNL     1     177.367 170.995 173.403  1.00  0.00     0.047 A 
ATOM     16  C   UNL     1     175.571 170.383 171.352  1.00  0.00     0.016 A 
ATOM     17  C   UNL     1     176.991 169.668 173.178  1.00  0.00     0.016 A 
BRANCH  13  18
ATOM     18  O   UNL     1     177.261 173.340 172.878  1.00  0.00    -0.497 OA
ATOM     19  C   UNL     1     178.425 173.686 173.622  1.00  0.00     0.278 C 
ENDBRANCH  13  18
ENDBRANCH   1  12
BRANCH   8  20
ATOM     20  O   UNL     1     177.515 166.161 168.775  1.00  0.00    -0.490 OA
ATOM     21  C   UNL     1     178.902 166.107 169.093  1.00  0.00     0.278 C 
ENDBRANCH   8  20
BRANCH  11  22
ATOM     22  O   UNL     1     173.824 163.239 171.870  1.00  0.00    -0.492 OA
ATOM     23  C   UNL     1     174.134 162.264 172.860  1.00  0.00     0.278 C 
ENDBRANCH  11  22
BRANCH   9  24
ATOM     24  O   UNL     1     176.734 163.530 167.913  1.00  0.00    -0.490 OA
ATOM     25  C   UNL     1     177.943 162.789 167.784  1.00  0.00     0.279 C 
ENDBRANCH   9  24
BRANCH  10  26
ATOM     26  O   UNL     1     174.936 162.041 169.541  1.00  0.00    -0.490 OA
ATOM     27  C   UNL     1     175.611 160.834 169.880  1.00  0.00     0.278 C 
ENDBRANCH  10  26
TORSDOF 6
ENDMDL
MODEL 8
REMARK VINA RESULT:    -5.039      3.282      4.301
REMARK INTER + INTRA:          -7.471
REMARK INTER:                  -6.823
REMARK INTRA:                  -0.648
REMARK UNBOUND:                -0.665
REMARK SMILES COc1ccc(-c2cc(=O)c3c(OC)c(OC)c(OC)c(OC)c3o2)cc1
REMARK SMILES IDX 7 1 8 2 9 3 10 4 11 5 24 6 25 7 21 8 18 9 15 10 12 11 6 12
REMARK SMILES IDX 3 13 4 14 27 15 5 16 26 17 2 18 1 19 22 20 23 21 13 22 14 23
REMARK SMILES IDX 19 24 20 25 16 26 17 27
REMARK H PARENT
REMARK Flexibility Score: inf
ROOT
ATOM      1  C   UNL     1     175.272 167.911 172.679  1.00  0.00     0.138 A 
ATOM      2  C   UNL     1     174.392 167.581 173.717  1.00  0.00     0.100 A 
ATOM      3  C   UNL     1     173.930 166.271 173.833  1.00  0.00     0.197 A 
ATOM      4  O   UNL     1     173.134 165.996 174.771  1.00  0.00    -0.289 OA
ATOM      5  C   UNL     1     174.355 165.289 172.907  1.00  0.00     0.115 A 
ATOM      6  C   UNL     1     175.266 165.693 171.909  1.00  0.00     0.188 A 
ATOM      7  O   UNL     1     175.673 166.960 171.839  1.00  0.00    -0.452 OA
ATOM      8  C   UNL     1     175.745 164.776 170.967  1.00  0.00     0.209 A 
ATOM      9  C   UNL     1     175.259 163.448 170.952  1.00  0.00     0.211 A 
ATOM     10  C   UNL     1     174.352 163.023 171.962  1.00  0.00     0.208 A 
ATOM     11  C   UNL     1     173.908 163.946 172.950  1.00  0.00     0.179 A 
ENDROOT
BRANCH   1  12
ATOM     12  C   UNL     1     175.779 169.294 172.491  1.00  0.00     0.018 A 
ATOM     13  C   UNL     1     176.800 171.907 172.150  1.00  0.00     0.118 A 
ATOM     14  C   UNL     1     175.702 171.467 171.387  1.00  0.00     0.047 A 
ATOM     15  C   UNL     1     177.383 171.033 173.070  1.00  0.00     0.047 A 
ATOM     16  C   UNL     1     175.200 170.173 171.553  1.00  0.00     0.016 A 
ATOM     17  C   UNL     1     176.884 169.738 173.237  1.00  0.00     0.016 A 
BRANCH  13  18
ATOM     18  O   UNL     1     177.339 173.196 172.020  1.00  0.00    -0.497 OA
ATOM     19  C   UNL     1     178.107 173.852 173.025  1.00  0.00     0.278 C 
ENDBRANCH  13  18
ENDBRANCH   1  12
BRANCH   8  20
ATOM     20  O   UNL     1     176.698 165.199 170.037  1.00  0.00    -0.490 OA
ATOM     21  C   UNL     1     178.092 164.992 170.237  1.00  0.00     0.278 C 
ENDBRANCH   8  20
BRANCH  11  22
ATOM     22  O   UNL     1     173.021 163.585 173.988  1.00  0.00    -0.492 OA
ATOM     23  C   UNL     1     173.272 162.717 175.088  1.00  0.00     0.278 C 
ENDBRANCH  11  22
BRANCH   9  24
ATOM     24  O   UNL     1     175.645 162.523 169.963  1.00  0.00    -0.490 OA
ATOM     25  C   UNL     1     176.625 161.496 170.075  1.00  0.00     0.279 C 
ENDBRANCH   9  24
BRANCH  10  26
ATOM     26  O   UNL     1     173.857 161.706 172.022  1.00  0.00    -0.490 OA
ATOM     27  C   UNL     1     172.666 161.191 171.438  1.00  0.00     0.278 C 
ENDBRANCH  10  26
TORSDOF 6
ENDMDL
MODEL 9
REMARK VINA RESULT:    -5.018      3.083      4.256
REMARK INTER + INTRA:          -7.443
REMARK INTER:                  -6.807
REMARK INTRA:                  -0.636
REMARK UNBOUND:                -0.665
REMARK SMILES COc1ccc(-c2cc(=O)c3c(OC)c(OC)c(OC)c(OC)c3o2)cc1
REMARK SMILES IDX 7 1 8 2 9 3 10 4 11 5 24 6 25 7 21 8 18 9 15 10 12 11 6 12
REMARK SMILES IDX 3 13 4 14 27 15 5 16 26 17 2 18 1 19 22 20 23 21 13 22 14 23
REMARK SMILES IDX 19 24 20 25 16 26 17 27
REMARK H PARENT
REMARK Flexibility Score: inf
ROOT
ATOM      1  C   UNL     1     175.758 167.772 171.795  1.00  0.00     0.138 A 
ATOM      2  C   UNL     1     176.058 167.148 170.578  1.00  0.00     0.100 A 
ATOM      3  C   UNL     1     175.768 165.795 170.412  1.00  0.00     0.197 A 
ATOM      4  O   UNL     1     176.052 165.250 169.311  1.00  0.00    -0.289 OA
ATOM      5  C   UNL     1     175.171 165.067 171.469  1.00  0.00     0.115 A 
ATOM      6  C   UNL     1     174.871 165.775 172.652  1.00  0.00     0.188 A 
ATOM      7  O   UNL     1     175.174 167.067 172.760  1.00  0.00    -0.452 OA
ATOM      8  C   UNL     1     174.265 165.129 173.735  1.00  0.00     0.209 A 
ATOM      9  C   UNL     1     174.018 163.736 173.690  1.00  0.00     0.211 A 
ATOM     10  C   UNL     1     174.302 163.014 172.498  1.00  0.00     0.208 A 
ATOM     11  C   UNL     1     174.870 163.686 171.379  1.00  0.00     0.179 A 
ENDROOT
BRANCH   1  12
ATOM     12  C   UNL     1     176.067 169.204 172.037  1.00  0.00     0.018 A 
ATOM     13  C   UNL     1     176.711 171.914 172.520  1.00  0.00     0.118 A 
ATOM     14  C   UNL     1     175.834 171.566 171.476  1.00  0.00     0.047 A 
ATOM     15  C   UNL     1     177.265 170.902 173.307  1.00  0.00     0.047 A 
ATOM     16  C   UNL     1     175.519 170.225 171.235  1.00  0.00     0.016 A 
ATOM     17  C   UNL     1     176.954 169.561 173.067  1.00  0.00     0.016 A 
BRANCH  13  18
ATOM     18  O   UNL     1     177.055 173.244 172.802  1.00  0.00    -0.497 OA
ATOM     19  C   UNL     1     177.584 173.692 174.046  1.00  0.00     0.278 C 
ENDBRANCH  13  18
ENDBRANCH   1  12
BRANCH   8  20
ATOM     20  O   UNL     1     173.921 165.879 174.862  1.00  0.00    -0.490 OA
ATOM     21  C   UNL     1     174.781 165.980 175.992  1.00  0.00     0.278 C 
ENDBRANCH   8  20
BRANCH  11  22
ATOM     22  O   UNL     1     175.161 163.032 170.162  1.00  0.00    -0.492 OA
ATOM     23  C   UNL     1     176.154 162.042 169.918  1.00  0.00     0.278 C 
ENDBRANCH  11  22
BRANCH   9  24
ATOM     24  O   UNL     1     173.498 163.034 174.793  1.00  0.00    -0.490 OA
ATOM     25  C   UNL     1     172.129 162.872 175.147  1.00  0.00     0.279 C 
ENDBRANCH   9  24
BRANCH  10  26
ATOM     26  O   UNL     1     174.049 161.634 172.377  1.00  0.00    -0.490 OA
ATOM     27  C   UNL     1     172.857 160.998 171.931  1.00  0.00     0.278 C 
ENDBRANCH  10  26
TORSDOF 6
ENDMDL
