MODEL 1
REMARK VINA RESULT:    -4.956      0.000      0.000
REMARK INTER + INTRA:          -8.269
REMARK INTER:                  -7.564
REMARK INTRA:                  -0.705
REMARK UNBOUND:                -0.705
REMARK SMILES CCCCCCCCCCC(=O)[O-]
REMARK SMILES IDX 7 1 8 2 9 3 10 4 11 5 12 6 13 7 6 8 5 9 4 10 3 11 2 12 1 13
REMARK H PARENT
REMARK Flexibility Score: inf
ROOT
ATOM      1  C   UNL     1      -8.008  64.083  53.455  1.00  0.00     0.000 C 
ENDROOT
BRANCH   1   2
ATOM      2  C   UNL     1      -6.608  64.650  53.172  1.00  0.00     0.000 C 
BRANCH   2   3
ATOM      3  C   UNL     1      -6.445  65.121  51.719  1.00  0.00     0.006 C 
BRANCH   3   4
ATOM      4  C   UNL     1      -7.628  64.662  50.859  1.00  0.00     0.053 C 
BRANCH   4   5
ATOM      5  C   UNL     1      -7.169  63.707  49.804  1.00  0.00     0.041 C 
ATOM      6  O   UNL     1      -5.939  63.503  49.625  1.00  0.00    -0.550 OA
ATOM      7  O   UNL     1      -8.100  63.001  49.051  1.00  0.00    -0.550 OA
ENDBRANCH   4   5
ENDBRANCH   3   4
ENDBRANCH   2   3
ENDBRANCH   1   2
BRANCH   1   8
ATOM      8  C   UNL     1      -7.974  62.870  54.402  1.00  0.00     0.000 C 
BRANCH   8   9
ATOM      9  C   UNL     1      -7.721  61.548  53.658  1.00  0.00    -0.000 C 
BRANCH   9  10
ATOM     10  C   UNL     1      -6.387  60.896  54.051  1.00  0.00    -0.000 C 
BRANCH  10  11
ATOM     11  C   UNL     1      -6.062  61.156  55.527  1.00  0.00    -0.000 C 
BRANCH  11  12
ATOM     12  C   UNL     1      -5.443  59.915  56.181  1.00  0.00    -0.003 C 
ATOM     13  C   UNL     1      -6.338  58.691  55.998  1.00  0.00     0.004 C 
ENDBRANCH  11  12
ENDBRANCH  10  11
ENDBRANCH   9  10
ENDBRANCH   8   9
ENDBRANCH   1   8
TORSDOF 9
ENDMDL
MODEL 2
REMARK VINA RESULT:    -4.918     12.864     15.012
REMARK INTER + INTRA:          -8.211
REMARK INTER:                  -7.413
REMARK INTRA:                  -0.798
REMARK UNBOUND:                -0.705
REMARK SMILES CCCCCCCCCCC(=O)[O-]
REMARK SMILES IDX 7 1 8 2 9 3 10 4 11 5 12 6 13 7 6 8 5 9 4 10 3 11 2 12 1 13
REMARK H PARENT
REMARK Flexibility Score: inf
ROOT
ATOM      1  C   UNL     1     -11.746  60.944  40.601  1.00  0.00     0.000 C 
ENDROOT
BRANCH   1   2
ATOM      2  C   UNL     1     -10.302  61.225  40.157  1.00  0.00     0.000 C 
BRANCH   2   3
ATOM      3  C   UNL     1     -10.220  62.298  39.061  1.00  0.00     0.006 C 
BRANCH   3   4
ATOM      4  C   UNL     1     -10.509  63.689  39.633  1.00  0.00     0.053 C 
BRANCH   4   5
ATOM      5  C   UNL     1      -9.481  64.059  40.656  1.00  0.00     0.041 C 
ATOM      6  O   UNL     1      -9.829  64.311  41.840  1.00  0.00    -0.550 OA
ATOM      7  O   UNL     1      -8.135  64.076  40.316  1.00  0.00    -0.550 OA
ENDBRANCH   4   5
ENDBRANCH   3   4
ENDBRANCH   2   3
ENDBRANCH   1   2
BRANCH   1   8
ATOM      8  C   UNL     1     -12.411  59.827  39.777  1.00  0.00     0.000 C 
BRANCH   8   9
ATOM      9  C   UNL     1     -13.494  60.360  38.826  1.00  0.00    -0.000 C 
BRANCH   9  10
ATOM     10  C   UNL     1     -13.875  61.818  39.122  1.00  0.00    -0.000 C 
BRANCH  10  11
ATOM     11  C   UNL     1     -15.226  62.172  38.488  1.00  0.00    -0.000 C 
BRANCH  11  12
ATOM     12  C   UNL     1     -16.078  60.916  38.272  1.00  0.00    -0.003 C 
ATOM     13  C   UNL     1     -17.134  60.772  39.365  1.00  0.00     0.004 C 
ENDBRANCH  11  12
ENDBRANCH  10  11
ENDBRANCH   9  10
ENDBRANCH   8   9
ENDBRANCH   1   8
TORSDOF 9
ENDMDL
MODEL 3
REMARK VINA RESULT:    -4.887     12.261     14.964
REMARK INTER + INTRA:          -8.164
REMARK INTER:                  -7.443
REMARK INTRA:                  -0.721
REMARK UNBOUND:                -0.705
REMARK SMILES CCCCCCCCCCC(=O)[O-]
REMARK SMILES IDX 7 1 8 2 9 3 10 4 11 5 12 6 13 7 6 8 5 9 4 10 3 11 2 12 1 13
REMARK H PARENT
REMARK Flexibility Score: inf
ROOT
ATOM      1  C   UNL     1     -11.546  61.997  39.488  1.00  0.00     0.000 C 
ENDROOT
BRANCH   1   2
ATOM      2  C   UNL     1     -11.643  60.664  40.247  1.00  0.00     0.000 C 
BRANCH   2   3
ATOM      3  C   UNL     1     -13.010  59.985  40.074  1.00  0.00     0.006 C 
BRANCH   3   4
ATOM      4  C   UNL     1     -13.453  60.011  38.608  1.00  0.00     0.053 C 
BRANCH   4   5
ATOM      5  C   UNL     1     -14.806  60.636  38.480  1.00  0.00     0.041 C 
ATOM      6  O   UNL     1     -15.843  59.929  38.587  1.00  0.00    -0.550 OA
ATOM      7  O   UNL     1     -14.925  62.008  38.295  1.00  0.00    -0.550 OA
ENDBRANCH   4   5
ENDBRANCH   3   4
ENDBRANCH   2   3
ENDBRANCH   1   2
BRANCH   1   8
ATOM      8  C   UNL     1     -10.123  62.287  38.980  1.00  0.00     0.000 C 
BRANCH   8   9
ATOM      9  C   UNL     1     -10.053  63.556  38.114  1.00  0.00    -0.000 C 
BRANCH   9  10
ATOM     10  C   UNL     1      -9.283  64.695  38.798  1.00  0.00    -0.000 C 
BRANCH  10  11
ATOM     11  C   UNL     1      -8.650  64.219  40.111  1.00  0.00    -0.000 C 
BRANCH  11  12
ATOM     12  C   UNL     1      -9.305  64.902  41.318  1.00  0.00    -0.003 C 
ATOM     13  C   UNL     1      -9.742  63.877  42.360  1.00  0.00     0.004 C 
ENDBRANCH  11  12
ENDBRANCH  10  11
ENDBRANCH   9  10
ENDBRANCH   8   9
ENDBRANCH   1   8
TORSDOF 9
ENDMDL
MODEL 4
REMARK VINA RESULT:    -4.883     12.289     14.585
REMARK INTER + INTRA:          -8.158
REMARK INTER:                  -7.406
REMARK INTRA:                  -0.751
REMARK UNBOUND:                -0.705
REMARK SMILES CCCCCCCCCCC(=O)[O-]
REMARK SMILES IDX 7 1 8 2 9 3 10 4 11 5 12 6 13 7 6 8 5 9 4 10 3 11 2 12 1 13
REMARK H PARENT
REMARK Flexibility Score: inf
ROOT
ATOM      1  C   UNL     1     -10.169  61.546  39.698  1.00  0.00     0.000 C 
ENDROOT
BRANCH   1   2
ATOM      2  C   UNL     1     -10.608  62.637  38.708  1.00  0.00     0.000 C 
BRANCH   2   3
ATOM      3  C   UNL     1      -9.984  64.005  39.023  1.00  0.00     0.006 C 
BRANCH   3   4
ATOM      4  C   UNL     1      -8.926  63.884  40.124  1.00  0.00     0.053 C 
BRANCH   4   5
ATOM      5  C   UNL     1      -9.361  64.616  41.353  1.00  0.00     0.041 C 
ATOM      6  O   UNL     1      -9.871  63.986  42.318  1.00  0.00    -0.550 OA
ATOM      7  O   UNL     1      -9.158  65.986  41.457  1.00  0.00    -0.550 OA
ENDBRANCH   4   5
ENDBRANCH   3   4
ENDBRANCH   2   3
ENDBRANCH   1   2
BRANCH   1   8
ATOM      8  C   UNL     1     -11.323  61.059  40.592  1.00  0.00     0.000 C 
BRANCH   8   9
ATOM      9  C   UNL     1     -12.253  60.072  39.869  1.00  0.00    -0.000 C 
BRANCH   9  10
ATOM     10  C   UNL     1     -13.735  60.454  39.998  1.00  0.00    -0.000 C 
BRANCH  10  11
ATOM     11  C   UNL     1     -14.458  60.307  38.654  1.00  0.00    -0.000 C 
BRANCH  11  12
ATOM     12  C   UNL     1     -15.264  61.568  38.322  1.00  0.00    -0.003 C 
ATOM     13  C   UNL     1     -14.453  62.830  38.603  1.00  0.00     0.004 C 
ENDBRANCH  11  12
ENDBRANCH  10  11
ENDBRANCH   9  10
ENDBRANCH   8   9
ENDBRANCH   1   8
TORSDOF 9
ENDMDL
MODEL 5
REMARK VINA RESULT:    -4.836      1.103      1.509
REMARK INTER + INTRA:          -8.086
REMARK INTER:                  -7.587
REMARK INTRA:                  -0.498
REMARK UNBOUND:                -0.705
REMARK SMILES CCCCCCCCCCC(=O)[O-]
REMARK SMILES IDX 7 1 8 2 9 3 10 4 11 5 12 6 13 7 6 8 5 9 4 10 3 11 2 12 1 13
REMARK H PARENT
REMARK Flexibility Score: inf
ROOT
ATOM      1  C   UNL     1      -6.817  63.846  52.451  1.00  0.00     0.000 C 
ENDROOT
BRANCH   1   2
ATOM      2  C   UNL     1      -6.608  65.223  51.801  1.00  0.00     0.000 C 
BRANCH   2   3
ATOM      3  C   UNL     1      -6.440  65.137  50.277  1.00  0.00     0.006 C 
BRANCH   3   4
ATOM      4  C   UNL     1      -6.767  63.729  49.769  1.00  0.00     0.053 C 
BRANCH   4   5
ATOM      5  C   UNL     1      -8.137  63.693  49.169  1.00  0.00     0.041 C 
ATOM      6  O   UNL     1      -8.849  64.732  49.152  1.00  0.00    -0.550 OA
ATOM      7  O   UNL     1      -8.611  62.526  48.583  1.00  0.00    -0.550 OA
ENDBRANCH   4   5
ENDBRANCH   3   4
ENDBRANCH   2   3
ENDBRANCH   1   2
BRANCH   1   8
ATOM      8  C   UNL     1      -7.801  63.892  53.633  1.00  0.00     0.000 C 
BRANCH   8   9
ATOM      9  C   UNL     1      -7.844  62.571  54.417  1.00  0.00    -0.000 C 
BRANCH   9  10
ATOM     10  C   UNL     1      -7.295  61.386  53.608  1.00  0.00    -0.000 C 
BRANCH  10  11
ATOM     11  C   UNL     1      -6.048  60.796  54.278  1.00  0.00    -0.000 C 
BRANCH  11  12
ATOM     12  C   UNL     1      -6.273  60.598  55.781  1.00  0.00    -0.003 C 
ATOM     13  C   UNL     1      -6.337  59.115  56.138  1.00  0.00     0.004 C 
ENDBRANCH  11  12
ENDBRANCH  10  11
ENDBRANCH   9  10
ENDBRANCH   8   9
ENDBRANCH   1   8
TORSDOF 9
ENDMDL
MODEL 6
REMARK VINA RESULT:    -4.776     12.283     15.052
REMARK INTER + INTRA:          -7.994
REMARK INTER:                  -7.256
REMARK INTRA:                  -0.737
REMARK UNBOUND:                -0.705
REMARK SMILES CCCCCCCCCCC(=O)[O-]
REMARK SMILES IDX 7 1 8 2 9 3 10 4 11 5 12 6 13 7 6 8 5 9 4 10 3 11 2 12 1 13
REMARK H PARENT
REMARK Flexibility Score: inf
ROOT
ATOM      1  C   UNL     1     -12.065  60.901  40.467  1.00  0.00     0.000 C 
ENDROOT
BRANCH   1   2
ATOM      2  C   UNL     1     -12.600  59.672  39.716  1.00  0.00     0.000 C 
BRANCH   2   3
ATOM      3  C   UNL     1     -13.558  60.048  38.575  1.00  0.00     0.006 C 
BRANCH   3   4
ATOM      4  C   UNL     1     -14.922  60.475  39.125  1.00  0.00     0.053 C 
BRANCH   4   5
ATOM      5  C   UNL     1     -15.353  61.769  38.511  1.00  0.00     0.041 C 
ATOM      6  O   UNL     1     -14.581  62.765  38.525  1.00  0.00    -0.550 OA
ATOM      7  O   UNL     1     -16.586  61.863  37.878  1.00  0.00    -0.550 OA
ENDBRANCH   4   5
ENDBRANCH   3   4
ENDBRANCH   2   3
ENDBRANCH   1   2
BRANCH   1   8
ATOM      8  C   UNL     1     -10.847  61.536  39.773  1.00  0.00     0.000 C 
BRANCH   8   9
ATOM      9  C   UNL     1     -11.202  62.835  39.031  1.00  0.00    -0.000 C 
BRANCH   9  10
ATOM     10  C   UNL     1      -9.987  63.754  38.836  1.00  0.00    -0.000 C 
BRANCH  10  11
ATOM     11  C   UNL     1      -8.954  63.542  39.949  1.00  0.00    -0.000 C 
BRANCH  11  12
ATOM     12  C   UNL     1      -9.065  64.635  41.019  1.00  0.00    -0.003 C 
ATOM     13  C   UNL     1      -9.758  64.109  42.273  1.00  0.00     0.004 C 
ENDBRANCH  11  12
ENDBRANCH  10  11
ENDBRANCH   9  10
ENDBRANCH   8   9
ENDBRANCH   1   8
TORSDOF 9
ENDMDL
MODEL 7
REMARK VINA RESULT:    -4.749      3.545      6.459
REMARK INTER + INTRA:          -7.952
REMARK INTER:                  -7.469
REMARK INTRA:                  -0.483
REMARK UNBOUND:                -0.705
REMARK SMILES CCCCCCCCCCC(=O)[O-]
REMARK SMILES IDX 7 1 8 2 9 3 10 4 11 5 12 6 13 7 6 8 5 9 4 10 3 11 2 12 1 13
REMARK H PARENT
REMARK Flexibility Score: inf
ROOT
ATOM      1  C   UNL     1      -7.578  61.471  53.637  1.00  0.00     0.000 C 
ENDROOT
BRANCH   1   2
ATOM      2  C   UNL     1      -6.312  60.781  54.168  1.00  0.00     0.000 C 
BRANCH   2   3
ATOM      3  C   UNL     1      -6.311  60.646  55.698  1.00  0.00     0.006 C 
BRANCH   3   4
ATOM      4  C   UNL     1      -5.923  59.226  56.122  1.00  0.00     0.053 C 
BRANCH   4   5
ATOM      5  C   UNL     1      -4.481  59.173  56.518  1.00  0.00     0.041 C 
ATOM      6  O   UNL     1      -3.812  58.122  56.333  1.00  0.00    -0.550 OA
ATOM      7  O   UNL     1      -3.862  60.299  57.045  1.00  0.00    -0.550 OA
ENDBRANCH   4   5
ENDBRANCH   3   4
ENDBRANCH   2   3
ENDBRANCH   1   2
BRANCH   1   8
ATOM      8  C   UNL     1      -7.969  62.709  54.464  1.00  0.00     0.000 C 
BRANCH   8   9
ATOM      9  C   UNL     1      -7.885  64.012  53.653  1.00  0.00    -0.000 C 
BRANCH   9  10
ATOM     10  C   UNL     1      -6.511  64.211  52.996  1.00  0.00    -0.000 C 
BRANCH  10  11
ATOM     11  C   UNL     1      -6.467  65.523  52.204  1.00  0.00    -0.000 C 
BRANCH  11  12
ATOM     12  C   UNL     1      -6.219  65.259  50.714  1.00  0.00    -0.003 C 
ATOM     13  C   UNL     1      -7.505  64.841  50.007  1.00  0.00     0.004 C 
ENDBRANCH  11  12
ENDBRANCH  10  11
ENDBRANCH   9  10
ENDBRANCH   8   9
ENDBRANCH   1   8
TORSDOF 9
ENDMDL
MODEL 8
REMARK VINA RESULT:    -4.735     10.036     13.512
REMARK INTER + INTRA:          -7.931
REMARK INTER:                  -7.290
REMARK INTRA:                  -0.641
REMARK UNBOUND:                -0.705
REMARK SMILES CCCCCCCCCCC(=O)[O-]
REMARK SMILES IDX 7 1 8 2 9 3 10 4 11 5 12 6 13 7 6 8 5 9 4 10 3 11 2 12 1 13
REMARK H PARENT
REMARK Flexibility Score: inf
ROOT
ATOM      1  C   UNL     1      -9.584  63.060  40.006  1.00  0.00     0.000 C 
ENDROOT
BRANCH   1   2
ATOM      2  C   UNL     1      -9.975  64.197  40.963  1.00  0.00     0.000 C 
BRANCH   2   3
ATOM      3  C   UNL     1      -9.709  63.847  42.435  1.00  0.00     0.006 C 
BRANCH   3   4
ATOM      4  C   UNL     1      -9.948  62.356  42.695  1.00  0.00     0.053 C 
BRANCH   4   5
ATOM      5  C   UNL     1      -9.783  62.045  44.149  1.00  0.00     0.041 C 
ATOM      6  O   UNL     1     -10.085  60.904  44.590  1.00  0.00    -0.550 OA
ATOM      7  O   UNL     1      -9.248  62.996  45.009  1.00  0.00    -0.550 OA
ENDBRANCH   4   5
ENDBRANCH   3   4
ENDBRANCH   2   3
ENDBRANCH   1   2
BRANCH   1   8
ATOM      8  C   UNL     1     -10.517  62.967  38.785  1.00  0.00     0.000 C 
BRANCH   8   9
ATOM      9  C   UNL     1     -11.799  62.171  39.082  1.00  0.00    -0.000 C 
BRANCH   9  10
ATOM     10  C   UNL     1     -11.531  60.905  39.909  1.00  0.00    -0.000 C 
BRANCH  10  11
ATOM     11  C   UNL     1     -12.741  59.964  39.879  1.00  0.00    -0.000 C 
BRANCH  11  12
ATOM     12  C   UNL     1     -13.537  60.133  38.579  1.00  0.00    -0.003 C 
ATOM     13  C   UNL     1     -15.027  60.305  38.865  1.00  0.00     0.004 C 
ENDBRANCH  11  12
ENDBRANCH  10  11
ENDBRANCH   9  10
ENDBRANCH   8   9
ENDBRANCH   1   8
TORSDOF 9
ENDMDL
MODEL 9
REMARK VINA RESULT:    -4.605     11.630     13.748
REMARK INTER + INTRA:          -7.733
REMARK INTER:                  -7.081
REMARK INTRA:                  -0.652
REMARK UNBOUND:                -0.705
REMARK SMILES CCCCCCCCCCC(=O)[O-]
REMARK SMILES IDX 7 1 8 2 9 3 10 4 11 5 12 6 13 7 6 8 5 9 4 10 3 11 2 12 1 13
REMARK H PARENT
REMARK Flexibility Score: inf
ROOT
ATOM      1  C   UNL     1      -9.941  62.245  41.671  1.00  0.00     0.000 C 
ENDROOT
BRANCH   1   2
ATOM      2  C   UNL     1      -9.748  63.614  42.341  1.00  0.00     0.000 C 
BRANCH   2   3
ATOM      3  C   UNL     1     -10.075  64.783  41.400  1.00  0.00     0.006 C 
BRANCH   3   4
ATOM      4  C   UNL     1      -8.916  65.784  41.347  1.00  0.00     0.053 C 
BRANCH   4   5
ATOM      5  C   UNL     1      -8.112  65.591  40.101  1.00  0.00     0.041 C 
ATOM      6  O   UNL     1      -7.311  64.624  40.007  1.00  0.00    -0.550 OA
ATOM      7  O   UNL     1      -8.284  66.449  39.022  1.00  0.00    -0.550 OA
ENDBRANCH   4   5
ENDBRANCH   3   4
ENDBRANCH   2   3
ENDBRANCH   1   2
BRANCH   1   8
ATOM      8  C   UNL     1      -9.978  62.337  40.135  1.00  0.00     0.000 C 
BRANCH   8   9
ATOM      9  C   UNL     1     -11.223  61.664  39.534  1.00  0.00    -0.000 C 
BRANCH   9  10
ATOM     10  C   UNL     1     -11.893  60.684  40.508  1.00  0.00    -0.000 C 
BRANCH  10  11
ATOM     11  C   UNL     1     -12.710  59.630  39.750  1.00  0.00    -0.000 C 
BRANCH  11  12
ATOM     12  C   UNL     1     -13.592  60.283  38.679  1.00  0.00    -0.003 C 
ATOM     13  C   UNL     1     -15.024  60.457  39.178  1.00  0.00     0.004 C 
ENDBRANCH  11  12
ENDBRANCH  10  11
ENDBRANCH   9  10
ENDBRANCH   8   9
ENDBRANCH   1   8
TORSDOF 9
ENDMDL
