MODEL 1
REMARK VINA RESULT:    -3.323      0.000      0.000
REMARK INTER + INTRA:          -5.498
REMARK INTER:                  -4.683
REMARK INTRA:                  -0.816
REMARK UNBOUND:                -0.816
REMARK SMILES CCCCCCCCC(=O)[O-]
REMARK SMILES IDX 6 1 7 2 8 3 9 4 10 5 11 6 5 7 4 8 3 9 2 10 1 11
REMARK H PARENT
REMARK Flexibility Score: inf
ROOT
ATOM      1  C   UNL     1      94.977 100.214  91.718  1.00  0.00     0.000 C 
ENDROOT
BRANCH   1   2
ATOM      2  C   UNL     1      93.651 100.087  92.485  1.00  0.00     0.006 C 
BRANCH   2   3
ATOM      3  C   UNL     1      92.565  99.366  91.676  1.00  0.00     0.053 C 
BRANCH   3   4
ATOM      4  C   UNL     1      91.212  99.652  92.247  1.00  0.00     0.041 C 
ATOM      5  O   UNL     1      90.377  98.722  92.395  1.00  0.00    -0.550 OA
ATOM      6  O   UNL     1      90.856 100.956  92.571  1.00  0.00    -0.550 OA
ENDBRANCH   3   4
ENDBRANCH   2   3
ENDBRANCH   1   2
BRANCH   1   7
ATOM      7  C   UNL     1      95.472 101.668  91.630  1.00  0.00     0.000 C 
BRANCH   7   8
ATOM      8  C   UNL     1      94.374 102.687  91.977  1.00  0.00    -0.000 C 
BRANCH   8   9
ATOM      9  C   UNL     1      93.904 103.492  90.756  1.00  0.00    -0.000 C 
BRANCH   9  10
ATOM     10  C   UNL     1      92.563 102.963  90.235  1.00  0.00    -0.003 C 
ATOM     11  C   UNL     1      92.768 101.987  89.079  1.00  0.00     0.004 C 
ENDBRANCH   9  10
ENDBRANCH   8   9
ENDBRANCH   7   8
ENDBRANCH   1   7
TORSDOF 7
ENDMDL
MODEL 2
REMARK VINA RESULT:    -3.308      1.092      1.792
REMARK INTER + INTRA:          -5.477
REMARK INTER:                  -4.875
REMARK INTRA:                  -0.602
REMARK UNBOUND:                -0.816
REMARK SMILES CCCCCCCCC(=O)[O-]
REMARK SMILES IDX 6 1 7 2 8 3 9 4 10 5 11 6 5 7 4 8 3 9 2 10 1 11
REMARK H PARENT
REMARK Flexibility Score: inf
ROOT
ATOM      1  C   UNL     1      93.615  99.674  91.082  1.00  0.00     0.000 C 
ENDROOT
BRANCH   1   2
ATOM      2  C   UNL     1      93.413 100.073  92.553  1.00  0.00     0.006 C 
BRANCH   2   3
ATOM      3  C   UNL     1      92.369  99.203  93.265  1.00  0.00     0.053 C 
BRANCH   3   4
ATOM      4  C   UNL     1      90.996  99.518  92.760  1.00  0.00     0.041 C 
ATOM      5  O   UNL     1      90.239  98.594  92.364  1.00  0.00    -0.550 OA
ATOM      6  O   UNL     1      90.570 100.839  92.680  1.00  0.00    -0.550 OA
ENDBRANCH   3   4
ENDBRANCH   2   3
ENDBRANCH   1   2
BRANCH   1   7
ATOM      7  C   UNL     1      93.863 100.888  90.170  1.00  0.00     0.000 C 
BRANCH   7   8
ATOM      8  C   UNL     1      92.564 101.623  89.800  1.00  0.00    -0.000 C 
BRANCH   8   9
ATOM      9  C   UNL     1      92.586 103.106  90.202  1.00  0.00    -0.000 C 
BRANCH   9  10
ATOM     10  C   UNL     1      93.971 103.512  90.718  1.00  0.00    -0.003 C 
ATOM     11  C   UNL     1      94.622 104.541  89.798  1.00  0.00     0.004 C 
ENDBRANCH   9  10
ENDBRANCH   8   9
ENDBRANCH   7   8
ENDBRANCH   1   7
TORSDOF 7
ENDMDL
MODEL 3
REMARK VINA RESULT:    -3.304     12.029     13.613
REMARK INTER + INTRA:          -5.472
REMARK INTER:                  -4.646
REMARK INTRA:                  -0.826
REMARK UNBOUND:                -0.816
REMARK SMILES CCCCCCCCC(=O)[O-]
REMARK SMILES IDX 6 1 7 2 8 3 9 4 10 5 11 6 5 7 4 8 3 9 2 10 1 11
REMARK H PARENT
REMARK Flexibility Score: inf
ROOT
ATOM      1  C   UNL     1     103.475  97.882  91.689  1.00  0.00     0.000 C 
ENDROOT
BRANCH   1   2
ATOM      2  C   UNL     1     104.590  98.007  92.740  1.00  0.00     0.006 C 
BRANCH   2   3
ATOM      3  C   UNL     1     105.759  98.879  92.263  1.00  0.00     0.053 C 
BRANCH   3   4
ATOM      4  C   UNL     1     106.929  98.024  91.890  1.00  0.00     0.041 C 
ATOM      5  O   UNL     1     107.262  97.053  92.619  1.00  0.00    -0.550 OA
ATOM      6  O   UNL     1     107.682  98.329  90.763  1.00  0.00    -0.550 OA
ENDBRANCH   3   4
ENDBRANCH   2   3
ENDBRANCH   1   2
BRANCH   1   7
ATOM      7  C   UNL     1     102.771  96.514  91.736  1.00  0.00     0.000 C 
BRANCH   7   8
ATOM      8  C   UNL     1     103.742  95.361  92.038  1.00  0.00    -0.000 C 
BRANCH   8   9
ATOM      9  C   UNL     1     104.139  94.574  90.779  1.00  0.00    -0.000 C 
BRANCH   9  10
ATOM     10  C   UNL     1     105.516  95.014  90.270  1.00  0.00    -0.003 C 
ATOM     11  C   UNL     1     105.386  96.035  89.143  1.00  0.00     0.004 C 
ENDBRANCH   9  10
ENDBRANCH   8   9
ENDBRANCH   7   8
ENDBRANCH   1   7
TORSDOF 7
ENDMDL
MODEL 4
REMARK VINA RESULT:    -3.299     12.829     13.845
REMARK INTER + INTRA:          -5.465
REMARK INTER:                  -4.842
REMARK INTRA:                  -0.622
REMARK UNBOUND:                -0.816
REMARK SMILES CCCCCCCCC(=O)[O-]
REMARK SMILES IDX 6 1 7 2 8 3 9 4 10 5 11 6 5 7 4 8 3 9 2 10 1 11
REMARK H PARENT
REMARK Flexibility Score: inf
ROOT
ATOM      1  C   UNL     1     104.632  98.460  90.908  1.00  0.00     0.000 C 
ENDROOT
BRANCH   1   2
ATOM      2  C   UNL     1     104.578  98.131  92.409  1.00  0.00     0.006 C 
BRANCH   2   3
ATOM      3  C   UNL     1     105.652  98.871  93.217  1.00  0.00     0.053 C 
BRANCH   3   4
ATOM      4  C   UNL     1     107.017  98.506  92.725  1.00  0.00     0.041 C 
ATOM      5  O   UNL     1     107.800  99.399  92.308  1.00  0.00    -0.550 OA
ATOM      6  O   UNL     1     107.407  97.173  92.682  1.00  0.00    -0.550 OA
ENDBRANCH   3   4
ENDBRANCH   2   3
ENDBRANCH   1   2
BRANCH   1   7
ATOM      7  C   UNL     1     104.351  97.232  90.024  1.00  0.00     0.000 C 
BRANCH   7   8
ATOM      8  C   UNL     1     105.626  96.435  89.699  1.00  0.00    -0.000 C 
BRANCH   8   9
ATOM      9  C   UNL     1     105.558  94.980  90.189  1.00  0.00    -0.000 C 
BRANCH   9  10
ATOM     10  C   UNL     1     104.163  94.650  90.732  1.00  0.00    -0.003 C 
ATOM     11  C   UNL     1     103.484  93.574  89.890  1.00  0.00     0.004 C 
ENDBRANCH   9  10
ENDBRANCH   8   9
ENDBRANCH   7   8
ENDBRANCH   1   7
TORSDOF 7
ENDMDL
MODEL 5
REMARK VINA RESULT:    -3.272     13.176     14.530
REMARK INTER + INTRA:          -5.427
REMARK INTER:                  -4.677
REMARK INTRA:                  -0.750
REMARK UNBOUND:                -0.816
REMARK SMILES CCCCCCCCC(=O)[O-]
REMARK SMILES IDX 6 1 7 2 8 3 9 4 10 5 11 6 5 7 4 8 3 9 2 10 1 11
REMARK H PARENT
REMARK Flexibility Score: inf
ROOT
ATOM      1  C   UNL     1     106.499  98.223  92.859  1.00  0.00     0.000 C 
ENDROOT
BRANCH   1   2
ATOM      2  C   UNL     1     105.522  97.696  91.796  1.00  0.00     0.006 C 
BRANCH   2   3
ATOM      3  C   UNL     1     106.134  96.594  90.922  1.00  0.00     0.053 C 
BRANCH   3   4
ATOM      4  C   UNL     1     105.336  95.334  91.037  1.00  0.00     0.041 C 
ATOM      5  O   UNL     1     105.234  94.557  90.052  1.00  0.00    -0.550 OA
ATOM      6  O   UNL     1     104.662  95.043  92.217  1.00  0.00    -0.550 OA
ENDBRANCH   3   4
ENDBRANCH   2   3
ENDBRANCH   1   2
BRANCH   1   7
ATOM      7  C   UNL     1     107.874  97.534  92.790  1.00  0.00     0.000 C 
BRANCH   7   8
ATOM      8  C   UNL     1     109.039  98.531  92.901  1.00  0.00    -0.000 C 
BRANCH   8   9
ATOM      9  C   UNL     1     108.793  99.823  92.108  1.00  0.00    -0.000 C 
BRANCH   9  10
ATOM     10  C   UNL     1     109.013  99.596  90.609  1.00  0.00    -0.003 C 
ATOM     11  C   UNL     1     107.854 100.158  89.790  1.00  0.00     0.004 C 
ENDBRANCH   9  10
ENDBRANCH   8   9
ENDBRANCH   7   8
ENDBRANCH   1   7
TORSDOF 7
ENDMDL
MODEL 6
REMARK VINA RESULT:    -3.270      2.974      4.791
REMARK INTER + INTRA:          -5.424
REMARK INTER:                  -4.674
REMARK INTRA:                  -0.750
REMARK UNBOUND:                -0.816
REMARK SMILES CCCCCCCCC(=O)[O-]
REMARK SMILES IDX 6 1 7 2 8 3 9 4 10 5 11 6 5 7 4 8 3 9 2 10 1 11
REMARK H PARENT
REMARK Flexibility Score: inf
ROOT
ATOM      1  C   UNL     1      89.294  98.182  91.804  1.00  0.00     0.000 C 
ENDROOT
BRANCH   1   2
ATOM      2  C   UNL     1      88.883  98.191  90.323  1.00  0.00     0.006 C 
BRANCH   2   3
ATOM      3  C   UNL     1      89.868  97.426  89.429  1.00  0.00     0.053 C 
BRANCH   3   4
ATOM      4  C   UNL     1      91.154  98.182  89.306  1.00  0.00     0.041 C 
ATOM      5  O   UNL     1      92.215  97.710  89.793  1.00  0.00    -0.550 OA
ATOM      6  O   UNL     1      91.171  99.430  88.696  1.00  0.00    -0.550 OA
ENDBRANCH   3   4
ENDBRANCH   2   3
ENDBRANCH   1   2
BRANCH   1   7
ATOM      7  C   UNL     1      88.967  99.506  92.515  1.00  0.00     0.000 C 
BRANCH   7   8
ATOM      8  C   UNL     1      90.214 100.180  93.111  1.00  0.00    -0.000 C 
BRANCH   8   9
ATOM      9  C   UNL     1      91.213 100.636  92.036  1.00  0.00    -0.000 C 
BRANCH   9  10
ATOM     10  C   UNL     1      92.626 100.136  92.356  1.00  0.00    -0.003 C 
ATOM     11  C   UNL     1      92.591  98.992  93.367  1.00  0.00     0.004 C 
ENDBRANCH   9  10
ENDBRANCH   8   9
ENDBRANCH   7   8
ENDBRANCH   1   7
TORSDOF 7
ENDMDL
MODEL 7
REMARK VINA RESULT:    -3.261      1.450      2.169
REMARK INTER + INTRA:          -5.411
REMARK INTER:                  -4.720
REMARK INTRA:                  -0.690
REMARK UNBOUND:                -0.816
REMARK SMILES CCCCCCCCC(=O)[O-]
REMARK SMILES IDX 6 1 7 2 8 3 9 4 10 5 11 6 5 7 4 8 3 9 2 10 1 11
REMARK H PARENT
REMARK Flexibility Score: inf
ROOT
ATOM      1  C   UNL     1      92.261  99.110  92.777  1.00  0.00     0.000 C 
ENDROOT
BRANCH   1   2
ATOM      2  C   UNL     1      91.556  98.921  91.424  1.00  0.00     0.006 C 
BRANCH   2   3
ATOM      3  C   UNL     1      90.162  99.559  91.389  1.00  0.00     0.053 C 
BRANCH   3   4
ATOM      4  C   UNL     1      89.310  99.011  92.490  1.00  0.00     0.041 C 
ATOM      5  O   UNL     1      88.945  97.806  92.470  1.00  0.00    -0.550 OA
ATOM      6  O   UNL     1      88.877  99.845  93.515  1.00  0.00    -0.550 OA
ENDBRANCH   3   4
ENDBRANCH   2   3
ENDBRANCH   1   2
BRANCH   1   7
ATOM      7  C   UNL     1      93.637  99.786  92.636  1.00  0.00     0.000 C 
BRANCH   7   8
ATOM      8  C   UNL     1      93.688 100.781  91.466  1.00  0.00    -0.000 C 
BRANCH   8   9
ATOM      9  C   UNL     1      93.039 102.132  91.806  1.00  0.00    -0.000 C 
BRANCH   9  10
ATOM     10  C   UNL     1      92.344 102.730  90.578  1.00  0.00    -0.003 C 
ATOM     11  C   UNL     1      92.736 101.985  89.305  1.00  0.00     0.004 C 
ENDBRANCH   9  10
ENDBRANCH   8   9
ENDBRANCH   7   8
ENDBRANCH   1   7
TORSDOF 7
ENDMDL
MODEL 8
REMARK VINA RESULT:    -3.244      2.155      3.275
REMARK INTER + INTRA:          -5.387
REMARK INTER:                  -4.672
REMARK INTRA:                  -0.715
REMARK UNBOUND:                -0.816
REMARK SMILES CCCCCCCCC(=O)[O-]
REMARK SMILES IDX 6 1 7 2 8 3 9 4 10 5 11 6 5 7 4 8 3 9 2 10 1 11
REMARK H PARENT
REMARK Flexibility Score: inf
ROOT
ATOM      1  C   UNL     1      90.430 100.299  92.738  1.00  0.00     0.000 C 
ENDROOT
BRANCH   1   2
ATOM      2  C   UNL     1      89.628  99.785  91.531  1.00  0.00     0.006 C 
BRANCH   2   3
ATOM      3  C   UNL     1      89.629  98.255  91.426  1.00  0.00     0.053 C 
BRANCH   3   4
ATOM      4  C   UNL     1      90.074  97.826  90.064  1.00  0.00     0.041 C 
ATOM      5  O   UNL     1      89.309  97.146  89.332  1.00  0.00    -0.550 OA
ATOM      6  O   UNL     1      91.354  98.136  89.621  1.00  0.00    -0.550 OA
ENDBRANCH   3   4
ENDBRANCH   2   3
ENDBRANCH   1   2
BRANCH   1   7
ATOM      7  C   UNL     1      91.890  99.815  92.725  1.00  0.00     0.000 C 
BRANCH   7   8
ATOM      8  C   UNL     1      92.767 100.613  91.746  1.00  0.00    -0.000 C 
BRANCH   8   9
ATOM      9  C   UNL     1      92.487 102.123  91.793  1.00  0.00    -0.000 C 
BRANCH   9  10
ATOM     10  C   UNL     1      92.277 102.685  90.383  1.00  0.00    -0.003 C 
ATOM     11  C   UNL     1      92.490 101.607  89.323  1.00  0.00     0.004 C 
ENDBRANCH   9  10
ENDBRANCH   8   9
ENDBRANCH   7   8
ENDBRANCH   1   7
TORSDOF 7
ENDMDL
MODEL 9
REMARK VINA RESULT:    -3.187      1.449      2.612
REMARK INTER + INTRA:          -5.306
REMARK INTER:                  -4.698
REMARK INTRA:                  -0.608
REMARK UNBOUND:                -0.816
REMARK SMILES CCCCCCCCC(=O)[O-]
REMARK SMILES IDX 6 1 7 2 8 3 9 4 10 5 11 6 5 7 4 8 3 9 2 10 1 11
REMARK H PARENT
REMARK Flexibility Score: inf
ROOT
ATOM      1  C   UNL     1      92.251 101.290  89.632  1.00  0.00     0.000 C 
ENDROOT
BRANCH   1   2
ATOM      2  C   UNL     1      91.798 100.208  90.625  1.00  0.00     0.006 C 
BRANCH   2   3
ATOM      3  C   UNL     1      91.151 100.795  91.886  1.00  0.00     0.053 C 
BRANCH   3   4
ATOM      4  C   UNL     1      89.830 100.142  92.146  1.00  0.00     0.041 C 
ATOM      5  O   UNL     1      89.162  99.664  91.192  1.00  0.00    -0.550 OA
ATOM      6  O   UNL     1      89.313 100.107  93.435  1.00  0.00    -0.550 OA
ENDBRANCH   3   4
ENDBRANCH   2   3
ENDBRANCH   1   2
BRANCH   1   7
ATOM      7  C   UNL     1      92.302 102.691  90.267  1.00  0.00     0.000 C 
BRANCH   7   8
ATOM      8  C   UNL     1      93.486 103.528  89.756  1.00  0.00    -0.000 C 
BRANCH   8   9
ATOM      9  C   UNL     1      94.471 103.907  90.873  1.00  0.00    -0.000 C 
BRANCH   9  10
ATOM     10  C   UNL     1      94.541 102.807  91.937  1.00  0.00    -0.003 C 
ATOM     11  C   UNL     1      95.624 101.785  91.604  1.00  0.00     0.004 C 
ENDBRANCH   9  10
ENDBRANCH   8   9
ENDBRANCH   7   8
ENDBRANCH   1   7
TORSDOF 7
ENDMDL
