MODEL 1
REMARK VINA RESULT:    -3.976      0.000      0.000
REMARK INTER + INTRA:          -6.661
REMARK INTER:                  -6.069
REMARK INTRA:                  -0.592
REMARK UNBOUND:                -0.592
REMARK SMILES CC1=CCC[C@H](C)C(=O)C[C@H](C(C)C)C(=O)C1
REMARK SMILES IDX 8 1 9 2 6 3 7 4 5 5 4 6 3 7 2 8 1 9 10 11 11 12 15 13 16 14
REMARK SMILES IDX 17 15 12 17 13 18 14 19
REMARK H PARENT
REMARK Flexibility Score: 70.00
ROOT
ATOM      1  C   UNL     1       7.228 -17.342  24.484  1.00  0.00     0.136 C 
ATOM      2  O   UNL     1       6.229 -16.640  24.459  1.00  0.00    -0.299 OA
ENDROOT
BRANCH   1   3
ATOM      3  C   UNL     1       8.203 -17.263  23.300  1.00  0.00     0.053 C 
ATOM      4  C   UNL     1       7.578 -17.872  22.042  1.00  0.00     0.016 C 
BRANCH   3   5
ATOM      5  C   UNL     1       8.537 -15.798  23.115  1.00  0.00     0.015 C 
BRANCH   5   6
ATOM      6  C   UNL     1       9.582 -15.026  23.878  1.00  0.00     0.028 C 
BRANCH   6   7
ATOM      7  C   UNL     1      10.798 -15.931  24.085  1.00  0.00    -0.028 C 
ATOM      8  C   UNL     1      11.156 -16.666  25.194  1.00  0.00    -0.070 CG0
ATOM      9  C   UNL     1      12.495 -17.363  25.126  1.00  0.00     0.039 C 
ATOM     10  G   UNL     1      10.325 -16.874  26.482  1.00  0.00     0.000 G0
ENDBRANCH   6   7
ENDBRANCH   5   6
ENDBRANCH   3   5
ENDBRANCH   1   3
BRANCH   1  11
ATOM     11  C   UNL     1       7.447 -18.270  25.696  1.00  0.00     0.087 C 
BRANCH  11  12
ATOM     12  C   UNL     1       8.841 -19.019  25.739  1.00  0.00     0.066 C 
BRANCH  12  13
ATOM     13  C   UNL     1       9.865 -18.351  26.686  1.00  0.00     0.140 C 
ATOM     14  O   UNL     1      10.322 -18.991  27.622  1.00  0.00    -0.299 OA
BRANCH  13  15
ATOM     15  C   UNL     1      10.342 -16.906  26.496  1.00  0.00     0.106 CG0
ATOM     16  G   UNL     1      11.153 -16.661  25.202  1.00  0.00     0.000 G0
ENDBRANCH  13  15
ENDBRANCH  12  13
BRANCH  12  17
ATOM     17  C   UNL     1       8.721 -20.541  26.073  1.00  0.00    -0.006 C 
ATOM     18  C   UNL     1       7.274 -21.071  26.095  1.00  0.00     0.008 C 
ATOM     19  C   UNL     1       9.587 -21.401  25.135  1.00  0.00     0.008 C 
ENDBRANCH  12  17
ENDBRANCH  11  12
ENDBRANCH   1  11
TORSDOF 1
ENDMDL
MODEL 2
REMARK VINA RESULT:    -3.729      3.177      3.886
REMARK INTER + INTRA:          -6.283
REMARK INTER:                  -5.955
REMARK INTRA:                  -0.328
REMARK UNBOUND:                -0.592
REMARK SMILES CC1=CCC[C@H](C)C(=O)C[C@H](C(C)C)C(=O)C1
REMARK SMILES IDX 8 1 9 2 6 3 7 4 5 5 4 6 3 7 2 8 1 9 10 11 11 12 15 13 16 14
REMARK SMILES IDX 17 15 12 17 13 18 14 19
REMARK H PARENT
REMARK Flexibility Score: 70.00
ROOT
ATOM      1  C   UNL     1       6.647 -16.143  23.302  1.00  0.00     0.136 C 
ATOM      2  O   UNL     1       5.739 -16.139  24.119  1.00  0.00    -0.299 OA
ENDROOT
BRANCH   1   3
ATOM      3  C   UNL     1       7.068 -14.806  22.675  1.00  0.00     0.053 C 
ATOM      4  C   UNL     1       5.849 -14.048  22.145  1.00  0.00     0.016 C 
BRANCH   3   5
ATOM      5  C   UNL     1       7.790 -14.032  23.758  1.00  0.00     0.015 C 
BRANCH   5   6
ATOM      6  C   UNL     1       8.816 -14.590  24.709  1.00  0.00     0.028 C 
BRANCH   6   7
ATOM      7  C   UNL     1      10.185 -14.546  24.027  1.00  0.00    -0.028 C 
ATOM      8  C   UNL     1      10.845 -15.539  23.336  1.00  0.00    -0.070 CG0
ATOM      9  C   UNL     1      12.251 -15.215  22.887  1.00  0.00     0.039 C 
ATOM     10  G   UNL     1      10.292 -16.930  22.950  1.00  0.00     0.000 G0
ENDBRANCH   6   7
ENDBRANCH   5   6
ENDBRANCH   3   5
ENDBRANCH   1   3
BRANCH   1  11
ATOM     11  C   UNL     1       7.309 -17.488  22.942  1.00  0.00     0.087 C 
BRANCH  11  12
ATOM     12  C   UNL     1       8.069 -17.526  21.554  1.00  0.00     0.066 C 
BRANCH  12  13
ATOM     13  C   UNL     1       9.525 -17.011  21.640  1.00  0.00     0.140 C 
ATOM     14  O   UNL     1      10.089 -16.638  20.621  1.00  0.00    -0.299 OA
BRANCH  13  15
ATOM     15  C   UNL     1      10.296 -16.939  22.963  1.00  0.00     0.106 CG0
ATOM     16  G   UNL     1      10.840 -15.536  23.316  1.00  0.00     0.000 G0
ENDBRANCH  13  15
ENDBRANCH  12  13
BRANCH  12  17
ATOM     17  C   UNL     1       8.040 -18.929  20.865  1.00  0.00    -0.006 C 
ATOM     18  C   UNL     1       7.207 -19.985  21.616  1.00  0.00     0.008 C 
ATOM     19  C   UNL     1       7.582 -18.835  19.399  1.00  0.00     0.008 C 
ENDBRANCH  12  17
ENDBRANCH  11  12
ENDBRANCH   1  11
TORSDOF 1
ENDMDL
MODEL 3
REMARK VINA RESULT:    -3.635      1.796      2.342
REMARK INTER + INTRA:          -6.140
REMARK INTER:                  -5.949
REMARK INTRA:                  -0.191
REMARK UNBOUND:                -0.592
REMARK SMILES CC1=CCC[C@H](C)C(=O)C[C@H](C(C)C)C(=O)C1
REMARK SMILES IDX 8 1 9 2 6 3 7 4 5 5 4 6 3 7 2 8 1 9 10 11 11 12 15 13 16 14
REMARK SMILES IDX 17 15 12 17 13 18 14 19
REMARK H PARENT
REMARK Flexibility Score: 70.00
ROOT
ATOM      1  C   UNL     1       7.845 -16.222  25.713  1.00  0.00     0.136 C 
ATOM      2  O   UNL     1       7.896 -15.468  26.673  1.00  0.00    -0.299 OA
ENDROOT
BRANCH   1   3
ATOM      3  C   UNL     1       8.224 -15.669  24.332  1.00  0.00     0.053 C 
ATOM      4  C   UNL     1       7.207 -14.623  23.869  1.00  0.00     0.016 C 
BRANCH   3   5
ATOM      5  C   UNL     1       9.615 -15.086  24.470  1.00  0.00     0.015 C 
BRANCH   5   6
ATOM      6  C   UNL     1      10.884 -15.688  23.924  1.00  0.00     0.028 C 
BRANCH   6   7
ATOM      7  C   UNL     1      10.510 -16.826  22.972  1.00  0.00    -0.028 C 
ATOM      8  C   UNL     1      10.528 -18.186  23.193  1.00  0.00    -0.070 CG0
ATOM      9  C   UNL     1      10.220 -19.059  21.999  1.00  0.00     0.039 C 
ATOM     10  G   UNL     1      10.799 -18.908  24.534  1.00  0.00     0.000 G0
ENDBRANCH   6   7
ENDBRANCH   5   6
ENDBRANCH   3   5
ENDBRANCH   1   3
BRANCH   1  11
ATOM     11  C   UNL     1       7.394 -17.679  25.944  1.00  0.00     0.087 C 
BRANCH  11  12
ATOM     12  C   UNL     1       8.190 -18.777  25.127  1.00  0.00     0.066 C 
BRANCH  12  13
ATOM     13  C   UNL     1       9.675 -18.893  25.545  1.00  0.00     0.140 C 
ATOM     14  O   UNL     1       9.959 -18.958  26.732  1.00  0.00    -0.299 OA
BRANCH  13  15
ATOM     15  C   UNL     1      10.817 -18.935  24.522  1.00  0.00     0.106 CG0
ATOM     16  G   UNL     1      10.524 -18.189  23.200  1.00  0.00     0.000 G0
ENDBRANCH  13  15
ENDBRANCH  12  13
BRANCH  12  17
ATOM     17  C   UNL     1       7.516 -20.187  25.158  1.00  0.00    -0.006 C 
ATOM     18  C   UNL     1       8.360 -21.305  24.518  1.00  0.00     0.008 C 
ATOM     19  C   UNL     1       7.097 -20.587  26.583  1.00  0.00     0.008 C 
ENDBRANCH  12  17
ENDBRANCH  11  12
ENDBRANCH   1  11
TORSDOF 1
ENDMDL
MODEL 4
REMARK VINA RESULT:    -3.608      2.115      2.658
REMARK INTER + INTRA:          -6.098
REMARK INTER:                  -5.720
REMARK INTRA:                  -0.378
REMARK UNBOUND:                -0.592
REMARK SMILES CC1=CCC[C@H](C)C(=O)C[C@H](C(C)C)C(=O)C1
REMARK SMILES IDX 8 1 9 2 6 3 7 4 5 5 4 6 3 7 2 8 1 9 10 11 11 12 15 13 16 14
REMARK SMILES IDX 17 15 12 17 13 18 14 19
REMARK H PARENT
REMARK Flexibility Score: 70.00
ROOT
ATOM      1  C   UNL     1       6.812 -16.655  23.907  1.00  0.00     0.136 C 
ATOM      2  O   UNL     1       6.272 -16.604  25.001  1.00  0.00    -0.299 OA
ENDROOT
BRANCH   1   3
ATOM      3  C   UNL     1       7.212 -15.336  23.230  1.00  0.00     0.053 C 
ATOM      4  C   UNL     1       5.976 -14.602  22.703  1.00  0.00     0.016 C 
BRANCH   3   5
ATOM      5  C   UNL     1       7.953 -14.525  24.271  1.00  0.00     0.015 C 
BRANCH   5   6
ATOM      6  C   UNL     1       9.322 -14.830  24.820  1.00  0.00     0.028 C 
BRANCH   6   7
ATOM      7  C   UNL     1      10.245 -15.181  23.651  1.00  0.00    -0.028 C 
ATOM      8  C   UNL     1      10.941 -16.347  23.412  1.00  0.00    -0.070 CG0
ATOM      9  C   UNL     1      11.874 -16.333  22.224  1.00  0.00     0.039 C 
ATOM     10  G   UNL     1      10.846 -17.668  24.210  1.00  0.00     0.000 G0
ENDBRANCH   6   7
ENDBRANCH   5   6
ENDBRANCH   3   5
ENDBRANCH   1   3
BRANCH   1  11
ATOM     11  C   UNL     1       7.053 -18.038  23.268  1.00  0.00     0.087 C 
BRANCH  11  12
ATOM     12  C   UNL     1       8.567 -18.401  22.975  1.00  0.00     0.066 C 
BRANCH  12  13
ATOM     13  C   UNL     1       9.466 -18.332  24.232  1.00  0.00     0.140 C 
ATOM     14  O   UNL     1       9.069 -18.823  25.279  1.00  0.00    -0.299 OA
BRANCH  13  15
ATOM     15  C   UNL     1      10.851 -17.675  24.219  1.00  0.00     0.106 CG0
ATOM     16  G   UNL     1      10.928 -16.354  23.418  1.00  0.00     0.000 G0
ENDBRANCH  13  15
ENDBRANCH  12  13
BRANCH  12  17
ATOM     17  C   UNL     1       8.750 -19.779  22.262  1.00  0.00    -0.006 C 
ATOM     18  C   UNL     1       7.430 -20.481  21.892  1.00  0.00     0.008 C 
ATOM     19  C   UNL     1       9.656 -19.664  21.024  1.00  0.00     0.008 C 
ENDBRANCH  12  17
ENDBRANCH  11  12
ENDBRANCH   1  11
TORSDOF 1
ENDMDL
MODEL 5
REMARK VINA RESULT:    -3.573      2.046      2.624
REMARK INTER + INTRA:          -6.045
REMARK INTER:                  -5.759
REMARK INTRA:                  -0.286
REMARK UNBOUND:                -0.592
REMARK SMILES CC1=CCC[C@H](C)C(=O)C[C@H](C(C)C)C(=O)C1
REMARK SMILES IDX 8 1 9 2 6 3 7 4 5 5 4 6 3 7 2 8 1 9 10 11 11 12 15 13 16 14
REMARK SMILES IDX 17 15 12 17 13 18 14 19
REMARK H PARENT
REMARK Flexibility Score: 70.00
ROOT
ATOM      1  C   UNL     1       7.339 -16.572  22.508  1.00  0.00     0.136 C 
ATOM      2  O   UNL     1       7.581 -16.225  21.363  1.00  0.00    -0.299 OA
ENDROOT
BRANCH   1   3
ATOM      3  C   UNL     1       6.613 -15.582  23.431  1.00  0.00     0.053 C 
ATOM      4  C   UNL     1       6.209 -16.261  24.742  1.00  0.00     0.016 C 
BRANCH   3   5
ATOM      5  C   UNL     1       7.566 -14.428  23.660  1.00  0.00     0.015 C 
BRANCH   5   6
ATOM      6  C   UNL     1       8.631 -14.359  24.723  1.00  0.00     0.028 C 
BRANCH   6   7
ATOM      7  C   UNL     1       9.986 -14.646  24.071  1.00  0.00    -0.028 C 
ATOM      8  C   UNL     1      10.882 -15.658  24.337  1.00  0.00    -0.070 CG0
ATOM      9  C   UNL     1      12.200 -15.590  23.600  1.00  0.00     0.039 C 
ATOM     10  G   UNL     1      10.671 -16.864  25.281  1.00  0.00     0.000 G0
ENDBRANCH   6   7
ENDBRANCH   5   6
ENDBRANCH   3   5
ENDBRANCH   1   3
BRANCH   1  11
ATOM     11  C   UNL     1       7.784 -17.977  22.962  1.00  0.00     0.087 C 
BRANCH  11  12
ATOM     12  C   UNL     1       9.321 -18.128  23.311  1.00  0.00     0.066 C 
BRANCH  12  13
ATOM     13  C   UNL     1       9.633 -17.894  24.808  1.00  0.00     0.140 C 
ATOM     14  O   UNL     1       9.035 -18.545  25.653  1.00  0.00    -0.299 OA
BRANCH  13  15
ATOM     15  C   UNL     1      10.675 -16.874  25.282  1.00  0.00     0.106 CG0
ATOM     16  G   UNL     1      10.876 -15.670  24.333  1.00  0.00     0.000 G0
ENDBRANCH  13  15
ENDBRANCH  12  13
BRANCH  12  17
ATOM     17  C   UNL     1       9.936 -19.486  22.844  1.00  0.00    -0.006 C 
ATOM     18  C   UNL     1       9.768 -19.772  21.339  1.00  0.00     0.008 C 
ATOM     19  C   UNL     1      11.416 -19.609  23.245  1.00  0.00     0.008 C 
ENDBRANCH  12  17
ENDBRANCH  11  12
ENDBRANCH   1  11
TORSDOF 1
ENDMDL
MODEL 6
REMARK VINA RESULT:    -3.569      2.018      4.062
REMARK INTER + INTRA:          -6.039
REMARK INTER:                  -5.431
REMARK INTRA:                  -0.608
REMARK UNBOUND:                -0.592
REMARK SMILES CC1=CCC[C@H](C)C(=O)C[C@H](C(C)C)C(=O)C1
REMARK SMILES IDX 8 1 9 2 6 3 7 4 5 5 4 6 3 7 2 8 1 9 10 11 11 12 15 13 16 14
REMARK SMILES IDX 17 15 12 17 13 18 14 19
REMARK H PARENT
REMARK Flexibility Score: 70.00
ROOT
ATOM      1  C   UNL     1       7.805 -19.981  24.914  1.00  0.00     0.136 C 
ATOM      2  O   UNL     1       7.752 -21.100  24.428  1.00  0.00    -0.299 OA
ENDROOT
BRANCH   1   3
ATOM      3  C   UNL     1       7.813 -19.852  26.444  1.00  0.00     0.053 C 
ATOM      4  C   UNL     1       6.727 -20.733  27.067  1.00  0.00     0.016 C 
BRANCH   3   5
ATOM      5  C   UNL     1       9.200 -20.252  26.903  1.00  0.00     0.015 C 
BRANCH   5   6
ATOM      6  C   UNL     1      10.260 -19.319  27.426  1.00  0.00     0.028 C 
BRANCH   6   7
ATOM      7  C   UNL     1      11.456 -19.360  26.472  1.00  0.00    -0.028 C 
ATOM      8  C   UNL     1      11.800 -18.479  25.470  1.00  0.00    -0.070 CG0
ATOM      9  C   UNL     1      12.982 -18.872  24.615  1.00  0.00     0.039 C 
ATOM     10  G   UNL     1      11.125 -17.125  25.148  1.00  0.00     0.000 G0
ENDBRANCH   6   7
ENDBRANCH   5   6
ENDBRANCH   3   5
ENDBRANCH   1   3
BRANCH   1  11
ATOM     11  C   UNL     1       7.854 -18.766  23.966  1.00  0.00     0.087 C 
BRANCH  11  12
ATOM     12  C   UNL     1       8.494 -17.451  24.572  1.00  0.00     0.066 C 
BRANCH  12  13
ATOM     13  C   UNL     1       9.958 -17.223  24.128  1.00  0.00     0.140 C 
ATOM     14  O   UNL     1      10.213 -17.119  22.937  1.00  0.00    -0.299 OA
BRANCH  13  15
ATOM     15  C   UNL     1      11.114 -17.116  25.130  1.00  0.00     0.106 CG0
ATOM     16  G   UNL     1      11.792 -18.462  25.477  1.00  0.00     0.000 G0
ENDBRANCH  13  15
ENDBRANCH  12  13
BRANCH  12  17
ATOM     17  C   UNL     1       7.649 -16.165  24.301  1.00  0.00    -0.006 C 
ATOM     18  C   UNL     1       6.126 -16.375  24.405  1.00  0.00     0.008 C 
ATOM     19  C   UNL     1       8.086 -14.996  25.201  1.00  0.00     0.008 C 
ENDBRANCH  12  17
ENDBRANCH  11  12
ENDBRANCH   1  11
TORSDOF 1
ENDMDL
MODEL 7
REMARK VINA RESULT:    -3.567      2.157      3.551
REMARK INTER + INTRA:          -6.036
REMARK INTER:                  -5.658
REMARK INTRA:                  -0.378
REMARK UNBOUND:                -0.592
REMARK SMILES CC1=CCC[C@H](C)C(=O)C[C@H](C(C)C)C(=O)C1
REMARK SMILES IDX 8 1 9 2 6 3 7 4 5 5 4 6 3 7 2 8 1 9 10 11 11 12 15 13 16 14
REMARK SMILES IDX 17 15 12 17 13 18 14 19
REMARK H PARENT
REMARK Flexibility Score: 70.00
ROOT
ATOM      1  C   UNL     1       8.531 -16.015  25.908  1.00  0.00     0.136 C 
ATOM      2  O   UNL     1       7.454 -16.160  26.465  1.00  0.00    -0.299 OA
ENDROOT
BRANCH   1   3
ATOM      3  C   UNL     1       8.684 -14.859  24.909  1.00  0.00     0.053 C 
ATOM      4  C   UNL     1      10.115 -14.798  24.367  1.00  0.00     0.016 C 
BRANCH   3   5
ATOM      5  C   UNL     1       7.671 -15.103  23.811  1.00  0.00     0.015 C 
BRANCH   5   6
ATOM      6  C   UNL     1       7.863 -15.998  22.614  1.00  0.00     0.028 C 
BRANCH   6   7
ATOM      7  C   UNL     1       7.187 -17.341  22.900  1.00  0.00    -0.028 C 
ATOM      8  C   UNL     1       7.745 -18.599  22.967  1.00  0.00    -0.070 CG0
ATOM      9  C   UNL     1       6.779 -19.746  23.145  1.00  0.00     0.039 C 
ATOM     10  G   UNL     1       9.249 -18.954  22.910  1.00  0.00     0.000 G0
ENDBRANCH   6   7
ENDBRANCH   5   6
ENDBRANCH   3   5
ENDBRANCH   1   3
BRANCH   1  11
ATOM     11  C   UNL     1       9.668 -17.004  26.234  1.00  0.00     0.087 C 
BRANCH  11  12
ATOM     12  C   UNL     1       9.553 -18.427  25.550  1.00  0.00     0.066 C 
BRANCH  12  13
ATOM     13  C   UNL     1      10.081 -18.450  24.096  1.00  0.00     0.140 C 
ATOM     14  O   UNL     1      11.210 -18.045  23.863  1.00  0.00    -0.299 OA
BRANCH  13  15
ATOM     15  C   UNL     1       9.241 -18.971  22.923  1.00  0.00     0.106 CG0
ATOM     16  G   UNL     1       7.743 -18.590  22.986  1.00  0.00     0.000 G0
ENDBRANCH  13  15
ENDBRANCH  12  13
BRANCH  12  17
ATOM     17  C   UNL     1      10.219 -19.573  26.377  1.00  0.00    -0.006 C 
ATOM     18  C   UNL     1      10.831 -19.114  27.715  1.00  0.00     0.008 C 
ATOM     19  C   UNL     1       9.250 -20.745  26.611  1.00  0.00     0.008 C 
ENDBRANCH  12  17
ENDBRANCH  11  12
ENDBRANCH   1  11
TORSDOF 1
ENDMDL
MODEL 8
REMARK VINA RESULT:    -3.499      2.006      4.024
REMARK INTER + INTRA:          -5.932
REMARK INTER:                  -5.444
REMARK INTRA:                  -0.488
REMARK UNBOUND:                -0.592
REMARK SMILES CC1=CCC[C@H](C)C(=O)C[C@H](C(C)C)C(=O)C1
REMARK SMILES IDX 8 1 9 2 6 3 7 4 5 5 4 6 3 7 2 8 1 9 10 11 11 12 15 13 16 14
REMARK SMILES IDX 17 15 12 17 13 18 14 19
REMARK H PARENT
REMARK Flexibility Score: 70.00
ROOT
ATOM      1  C   UNL     1       7.614 -18.429  23.378  1.00  0.00     0.136 C 
ATOM      2  O   UNL     1       6.677 -17.681  23.612  1.00  0.00    -0.299 OA
ENDROOT
BRANCH   1   3
ATOM      3  C   UNL     1       7.307 -19.844  22.870  1.00  0.00     0.053 C 
ATOM      4  C   UNL     1       7.440 -19.915  21.347  1.00  0.00     0.016 C 
BRANCH   3   5
ATOM      5  C   UNL     1       8.280 -20.772  23.568  1.00  0.00     0.015 C 
BRANCH   5   6
ATOM      6  C   UNL     1       8.320 -21.061  25.046  1.00  0.00     0.028 C 
BRANCH   6   7
ATOM      7  C   UNL     1       9.743 -21.486  25.418  1.00  0.00    -0.028 C 
ATOM      8  C   UNL     1      10.733 -20.758  26.041  1.00  0.00    -0.070 CG0
ATOM      9  C   UNL     1      12.081 -21.429  26.153  1.00  0.00     0.039 C 
ATOM     10  G   UNL     1      10.602 -19.346  26.658  1.00  0.00     0.000 G0
ENDBRANCH   6   7
ENDBRANCH   5   6
ENDBRANCH   3   5
ENDBRANCH   1   3
BRANCH   1  11
ATOM     11  C   UNL     1       9.047 -17.909  23.613  1.00  0.00     0.087 C 
BRANCH  11  12
ATOM     12  C   UNL     1       9.388 -17.496  25.103  1.00  0.00     0.066 C 
BRANCH  12  13
ATOM     13  C   UNL     1      10.662 -18.180  25.651  1.00  0.00     0.140 C 
ATOM     14  O   UNL     1      11.759 -17.791  25.275  1.00  0.00    -0.299 OA
BRANCH  13  15
ATOM     15  C   UNL     1      10.609 -19.332  26.661  1.00  0.00     0.106 CG0
ATOM     16  G   UNL     1      10.731 -20.741  26.035  1.00  0.00     0.000 G0
ENDBRANCH  13  15
ENDBRANCH  12  13
BRANCH  12  17
ATOM     17  C   UNL     1       9.478 -15.950  25.317  1.00  0.00    -0.006 C 
ATOM     18  C   UNL     1       9.844 -15.157  24.048  1.00  0.00     0.008 C 
ATOM     19  C   UNL     1       8.190 -15.386  25.943  1.00  0.00     0.008 C 
ENDBRANCH  12  17
ENDBRANCH  11  12
ENDBRANCH   1  11
TORSDOF 1
ENDMDL
MODEL 9
REMARK VINA RESULT:    -3.462      2.195      3.651
REMARK INTER + INTRA:          -5.875
REMARK INTER:                  -5.227
REMARK INTRA:                  -0.649
REMARK UNBOUND:                -0.592
REMARK SMILES CC1=CCC[C@H](C)C(=O)C[C@H](C(C)C)C(=O)C1
REMARK SMILES IDX 8 1 9 2 6 3 7 4 5 5 4 6 3 7 2 8 1 9 10 11 11 12 15 13 16 14
REMARK SMILES IDX 17 15 12 17 13 18 14 19
REMARK H PARENT
REMARK Flexibility Score: 70.00
ROOT
ATOM      1  C   UNL     1      10.314 -17.990  22.357  1.00  0.00     0.136 C 
ATOM      2  O   UNL     1      10.548 -17.276  21.394  1.00  0.00    -0.299 OA
ENDROOT
BRANCH   1   3
ATOM      3  C   UNL     1      11.395 -18.135  23.437  1.00  0.00     0.053 C 
ATOM      4  C   UNL     1      12.704 -18.644  22.829  1.00  0.00     0.016 C 
BRANCH   3   5
ATOM      5  C   UNL     1      11.558 -16.768  24.068  1.00  0.00     0.015 C 
BRANCH   5   6
ATOM      6  C   UNL     1      10.827 -16.264  25.285  1.00  0.00     0.028 C 
BRANCH   6   7
ATOM      7  C   UNL     1       9.748 -15.279  24.830  1.00  0.00    -0.028 C 
ATOM      8  C   UNL     1       8.382 -15.452  24.768  1.00  0.00    -0.070 CG0
ATOM      9  C   UNL     1       7.596 -14.321  24.148  1.00  0.00     0.039 C 
ATOM     10  G   UNL     1       7.573 -16.662  25.289  1.00  0.00     0.000 G0
ENDBRANCH   6   7
ENDBRANCH   5   6
ENDBRANCH   3   5
ENDBRANCH   1   3
BRANCH   1  11
ATOM     11  C   UNL     1       8.952 -18.709  22.426  1.00  0.00     0.087 C 
BRANCH  11  12
ATOM     12  C   UNL     1       8.328 -18.855  23.874  1.00  0.00     0.066 C 
BRANCH  12  13
ATOM     13  C   UNL     1       7.303 -17.747  24.212  1.00  0.00     0.140 C 
ATOM     14  O   UNL     1       6.235 -17.720  23.620  1.00  0.00    -0.299 OA
BRANCH  13  15
ATOM     15  C   UNL     1       7.571 -16.675  25.275  1.00  0.00     0.106 CG0
ATOM     16  G   UNL     1       8.373 -15.453  24.769  1.00  0.00     0.000 G0
ENDBRANCH  13  15
ENDBRANCH  12  13
BRANCH  12  17
ATOM     17  C   UNL     1       7.703 -20.261  24.145  1.00  0.00    -0.006 C 
ATOM     18  C   UNL     1       8.379 -21.413  23.376  1.00  0.00     0.008 C 
ATOM     19  C   UNL     1       7.655 -20.583  25.649  1.00  0.00     0.008 C 
ENDBRANCH  12  17
ENDBRANCH  11  12
ENDBRANCH   1  11
TORSDOF 1
ENDMDL
