MODEL 1
REMARK VINA RESULT:    -4.527      0.000      0.000
REMARK INTER + INTRA:         -11.111
REMARK INTER:                  -8.497
REMARK INTRA:                  -2.615
REMARK UNBOUND:                -2.615
REMARK SMILES CCCCCCCCC=CCCCCCCCC(=O)[O-]
REMARK SMILES IDX 10 1 9 2 11 3 12 4 13 5 14 6 15 7 16 8 17 9 18 10 19 11
REMARK SMILES IDX 20 12 8 13 7 14 6 15 5 16 4 17 3 18 2 19 1 20
REMARK H PARENT
REMARK Flexibility Score: inf
ROOT
ATOM      1  C   UNL     1      -1.011 -16.641 -19.298  1.00  0.00    -0.031 C 
ATOM      2  C   UNL     1      -1.792 -16.615 -18.201  1.00  0.00    -0.031 C 
ENDROOT
BRANCH   1   3
ATOM      3  C   UNL     1       0.286 -15.882 -19.461  1.00  0.00     0.027 C 
BRANCH   3   4
ATOM      4  C   UNL     1       1.468 -16.840 -19.651  1.00  0.00     0.004 C 
BRANCH   4   5
ATOM      5  C   UNL     1       2.715 -16.375 -18.880  1.00  0.00     0.000 C 
BRANCH   5   6
ATOM      6  C   UNL     1       2.495 -16.322 -17.358  1.00  0.00     0.000 C 
BRANCH   6   7
ATOM      7  C   UNL     1       3.007 -15.044 -16.669  1.00  0.00     0.000 C 
BRANCH   7   8
ATOM      8  C   UNL     1       1.993 -13.887 -16.721  1.00  0.00     0.006 C 
BRANCH   8   9
ATOM      9  C   UNL     1       2.300 -12.802 -15.679  1.00  0.00     0.053 C 
BRANCH   9  10
ATOM     10  C   UNL     1       2.415 -11.447 -16.306  1.00  0.00     0.041 C 
ATOM     11  O   UNL     1       3.470 -11.114 -16.908  1.00  0.00    -0.550 OA
ATOM     12  O   UNL     1       1.346 -10.560 -16.247  1.00  0.00    -0.550 OA
ENDBRANCH   9  10
ENDBRANCH   8   9
ENDBRANCH   7   8
ENDBRANCH   6   7
ENDBRANCH   5   6
ENDBRANCH   4   5
ENDBRANCH   3   4
ENDBRANCH   1   3
BRANCH   2  13
ATOM     13  C   UNL     1      -1.525 -15.781 -16.973  1.00  0.00     0.027 C 
BRANCH  13  14
ATOM     14  C   UNL     1      -0.616 -16.499 -15.955  1.00  0.00     0.004 C 
BRANCH  14  15
ATOM     15  C   UNL     1      -1.059 -17.936 -15.634  1.00  0.00     0.000 C 
BRANCH  15  16
ATOM     16  C   UNL     1      -0.021 -18.991 -16.049  1.00  0.00     0.000 C 
BRANCH  16  17
ATOM     17  C   UNL     1      -0.582 -20.025 -17.039  1.00  0.00    -0.000 C 
BRANCH  17  18
ATOM     18  C   UNL     1       0.164 -20.054 -18.390  1.00  0.00    -0.000 C 
BRANCH  18  19
ATOM     19  C   UNL     1       1.329 -21.053 -18.390  1.00  0.00    -0.003 C 
ATOM     20  C   UNL     1       2.673 -20.332 -18.340  1.00  0.00     0.004 C 
ENDBRANCH  18  19
ENDBRANCH  17  18
ENDBRANCH  16  17
ENDBRANCH  15  16
ENDBRANCH  14  15
ENDBRANCH  13  14
ENDBRANCH   2  13
TORSDOF 15
ENDMDL
MODEL 2
REMARK VINA RESULT:    -4.520      2.561      4.538
REMARK INTER + INTRA:         -11.098
REMARK INTER:                  -8.763
REMARK INTRA:                  -2.335
REMARK UNBOUND:                -2.615
REMARK SMILES CCCCCCCCC=CCCCCCCCC(=O)[O-]
REMARK SMILES IDX 10 1 9 2 11 3 12 4 13 5 14 6 15 7 16 8 17 9 18 10 19 11
REMARK SMILES IDX 20 12 8 13 7 14 6 15 5 16 4 17 3 18 2 19 1 20
REMARK H PARENT
REMARK Flexibility Score: inf
ROOT
ATOM      1  C   UNL     1      -1.170 -18.352 -19.101  1.00  0.00    -0.031 C 
ATOM      2  C   UNL     1      -1.222 -17.082 -18.656  1.00  0.00    -0.031 C 
ENDROOT
BRANCH   1   3
ATOM      3  C   UNL     1      -0.785 -19.551 -18.266  1.00  0.00     0.027 C 
BRANCH   3   4
ATOM      4  C   UNL     1       0.598 -20.083 -18.664  1.00  0.00     0.004 C 
BRANCH   4   5
ATOM      5  C   UNL     1       1.620 -19.937 -17.525  1.00  0.00     0.000 C 
BRANCH   5   6
ATOM      6  C   UNL     1       2.433 -18.633 -17.610  1.00  0.00     0.000 C 
BRANCH   6   7
ATOM      7  C   UNL     1       2.507 -18.001 -19.013  1.00  0.00     0.000 C 
BRANCH   7   8
ATOM      8  C   UNL     1       2.321 -16.474 -18.993  1.00  0.00     0.006 C 
BRANCH   8   9
ATOM      9  C   UNL     1       2.601 -15.875 -17.608  1.00  0.00     0.053 C 
BRANCH   9  10
ATOM     10  C   UNL     1       3.345 -14.578 -17.703  1.00  0.00     0.041 C 
ATOM     11  O   UNL     1       2.798 -13.570 -18.222  1.00  0.00    -0.550 OA
ATOM     12  O   UNL     1       4.634 -14.477 -17.194  1.00  0.00    -0.550 OA
ENDBRANCH   9  10
ENDBRANCH   8   9
ENDBRANCH   7   8
ENDBRANCH   6   7
ENDBRANCH   5   6
ENDBRANCH   4   5
ENDBRANCH   3   4
ENDBRANCH   1   3
BRANCH   2  13
ATOM     13  C   UNL     1      -0.853 -16.642 -17.261  1.00  0.00     0.027 C 
BRANCH  13  14
ATOM     14  C   UNL     1      -2.011 -16.815 -16.259  1.00  0.00     0.004 C 
BRANCH  14  15
ATOM     15  C   UNL     1      -3.395 -16.498 -16.849  1.00  0.00     0.000 C 
BRANCH  15  16
ATOM     16  C   UNL     1      -4.334 -17.714 -16.862  1.00  0.00     0.000 C 
BRANCH  16  17
ATOM     17  C   UNL     1      -4.817 -18.082 -18.275  1.00  0.00    -0.000 C 
BRANCH  17  18
ATOM     18  C   UNL     1      -4.988 -16.863 -19.206  1.00  0.00    -0.000 C 
BRANCH  18  19
ATOM     19  C   UNL     1      -6.344 -16.865 -19.926  1.00  0.00    -0.003 C 
ATOM     20  C   UNL     1      -6.879 -18.285 -20.089  1.00  0.00     0.004 C 
ENDBRANCH  18  19
ENDBRANCH  17  18
ENDBRANCH  16  17
ENDBRANCH  15  16
ENDBRANCH  14  15
ENDBRANCH  13  14
ENDBRANCH   2  13
TORSDOF 15
ENDMDL
MODEL 3
REMARK VINA RESULT:    -4.515      8.080     11.019
REMARK INTER + INTRA:         -11.089
REMARK INTER:                  -8.657
REMARK INTRA:                  -2.431
REMARK UNBOUND:                -2.615
REMARK SMILES CCCCCCCCC=CCCCCCCCC(=O)[O-]
REMARK SMILES IDX 10 1 9 2 11 3 12 4 13 5 14 6 15 7 16 8 17 9 18 10 19 11
REMARK SMILES IDX 20 12 8 13 7 14 6 15 5 16 4 17 3 18 2 19 1 20
REMARK H PARENT
REMARK Flexibility Score: inf
ROOT
ATOM      1  C   UNL     1      -6.493 -18.540  -9.024  1.00  0.00    -0.031 C 
ATOM      2  C   UNL     1      -6.997 -17.552  -8.259  1.00  0.00    -0.031 C 
ENDROOT
BRANCH   1   3
ATOM      3  C   UNL     1      -7.285 -19.367 -10.010  1.00  0.00     0.027 C 
BRANCH   3   4
ATOM      4  C   UNL     1      -7.338 -20.839  -9.581  1.00  0.00     0.004 C 
BRANCH   4   5
ATOM      5  C   UNL     1      -5.932 -21.446  -9.435  1.00  0.00     0.000 C 
BRANCH   5   6
ATOM      6  C   UNL     1      -5.464 -22.189 -10.699  1.00  0.00     0.000 C 
BRANCH   6   7
ATOM      7  C   UNL     1      -4.537 -21.381 -11.625  1.00  0.00     0.000 C 
BRANCH   7   8
ATOM      8  C   UNL     1      -3.680 -20.352 -10.866  1.00  0.00     0.006 C 
BRANCH   8   9
ATOM      9  C   UNL     1      -3.636 -18.995 -11.582  1.00  0.00     0.053 C 
BRANCH   9  10
ATOM     10  C   UNL     1      -2.250 -18.650 -12.034  1.00  0.00     0.041 C 
ATOM     11  O   UNL     1      -1.303 -18.613 -11.205  1.00  0.00    -0.550 OA
ATOM     12  O   UNL     1      -2.000 -18.395 -13.377  1.00  0.00    -0.550 OA
ENDBRANCH   9  10
ENDBRANCH   8   9
ENDBRANCH   7   8
ENDBRANCH   6   7
ENDBRANCH   5   6
ENDBRANCH   4   5
ENDBRANCH   3   4
ENDBRANCH   1   3
BRANCH   2  13
ATOM     13  C   UNL     1      -8.449 -17.146  -8.223  1.00  0.00     0.027 C 
BRANCH  13  14
ATOM     14  C   UNL     1      -8.662 -15.671  -8.614  1.00  0.00     0.004 C 
BRANCH  14  15
ATOM     15  C   UNL     1      -7.741 -15.190  -9.748  1.00  0.00     0.000 C 
BRANCH  15  16
ATOM     16  C   UNL     1      -8.301 -15.499 -11.146  1.00  0.00     0.000 C 
BRANCH  16  17
ATOM     17  C   UNL     1      -7.327 -16.315 -12.014  1.00  0.00    -0.000 C 
BRANCH  17  18
ATOM     18  C   UNL     1      -5.842 -16.046 -11.693  1.00  0.00    -0.000 C 
BRANCH  18  19
ATOM     19  C   UNL     1      -5.182 -15.117 -12.723  1.00  0.00    -0.003 C 
ATOM     20  C   UNL     1      -5.137 -13.679 -12.218  1.00  0.00     0.004 C 
ENDBRANCH  18  19
ENDBRANCH  17  18
ENDBRANCH  16  17
ENDBRANCH  15  16
ENDBRANCH  14  15
ENDBRANCH  13  14
ENDBRANCH   2  13
TORSDOF 15
ENDMDL
MODEL 4
REMARK VINA RESULT:    -4.511      6.754      9.813
REMARK INTER + INTRA:         -11.081
REMARK INTER:                  -9.139
REMARK INTRA:                  -1.942
REMARK UNBOUND:                -2.615
REMARK SMILES CCCCCCCCC=CCCCCCCCC(=O)[O-]
REMARK SMILES IDX 10 1 9 2 11 3 12 4 13 5 14 6 15 7 16 8 17 9 18 10 19 11
REMARK SMILES IDX 20 12 8 13 7 14 6 15 5 16 4 17 3 18 2 19 1 20
REMARK H PARENT
REMARK Flexibility Score: inf
ROOT
ATOM      1  C   UNL     1      -2.186 -21.776 -10.980  1.00  0.00    -0.031 C 
ATOM      2  C   UNL     1      -3.028 -20.728 -10.901  1.00  0.00    -0.031 C 
ENDROOT
BRANCH   1   3
ATOM      3  C   UNL     1      -2.595 -23.199 -11.286  1.00  0.00     0.027 C 
BRANCH   3   4
ATOM      4  C   UNL     1      -2.043 -23.654 -12.643  1.00  0.00     0.004 C 
BRANCH   4   5
ATOM      5  C   UNL     1      -3.156 -23.811 -13.693  1.00  0.00     0.000 C 
BRANCH   5   6
ATOM      6  C   UNL     1      -3.009 -22.836 -14.875  1.00  0.00     0.000 C 
BRANCH   6   7
ATOM      7  C   UNL     1      -3.423 -21.383 -14.577  1.00  0.00     0.000 C 
BRANCH   7   8
ATOM      8  C   UNL     1      -2.232 -20.409 -14.571  1.00  0.00     0.006 C 
BRANCH   8   9
ATOM      9  C   UNL     1      -2.651 -18.986 -14.175  1.00  0.00     0.053 C 
BRANCH   9  10
ATOM     10  C   UNL     1      -1.506 -18.209 -13.602  1.00  0.00     0.041 C 
ATOM     11  O   UNL     1      -0.578 -17.803 -14.350  1.00  0.00    -0.550 OA
ATOM     12  O   UNL     1      -1.477 -17.911 -12.245  1.00  0.00    -0.550 OA
ENDBRANCH   9  10
ENDBRANCH   8   9
ENDBRANCH   7   8
ENDBRANCH   6   7
ENDBRANCH   5   6
ENDBRANCH   4   5
ENDBRANCH   3   4
ENDBRANCH   1   3
BRANCH   2  13
ATOM     13  C   UNL     1      -4.526 -20.812 -11.053  1.00  0.00     0.027 C 
BRANCH  13  14
ATOM     14  C   UNL     1      -5.266 -19.719 -10.258  1.00  0.00     0.004 C 
BRANCH  14  15
ATOM     15  C   UNL     1      -6.323 -20.268  -9.286  1.00  0.00     0.000 C 
BRANCH  15  16
ATOM     16  C   UNL     1      -7.106 -19.160  -8.563  1.00  0.00     0.000 C 
BRANCH  16  17
ATOM     17  C   UNL     1      -6.425 -17.784  -8.663  1.00  0.00    -0.000 C 
BRANCH  17  18
ATOM     18  C   UNL     1      -7.385 -16.649  -9.078  1.00  0.00    -0.000 C 
BRANCH  18  19
ATOM     19  C   UNL     1      -6.666 -15.529  -9.843  1.00  0.00    -0.003 C 
ATOM     20  C   UNL     1      -6.296 -15.975 -11.254  1.00  0.00     0.004 C 
ENDBRANCH  18  19
ENDBRANCH  17  18
ENDBRANCH  16  17
ENDBRANCH  15  16
ENDBRANCH  14  15
ENDBRANCH  13  14
ENDBRANCH   2  13
TORSDOF 15
ENDMDL
MODEL 5
REMARK VINA RESULT:    -4.491      7.110      9.389
REMARK INTER + INTRA:         -11.045
REMARK INTER:                  -8.377
REMARK INTRA:                  -2.668
REMARK UNBOUND:                -2.615
REMARK SMILES CCCCCCCCC=CCCCCCCCC(=O)[O-]
REMARK SMILES IDX 10 1 9 2 11 3 12 4 13 5 14 6 15 7 16 8 17 9 18 10 19 11
REMARK SMILES IDX 20 12 8 13 7 14 6 15 5 16 4 17 3 18 2 19 1 20
REMARK H PARENT
REMARK Flexibility Score: inf
ROOT
ATOM      1  C   UNL     1      -2.470 -11.104 -19.310  1.00  0.00    -0.031 C 
ATOM      2  C   UNL     1      -3.621 -10.452 -19.057  1.00  0.00    -0.031 C 
ENDROOT
BRANCH   1   3
ATOM      3  C   UNL     1      -1.726 -11.077 -20.626  1.00  0.00     0.027 C 
BRANCH   3   4
ATOM      4  C   UNL     1      -0.290 -10.571 -20.441  1.00  0.00     0.004 C 
BRANCH   4   5
ATOM      5  C   UNL     1      -0.122  -9.125 -20.937  1.00  0.00     0.000 C 
BRANCH   5   6
ATOM      6  C   UNL     1       1.022  -8.376 -20.229  1.00  0.00     0.000 C 
BRANCH   6   7
ATOM      7  C   UNL     1       1.029  -6.851 -20.437  1.00  0.00     0.000 C 
BRANCH   7   8
ATOM      8  C   UNL     1       2.371  -6.325 -20.976  1.00  0.00     0.006 C 
BRANCH   8   9
ATOM      9  C   UNL     1       2.238  -5.743 -22.390  1.00  0.00     0.053 C 
BRANCH   9  10
ATOM     10  C   UNL     1       2.110  -6.819 -23.424  1.00  0.00     0.041 C 
ATOM     11  O   UNL     1       1.380  -6.643 -24.435  1.00  0.00    -0.550 OA
ATOM     12  O   UNL     1       2.817  -8.007 -23.283  1.00  0.00    -0.550 OA
ENDBRANCH   9  10
ENDBRANCH   8   9
ENDBRANCH   7   8
ENDBRANCH   6   7
ENDBRANCH   5   6
ENDBRANCH   4   5
ENDBRANCH   3   4
ENDBRANCH   1   3
BRANCH   2  13
ATOM     13  C   UNL     1      -4.385  -9.629 -20.064  1.00  0.00     0.027 C 
BRANCH  13  14
ATOM     14  C   UNL     1      -3.982  -8.142 -20.042  1.00  0.00     0.004 C 
BRANCH  14  15
ATOM     15  C   UNL     1      -3.594  -7.625 -18.646  1.00  0.00     0.000 C 
BRANCH  15  16
ATOM     16  C   UNL     1      -2.107  -7.253 -18.536  1.00  0.00     0.000 C 
BRANCH  16  17
ATOM     17  C   UNL     1      -1.683  -6.898 -17.101  1.00  0.00    -0.000 C 
BRANCH  17  18
ATOM     18  C   UNL     1      -0.511  -7.751 -16.574  1.00  0.00    -0.000 C 
BRANCH  18  19
ATOM     19  C   UNL     1      -0.704  -9.247 -16.862  1.00  0.00    -0.003 C 
ATOM     20  C   UNL     1       0.608 -10.011 -16.711  1.00  0.00     0.004 C 
ENDBRANCH  18  19
ENDBRANCH  17  18
ENDBRANCH  16  17
ENDBRANCH  15  16
ENDBRANCH  14  15
ENDBRANCH  13  14
ENDBRANCH   2  13
TORSDOF 15
ENDMDL
MODEL 6
REMARK VINA RESULT:    -4.437      5.245      7.327
REMARK INTER + INTRA:         -10.942
REMARK INTER:                  -8.269
REMARK INTRA:                  -2.673
REMARK UNBOUND:                -2.615
REMARK SMILES CCCCCCCCC=CCCCCCCCC(=O)[O-]
REMARK SMILES IDX 10 1 9 2 11 3 12 4 13 5 14 6 15 7 16 8 17 9 18 10 19 11
REMARK SMILES IDX 20 12 8 13 7 14 6 15 5 16 4 17 3 18 2 19 1 20
REMARK H PARENT
REMARK Flexibility Score: inf
ROOT
ATOM      1  C   UNL     1      -3.688 -16.618 -14.164  1.00  0.00    -0.031 C 
ATOM      2  C   UNL     1      -4.203 -17.124 -15.301  1.00  0.00    -0.031 C 
ENDROOT
BRANCH   1   3
ATOM      3  C   UNL     1      -2.366 -15.894 -14.054  1.00  0.00     0.027 C 
BRANCH   3   4
ATOM      4  C   UNL     1      -1.251 -16.842 -13.596  1.00  0.00     0.004 C 
BRANCH   4   5
ATOM      5  C   UNL     1      -1.737 -17.821 -12.515  1.00  0.00     0.000 C 
BRANCH   5   6
ATOM      6  C   UNL     1      -1.068 -19.204 -12.612  1.00  0.00     0.000 C 
BRANCH   6   7
ATOM      7  C   UNL     1      -2.002 -20.400 -12.354  1.00  0.00     0.000 C 
BRANCH   7   8
ATOM      8  C   UNL     1      -3.388 -20.229 -13.002  1.00  0.00     0.006 C 
BRANCH   8   9
ATOM      9  C   UNL     1      -3.484 -20.944 -14.357  1.00  0.00     0.053 C 
BRANCH   9  10
ATOM     10  C   UNL     1      -3.548 -22.432 -14.198  1.00  0.00     0.041 C 
ATOM     11  O   UNL     1      -2.798 -23.176 -14.882  1.00  0.00    -0.550 OA
ATOM     12  O   UNL     1      -4.421 -22.995 -13.274  1.00  0.00    -0.550 OA
ENDBRANCH   9  10
ENDBRANCH   8   9
ENDBRANCH   7   8
ENDBRANCH   6   7
ENDBRANCH   5   6
ENDBRANCH   4   5
ENDBRANCH   3   4
ENDBRANCH   1   3
BRANCH   2  13
ATOM     13  C   UNL     1      -3.518 -17.095 -16.644  1.00  0.00     0.027 C 
BRANCH  13  14
ATOM     14  C   UNL     1      -3.109 -18.499 -17.131  1.00  0.00     0.004 C 
BRANCH  14  15
ATOM     15  C   UNL     1      -1.605 -18.641 -17.421  1.00  0.00     0.000 C 
BRANCH  15  16
ATOM     16  C   UNL     1      -0.845 -19.370 -16.301  1.00  0.00     0.000 C 
BRANCH  16  17
ATOM     17  C   UNL     1       0.614 -18.902 -16.166  1.00  0.00    -0.000 C 
BRANCH  17  18
ATOM     18  C   UNL     1       1.210 -18.350 -17.478  1.00  0.00    -0.000 C 
BRANCH  18  19
ATOM     19  C   UNL     1       2.432 -19.153 -17.945  1.00  0.00    -0.003 C 
ATOM     20  C   UNL     1       2.123 -20.646 -17.998  1.00  0.00     0.004 C 
ENDBRANCH  18  19
ENDBRANCH  17  18
ENDBRANCH  16  17
ENDBRANCH  15  16
ENDBRANCH  14  15
ENDBRANCH  13  14
ENDBRANCH   2  13
TORSDOF 15
ENDMDL
MODEL 7
REMARK VINA RESULT:    -4.432      4.544      7.227
REMARK INTER + INTRA:         -10.934
REMARK INTER:                  -8.934
REMARK INTRA:                  -2.000
REMARK UNBOUND:                -2.615
REMARK SMILES CCCCCCCCC=CCCCCCCCC(=O)[O-]
REMARK SMILES IDX 10 1 9 2 11 3 12 4 13 5 14 6 15 7 16 8 17 9 18 10 19 11
REMARK SMILES IDX 20 12 8 13 7 14 6 15 5 16 4 17 3 18 2 19 1 20
REMARK H PARENT
REMARK Flexibility Score: inf
ROOT
ATOM      1  C   UNL     1      -1.127 -19.285 -17.228  1.00  0.00    -0.031 C 
ATOM      2  C   UNL     1      -0.333 -19.745 -18.214  1.00  0.00    -0.031 C 
ENDROOT
BRANCH   1   3
ATOM      3  C   UNL     1      -1.024 -19.679 -15.773  1.00  0.00     0.027 C 
BRANCH   3   4
ATOM      4  C   UNL     1      -0.127 -18.708 -14.996  1.00  0.00     0.004 C 
BRANCH   4   5
ATOM      5  C   UNL     1      -0.864 -17.407 -14.636  1.00  0.00     0.000 C 
BRANCH   5   6
ATOM      6  C   UNL     1      -1.930 -17.603 -13.543  1.00  0.00     0.000 C 
BRANCH   6   7
ATOM      7  C   UNL     1      -1.392 -18.104 -12.190  1.00  0.00     0.000 C 
BRANCH   7   8
ATOM      8  C   UNL     1      -2.257 -19.217 -11.575  1.00  0.00     0.006 C 
BRANCH   8   9
ATOM      9  C   UNL     1      -2.900 -20.109 -12.646  1.00  0.00     0.053 C 
BRANCH   9  10
ATOM     10  C   UNL     1      -2.377 -21.511 -12.590  1.00  0.00     0.041 C 
ATOM     11  O   UNL     1      -1.967 -21.992 -11.501  1.00  0.00    -0.550 OA
ATOM     12  O   UNL     1      -2.366 -22.296 -13.737  1.00  0.00    -0.550 OA
ENDBRANCH   9  10
ENDBRANCH   8   9
ENDBRANCH   7   8
ENDBRANCH   6   7
ENDBRANCH   5   6
ENDBRANCH   4   5
ENDBRANCH   3   4
ENDBRANCH   1   3
BRANCH   2  13
ATOM     13  C   UNL     1       0.757 -20.772 -18.034  1.00  0.00     0.027 C 
BRANCH  13  14
ATOM     14  C   UNL     1       2.157 -20.213 -18.353  1.00  0.00     0.004 C 
BRANCH  14  15
ATOM     15  C   UNL     1       2.354 -18.750 -17.923  1.00  0.00     0.000 C 
BRANCH  15  16
ATOM     16  C   UNL     1       2.517 -17.792 -19.114  1.00  0.00     0.000 C 
BRANCH  16  17
ATOM     17  C   UNL     1       2.246 -16.324 -18.743  1.00  0.00    -0.000 C 
BRANCH  17  18
ATOM     18  C   UNL     1       1.851 -16.124 -17.265  1.00  0.00    -0.000 C 
BRANCH  18  19
ATOM     19  C   UNL     1       2.781 -15.140 -16.541  1.00  0.00    -0.003 C 
ATOM     20  C   UNL     1       3.944 -14.721 -17.436  1.00  0.00     0.004 C 
ENDBRANCH  18  19
ENDBRANCH  17  18
ENDBRANCH  16  17
ENDBRANCH  15  16
ENDBRANCH  14  15
ENDBRANCH  13  14
ENDBRANCH   2  13
TORSDOF 15
ENDMDL
MODEL 8
REMARK VINA RESULT:    -4.416      7.398     10.381
REMARK INTER + INTRA:         -10.904
REMARK INTER:                  -8.888
REMARK INTRA:                  -2.015
REMARK UNBOUND:                -2.615
REMARK SMILES CCCCCCCCC=CCCCCCCCC(=O)[O-]
REMARK SMILES IDX 10 1 9 2 11 3 12 4 13 5 14 6 15 7 16 8 17 9 18 10 19 11
REMARK SMILES IDX 20 12 8 13 7 14 6 15 5 16 4 17 3 18 2 19 1 20
REMARK H PARENT
REMARK Flexibility Score: inf
ROOT
ATOM      1  C   UNL     1      -4.487 -20.023 -10.703  1.00  0.00    -0.031 C 
ATOM      2  C   UNL     1      -5.498 -19.180 -10.414  1.00  0.00    -0.031 C 
ENDROOT
BRANCH   1   3
ATOM      3  C   UNL     1      -4.524 -21.522 -10.516  1.00  0.00     0.027 C 
BRANCH   3   4
ATOM      4  C   UNL     1      -4.544 -22.249 -11.867  1.00  0.00     0.004 C 
BRANCH   4   5
ATOM      5  C   UNL     1      -3.197 -22.921 -12.178  1.00  0.00     0.000 C 
BRANCH   5   6
ATOM      6  C   UNL     1      -3.006 -23.221 -13.676  1.00  0.00     0.000 C 
BRANCH   6   7
ATOM      7  C   UNL     1      -3.455 -22.096 -14.627  1.00  0.00     0.000 C 
BRANCH   7   8
ATOM      8  C   UNL     1      -2.456 -20.927 -14.688  1.00  0.00     0.006 C 
BRANCH   8   9
ATOM      9  C   UNL     1      -3.052 -19.628 -14.128  1.00  0.00     0.053 C 
BRANCH   9  10
ATOM     10  C   UNL     1      -2.059 -18.875 -13.297  1.00  0.00     0.041 C 
ATOM     11  O   UNL     1      -0.853 -19.236 -13.266  1.00  0.00    -0.550 OA
ATOM     12  O   UNL     1      -2.462 -17.756 -12.576  1.00  0.00    -0.550 OA
ENDBRANCH   9  10
ENDBRANCH   8   9
ENDBRANCH   7   8
ENDBRANCH   6   7
ENDBRANCH   5   6
ENDBRANCH   4   5
ENDBRANCH   3   4
ENDBRANCH   1   3
BRANCH   2  13
ATOM     13  C   UNL     1      -6.815 -19.592  -9.806  1.00  0.00     0.027 C 
BRANCH  13  14
ATOM     14  C   UNL     1      -6.889 -19.296  -8.295  1.00  0.00     0.004 C 
BRANCH  14  15
ATOM     15  C   UNL     1      -6.845 -17.797  -7.955  1.00  0.00     0.000 C 
BRANCH  15  16
ATOM     16  C   UNL     1      -8.176 -17.080  -8.228  1.00  0.00     0.000 C 
BRANCH  16  17
ATOM     17  C   UNL     1      -8.069 -16.021  -9.339  1.00  0.00    -0.000 C 
BRANCH  17  18
ATOM     18  C   UNL     1      -6.615 -15.675  -9.723  1.00  0.00    -0.000 C 
BRANCH  18  19
ATOM     19  C   UNL     1      -6.485 -15.255 -11.194  1.00  0.00    -0.003 C 
ATOM     20  C   UNL     1      -7.148 -16.272 -12.118  1.00  0.00     0.004 C 
ENDBRANCH  18  19
ENDBRANCH  17  18
ENDBRANCH  16  17
ENDBRANCH  15  16
ENDBRANCH  14  15
ENDBRANCH  13  14
ENDBRANCH   2  13
TORSDOF 15
ENDMDL
MODEL 9
REMARK VINA RESULT:    -4.413      7.950     10.253
REMARK INTER + INTRA:         -10.898
REMARK INTER:                  -8.568
REMARK INTRA:                  -2.330
REMARK UNBOUND:                -2.615
REMARK SMILES CCCCCCCCC=CCCCCCCCC(=O)[O-]
REMARK SMILES IDX 10 1 9 2 11 3 12 4 13 5 14 6 15 7 16 8 17 9 18 10 19 11
REMARK SMILES IDX 20 12 8 13 7 14 6 15 5 16 4 17 3 18 2 19 1 20
REMARK H PARENT
REMARK Flexibility Score: inf
ROOT
ATOM      1  C   UNL     1      -5.632 -15.549 -11.747  1.00  0.00    -0.031 C 
ATOM      2  C   UNL     1      -6.838 -15.532 -11.147  1.00  0.00    -0.031 C 
ENDROOT
BRANCH   1   3
ATOM      3  C   UNL     1      -5.315 -16.256 -13.044  1.00  0.00     0.027 C 
BRANCH   3   4
ATOM      4  C   UNL     1      -3.815 -16.556 -13.160  1.00  0.00     0.004 C 
BRANCH   4   5
ATOM      5  C   UNL     1      -3.539 -18.062 -13.306  1.00  0.00     0.000 C 
BRANCH   5   6
ATOM      6  C   UNL     1      -2.084 -18.371 -13.700  1.00  0.00     0.000 C 
BRANCH   6   7
ATOM      7  C   UNL     1      -1.262 -19.113 -12.629  1.00  0.00     0.000 C 
BRANCH   7   8
ATOM      8  C   UNL     1      -2.031 -19.308 -11.311  1.00  0.00     0.006 C 
BRANCH   8   9
ATOM      9  C   UNL     1      -2.049 -20.776 -10.863  1.00  0.00     0.053 C 
BRANCH   9  10
ATOM     10  C   UNL     1      -2.648 -21.668 -11.907  1.00  0.00     0.041 C 
ATOM     11  O   UNL     1      -1.987 -22.634 -12.371  1.00  0.00    -0.550 OA
ATOM     12  O   UNL     1      -3.947 -21.447 -12.348  1.00  0.00    -0.550 OA
ENDBRANCH   9  10
ENDBRANCH   8   9
ENDBRANCH   7   8
ENDBRANCH   6   7
ENDBRANCH   5   6
ENDBRANCH   4   5
ENDBRANCH   3   4
ENDBRANCH   1   3
BRANCH   2  13
ATOM     13  C   UNL     1      -8.058 -16.263 -11.647  1.00  0.00     0.027 C 
BRANCH  13  14
ATOM     14  C   UNL     1      -8.942 -16.794 -10.502  1.00  0.00     0.004 C 
BRANCH  14  15
ATOM     15  C   UNL     1      -8.717 -16.075  -9.161  1.00  0.00     0.000 C 
BRANCH  15  16
ATOM     16  C   UNL     1      -8.365 -17.038  -8.016  1.00  0.00     0.000 C 
BRANCH  16  17
ATOM     17  C   UNL     1      -7.027 -17.765  -8.236  1.00  0.00    -0.000 C 
BRANCH  17  18
ATOM     18  C   UNL     1      -7.173 -19.293  -8.392  1.00  0.00    -0.000 C 
BRANCH  18  19
ATOM     19  C   UNL     1      -6.768 -19.777  -9.791  1.00  0.00    -0.003 C 
ATOM     20  C   UNL     1      -5.584 -18.979 -10.329  1.00  0.00     0.004 C 
ENDBRANCH  18  19
ENDBRANCH  17  18
ENDBRANCH  16  17
ENDBRANCH  15  16
ENDBRANCH  14  15
ENDBRANCH  13  14
ENDBRANCH   2  13
TORSDOF 15
ENDMDL
