MODEL 1
REMARK VINA RESULT:    -5.367      0.000      0.000
REMARK INTER + INTRA:         -10.871
REMARK INTER:                  -9.759
REMARK INTRA:                  -1.112
REMARK UNBOUND:                -1.112
REMARK SMILES CCCCCCCCCCCCCC[C@H](C)C(=O)[O-]
REMARK SMILES IDX 9 1 10 2 11 3 12 4 13 5 14 6 15 7 16 8 17 9 18 10 19 11 8 12
REMARK SMILES IDX 7 13 6 14 5 15 4 16 3 17 2 18 1 19
REMARK H PARENT
REMARK Flexibility Score: inf
ROOT
ATOM      1  C   UNL     1      14.655   2.328   9.027  1.00  0.00     0.000 C 
ENDROOT
BRANCH   1   2
ATOM      2  C   UNL     1      14.384   1.637   7.682  1.00  0.00     0.000 C 
BRANCH   2   3
ATOM      3  C   UNL     1      13.200   0.658   7.749  1.00  0.00     0.000 C 
BRANCH   3   4
ATOM      4  C   UNL     1      13.649  -0.800   7.949  1.00  0.00     0.000 C 
BRANCH   4   5
ATOM      5  C   UNL     1      15.151  -1.000   7.683  1.00  0.00     0.001 C 
BRANCH   5   6
ATOM      6  C   UNL     1      15.648  -2.388   8.124  1.00  0.00     0.009 C 
BRANCH   6   7
ATOM      7  C   UNL     1      16.129  -3.252   6.936  1.00  0.00     0.032 C 
ATOM      8  C   UNL     1      15.032  -4.189   6.411  1.00  0.00     0.014 C 
BRANCH   7   9
ATOM      9  C   UNL     1      17.331  -4.061   7.344  1.00  0.00     0.044 C 
ATOM     10  O   UNL     1      17.522  -4.357   8.553  1.00  0.00    -0.550 OA
ATOM     11  O   UNL     1      18.240  -4.486   6.382  1.00  0.00    -0.550 OA
ENDBRANCH   7   9
ENDBRANCH   6   7
ENDBRANCH   5   6
ENDBRANCH   4   5
ENDBRANCH   3   4
ENDBRANCH   2   3
ENDBRANCH   1   2
BRANCH   1  12
ATOM     12  C   UNL     1      15.984   1.855   9.628  1.00  0.00     0.000 C 
BRANCH  12  13
ATOM     13  C   UNL     1      15.945   1.902  11.160  1.00  0.00    -0.000 C 
BRANCH  13  14
ATOM     14  C   UNL     1      14.643   2.547  11.658  1.00  0.00    -0.000 C 
BRANCH  14  15
ATOM     15  C   UNL     1      14.889   3.674  12.673  1.00  0.00    -0.000 C 
BRANCH  15  16
ATOM     16  C   UNL     1      16.380   4.005  12.841  1.00  0.00    -0.000 C 
BRANCH  16  17
ATOM     17  C   UNL     1      16.692   4.415  14.288  1.00  0.00    -0.000 C 
BRANCH  17  18
ATOM     18  C   UNL     1      15.527   4.128  15.247  1.00  0.00    -0.003 C 
ATOM     19  C   UNL     1      15.977   3.439  16.536  1.00  0.00     0.004 C 
ENDBRANCH  17  18
ENDBRANCH  16  17
ENDBRANCH  15  16
ENDBRANCH  14  15
ENDBRANCH  13  14
ENDBRANCH  12  13
ENDBRANCH   1  12
TORSDOF 14
ENDMDL
MODEL 2
REMARK VINA RESULT:    -5.200     12.097     14.310
REMARK INTER + INTRA:         -10.568
REMARK INTER:                  -7.849
REMARK INTRA:                  -2.719
REMARK UNBOUND:                -1.112
REMARK SMILES CCCCCCCCCCCCCC[C@H](C)C(=O)[O-]
REMARK SMILES IDX 9 1 10 2 11 3 12 4 13 5 14 6 15 7 16 8 17 9 18 10 19 11 8 12
REMARK SMILES IDX 7 13 6 14 5 15 4 16 3 17 2 18 1 19
REMARK H PARENT
REMARK Flexibility Score: inf
ROOT
ATOM      1  C   UNL     1      22.074  -2.550  21.972  1.00  0.00     0.000 C 
ENDROOT
BRANCH   1   2
ATOM      2  C   UNL     1      21.920  -3.960  22.561  1.00  0.00     0.000 C 
BRANCH   2   3
ATOM      3  C   UNL     1      21.550  -3.939  24.053  1.00  0.00     0.000 C 
BRANCH   3   4
ATOM      4  C   UNL     1      20.139  -4.493  24.320  1.00  0.00     0.000 C 
BRANCH   4   5
ATOM      5  C   UNL     1      19.566  -5.263  23.118  1.00  0.00     0.001 C 
BRANCH   5   6
ATOM      6  C   UNL     1      18.462  -4.478  22.387  1.00  0.00     0.009 C 
BRANCH   6   7
ATOM      7  C   UNL     1      18.348  -4.865  20.895  1.00  0.00     0.032 C 
ATOM      8  C   UNL     1      19.317  -5.989  20.504  1.00  0.00     0.014 C 
BRANCH   7   9
ATOM      9  C   UNL     1      18.600  -3.657  20.032  1.00  0.00     0.044 C 
ATOM     10  O   UNL     1      19.731  -3.468  19.512  1.00  0.00    -0.550 OA
ATOM     11  O   UNL     1      17.580  -2.742  19.805  1.00  0.00    -0.550 OA
ENDBRANCH   7   9
ENDBRANCH   6   7
ENDBRANCH   5   6
ENDBRANCH   4   5
ENDBRANCH   3   4
ENDBRANCH   2   3
ENDBRANCH   1   2
BRANCH   1  12
ATOM     12  C   UNL     1      22.287  -1.513  23.080  1.00  0.00     0.000 C 
BRANCH  12  13
ATOM     13  C   UNL     1      21.087  -0.565  23.189  1.00  0.00    -0.000 C 
BRANCH  13  14
ATOM     14  C   UNL     1      20.070  -0.835  22.070  1.00  0.00    -0.000 C 
BRANCH  14  15
ATOM     15  C   UNL     1      18.615  -0.703  22.546  1.00  0.00    -0.000 C 
BRANCH  15  16
ATOM     16  C   UNL     1      18.460  -0.951  24.054  1.00  0.00    -0.000 C 
BRANCH  16  17
ATOM     17  C   UNL     1      17.132  -1.661  24.359  1.00  0.00    -0.000 C 
BRANCH  17  18
ATOM     18  C   UNL     1      17.255  -2.678  25.504  1.00  0.00    -0.003 C 
ATOM     19  C   UNL     1      16.279  -3.847  25.366  1.00  0.00     0.004 C 
ENDBRANCH  17  18
ENDBRANCH  16  17
ENDBRANCH  15  16
ENDBRANCH  14  15
ENDBRANCH  13  14
ENDBRANCH  12  13
ENDBRANCH   1  12
TORSDOF 14
ENDMDL
MODEL 3
REMARK VINA RESULT:    -5.163     11.258     13.548
REMARK INTER + INTRA:         -10.501
REMARK INTER:                  -7.680
REMARK INTRA:                  -2.821
REMARK UNBOUND:                -1.112
REMARK SMILES CCCCCCCCCCCCCC[C@H](C)C(=O)[O-]
REMARK SMILES IDX 9 1 10 2 11 3 12 4 13 5 14 6 15 7 16 8 17 9 18 10 19 11 8 12
REMARK SMILES IDX 7 13 6 14 5 15 4 16 3 17 2 18 1 19
REMARK H PARENT
REMARK Flexibility Score: inf
ROOT
ATOM      1  C   UNL     1      19.437  -5.505  23.074  1.00  0.00     0.000 C 
ENDROOT
BRANCH   1   2
ATOM      2  C   UNL     1      20.633  -4.679  23.570  1.00  0.00     0.000 C 
BRANCH   2   3
ATOM      3  C   UNL     1      21.690  -4.455  22.476  1.00  0.00     0.000 C 
BRANCH   3   4
ATOM      4  C   UNL     1      21.999  -2.965  22.248  1.00  0.00     0.000 C 
BRANCH   4   5
ATOM      5  C   UNL     1      22.542  -2.679  20.838  1.00  0.00     0.001 C 
BRANCH   5   6
ATOM      6  C   UNL     1      22.544  -3.931  19.942  1.00  0.00     0.009 C 
BRANCH   6   7
ATOM      7  C   UNL     1      22.180  -3.612  18.475  1.00  0.00     0.032 C 
ATOM      8  C   UNL     1      21.163  -2.467  18.359  1.00  0.00     0.014 C 
BRANCH   7   9
ATOM      9  C   UNL     1      21.632  -4.843  17.804  1.00  0.00     0.044 C 
ATOM     10  O   UNL     1      20.558  -5.365  18.202  1.00  0.00    -0.550 OA
ATOM     11  O   UNL     1      22.315  -5.412  16.735  1.00  0.00    -0.550 OA
ENDBRANCH   7   9
ENDBRANCH   6   7
ENDBRANCH   5   6
ENDBRANCH   4   5
ENDBRANCH   3   4
ENDBRANCH   2   3
ENDBRANCH   1   2
BRANCH   1  12
ATOM     12  C   UNL     1      19.440  -5.610  21.544  1.00  0.00     0.000 C 
BRANCH  12  13
ATOM     13  C   UNL     1      18.245  -4.866  20.937  1.00  0.00    -0.000 C 
BRANCH  13  14
ATOM     14  C   UNL     1      18.569  -3.380  20.728  1.00  0.00    -0.000 C 
BRANCH  14  15
ATOM     15  C   UNL     1      17.683  -2.454  21.578  1.00  0.00    -0.000 C 
BRANCH  15  16
ATOM     16  C   UNL     1      18.458  -1.777  22.718  1.00  0.00    -0.000 C 
BRANCH  16  17
ATOM     17  C   UNL     1      17.917  -2.217  24.087  1.00  0.00    -0.000 C 
BRANCH  17  18
ATOM     18  C   UNL     1      16.674  -3.112  23.970  1.00  0.00    -0.003 C 
ATOM     19  C   UNL     1      16.423  -3.944  25.229  1.00  0.00     0.004 C 
ENDBRANCH  17  18
ENDBRANCH  16  17
ENDBRANCH  15  16
ENDBRANCH  14  15
ENDBRANCH  13  14
ENDBRANCH  12  13
ENDBRANCH   1  12
TORSDOF 14
ENDMDL
MODEL 4
REMARK VINA RESULT:    -5.135     12.110     15.405
REMARK INTER + INTRA:         -10.449
REMARK INTER:                  -7.837
REMARK INTRA:                  -2.612
REMARK UNBOUND:                -1.112
REMARK SMILES CCCCCCCCCCCCCC[C@H](C)C(=O)[O-]
REMARK SMILES IDX 9 1 10 2 11 3 12 4 13 5 14 6 15 7 16 8 17 9 18 10 19 11 8 12
REMARK SMILES IDX 7 13 6 14 5 15 4 16 3 17 2 18 1 19
REMARK H PARENT
REMARK Flexibility Score: inf
ROOT
ATOM      1  C   UNL     1      22.105  -3.840  22.067  1.00  0.00     0.000 C 
ENDROOT
BRANCH   1   2
ATOM      2  C   UNL     1      20.832  -4.327  21.358  1.00  0.00     0.000 C 
BRANCH   2   3
ATOM      3  C   UNL     1      19.687  -4.624  22.340  1.00  0.00     0.000 C 
BRANCH   3   4
ATOM      4  C   UNL     1      20.192  -4.943  23.758  1.00  0.00     0.000 C 
BRANCH   4   5
ATOM      5  C   UNL     1      19.374  -4.236  24.853  1.00  0.00     0.001 C 
BRANCH   5   6
ATOM      6  C   UNL     1      18.257  -3.350  24.275  1.00  0.00     0.009 C 
BRANCH   6   7
ATOM      7  C   UNL     1      17.176  -2.998  25.321  1.00  0.00     0.032 C 
ATOM      8  C   UNL     1      16.011  -3.997  25.319  1.00  0.00     0.014 C 
BRANCH   7   9
ATOM      9  C   UNL     1      16.652  -1.609  25.070  1.00  0.00     0.044 C 
ATOM     10  O   UNL     1      16.473  -0.810  26.026  1.00  0.00    -0.550 OA
ATOM     11  O   UNL     1      16.362  -1.202  23.773  1.00  0.00    -0.550 OA
ENDBRANCH   7   9
ENDBRANCH   6   7
ENDBRANCH   5   6
ENDBRANCH   4   5
ENDBRANCH   3   4
ENDBRANCH   2   3
ENDBRANCH   1   2
BRANCH   1  12
ATOM     12  C   UNL     1      22.505  -2.443  21.578  1.00  0.00     0.000 C 
BRANCH  12  13
ATOM     13  C   UNL     1      22.759  -1.497  22.757  1.00  0.00    -0.000 C 
BRANCH  13  14
ATOM     14  C   UNL     1      21.628  -1.588  23.790  1.00  0.00    -0.000 C 
BRANCH  14  15
ATOM     15  C   UNL     1      21.049  -0.213  24.161  1.00  0.00    -0.000 C 
BRANCH  15  16
ATOM     16  C   UNL     1      19.660   0.029  23.551  1.00  0.00    -0.000 C 
BRANCH  16  17
ATOM     17  C   UNL     1      19.732   0.060  22.017  1.00  0.00    -0.000 C 
BRANCH  17  18
ATOM     18  C   UNL     1      18.959  -1.097  21.366  1.00  0.00    -0.003 C 
ATOM     19  C   UNL     1      19.160  -1.164  19.851  1.00  0.00     0.004 C 
ENDBRANCH  17  18
ENDBRANCH  16  17
ENDBRANCH  15  16
ENDBRANCH  14  15
ENDBRANCH  13  14
ENDBRANCH  12  13
ENDBRANCH   1  12
TORSDOF 14
ENDMDL
MODEL 5
REMARK VINA RESULT:    -5.132     10.692     13.756
REMARK INTER + INTRA:         -10.444
REMARK INTER:                  -8.406
REMARK INTRA:                  -2.038
REMARK UNBOUND:                -1.112
REMARK SMILES CCCCCCCCCCCCCC[C@H](C)C(=O)[O-]
REMARK SMILES IDX 9 1 10 2 11 3 12 4 13 5 14 6 15 7 16 8 17 9 18 10 19 11 8 12
REMARK SMILES IDX 7 13 6 14 5 15 4 16 3 17 2 18 1 19
REMARK H PARENT
REMARK Flexibility Score: inf
ROOT
ATOM      1  C   UNL     1       5.329   0.748  16.981  1.00  0.00     0.000 C 
ENDROOT
BRANCH   1   2
ATOM      2  C   UNL     1       6.394  -0.014  17.784  1.00  0.00     0.000 C 
BRANCH   2   3
ATOM      3  C   UNL     1       7.533   0.898  18.269  1.00  0.00     0.000 C 
BRANCH   3   4
ATOM      4  C   UNL     1       8.000   1.886  17.186  1.00  0.00     0.000 C 
BRANCH   4   5
ATOM      5  C   UNL     1       8.135   3.325  17.713  1.00  0.00     0.001 C 
BRANCH   5   6
ATOM      6  C   UNL     1       7.277   3.577  18.966  1.00  0.00     0.009 C 
BRANCH   6   7
ATOM      7  C   UNL     1       8.028   4.386  20.047  1.00  0.00     0.032 C 
ATOM      8  C   UNL     1       8.109   3.640  21.387  1.00  0.00     0.014 C 
BRANCH   7   9
ATOM      9  C   UNL     1       7.356   5.718  20.250  1.00  0.00     0.044 C 
ATOM     10  O   UNL     1       6.861   6.339  19.274  1.00  0.00    -0.550 OA
ATOM     11  O   UNL     1       7.279   6.268  21.524  1.00  0.00    -0.550 OA
ENDBRANCH   7   9
ENDBRANCH   6   7
ENDBRANCH   5   6
ENDBRANCH   4   5
ENDBRANCH   3   4
ENDBRANCH   2   3
ENDBRANCH   1   2
BRANCH   1  12
ATOM     12  C   UNL     1       5.034   0.042  15.653  1.00  0.00     0.000 C 
BRANCH  12  13
ATOM     13  C   UNL     1       6.052  -1.073  15.382  1.00  0.00    -0.000 C 
BRANCH  13  14
ATOM     14  C   UNL     1       6.913  -0.745  14.154  1.00  0.00    -0.000 C 
BRANCH  14  15
ATOM     15  C   UNL     1       8.403  -0.586  14.498  1.00  0.00    -0.000 C 
BRANCH  15  16
ATOM     16  C   UNL     1       9.077  -1.923  14.842  1.00  0.00    -0.000 C 
BRANCH  16  17
ATOM     17  C   UNL     1       9.653  -1.897  16.266  1.00  0.00    -0.000 C 
BRANCH  17  18
ATOM     18  C   UNL     1       8.794  -2.686  17.265  1.00  0.00    -0.003 C 
ATOM     19  C   UNL     1       8.813  -4.192  17.000  1.00  0.00     0.004 C 
ENDBRANCH  17  18
ENDBRANCH  16  17
ENDBRANCH  15  16
ENDBRANCH  14  15
ENDBRANCH  13  14
ENDBRANCH  12  13
ENDBRANCH   1  12
TORSDOF 14
ENDMDL
MODEL 6
REMARK VINA RESULT:    -5.068     11.388     14.337
REMARK INTER + INTRA:         -10.329
REMARK INTER:                  -7.644
REMARK INTRA:                  -2.685
REMARK UNBOUND:                -1.112
REMARK SMILES CCCCCCCCCCCCCC[C@H](C)C(=O)[O-]
REMARK SMILES IDX 9 1 10 2 11 3 12 4 13 5 14 6 15 7 16 8 17 9 18 10 19 11 8 12
REMARK SMILES IDX 7 13 6 14 5 15 4 16 3 17 2 18 1 19
REMARK H PARENT
REMARK Flexibility Score: inf
ROOT
ATOM      1  C   UNL     1      22.774  -4.952  19.824  1.00  0.00     0.000 C 
ENDROOT
BRANCH   1   2
ATOM      2  C   UNL     1      22.441  -4.322  21.185  1.00  0.00     0.000 C 
BRANCH   2   3
ATOM      3  C   UNL     1      22.676  -2.802  21.206  1.00  0.00     0.000 C 
BRANCH   3   4
ATOM      4  C   UNL     1      21.885  -2.097  22.321  1.00  0.00     0.000 C 
BRANCH   4   5
ATOM      5  C   UNL     1      21.440  -3.061  23.434  1.00  0.00     0.001 C 
BRANCH   5   6
ATOM      6  C   UNL     1      19.977  -2.836  23.859  1.00  0.00     0.009 C 
BRANCH   6   7
ATOM      7  C   UNL     1      19.201  -4.160  24.041  1.00  0.00     0.032 C 
ATOM      8  C   UNL     1      19.107  -4.968  22.739  1.00  0.00     0.014 C 
BRANCH   7   9
ATOM      9  C   UNL     1      17.818  -3.876  24.561  1.00  0.00     0.044 C 
ATOM     10  O   UNL     1      17.653  -3.417  25.722  1.00  0.00    -0.550 OA
ATOM     11  O   UNL     1      16.711  -4.120  23.757  1.00  0.00    -0.550 OA
ENDBRANCH   7   9
ENDBRANCH   6   7
ENDBRANCH   5   6
ENDBRANCH   4   5
ENDBRANCH   3   4
ENDBRANCH   2   3
ENDBRANCH   1   2
BRANCH   1  12
ATOM     12  C   UNL     1      23.118  -3.873  18.790  1.00  0.00     0.000 C 
BRANCH  12  13
ATOM     13  C   UNL     1      22.268  -4.031  17.524  1.00  0.00    -0.000 C 
BRANCH  13  14
ATOM     14  C   UNL     1      21.176  -2.954  17.457  1.00  0.00    -0.000 C 
BRANCH  14  15
ATOM     15  C   UNL     1      19.796  -3.481  17.884  1.00  0.00    -0.000 C 
BRANCH  15  16
ATOM     16  C   UNL     1      19.441  -3.108  19.331  1.00  0.00    -0.000 C 
BRANCH  16  17
ATOM     17  C   UNL     1      19.602  -1.597  19.563  1.00  0.00    -0.000 C 
BRANCH  17  18
ATOM     18  C   UNL     1      18.728  -1.080  20.715  1.00  0.00    -0.003 C 
ATOM     19  C   UNL     1      17.556  -2.010  21.032  1.00  0.00     0.004 C 
ENDBRANCH  17  18
ENDBRANCH  16  17
ENDBRANCH  15  16
ENDBRANCH  14  15
ENDBRANCH  13  14
ENDBRANCH  12  13
ENDBRANCH   1  12
TORSDOF 14
ENDMDL
MODEL 7
REMARK VINA RESULT:    -5.068     11.933     14.836
REMARK INTER + INTRA:         -10.328
REMARK INTER:                  -7.630
REMARK INTRA:                  -2.698
REMARK UNBOUND:                -1.112
REMARK SMILES CCCCCCCCCCCCCC[C@H](C)C(=O)[O-]
REMARK SMILES IDX 9 1 10 2 11 3 12 4 13 5 14 6 15 7 16 8 17 9 18 10 19 11 8 12
REMARK SMILES IDX 7 13 6 14 5 15 4 16 3 17 2 18 1 19
REMARK H PARENT
REMARK Flexibility Score: inf
ROOT
ATOM      1  C   UNL     1      21.627  -2.405  23.550  1.00  0.00     0.000 C 
ENDROOT
BRANCH   1   2
ATOM      2  C   UNL     1      20.229  -2.919  23.175  1.00  0.00     0.000 C 
BRANCH   2   3
ATOM      3  C   UNL     1      20.146  -4.455  23.170  1.00  0.00     0.000 C 
BRANCH   3   4
ATOM      4  C   UNL     1      18.795  -4.972  22.646  1.00  0.00     0.000 C 
BRANCH   4   5
ATOM      5  C   UNL     1      17.825  -3.835  22.281  1.00  0.00     0.001 C 
BRANCH   5   6
ATOM      6  C   UNL     1      16.570  -3.822  23.172  1.00  0.00     0.009 C 
BRANCH   6   7
ATOM      7  C   UNL     1      16.386  -2.482  23.920  1.00  0.00     0.032 C 
ATOM      8  C   UNL     1      16.840  -1.277  23.084  1.00  0.00     0.014 C 
BRANCH   7   9
ATOM      9  C   UNL     1      17.146  -2.512  25.219  1.00  0.00     0.044 C 
ATOM     10  O   UNL     1      17.493  -3.608  25.732  1.00  0.00    -0.550 OA
ATOM     11  O   UNL     1      17.471  -1.322  25.859  1.00  0.00    -0.550 OA
ENDBRANCH   7   9
ENDBRANCH   6   7
ENDBRANCH   5   6
ENDBRANCH   4   5
ENDBRANCH   3   4
ENDBRANCH   2   3
ENDBRANCH   1   2
BRANCH   1  12
ATOM     12  C   UNL     1      22.368  -1.880  22.315  1.00  0.00     0.000 C 
BRANCH  12  13
ATOM     13  C   UNL     1      22.950  -3.033  21.489  1.00  0.00    -0.000 C 
BRANCH  13  14
ATOM     14  C   UNL     1      22.492  -2.948  20.026  1.00  0.00    -0.000 C 
BRANCH  14  15
ATOM     15  C   UNL     1      21.458  -4.026  19.663  1.00  0.00    -0.000 C 
BRANCH  15  16
ATOM     16  C   UNL     1      20.067  -3.441  19.380  1.00  0.00    -0.000 C 
BRANCH  16  17
ATOM     17  C   UNL     1      20.134  -1.913  19.230  1.00  0.00    -0.000 C 
BRANCH  17  18
ATOM     18  C   UNL     1      19.010  -1.195  19.991  1.00  0.00    -0.003 C 
ATOM     19  C   UNL     1      18.998   0.314  19.743  1.00  0.00     0.004 C 
ENDBRANCH  17  18
ENDBRANCH  16  17
ENDBRANCH  15  16
ENDBRANCH  14  15
ENDBRANCH  13  14
ENDBRANCH  12  13
ENDBRANCH   1  12
TORSDOF 14
ENDMDL
MODEL 8
REMARK VINA RESULT:    -5.063     11.488     14.604
REMARK INTER + INTRA:         -10.319
REMARK INTER:                  -7.630
REMARK INTRA:                  -2.689
REMARK UNBOUND:                -1.112
REMARK SMILES CCCCCCCCCCCCCC[C@H](C)C(=O)[O-]
REMARK SMILES IDX 9 1 10 2 11 3 12 4 13 5 14 6 15 7 16 8 17 9 18 10 19 11 8 12
REMARK SMILES IDX 7 13 6 14 5 15 4 16 3 17 2 18 1 19
REMARK H PARENT
REMARK Flexibility Score: inf
ROOT
ATOM      1  C   UNL     1      23.038  -4.184  20.465  1.00  0.00     0.000 C 
ENDROOT
BRANCH   1   2
ATOM      2  C   UNL     1      22.354  -2.897  20.949  1.00  0.00     0.000 C 
BRANCH   2   3
ATOM      3  C   UNL     1      21.789  -3.028  22.373  1.00  0.00     0.000 C 
BRANCH   3   4
ATOM      4  C   UNL     1      21.745  -4.488  22.859  1.00  0.00     0.000 C 
BRANCH   4   5
ATOM      5  C   UNL     1      20.399  -4.859  23.504  1.00  0.00     0.001 C 
BRANCH   5   6
ATOM      6  C   UNL     1      19.552  -3.623  23.855  1.00  0.00     0.009 C 
BRANCH   6   7
ATOM      7  C   UNL     1      18.113  -3.710  23.298  1.00  0.00     0.032 C 
ATOM      8  C   UNL     1      17.872  -2.731  22.140  1.00  0.00     0.014 C 
BRANCH   7   9
ATOM      9  C   UNL     1      17.121  -3.445  24.398  1.00  0.00     0.044 C 
ATOM     10  O   UNL     1      15.982  -2.978  24.134  1.00  0.00    -0.550 OA
ATOM     11  O   UNL     1      17.460  -3.718  25.718  1.00  0.00    -0.550 OA
ENDBRANCH   7   9
ENDBRANCH   6   7
ENDBRANCH   5   6
ENDBRANCH   4   5
ENDBRANCH   3   4
ENDBRANCH   2   3
ENDBRANCH   1   2
BRANCH   1  12
ATOM     12  C   UNL     1      23.125  -4.217  18.935  1.00  0.00     0.000 C 
BRANCH  12  13
ATOM     13  C   UNL     1      22.683  -2.880  18.328  1.00  0.00    -0.000 C 
BRANCH  13  14
ATOM     14  C   UNL     1      21.373  -3.038  17.542  1.00  0.00    -0.000 C 
BRANCH  14  15
ATOM     15  C   UNL     1      20.212  -2.241  18.157  1.00  0.00    -0.000 C 
BRANCH  15  16
ATOM     16  C   UNL     1      18.991  -3.119  18.469  1.00  0.00    -0.000 C 
BRANCH  16  17
ATOM     17  C   UNL     1      19.381  -4.604  18.516  1.00  0.00    -0.000 C 
BRANCH  17  18
ATOM     18  C   UNL     1      19.405  -5.163  19.947  1.00  0.00    -0.003 C 
ATOM     19  C   UNL     1      20.183  -6.475  20.056  1.00  0.00     0.004 C 
ENDBRANCH  17  18
ENDBRANCH  16  17
ENDBRANCH  15  16
ENDBRANCH  14  15
ENDBRANCH  13  14
ENDBRANCH  12  13
ENDBRANCH   1  12
TORSDOF 14
ENDMDL
MODEL 9
REMARK VINA RESULT:    -5.052     11.100     13.765
REMARK INTER + INTRA:         -10.299
REMARK INTER:                  -7.505
REMARK INTRA:                  -2.793
REMARK UNBOUND:                -1.112
REMARK SMILES CCCCCCCCCCCCCC[C@H](C)C(=O)[O-]
REMARK SMILES IDX 9 1 10 2 11 3 12 4 13 5 14 6 15 7 16 8 17 9 18 10 19 11 8 12
REMARK SMILES IDX 7 13 6 14 5 15 4 16 3 17 2 18 1 19
REMARK H PARENT
REMARK Flexibility Score: inf
ROOT
ATOM      1  C   UNL     1      22.729  -3.741  21.578  1.00  0.00     0.000 C 
ENDROOT
BRANCH   1   2
ATOM      2  C   UNL     1      23.124  -3.955  20.109  1.00  0.00     0.000 C 
BRANCH   2   3
ATOM      3  C   UNL     1      22.786  -2.743  19.225  1.00  0.00     0.000 C 
BRANCH   3   4
ATOM      4  C   UNL     1      22.125  -3.148  17.895  1.00  0.00     0.000 C 
BRANCH   4   5
ATOM      5  C   UNL     1      20.594  -3.004  17.925  1.00  0.00     0.001 C 
BRANCH   5   6
ATOM      6  C   UNL     1      20.127  -1.867  18.850  1.00  0.00     0.009 C 
BRANCH   6   7
ATOM      7  C   UNL     1      18.981  -2.301  19.793  1.00  0.00     0.032 C 
ATOM      8  C   UNL     1      17.736  -2.769  19.025  1.00  0.00     0.014 C 
BRANCH   7   9
ATOM      9  C   UNL     1      18.613  -1.164  20.708  1.00  0.00     0.044 C 
ATOM     10  O   UNL     1      19.418  -0.216  20.906  1.00  0.00    -0.550 OA
ATOM     11  O   UNL     1      17.376  -1.157  21.342  1.00  0.00    -0.550 OA
ENDBRANCH   7   9
ENDBRANCH   6   7
ENDBRANCH   5   6
ENDBRANCH   4   5
ENDBRANCH   3   4
ENDBRANCH   2   3
ENDBRANCH   1   2
BRANCH   1  12
ATOM     12  C   UNL     1      22.172  -2.329  21.796  1.00  0.00     0.000 C 
BRANCH  12  13
ATOM     13  C   UNL     1      21.418  -2.233  23.128  1.00  0.00    -0.000 C 
BRANCH  13  14
ATOM     14  C   UNL     1      21.234  -3.621  23.758  1.00  0.00    -0.000 C 
BRANCH  14  15
ATOM     15  C   UNL     1      19.773  -3.910  24.141  1.00  0.00    -0.000 C 
BRANCH  15  16
ATOM     16  C   UNL     1      18.914  -4.319  22.935  1.00  0.00    -0.000 C 
BRANCH  16  17
ATOM     17  C   UNL     1      19.399  -5.652  22.344  1.00  0.00    -0.000 C 
BRANCH  17  18
ATOM     18  C   UNL     1      19.108  -5.772  20.841  1.00  0.00    -0.003 C 
ATOM     19  C   UNL     1      20.330  -6.218  20.036  1.00  0.00     0.004 C 
ENDBRANCH  17  18
ENDBRANCH  16  17
ENDBRANCH  15  16
ENDBRANCH  14  15
ENDBRANCH  13  14
ENDBRANCH  12  13
ENDBRANCH   1  12
TORSDOF 14
ENDMDL
