MODEL 1
REMARK VINA RESULT:    -3.587      0.000      0.000
REMARK INTER + INTRA:          -4.297
REMARK INTER:                  -4.217
REMARK INTRA:                  -0.080
REMARK UNBOUND:                -0.080
REMARK SMILES O=C([O-])CCC(=O)[O-]
REMARK SMILES IDX 4 1 2 2 1 3 3 4 5 5 6 6 7 7 8 8
REMARK H PARENT
REMARK Flexibility Score: inf
ROOT
ATOM      1  C   UNL     1    -104.532 -85.637  39.413  1.00  0.00     0.059 C 
ENDROOT
BRANCH   1   2
ATOM      2  C   UNL     1    -104.749 -86.351  38.116  1.00  0.00     0.042 C 
ATOM      3  O   UNL     1    -105.228 -85.736  37.127  1.00  0.00    -0.550 OA
ATOM      4  O   UNL     1    -104.376 -87.682  37.985  1.00  0.00    -0.550 OA
ENDBRANCH   1   2
BRANCH   1   5
ATOM      5  C   UNL     1    -105.507 -84.466  39.548  1.00  0.00     0.059 C 
BRANCH   5   6
ATOM      6  C   UNL     1    -104.771 -83.164  39.485  1.00  0.00     0.042 C 
ATOM      7  O   UNL     1    -103.567 -83.098  39.851  1.00  0.00    -0.550 OA
ATOM      8  O   UNL     1    -105.429 -82.014  39.070  1.00  0.00    -0.550 OA
ENDBRANCH   5   6
ENDBRANCH   1   5
TORSDOF 3
ENDMDL
MODEL 2
REMARK VINA RESULT:    -3.583      1.150      3.985
REMARK INTER + INTRA:          -4.292
REMARK INTER:                  -4.169
REMARK INTRA:                  -0.123
REMARK UNBOUND:                -0.080
REMARK SMILES O=C([O-])CCC(=O)[O-]
REMARK SMILES IDX 4 1 2 2 1 3 3 4 5 5 6 6 7 7 8 8
REMARK H PARENT
REMARK Flexibility Score: inf
ROOT
ATOM      1  C   UNL     1    -105.075 -84.984  39.488  1.00  0.00     0.059 C 
ENDROOT
BRANCH   1   2
ATOM      2  C   UNL     1    -104.248 -83.737  39.533  1.00  0.00     0.042 C 
ATOM      3  O   UNL     1    -104.766 -82.646  39.889  1.00  0.00    -0.550 OA
ATOM      4  O   UNL     1    -102.894 -83.791  39.229  1.00  0.00    -0.550 OA
ENDBRANCH   1   2
BRANCH   1   5
ATOM      5  C   UNL     1    -105.014 -85.615  38.097  1.00  0.00     0.059 C 
BRANCH   5   6
ATOM      6  C   UNL     1    -104.320 -86.940  38.153  1.00  0.00     0.042 C 
ATOM      7  O   UNL     1    -104.661 -87.867  37.372  1.00  0.00    -0.550 OA
ATOM      8  O   UNL     1    -103.331 -87.166  39.102  1.00  0.00    -0.550 OA
ENDBRANCH   5   6
ENDBRANCH   1   5
TORSDOF 3
ENDMDL
MODEL 3
REMARK VINA RESULT:    -3.580      0.069      3.920
REMARK INTER + INTRA:          -4.289
REMARK INTER:                  -4.208
REMARK INTRA:                  -0.080
REMARK UNBOUND:                -0.080
REMARK SMILES O=C([O-])CCC(=O)[O-]
REMARK SMILES IDX 4 1 2 2 1 3 3 4 5 5 6 6 7 7 8 8
REMARK H PARENT
REMARK Flexibility Score: inf
ROOT
ATOM      1  C   UNL     1    -105.522 -84.455  39.522  1.00  0.00     0.059 C 
ENDROOT
BRANCH   1   2
ATOM      2  C   UNL     1    -104.778 -83.156  39.498  1.00  0.00     0.042 C 
ATOM      3  O   UNL     1    -105.366 -82.095  39.157  1.00  0.00    -0.550 OA
ATOM      4  O   UNL     1    -103.449 -83.110  39.898  1.00  0.00    -0.550 OA
ENDBRANCH   1   2
BRANCH   1   5
ATOM      5  C   UNL     1    -104.549 -85.630  39.410  1.00  0.00     0.059 C 
BRANCH   5   6
ATOM      6  C   UNL     1    -104.725 -86.331  38.100  1.00  0.00     0.042 C 
ATOM      7  O   UNL     1    -105.224 -85.721  37.117  1.00  0.00    -0.550 OA
ATOM      8  O   UNL     1    -104.384 -87.672  37.978  1.00  0.00    -0.550 OA
ENDBRANCH   5   6
ENDBRANCH   1   5
TORSDOF 3
ENDMDL
MODEL 4
REMARK VINA RESULT:    -3.570      1.169      1.660
REMARK INTER + INTRA:          -4.277
REMARK INTER:                  -4.155
REMARK INTRA:                  -0.121
REMARK UNBOUND:                -0.080
REMARK SMILES O=C([O-])CCC(=O)[O-]
REMARK SMILES IDX 4 1 2 2 1 3 3 4 5 5 6 6 7 7 8 8
REMARK H PARENT
REMARK Flexibility Score: inf
ROOT
ATOM      1  C   UNL     1    -105.034 -85.599  38.084  1.00  0.00     0.059 C 
ENDROOT
BRANCH   1   2
ATOM      2  C   UNL     1    -104.414 -86.959  38.172  1.00  0.00     0.042 C 
ATOM      3  O   UNL     1    -104.821 -87.890  37.428  1.00  0.00    -0.550 OA
ATOM      4  O   UNL     1    -103.356 -87.184  39.043  1.00  0.00    -0.550 OA
ENDBRANCH   1   2
BRANCH   1   5
ATOM      5  C   UNL     1    -105.091 -84.947  39.466  1.00  0.00     0.059 C 
BRANCH   5   6
ATOM      6  C   UNL     1    -104.195 -83.749  39.515  1.00  0.00     0.042 C 
ATOM      7  O   UNL     1    -104.637 -82.644  39.928  1.00  0.00    -0.550 OA
ATOM      8  O   UNL     1    -102.887 -83.841  39.059  1.00  0.00    -0.550 OA
ENDBRANCH   5   6
ENDBRANCH   1   5
TORSDOF 3
ENDMDL
MODEL 5
REMARK VINA RESULT:    -3.515      1.249      1.677
REMARK INTER + INTRA:          -4.212
REMARK INTER:                  -4.090
REMARK INTRA:                  -0.122
REMARK UNBOUND:                -0.080
REMARK SMILES O=C([O-])CCC(=O)[O-]
REMARK SMILES IDX 4 1 2 2 1 3 3 4 5 5 6 6 7 7 8 8
REMARK H PARENT
REMARK Flexibility Score: inf
ROOT
ATOM      1  C   UNL     1    -105.087 -85.700  37.772  1.00  0.00     0.059 C 
ENDROOT
BRANCH   1   2
ATOM      2  C   UNL     1    -104.668 -87.126  37.602  1.00  0.00     0.042 C 
ATOM      3  O   UNL     1    -103.888 -87.661  38.434  1.00  0.00    -0.550 OA
ATOM      4  O   UNL     1    -105.177 -87.879  36.552  1.00  0.00    -0.550 OA
ENDBRANCH   1   2
BRANCH   1   5
ATOM      5  C   UNL     1    -104.995 -85.288  39.243  1.00  0.00     0.059 C 
BRANCH   5   6
ATOM      6  C   UNL     1    -103.935 -84.247  39.429  1.00  0.00     0.042 C 
ATOM      7  O   UNL     1    -102.718 -84.558  39.332  1.00  0.00    -0.550 OA
ATOM      8  O   UNL     1    -104.290 -82.946  39.757  1.00  0.00    -0.550 OA
ENDBRANCH   5   6
ENDBRANCH   1   5
TORSDOF 3
ENDMDL
MODEL 6
REMARK VINA RESULT:    -3.495      1.657      3.855
REMARK INTER + INTRA:          -4.188
REMARK INTER:                  -4.071
REMARK INTRA:                  -0.118
REMARK UNBOUND:                -0.080
REMARK SMILES O=C([O-])CCC(=O)[O-]
REMARK SMILES IDX 4 1 2 2 1 3 3 4 5 5 6 6 7 7 8 8
REMARK H PARENT
REMARK Flexibility Score: inf
ROOT
ATOM      1  C   UNL     1    -103.405 -85.859  39.498  1.00  0.00     0.059 C 
ENDROOT
BRANCH   1   2
ATOM      2  C   UNL     1    -102.516 -84.755  39.018  1.00  0.00     0.042 C 
ATOM      3  O   UNL     1    -101.727 -84.950  38.056  1.00  0.00    -0.550 OA
ATOM      4  O   UNL     1    -102.594 -83.497  39.601  1.00  0.00    -0.550 OA
ENDBRANCH   1   2
BRANCH   1   5
ATOM      5  C   UNL     1    -104.819 -85.687  38.941  1.00  0.00     0.059 C 
BRANCH   5   6
ATOM      6  C   UNL     1    -104.949 -86.379  37.621  1.00  0.00     0.042 C 
ATOM      7  O   UNL     1    -105.228 -85.719  36.585  1.00  0.00    -0.550 OA
ATOM      8  O   UNL     1    -104.809 -87.758  37.543  1.00  0.00    -0.550 OA
ENDBRANCH   5   6
ENDBRANCH   1   5
TORSDOF 3
ENDMDL
MODEL 7
REMARK VINA RESULT:    -3.472      1.957      2.590
REMARK INTER + INTRA:          -4.162
REMARK INTER:                  -4.059
REMARK INTRA:                  -0.102
REMARK UNBOUND:                -0.080
REMARK SMILES O=C([O-])CCC(=O)[O-]
REMARK SMILES IDX 4 1 2 2 1 3 3 4 5 5 6 6 7 7 8 8
REMARK H PARENT
REMARK Flexibility Score: inf
ROOT
ATOM      1  C   UNL     1    -104.760 -86.011  38.757  1.00  0.00     0.059 C 
ENDROOT
BRANCH   1   2
ATOM      2  C   UNL     1    -105.011 -86.564  37.389  1.00  0.00     0.042 C 
ATOM      3  O   UNL     1    -105.146 -87.806  37.223  1.00  0.00    -0.550 OA
ATOM      4  O   UNL     1    -105.144 -85.705  36.307  1.00  0.00    -0.550 OA
ENDBRANCH   1   2
BRANCH   1   5
ATOM      5  C   UNL     1    -103.312 -86.267  39.179  1.00  0.00     0.059 C 
BRANCH   5   6
ATOM      6  C   UNL     1    -102.485 -85.035  38.981  1.00  0.00     0.042 C 
ATOM      7  O   UNL     1    -101.739 -84.928  37.971  1.00  0.00    -0.550 OA
ATOM      8  O   UNL     1    -102.500 -84.028  39.937  1.00  0.00    -0.550 OA
ENDBRANCH   5   6
ENDBRANCH   1   5
TORSDOF 3
ENDMDL
MODEL 8
REMARK VINA RESULT:    -3.431      1.977      2.788
REMARK INTER + INTRA:          -4.113
REMARK INTER:                  -3.999
REMARK INTRA:                  -0.114
REMARK UNBOUND:                -0.080
REMARK SMILES O=C([O-])CCC(=O)[O-]
REMARK SMILES IDX 4 1 2 2 1 3 3 4 5 5 6 6 7 7 8 8
REMARK H PARENT
REMARK Flexibility Score: inf
ROOT
ATOM      1  C   UNL     1    -104.930 -85.523  37.403  1.00  0.00     0.059 C 
ENDROOT
BRANCH   1   2
ATOM      2  C   UNL     1    -105.162 -86.844  36.737  1.00  0.00     0.042 C 
ATOM      3  O   UNL     1    -105.167 -87.904  37.418  1.00  0.00    -0.550 OA
ATOM      4  O   UNL     1    -105.423 -86.898  35.374  1.00  0.00    -0.550 OA
ENDBRANCH   1   2
BRANCH   1   5
ATOM      5  C   UNL     1    -104.826 -85.700  38.919  1.00  0.00     0.059 C 
BRANCH   5   6
ATOM      6  C   UNL     1    -103.401 -85.586  39.362  1.00  0.00     0.042 C 
ATOM      7  O   UNL     1    -102.984 -84.519  39.886  1.00  0.00    -0.550 OA
ATOM      8  O   UNL     1    -102.522 -86.640  39.152  1.00  0.00    -0.550 OA
ENDBRANCH   5   6
ENDBRANCH   1   5
TORSDOF 3
ENDMDL
MODEL 9
REMARK VINA RESULT:    -3.413      2.151      4.379
REMARK INTER + INTRA:          -4.092
REMARK INTER:                  -4.059
REMARK INTRA:                  -0.033
REMARK UNBOUND:                -0.080
REMARK SMILES O=C([O-])CCC(=O)[O-]
REMARK SMILES IDX 4 1 2 2 1 3 3 4 5 5 6 6 7 7 8 8
REMARK H PARENT
REMARK Flexibility Score: inf
ROOT
ATOM      1  C   UNL     1    -104.858 -85.466  37.557  1.00  0.00     0.059 C 
ENDROOT
BRANCH   1   2
ATOM      2  C   UNL     1    -104.769 -85.469  39.051  1.00  0.00     0.042 C 
ATOM      3  O   UNL     1    -103.923 -86.198  39.634  1.00  0.00    -0.550 OA
ATOM      4  O   UNL     1    -105.588 -84.631  39.796  1.00  0.00    -0.550 OA
ENDBRANCH   1   2
BRANCH   1   5
ATOM      5  C   UNL     1    -105.174 -86.870  37.038  1.00  0.00     0.059 C 
BRANCH   5   6
ATOM      6  C   UNL     1    -105.240 -86.872  35.543  1.00  0.00     0.042 C 
ATOM      7  O   UNL     1    -104.414 -86.198  34.871  1.00  0.00    -0.550 OA
ATOM      8  O   UNL     1    -106.244 -87.578  34.893  1.00  0.00    -0.550 OA
ENDBRANCH   5   6
ENDBRANCH   1   5
TORSDOF 3
ENDMDL
