MODEL 1
REMARK VINA RESULT:    -5.905      0.000      0.000
REMARK INTER + INTRA:          -6.722
REMARK INTER:                  -6.940
REMARK INTRA:                   0.218
REMARK UNBOUND:                 0.218
REMARK SMILES O=C([O-])C=Cc1ccc(O)c(O)c1
REMARK SMILES IDX 6 1 13 2 7 3 11 4 8 5 9 6 5 7 4 8 2 9 1 10 3 11 12 12 10 14
REMARK H PARENT 12 13 10 15
REMARK Flexibility Score: inf
ROOT
ATOM      1  C   UNL     1       2.679  -5.704   9.514  1.00  0.00    -0.022 A 
ATOM      2  C   UNL     1       3.797  -6.135   8.778  1.00  0.00     0.058 A 
ATOM      3  C   UNL     1       1.395  -6.079   9.094  1.00  0.00     0.012 A 
ATOM      4  C   UNL     1       3.634  -6.974   7.667  1.00  0.00     0.157 A 
ATOM      5  C   UNL     1       1.231  -6.915   7.987  1.00  0.00     0.051 A 
ATOM      6  C   UNL     1       2.349  -7.368   7.273  1.00  0.00     0.157 A 
ENDROOT
BRANCH   1   7
ATOM      7  C   UNL     1       2.824  -4.778  10.656  1.00  0.00     0.010 C 
ATOM      8  C   UNL     1       2.515  -3.472  10.640  1.00  0.00     0.025 C 
BRANCH   8   9
ATOM      9  C   UNL     1       2.159  -2.691   9.440  1.00  0.00     0.064 C 
ATOM     10  O   UNL     1       1.471  -1.644   9.569  1.00  0.00    -0.545 OA
ATOM     11  O   UNL     1       2.625  -3.044   8.179  1.00  0.00    -0.545 OA
ENDBRANCH   8   9
ENDBRANCH   1   7
BRANCH   4  12
ATOM     12  O   UNL     1       4.744  -7.414   6.947  1.00  0.00    -0.504 OA
ATOM     13  H   UNL     1       5.049  -8.380   6.980  1.00  0.00     0.293 HD
ENDBRANCH   4  12
BRANCH   6  14
ATOM     14  O   UNL     1       2.191  -8.205   6.170  1.00  0.00    -0.504 OA
ATOM     15  H   UNL     1       2.345  -9.205   6.237  1.00  0.00     0.293 HD
ENDBRANCH   6  14
TORSDOF 4
ENDMDL
MODEL 2
REMARK VINA RESULT:    -5.756      2.346      5.023
REMARK INTER + INTRA:          -6.547
REMARK INTER:                  -6.876
REMARK INTRA:                   0.329
REMARK UNBOUND:                 0.218
REMARK SMILES O=C([O-])C=Cc1ccc(O)c(O)c1
REMARK SMILES IDX 6 1 13 2 7 3 11 4 8 5 9 6 5 7 4 8 2 9 1 10 3 11 12 12 10 14
REMARK H PARENT 12 13 10 15
REMARK Flexibility Score: inf
ROOT
ATOM      1  C   UNL     1       2.939  -6.451   8.479  1.00  0.00    -0.022 A 
ATOM      2  C   UNL     1       1.592  -6.624   8.116  1.00  0.00     0.058 A 
ATOM      3  C   UNL     1       3.245  -5.896   9.730  1.00  0.00     0.012 A 
ATOM      4  C   UNL     1       0.567  -6.296   9.015  1.00  0.00     0.157 A 
ATOM      5  C   UNL     1       2.226  -5.568  10.626  1.00  0.00     0.051 A 
ATOM      6  C   UNL     1       0.885  -5.770  10.274  1.00  0.00     0.157 A 
ENDROOT
BRANCH   1   7
ATOM      7  C   UNL     1       4.031  -6.740   7.529  1.00  0.00     0.010 C 
ATOM      8  C   UNL     1       3.990  -7.664   6.555  1.00  0.00     0.025 C 
BRANCH   8   9
ATOM      9  C   UNL     1       2.931  -8.676   6.381  1.00  0.00     0.064 C 
ATOM     10  O   UNL     1       2.164  -8.599   5.386  1.00  0.00    -0.545 OA
ATOM     11  O   UNL     1       2.806  -9.754   7.250  1.00  0.00    -0.545 OA
ENDBRANCH   8   9
ENDBRANCH   1   7
BRANCH   4  12
ATOM     12  O   UNL     1      -0.769  -6.483   8.661  1.00  0.00    -0.504 OA
ATOM     13  H   UNL     1      -1.327  -5.730   8.277  1.00  0.00     0.293 HD
ENDBRANCH   4  12
BRANCH   6  14
ATOM     14  O   UNL     1      -0.136  -5.449  11.166  1.00  0.00    -0.504 OA
ATOM     15  H   UNL     1      -0.322  -4.489  11.435  1.00  0.00     0.293 HD
ENDBRANCH   6  14
TORSDOF 4
ENDMDL
MODEL 3
REMARK VINA RESULT:    -5.721      2.135      3.330
REMARK INTER + INTRA:          -6.506
REMARK INTER:                  -6.495
REMARK INTRA:                  -0.011
REMARK UNBOUND:                 0.218
REMARK SMILES O=C([O-])C=Cc1ccc(O)c(O)c1
REMARK SMILES IDX 6 1 13 2 7 3 11 4 8 5 9 6 5 7 4 8 2 9 1 10 3 11 12 12 10 14
REMARK H PARENT 12 13 10 15
REMARK Flexibility Score: inf
ROOT
ATOM      1  C   UNL     1       3.313  -7.785   7.581  1.00  0.00    -0.022 A 
ATOM      2  C   UNL     1       2.284  -8.732   7.440  1.00  0.00     0.058 A 
ATOM      3  C   UNL     1       4.207  -7.581   6.520  1.00  0.00     0.012 A 
ATOM      4  C   UNL     1       2.121  -9.428   6.234  1.00  0.00     0.157 A 
ATOM      5  C   UNL     1       4.046  -8.273   5.318  1.00  0.00     0.051 A 
ATOM      6  C   UNL     1       3.001  -9.196   5.170  1.00  0.00     0.157 A 
ENDROOT
BRANCH   1   7
ATOM      7  C   UNL     1       3.535  -7.079   8.860  1.00  0.00     0.010 C 
ATOM      8  C   UNL     1       2.903  -5.962   9.250  1.00  0.00     0.025 C 
BRANCH   8   9
ATOM      9  C   UNL     1       2.021  -5.137   8.402  1.00  0.00     0.064 C 
ATOM     10  O   UNL     1       2.265  -3.909   8.272  1.00  0.00    -0.545 OA
ATOM     11  O   UNL     1       0.969  -5.698   7.688  1.00  0.00    -0.545 OA
ENDBRANCH   8   9
ENDBRANCH   1   7
BRANCH   4  12
ATOM     12  O   UNL     1       1.091 -10.357   6.090  1.00  0.00    -0.504 OA
ATOM     13  H   UNL     1       1.258 -11.282   5.712  1.00  0.00     0.293 HD
ENDBRANCH   4  12
BRANCH   6  14
ATOM     14  O   UNL     1       2.834  -9.886   3.971  1.00  0.00    -0.504 OA
ATOM     15  H   UNL     1       1.915 -10.150   3.636  1.00  0.00     0.293 HD
ENDBRANCH   6  14
TORSDOF 4
ENDMDL
MODEL 4
REMARK VINA RESULT:    -5.581      1.052      2.086
REMARK INTER + INTRA:          -6.342
REMARK INTER:                  -6.396
REMARK INTRA:                   0.054
REMARK UNBOUND:                 0.218
REMARK SMILES O=C([O-])C=Cc1ccc(O)c(O)c1
REMARK SMILES IDX 6 1 13 2 7 3 11 4 8 5 9 6 5 7 4 8 2 9 1 10 3 11 12 12 10 14
REMARK H PARENT 12 13 10 15
REMARK Flexibility Score: inf
ROOT
ATOM      1  C   UNL     1       2.022  -6.339   8.932  1.00  0.00    -0.022 A 
ATOM      2  C   UNL     1       1.576  -7.053   7.806  1.00  0.00     0.058 A 
ATOM      3  C   UNL     1       3.394  -6.293   9.215  1.00  0.00     0.012 A 
ATOM      4  C   UNL     1       2.496  -7.669   6.946  1.00  0.00     0.157 A 
ATOM      5  C   UNL     1       4.312  -6.906   8.359  1.00  0.00     0.051 A 
ATOM      6  C   UNL     1       3.867  -7.592   7.221  1.00  0.00     0.157 A 
ENDROOT
BRANCH   1   7
ATOM      7  C   UNL     1       1.067  -5.728   9.879  1.00  0.00     0.010 C 
ATOM      8  C   UNL     1       1.046  -4.434  10.235  1.00  0.00     0.025 C 
BRANCH   8   9
ATOM      9  C   UNL     1       2.080  -3.436   9.895  1.00  0.00     0.064 C 
ATOM     10  O   UNL     1       2.847  -3.014  10.799  1.00  0.00    -0.545 OA
ATOM     11  O   UNL     1       2.272  -3.007   8.587  1.00  0.00    -0.545 OA
ENDBRANCH   8   9
ENDBRANCH   1   7
BRANCH   4  12
ATOM     12  O   UNL     1       2.054  -8.364   5.821  1.00  0.00    -0.504 OA
ATOM     13  H   UNL     1       2.410  -9.284   5.591  1.00  0.00     0.293 HD
ENDBRANCH   4  12
BRANCH   6  14
ATOM     14  O   UNL     1       4.779  -8.202   6.362  1.00  0.00    -0.504 OA
ATOM     15  H   UNL     1       4.477  -8.835   5.631  1.00  0.00     0.293 HD
ENDBRANCH   6  14
TORSDOF 4
ENDMDL
MODEL 5
REMARK VINA RESULT:    -5.397      2.674      3.735
REMARK INTER + INTRA:          -6.125
REMARK INTER:                  -6.335
REMARK INTRA:                   0.210
REMARK UNBOUND:                 0.218
REMARK SMILES O=C([O-])C=Cc1ccc(O)c(O)c1
REMARK SMILES IDX 6 1 13 2 7 3 11 4 8 5 9 6 5 7 4 8 2 9 1 10 3 11 12 12 10 14
REMARK H PARENT 12 13 10 15
REMARK Flexibility Score: inf
ROOT
ATOM      1  C   UNL     1       3.426  -8.116   6.789  1.00  0.00    -0.022 A 
ATOM      2  C   UNL     1       3.780  -8.222   5.433  1.00  0.00     0.058 A 
ATOM      3  C   UNL     1       2.392  -8.917   7.293  1.00  0.00     0.012 A 
ATOM      4  C   UNL     1       3.141  -9.156   4.604  1.00  0.00     0.157 A 
ATOM      5  C   UNL     1       1.755  -9.849   6.469  1.00  0.00     0.051 A 
ATOM      6  C   UNL     1       2.130  -9.973   5.124  1.00  0.00     0.157 A 
ENDROOT
BRANCH   1   7
ATOM      7  C   UNL     1       4.048  -7.103   7.666  1.00  0.00     0.010 C 
ATOM      8  C   UNL     1       3.386  -6.285   8.499  1.00  0.00     0.025 C 
BRANCH   8   9
ATOM      9  C   UNL     1       1.921  -6.118   8.550  1.00  0.00     0.064 C 
ATOM     10  O   UNL     1       1.321  -6.275   9.645  1.00  0.00    -0.545 OA
ATOM     11  O   UNL     1       1.196  -5.720   7.432  1.00  0.00    -0.545 OA
ENDBRANCH   8   9
ENDBRANCH   1   7
BRANCH   4  12
ATOM     12  O   UNL     1       3.504  -9.272   3.263  1.00  0.00    -0.504 OA
ATOM     13  H   UNL     1       4.433  -9.027   2.941  1.00  0.00     0.293 HD
ENDBRANCH   4  12
BRANCH   6  14
ATOM     14  O   UNL     1       1.501 -10.903   4.299  1.00  0.00    -0.504 OA
ATOM     15  H   UNL     1       0.531 -11.163   4.437  1.00  0.00     0.293 HD
ENDBRANCH   6  14
TORSDOF 4
ENDMDL
MODEL 6
REMARK VINA RESULT:    -5.353      6.242      8.296
REMARK INTER + INTRA:          -6.073
REMARK INTER:                  -5.988
REMARK INTRA:                  -0.085
REMARK UNBOUND:                 0.218
REMARK SMILES O=C([O-])C=Cc1ccc(O)c(O)c1
REMARK SMILES IDX 6 1 13 2 7 3 11 4 8 5 9 6 5 7 4 8 2 9 1 10 3 11 12 12 10 14
REMARK H PARENT 12 13 10 15
REMARK Flexibility Score: inf
ROOT
ATOM      1  C   UNL     1       3.630  -9.372   3.092  1.00  0.00    -0.022 A 
ATOM      2  C   UNL     1       3.163 -10.685   2.906  1.00  0.00     0.058 A 
ATOM      3  C   UNL     1       3.288  -8.683   4.264  1.00  0.00     0.012 A 
ATOM      4  C   UNL     1       2.407 -11.317   3.904  1.00  0.00     0.157 A 
ATOM      5  C   UNL     1       2.536  -9.311   5.259  1.00  0.00     0.051 A 
ATOM      6  C   UNL     1       2.097 -10.630   5.084  1.00  0.00     0.157 A 
ENDROOT
BRANCH   1   7
ATOM      7  C   UNL     1       4.381  -8.669   2.032  1.00  0.00     0.010 C 
ATOM      8  C   UNL     1       5.525  -9.098   1.477  1.00  0.00     0.025 C 
BRANCH   8   9
ATOM      9  C   UNL     1       6.332 -10.239   1.951  1.00  0.00     0.064 C 
ATOM     10  O   UNL     1       6.277 -11.332   1.329  1.00  0.00    -0.545 OA
ATOM     11  O   UNL     1       7.206 -10.114   3.025  1.00  0.00    -0.545 OA
ENDBRANCH   8   9
ENDBRANCH   1   7
BRANCH   4  12
ATOM     12  O   UNL     1       1.958 -12.625   3.726  1.00  0.00    -0.504 OA
ATOM     13  H   UNL     1       1.196 -12.843   3.095  1.00  0.00     0.293 HD
ENDBRANCH   4  12
BRANCH   6  14
ATOM     14  O   UNL     1       1.349 -11.263   6.076  1.00  0.00    -0.504 OA
ATOM     15  H   UNL     1       0.742 -12.046   5.863  1.00  0.00     0.293 HD
ENDBRANCH   6  14
TORSDOF 4
ENDMDL
MODEL 7
REMARK VINA RESULT:    -5.293      2.061      2.382
REMARK INTER + INTRA:          -6.003
REMARK INTER:                  -6.115
REMARK INTRA:                   0.112
REMARK UNBOUND:                 0.218
REMARK SMILES O=C([O-])C=Cc1ccc(O)c(O)c1
REMARK SMILES IDX 6 1 13 2 7 3 11 4 8 5 9 6 5 7 4 8 2 9 1 10 3 11 12 12 10 14
REMARK H PARENT 12 13 10 15
REMARK Flexibility Score: inf
ROOT
ATOM      1  C   UNL     1       2.574  -6.112   8.076  1.00  0.00    -0.022 A 
ATOM      2  C   UNL     1       3.747  -6.629   7.500  1.00  0.00     0.058 A 
ATOM      3  C   UNL     1       1.397  -6.873   8.035  1.00  0.00     0.012 A 
ATOM      4  C   UNL     1       3.754  -7.913   6.935  1.00  0.00     0.157 A 
ATOM      5  C   UNL     1       1.403  -8.152   7.473  1.00  0.00     0.051 A 
ATOM      6  C   UNL     1       2.581  -8.677   6.926  1.00  0.00     0.157 A 
ENDROOT
BRANCH   1   7
ATOM      7  C   UNL     1       2.531  -4.743   8.628  1.00  0.00     0.010 C 
ATOM      8  C   UNL     1       2.051  -4.407   9.836  1.00  0.00     0.025 C 
BRANCH   8   9
ATOM      9  C   UNL     1       1.313  -5.306  10.744  1.00  0.00     0.064 C 
ATOM     10  O   UNL     1       1.956  -6.074  11.506  1.00  0.00    -0.545 OA
ATOM     11  O   UNL     1      -0.074  -5.272  10.830  1.00  0.00    -0.545 OA
ENDBRANCH   8   9
ENDBRANCH   1   7
BRANCH   4  12
ATOM     12  O   UNL     1       4.923  -8.431   6.378  1.00  0.00    -0.504 OA
ATOM     13  H   UNL     1       5.811  -7.952   6.466  1.00  0.00     0.293 HD
ENDBRANCH   4  12
BRANCH   6  14
ATOM     14  O   UNL     1       2.593  -9.954   6.368  1.00  0.00    -0.504 OA
ATOM     15  H   UNL     1       3.413 -10.547   6.418  1.00  0.00     0.293 HD
ENDBRANCH   6  14
TORSDOF 4
ENDMDL
MODEL 8
REMARK VINA RESULT:    -5.156      5.353      8.045
REMARK INTER + INTRA:          -5.842
REMARK INTER:                  -5.686
REMARK INTRA:                  -0.156
REMARK UNBOUND:                 0.218
REMARK SMILES O=C([O-])C=Cc1ccc(O)c(O)c1
REMARK SMILES IDX 6 1 13 2 7 3 11 4 8 5 9 6 5 7 4 8 2 9 1 10 3 11 12 12 10 14
REMARK H PARENT 12 13 10 15
REMARK Flexibility Score: inf
ROOT
ATOM      1  C   UNL     1       3.592  -9.330   3.068  1.00  0.00    -0.022 A 
ATOM      2  C   UNL     1       3.532  -8.657   4.300  1.00  0.00     0.058 A 
ATOM      3  C   UNL     1       2.934 -10.560   2.926  1.00  0.00     0.012 A 
ATOM      4  C   UNL     1       2.779  -9.183   5.360  1.00  0.00     0.157 A 
ATOM      5  C   UNL     1       2.183 -11.085   3.980  1.00  0.00     0.051 A 
ATOM      6  C   UNL     1       2.101 -10.397   5.198  1.00  0.00     0.157 A 
ENDROOT
BRANCH   1   7
ATOM      7  C   UNL     1       4.421  -8.821   1.956  1.00  0.00     0.010 C 
ATOM      8  C   UNL     1       5.582  -9.355   1.546  1.00  0.00     0.025 C 
BRANCH   8   9
ATOM      9  C   UNL     1       6.329 -10.419   2.244  1.00  0.00     0.064 C 
ATOM     10  O   UNL     1       6.061 -11.623   1.994  1.00  0.00    -0.545 OA
ATOM     11  O   UNL     1       7.370 -10.123   3.116  1.00  0.00    -0.545 OA
ENDBRANCH   8   9
ENDBRANCH   1   7
BRANCH   4  12
ATOM     12  O   UNL     1       2.707  -8.506   6.577  1.00  0.00    -0.504 OA
ATOM     13  H   UNL     1       3.054  -8.918   7.435  1.00  0.00     0.293 HD
ENDBRANCH   4  12
BRANCH   6  14
ATOM     14  O   UNL     1       1.350 -10.915   6.252  1.00  0.00    -0.504 OA
ATOM     15  H   UNL     1       1.127 -11.902   6.309  1.00  0.00     0.293 HD
ENDBRANCH   6  14
TORSDOF 4
ENDMDL
MODEL 9
REMARK VINA RESULT:    -4.993      7.627      8.715
REMARK INTER + INTRA:          -5.651
REMARK INTER:                  -5.366
REMARK INTRA:                  -0.285
REMARK UNBOUND:                 0.218
REMARK SMILES O=C([O-])C=Cc1ccc(O)c(O)c1
REMARK SMILES IDX 6 1 13 2 7 3 11 4 8 5 9 6 5 7 4 8 2 9 1 10 3 11 12 12 10 14
REMARK H PARENT 12 13 10 15
REMARK Flexibility Score: inf
ROOT
ATOM      1  C   UNL     1      -5.094  -3.812  11.424  1.00  0.00    -0.022 A 
ATOM      2  C   UNL     1      -5.533  -4.412  10.230  1.00  0.00     0.058 A 
ATOM      3  C   UNL     1      -5.703  -4.169  12.634  1.00  0.00     0.012 A 
ATOM      4  C   UNL     1      -6.534  -5.394  10.256  1.00  0.00     0.157 A 
ATOM      5  C   UNL     1      -6.700  -5.147  12.662  1.00  0.00     0.051 A 
ATOM      6  C   UNL     1      -7.116  -5.764  11.475  1.00  0.00     0.157 A 
ENDROOT
BRANCH   1   7
ATOM      7  C   UNL     1      -4.079  -2.739  11.413  1.00  0.00     0.010 C 
ATOM      8  C   UNL     1      -2.755  -2.920  11.544  1.00  0.00     0.025 C 
BRANCH   8   9
ATOM      9  C   UNL     1      -2.097  -4.189  11.910  1.00  0.00     0.064 C 
ATOM     10  O   UNL     1      -2.004  -4.506  13.125  1.00  0.00    -0.545 OA
ATOM     11  O   UNL     1      -1.643  -5.077  10.942  1.00  0.00    -0.545 OA
ENDBRANCH   8   9
ENDBRANCH   1   7
BRANCH   4  12
ATOM     12  O   UNL     1      -6.957  -6.000   9.074  1.00  0.00    -0.504 OA
ATOM     13  H   UNL     1      -7.016  -5.483   8.204  1.00  0.00     0.293 HD
ENDBRANCH   4  12
BRANCH   6  14
ATOM     14  O   UNL     1      -8.107  -6.743  11.497  1.00  0.00    -0.504 OA
ATOM     15  H   UNL     1      -9.088  -6.506  11.402  1.00  0.00     0.293 HD
ENDBRANCH   6  14
TORSDOF 4
ENDMDL
