MODEL 1
REMARK VINA RESULT:    -5.054      0.000      0.000
REMARK INTER + INTRA:          -5.445
REMARK INTER:                  -5.350
REMARK INTRA:                  -0.095
REMARK UNBOUND:                -0.095
REMARK SMILES C=C(C)[C@@H]1CC=C(C)C(=O)C1
REMARK SMILES IDX 8 1 7 2 6 3 5 4 4 5 11 6 9 7 10 8 2 9 1 10 3 11
REMARK H PARENT
REMARK Flexibility Score: inf
ROOT
ATOM      1  C   UNL     1     -23.439  13.617 -30.511  1.00  0.00     0.048 C 
ATOM      2  C   UNL     1     -24.908  13.297 -30.452  1.00  0.00    -0.012 C 
ATOM      3  C   UNL     1     -25.815  14.222 -30.810  1.00  0.00    -0.019 C 
ATOM      4  C   UNL     1     -27.291  13.922 -30.846  1.00  0.00     0.036 C 
ATOM      5  C   UNL     1     -27.668  12.863 -29.791  1.00  0.00     0.025 C 
ATOM      6  C   UNL     1     -26.811  11.597 -29.972  1.00  0.00     0.089 C 
ATOM      7  C   UNL     1     -25.349  11.949 -30.020  1.00  0.00     0.158 C 
ATOM      8  O   UNL     1     -24.497  11.067 -29.731  1.00  0.00    -0.295 OA
ENDROOT
BRANCH   5   9
ATOM      9  C   UNL     1     -29.155  12.539 -29.834  1.00  0.00    -0.077 C 
ATOM     10  C   UNL     1     -29.678  11.657 -28.967  1.00  0.00     0.008 C 
ATOM     11  C   UNL     1     -30.073  13.188 -30.841  1.00  0.00     0.039 C 
ENDBRANCH   5   9
TORSDOF 1
ENDMDL
MODEL 2
REMARK VINA RESULT:    -4.793      1.327      2.237
REMARK INTER + INTRA:          -5.168
REMARK INTER:                  -5.070
REMARK INTRA:                  -0.098
REMARK UNBOUND:                -0.095
REMARK SMILES C=C(C)[C@@H]1CC=C(C)C(=O)C1
REMARK SMILES IDX 8 1 7 2 6 3 5 4 4 5 11 6 9 7 10 8 2 9 1 10 3 11
REMARK H PARENT
REMARK Flexibility Score: inf
ROOT
ATOM      1  C   UNL     1     -23.461  10.616 -29.744  1.00  0.00     0.048 C 
ATOM      2  C   UNL     1     -24.880  11.111 -29.688  1.00  0.00    -0.012 C 
ATOM      3  C   UNL     1     -25.860  10.304 -29.246  1.00  0.00    -0.019 C 
ATOM      4  C   UNL     1     -27.281  10.780 -29.095  1.00  0.00     0.036 C 
ATOM      5  C   UNL     1     -27.613  11.873 -30.130  1.00  0.00     0.025 C 
ATOM      6  C   UNL     1     -26.598  13.027 -30.036  1.00  0.00     0.089 C 
ATOM      7  C   UNL     1     -25.190  12.502 -30.101  1.00  0.00     0.158 C 
ATOM      8  O   UNL     1     -24.264  13.273 -30.471  1.00  0.00    -0.295 OA
ENDROOT
BRANCH   5   9
ATOM      9  C   UNL     1     -29.042  12.375 -29.971  1.00  0.00    -0.077 C 
ATOM     10  C   UNL     1     -29.797  11.940 -28.949  1.00  0.00     0.008 C 
ATOM     11  C   UNL     1     -29.644  13.358 -30.944  1.00  0.00     0.039 C 
ENDBRANCH   5   9
TORSDOF 1
ENDMDL
MODEL 3
REMARK VINA RESULT:    -4.750      1.630      2.328
REMARK INTER + INTRA:          -5.123
REMARK INTER:                  -5.034
REMARK INTRA:                  -0.089
REMARK UNBOUND:                -0.095
REMARK SMILES C=C(C)[C@@H]1CC=C(C)C(=O)C1
REMARK SMILES IDX 8 1 7 2 6 3 5 4 4 5 11 6 9 7 10 8 2 9 1 10 3 11
REMARK H PARENT
REMARK Flexibility Score: inf
ROOT
ATOM      1  C   UNL     1     -23.540  13.624 -30.498  1.00  0.00     0.048 C 
ATOM      2  C   UNL     1     -24.900  13.038 -30.233  1.00  0.00    -0.012 C 
ATOM      3  C   UNL     1     -25.016  11.769 -29.804  1.00  0.00    -0.019 C 
ATOM      4  C   UNL     1     -26.349  11.164 -29.448  1.00  0.00     0.036 C 
ATOM      5  C   UNL     1     -27.482  11.784 -30.289  1.00  0.00     0.025 C 
ATOM      6  C   UNL     1     -27.480  13.317 -30.146  1.00  0.00     0.089 C 
ATOM      7  C   UNL     1     -26.110  13.873 -30.423  1.00  0.00     0.158 C 
ATOM      8  O   UNL     1     -25.998  15.077 -30.779  1.00  0.00    -0.295 OA
ENDROOT
BRANCH   5   9
ATOM      9  C   UNL     1     -28.836  11.193 -29.920  1.00  0.00    -0.077 C 
ATOM     10  C   UNL     1     -29.252  10.053 -30.496  1.00  0.00     0.008 C 
ATOM     11  C   UNL     1     -29.738  11.862 -28.913  1.00  0.00     0.039 C 
ENDBRANCH   5   9
TORSDOF 1
ENDMDL
MODEL 4
REMARK VINA RESULT:    -4.710     11.130     14.544
REMARK INTER + INTRA:          -5.081
REMARK INTER:                  -4.983
REMARK INTRA:                  -0.098
REMARK UNBOUND:                -0.095
REMARK SMILES C=C(C)[C@@H]1CC=C(C)C(=O)C1
REMARK SMILES IDX 8 1 7 2 6 3 5 4 4 5 11 6 9 7 10 8 2 9 1 10 3 11
REMARK H PARENT
REMARK Flexibility Score: inf
ROOT
ATOM      1  C   UNL     1     -16.076  14.336 -30.495  1.00  0.00     0.048 C 
ATOM      2  C   UNL     1     -14.743  14.075 -31.141  1.00  0.00    -0.012 C 
ATOM      3  C   UNL     1     -13.623  14.598 -30.612  1.00  0.00    -0.019 C 
ATOM      4  C   UNL     1     -12.259  14.298 -31.175  1.00  0.00     0.036 C 
ATOM      5  C   UNL     1     -12.328  14.039 -32.693  1.00  0.00     0.025 C 
ATOM      6  C   UNL     1     -13.344  12.924 -33.001  1.00  0.00     0.089 C 
ATOM      7  C   UNL     1     -14.667  13.217 -32.349  1.00  0.00     0.158 C 
ATOM      8  O   UNL     1     -15.712  12.688 -32.815  1.00  0.00    -0.295 OA
ENDROOT
BRANCH   5   9
ATOM      9  C   UNL     1     -10.955  13.715 -33.266  1.00  0.00    -0.077 C 
ATOM     10  C   UNL     1     -10.670  12.464 -33.661  1.00  0.00     0.008 C 
ATOM     11  C   UNL     1      -9.889  14.773 -33.401  1.00  0.00     0.039 C 
ENDBRANCH   5   9
TORSDOF 1
ENDMDL
MODEL 5
REMARK VINA RESULT:    -4.601      8.132     11.376
REMARK INTER + INTRA:          -4.966
REMARK INTER:                  -4.868
REMARK INTRA:                  -0.097
REMARK UNBOUND:                -0.095
REMARK SMILES C=C(C)[C@@H]1CC=C(C)C(=O)C1
REMARK SMILES IDX 8 1 7 2 6 3 5 4 4 5 11 6 9 7 10 8 2 9 1 10 3 11
REMARK H PARENT
REMARK Flexibility Score: inf
ROOT
ATOM      1  C   UNL     1     -19.298  11.373 -30.200  1.00  0.00     0.048 C 
ATOM      2  C   UNL     1     -18.063  12.156 -30.554  1.00  0.00    -0.012 C 
ATOM      3  C   UNL     1     -17.819  12.491 -31.832  1.00  0.00    -0.019 C 
ATOM      4  C   UNL     1     -16.640  13.343 -32.225  1.00  0.00     0.036 C 
ATOM      5  C   UNL     1     -15.456  13.129 -31.261  1.00  0.00     0.025 C 
ATOM      6  C   UNL     1     -15.896  13.377 -29.807  1.00  0.00     0.089 C 
ATOM      7  C   UNL     1     -17.127  12.576 -29.482  1.00  0.00     0.158 C 
ATOM      8  O   UNL     1     -17.381  12.303 -28.278  1.00  0.00    -0.295 OA
ENDROOT
BRANCH   5   9
ATOM      9  C   UNL     1     -14.267  14.002 -31.639  1.00  0.00    -0.077 C 
ATOM     10  C   UNL     1     -14.117  15.214 -31.079  1.00  0.00     0.008 C 
ATOM     11  C   UNL     1     -13.238  13.540 -32.641  1.00  0.00     0.039 C 
ENDBRANCH   5   9
TORSDOF 1
ENDMDL
MODEL 6
REMARK VINA RESULT:    -4.573      2.302      4.337
REMARK INTER + INTRA:          -4.935
REMARK INTER:                  -4.837
REMARK INTRA:                  -0.099
REMARK UNBOUND:                -0.095
REMARK SMILES C=C(C)[C@@H]1CC=C(C)C(=O)C1
REMARK SMILES IDX 8 1 7 2 6 3 5 4 4 5 11 6 9 7 10 8 2 9 1 10 3 11
REMARK H PARENT
REMARK Flexibility Score: inf
ROOT
ATOM      1  C   UNL     1     -29.768  13.520 -30.865  1.00  0.00     0.048 C 
ATOM      2  C   UNL     1     -28.600  12.812 -30.235  1.00  0.00    -0.012 C 
ATOM      3  C   UNL     1     -27.352  13.040 -30.681  1.00  0.00    -0.019 C 
ATOM      4  C   UNL     1     -26.145  12.418 -30.030  1.00  0.00     0.036 C 
ATOM      5  C   UNL     1     -26.489  11.047 -29.415  1.00  0.00     0.025 C 
ATOM      6  C   UNL     1     -27.674  11.178 -28.442  1.00  0.00     0.089 C 
ATOM      7  C   UNL     1     -28.828  11.882 -29.102  1.00  0.00     0.158 C 
ATOM      8  O   UNL     1     -29.992  11.707 -28.652  1.00  0.00    -0.295 OA
ENDROOT
BRANCH   5   9
ATOM      9  C   UNL     1     -25.278  10.422 -28.737  1.00  0.00    -0.077 C 
ATOM     10  C   UNL     1     -25.398   9.875 -27.516  1.00  0.00     0.008 C 
ATOM     11  C   UNL     1     -23.925  10.401 -29.405  1.00  0.00     0.039 C 
ENDBRANCH   5   9
TORSDOF 1
ENDMDL
MODEL 7
REMARK VINA RESULT:    -4.552      9.088     11.759
REMARK INTER + INTRA:          -4.913
REMARK INTER:                  -4.822
REMARK INTRA:                  -0.091
REMARK UNBOUND:                -0.095
REMARK SMILES C=C(C)[C@@H]1CC=C(C)C(=O)C1
REMARK SMILES IDX 8 1 7 2 6 3 5 4 4 5 11 6 9 7 10 8 2 9 1 10 3 11
REMARK H PARENT
REMARK Flexibility Score: inf
ROOT
ATOM      1  C   UNL     1     -12.111  13.998 -31.661  1.00  0.00     0.048 C 
ATOM      2  C   UNL     1     -13.433  13.398 -31.272  1.00  0.00    -0.012 C 
ATOM      3  C   UNL     1     -13.595  12.064 -31.272  1.00  0.00    -0.019 C 
ATOM      4  C   UNL     1     -14.874  11.414 -30.812  1.00  0.00     0.036 C 
ATOM      5  C   UNL     1     -16.089  12.321 -31.088  1.00  0.00     0.025 C 
ATOM      6  C   UNL     1     -15.878  13.707 -30.452  1.00  0.00     0.089 C 
ATOM      7  C   UNL     1     -14.551  14.284 -30.865  1.00  0.00     0.158 C 
ATOM      8  O   UNL     1     -14.384  15.532 -30.819  1.00  0.00    -0.295 OA
ENDROOT
BRANCH   5   9
ATOM      9  C   UNL     1     -17.383  11.680 -30.606  1.00  0.00    -0.077 C 
ATOM     10  C   UNL     1     -18.559  12.061 -31.132  1.00  0.00     0.008 C 
ATOM     11  C   UNL     1     -17.384  10.614 -29.539  1.00  0.00     0.039 C 
ENDBRANCH   5   9
TORSDOF 1
ENDMDL
MODEL 8
REMARK VINA RESULT:    -4.549      9.741     12.005
REMARK INTER + INTRA:          -4.910
REMARK INTER:                  -4.812
REMARK INTRA:                  -0.098
REMARK UNBOUND:                -0.095
REMARK SMILES C=C(C)[C@@H]1CC=C(C)C(=O)C1
REMARK SMILES IDX 8 1 7 2 6 3 5 4 4 5 11 6 9 7 10 8 2 9 1 10 3 11
REMARK H PARENT
REMARK Flexibility Score: inf
ROOT
ATOM      1  C   UNL     1     -17.638   9.884 -29.513  1.00  0.00     0.048 C 
ATOM      2  C   UNL     1     -16.739  10.999 -29.973  1.00  0.00    -0.012 C 
ATOM      3  C   UNL     1     -15.553  10.719 -30.540  1.00  0.00    -0.019 C 
ATOM      4  C   UNL     1     -14.656  11.797 -31.090  1.00  0.00     0.036 C 
ATOM      5  C   UNL     1     -14.828  13.115 -30.309  1.00  0.00     0.025 C 
ATOM      6  C   UNL     1     -16.308  13.539 -30.292  1.00  0.00     0.089 C 
ATOM      7  C   UNL     1     -17.179  12.407 -29.820  1.00  0.00     0.158 C 
ATOM      8  O   UNL     1     -18.312  12.667 -29.333  1.00  0.00    -0.295 OA
ENDROOT
BRANCH   5   9
ATOM      9  C   UNL     1     -13.940  14.216 -30.872  1.00  0.00    -0.077 C 
ATOM     10  C   UNL     1     -14.370  15.488 -30.882  1.00  0.00     0.008 C 
ATOM     11  C   UNL     1     -12.571  13.914 -31.429  1.00  0.00     0.039 C 
ENDBRANCH   5   9
TORSDOF 1
ENDMDL
MODEL 9
REMARK VINA RESULT:    -4.501      9.732     12.007
REMARK INTER + INTRA:          -4.859
REMARK INTER:                  -4.772
REMARK INTRA:                  -0.087
REMARK UNBOUND:                -0.095
REMARK SMILES C=C(C)[C@@H]1CC=C(C)C(=O)C1
REMARK SMILES IDX 8 1 7 2 6 3 5 4 4 5 11 6 9 7 10 8 2 9 1 10 3 11
REMARK H PARENT
REMARK Flexibility Score: inf
ROOT
ATOM      1  C   UNL     1     -11.587  14.102 -31.721  1.00  0.00     0.048 C 
ATOM      2  C   UNL     1     -13.028  13.785 -31.429  1.00  0.00    -0.012 C 
ATOM      3  C   UNL     1     -13.915  14.780 -31.252  1.00  0.00    -0.019 C 
ATOM      4  C   UNL     1     -15.382  14.514 -31.040  1.00  0.00     0.036 C 
ATOM      5  C   UNL     1     -15.605  13.168 -30.322  1.00  0.00     0.025 C 
ATOM      6  C   UNL     1     -14.911  12.029 -31.093  1.00  0.00     0.089 C 
ATOM      7  C   UNL     1     -13.471  12.372 -31.362  1.00  0.00     0.158 C 
ATOM      8  O   UNL     1     -12.649  11.440 -31.576  1.00  0.00    -0.295 OA
ENDROOT
BRANCH   5   9
ATOM      9  C   UNL     1     -17.087  12.882 -30.122  1.00  0.00    -0.077 C 
ATOM     10  C   UNL     1     -17.688  13.221 -28.971  1.00  0.00     0.008 C 
ATOM     11  C   UNL     1     -17.911  12.215 -31.196  1.00  0.00     0.039 C 
ENDBRANCH   5   9
TORSDOF 1
ENDMDL
