MODEL 1
REMARK VINA RESULT:    -7.604      0.000      0.000
REMARK INTER + INTRA:          -9.221
REMARK INTER:                  -8.938
REMARK INTRA:                  -0.283
REMARK UNBOUND:                -0.283
REMARK SMILES O=c1c(O)c(-c2ccc(O)cc2)oc2cc(O)cc(O)c12
REMARK SMILES IDX 5 1 3 2 2 3 1 4 21 5 19 6 18 7 16 8 15 9 14 10 13 11 6 12
REMARK SMILES IDX 7 13 8 14 9 15 12 16 11 17 10 18 4 20 20 22 17 24
REMARK H PARENT 10 19 4 21 20 23 17 25
REMARK Flexibility Score: inf
ROOT
ATOM      1  C   UNL     1     -13.858 -29.794 -13.213  1.00  0.00     0.180 A 
ATOM      2  C   UNL     1     -12.876 -30.158 -12.275  1.00  0.00     0.208 A 
ATOM      3  C   UNL     1     -12.639 -31.520 -12.030  1.00  0.00     0.238 A 
ATOM      4  O   UNL     1     -11.721 -31.839 -11.230  1.00  0.00    -0.285 OA
ATOM      5  C   UNL     1     -13.399 -32.501 -12.713  1.00  0.00     0.111 A 
ATOM      6  C   UNL     1     -13.271 -33.909 -12.513  1.00  0.00     0.134 A 
ATOM      7  C   UNL     1     -13.981 -34.790 -13.336  1.00  0.00     0.093 A 
ATOM      8  C   UNL     1     -14.862 -34.317 -14.308  1.00  0.00     0.123 A 
ATOM      9  C   UNL     1     -15.039 -32.942 -14.472  1.00  0.00     0.094 A 
ATOM     10  C   UNL     1     -14.317 -32.037 -13.690  1.00  0.00     0.146 A 
ATOM     11  O   UNL     1     -14.507 -30.738 -13.884  1.00  0.00    -0.452 OA
ENDROOT
BRANCH   1  12
ATOM     12  C   UNL     1     -14.181 -28.379 -13.506  1.00  0.00     0.021 A 
ATOM     13  C   UNL     1     -13.666 -27.778 -14.667  1.00  0.00     0.016 A 
ATOM     14  C   UNL     1     -13.977 -26.451 -14.975  1.00  0.00     0.047 A 
ATOM     15  C   UNL     1     -14.818 -25.712 -14.138  1.00  0.00     0.115 A 
ATOM     16  C   UNL     1     -15.043 -27.637 -12.678  1.00  0.00     0.016 A 
ATOM     17  C   UNL     1     -15.353 -26.309 -12.989  1.00  0.00     0.047 A 
BRANCH  15  18
ATOM     18  O   UNL     1     -15.118 -24.390 -14.457  1.00  0.00    -0.508 OA
ATOM     19  H   UNL     1     -15.803 -24.159 -15.167  1.00  0.00     0.293 HD
ENDBRANCH  15  18
ENDBRANCH   1  12
BRANCH   2  20
ATOM     20  O   UNL     1     -12.122 -29.174 -11.629  1.00  0.00    -0.502 OA
ATOM     21  H   UNL     1     -12.213 -28.981 -10.638  1.00  0.00     0.293 HD
ENDBRANCH   2  20
BRANCH   6  22
ATOM     22  O   UNL     1     -12.488 -34.486 -11.509  1.00  0.00    -0.507 OA
ATOM     23  H   UNL     1     -12.851 -34.905 -10.666  1.00  0.00     0.293 HD
ENDBRANCH   6  22
BRANCH   8  24
ATOM     24  O   UNL     1     -15.564 -35.222 -15.100  1.00  0.00    -0.508 OA
ATOM     25  H   UNL     1     -15.467 -36.223 -14.974  1.00  0.00     0.293 HD
ENDBRANCH   8  24
TORSDOF 5
ENDMDL
MODEL 2
REMARK VINA RESULT:    -7.572      1.363      2.822
REMARK INTER + INTRA:          -9.184
REMARK INTER:                  -9.073
REMARK INTRA:                  -0.111
REMARK UNBOUND:                -0.283
REMARK SMILES O=c1c(O)c(-c2ccc(O)cc2)oc2cc(O)cc(O)c12
REMARK SMILES IDX 5 1 3 2 2 3 1 4 21 5 19 6 18 7 16 8 15 9 14 10 13 11 6 12
REMARK SMILES IDX 7 13 8 14 9 15 12 16 11 17 10 18 4 20 20 22 17 24
REMARK H PARENT 10 19 4 21 20 23 17 25
REMARK Flexibility Score: inf
ROOT
ATOM      1  C   UNL     1     -14.341 -30.125 -13.465  1.00  0.00     0.180 A 
ATOM      2  C   UNL     1     -15.418 -31.015 -13.620  1.00  0.00     0.208 A 
ATOM      3  C   UNL     1     -15.197 -32.390 -13.442  1.00  0.00     0.238 A 
ATOM      4  O   UNL     1     -16.176 -33.176 -13.529  1.00  0.00    -0.285 OA
ATOM      5  C   UNL     1     -13.898 -32.860 -13.129  1.00  0.00     0.111 A 
ATOM      6  C   UNL     1     -13.551 -34.235 -12.966  1.00  0.00     0.134 A 
ATOM      7  C   UNL     1     -12.266 -34.576 -12.529  1.00  0.00     0.093 A 
ATOM      8  C   UNL     1     -11.297 -33.598 -12.310  1.00  0.00     0.123 A 
ATOM      9  C   UNL     1     -11.608 -32.255 -12.523  1.00  0.00     0.094 A 
ATOM     10  C   UNL     1     -12.892 -31.880 -12.925  1.00  0.00     0.146 A 
ATOM     11  O   UNL     1     -13.150 -30.591 -13.106  1.00  0.00    -0.452 OA
ENDROOT
BRANCH   1  12
ATOM     12  C   UNL     1     -14.491 -28.665 -13.661  1.00  0.00     0.021 A 
ATOM     13  C   UNL     1     -13.823 -28.037 -14.726  1.00  0.00     0.016 A 
ATOM     14  C   UNL     1     -13.968 -26.664 -14.943  1.00  0.00     0.047 A 
ATOM     15  C   UNL     1     -14.794 -25.904 -14.110  1.00  0.00     0.115 A 
ATOM     16  C   UNL     1     -15.336 -27.898 -12.838  1.00  0.00     0.016 A 
ATOM     17  C   UNL     1     -15.479 -26.524 -13.057  1.00  0.00     0.047 A 
BRANCH  15  18
ATOM     18  O   UNL     1     -14.928 -24.536 -14.337  1.00  0.00    -0.508 OA
ATOM     19  H   UNL     1     -15.749 -24.027 -14.030  1.00  0.00     0.293 HD
ENDBRANCH  15  18
ENDBRANCH   1  12
BRANCH   2  20
ATOM     20  O   UNL     1     -16.696 -30.528 -13.908  1.00  0.00    -0.502 OA
ATOM     21  H   UNL     1     -16.850 -29.713 -14.490  1.00  0.00     0.293 HD
ENDBRANCH   2  20
BRANCH   6  22
ATOM     22  O   UNL     1     -14.417 -35.297 -13.246  1.00  0.00    -0.507 OA
ATOM     23  H   UNL     1     -14.667 -36.022 -12.591  1.00  0.00     0.293 HD
ENDBRANCH   6  22
BRANCH   8  24
ATOM     24  O   UNL     1     -10.023 -33.974 -11.889  1.00  0.00    -0.508 OA
ATOM     25  H   UNL     1      -9.731 -34.944 -11.884  1.00  0.00     0.293 HD
ENDBRANCH   8  24
TORSDOF 5
ENDMDL
MODEL 3
REMARK VINA RESULT:    -7.515      2.547      6.741
REMARK INTER + INTRA:          -9.116
REMARK INTER:                  -8.832
REMARK INTRA:                  -0.285
REMARK UNBOUND:                -0.283
REMARK SMILES O=c1c(O)c(-c2ccc(O)cc2)oc2cc(O)cc(O)c12
REMARK SMILES IDX 5 1 3 2 2 3 1 4 21 5 19 6 18 7 16 8 15 9 14 10 13 11 6 12
REMARK SMILES IDX 7 13 8 14 9 15 12 16 11 17 10 18 4 20 20 22 17 24
REMARK H PARENT 10 19 4 21 20 23 17 25
REMARK Flexibility Score: inf
ROOT
ATOM      1  C   UNL     1     -12.959 -30.333 -10.971  1.00  0.00     0.180 A 
ATOM      2  C   UNL     1     -13.873 -31.214 -11.574  1.00  0.00     0.208 A 
ATOM      3  C   UNL     1     -14.890 -30.690 -12.388  1.00  0.00     0.238 A 
ATOM      4  O   UNL     1     -15.672 -31.488 -12.967  1.00  0.00    -0.285 OA
ATOM      5  C   UNL     1     -14.991 -29.290 -12.575  1.00  0.00     0.111 A 
ATOM      6  C   UNL     1     -16.006 -28.646 -13.345  1.00  0.00     0.134 A 
ATOM      7  C   UNL     1     -15.932 -27.267 -13.570  1.00  0.00     0.093 A 
ATOM      8  C   UNL     1     -14.919 -26.497 -12.998  1.00  0.00     0.123 A 
ATOM      9  C   UNL     1     -13.955 -27.107 -12.195  1.00  0.00     0.094 A 
ATOM     10  C   UNL     1     -13.981 -28.488 -11.982  1.00  0.00     0.146 A 
ATOM     11  O   UNL     1     -13.040 -29.031 -11.219  1.00  0.00    -0.452 OA
ENDROOT
BRANCH   1  12
ATOM     12  C   UNL     1     -11.875 -30.808 -10.081  1.00  0.00     0.021 A 
ATOM     13  C   UNL     1     -12.105 -30.897  -8.698  1.00  0.00     0.016 A 
ATOM     14  C   UNL     1     -11.104 -31.365  -7.842  1.00  0.00     0.047 A 
ATOM     15  C   UNL     1      -9.868 -31.765  -8.357  1.00  0.00     0.115 A 
ATOM     16  C   UNL     1     -10.636 -31.232 -10.596  1.00  0.00     0.016 A 
ATOM     17  C   UNL     1      -9.637 -31.700  -9.737  1.00  0.00     0.047 A 
BRANCH  15  18
ATOM     18  O   UNL     1      -8.879 -32.228  -7.492  1.00  0.00    -0.508 OA
ATOM     19  H   UNL     1      -7.918 -32.332  -7.794  1.00  0.00     0.293 HD
ENDBRANCH  15  18
ENDBRANCH   1  12
BRANCH   2  20
ATOM     20  O   UNL     1     -13.742 -32.594 -11.393  1.00  0.00    -0.502 OA
ATOM     21  H   UNL     1     -13.949 -33.261 -12.127  1.00  0.00     0.293 HD
ENDBRANCH   2  20
BRANCH   6  22
ATOM     22  O   UNL     1     -17.113 -29.308 -13.885  1.00  0.00    -0.507 OA
ATOM     23  H   UNL     1     -17.490 -29.140 -14.806  1.00  0.00     0.293 HD
ENDBRANCH   6  22
BRANCH   8  24
ATOM     24  O   UNL     1     -14.884 -25.124 -13.230  1.00  0.00    -0.508 OA
ATOM     25  H   UNL     1     -14.330 -24.503 -12.652  1.00  0.00     0.293 HD
ENDBRANCH   8  24
TORSDOF 5
ENDMDL
MODEL 4
REMARK VINA RESULT:    -7.489      2.264      6.817
REMARK INTER + INTRA:          -9.085
REMARK INTER:                  -8.830
REMARK INTRA:                  -0.255
REMARK UNBOUND:                -0.283
REMARK SMILES O=c1c(O)c(-c2ccc(O)cc2)oc2cc(O)cc(O)c12
REMARK SMILES IDX 5 1 3 2 2 3 1 4 21 5 19 6 18 7 16 8 15 9 14 10 13 11 6 12
REMARK SMILES IDX 7 13 8 14 9 15 12 16 11 17 10 18 4 20 20 22 17 24
REMARK H PARENT 10 19 4 21 20 23 17 25
REMARK Flexibility Score: inf
ROOT
ATOM      1  C   UNL     1     -13.190 -31.668 -12.103  1.00  0.00     0.180 A 
ATOM      2  C   UNL     1     -14.353 -32.262 -12.623  1.00  0.00     0.208 A 
ATOM      3  C   UNL     1     -15.408 -31.439 -13.049  1.00  0.00     0.238 A 
ATOM      4  O   UNL     1     -16.424 -31.977 -13.563  1.00  0.00    -0.285 OA
ATOM      5  C   UNL     1     -15.294 -30.033 -12.935  1.00  0.00     0.111 A 
ATOM      6  C   UNL     1     -16.316 -29.105 -13.297  1.00  0.00     0.134 A 
ATOM      7  C   UNL     1     -16.046 -27.732 -13.264  1.00  0.00     0.093 A 
ATOM      8  C   UNL     1     -14.815 -27.251 -12.820  1.00  0.00     0.123 A 
ATOM      9  C   UNL     1     -13.829 -28.147 -12.407  1.00  0.00     0.094 A 
ATOM     10  C   UNL     1     -14.056 -29.524 -12.463  1.00  0.00     0.146 A 
ATOM     11  O   UNL     1     -13.088 -30.344 -12.070  1.00  0.00    -0.452 OA
ENDROOT
BRANCH   1  12
ATOM     12  C   UNL     1     -12.047 -32.470 -11.611  1.00  0.00     0.021 A 
ATOM     13  C   UNL     1     -11.912 -32.710 -10.234  1.00  0.00     0.016 A 
ATOM     14  C   UNL     1     -10.854 -33.483  -9.750  1.00  0.00     0.047 A 
ATOM     15  C   UNL     1      -9.926 -34.040 -10.635  1.00  0.00     0.115 A 
ATOM     16  C   UNL     1     -11.122 -33.049 -12.499  1.00  0.00     0.016 A 
ATOM     17  C   UNL     1     -10.064 -33.822 -12.012  1.00  0.00     0.047 A 
BRANCH  15  18
ATOM     18  O   UNL     1      -8.875 -34.807 -10.138  1.00  0.00    -0.508 OA
ATOM     19  H   UNL     1      -8.294 -35.369 -10.750  1.00  0.00     0.293 HD
ENDBRANCH  15  18
ENDBRANCH   1  12
BRANCH   2  20
ATOM     20  O   UNL     1     -14.436 -33.653 -12.748  1.00  0.00    -0.502 OA
ATOM     21  H   UNL     1     -13.692 -34.208 -13.153  1.00  0.00     0.293 HD
ENDBRANCH   2  20
BRANCH   6  22
ATOM     22  O   UNL     1     -17.612 -29.477 -13.668  1.00  0.00    -0.507 OA
ATOM     23  H   UNL     1     -17.851 -29.951 -14.526  1.00  0.00     0.293 HD
ENDBRANCH   6  22
BRANCH   8  24
ATOM     24  O   UNL     1     -14.585 -25.877 -12.786  1.00  0.00    -0.508 OA
ATOM     25  H   UNL     1     -14.796 -25.325 -11.963  1.00  0.00     0.293 HD
ENDBRANCH   8  24
TORSDOF 5
ENDMDL
MODEL 5
REMARK VINA RESULT:    -7.458      1.359      3.112
REMARK INTER + INTRA:          -9.049
REMARK INTER:                  -8.809
REMARK INTRA:                  -0.240
REMARK UNBOUND:                -0.283
REMARK SMILES O=c1c(O)c(-c2ccc(O)cc2)oc2cc(O)cc(O)c12
REMARK SMILES IDX 5 1 3 2 2 3 1 4 21 5 19 6 18 7 16 8 15 9 14 10 13 11 6 12
REMARK SMILES IDX 7 13 8 14 9 15 12 16 11 17 10 18 4 20 20 22 17 24
REMARK H PARENT 10 19 4 21 20 23 17 25
REMARK Flexibility Score: inf
ROOT
ATOM      1  C   UNL     1     -14.105 -30.091 -13.279  1.00  0.00     0.180 A 
ATOM      2  C   UNL     1     -15.101 -31.064 -13.472  1.00  0.00     0.208 A 
ATOM      3  C   UNL     1     -14.809 -32.406 -13.184  1.00  0.00     0.238 A 
ATOM      4  O   UNL     1     -15.722 -33.264 -13.309  1.00  0.00    -0.285 OA
ATOM      5  C   UNL     1     -13.519 -32.762 -12.722  1.00  0.00     0.111 A 
ATOM      6  C   UNL     1     -13.099 -34.097 -12.437  1.00  0.00     0.134 A 
ATOM      7  C   UNL     1     -11.843 -34.319 -11.861  1.00  0.00     0.093 A 
ATOM      8  C   UNL     1     -10.965 -33.262 -11.620  1.00  0.00     0.123 A 
ATOM      9  C   UNL     1     -11.342 -31.960 -11.949  1.00  0.00     0.094 A 
ATOM     10  C   UNL     1     -12.603 -31.702 -12.491  1.00  0.00     0.146 A 
ATOM     11  O   UNL     1     -12.926 -30.448 -12.781  1.00  0.00    -0.452 OA
ENDROOT
BRANCH   1  12
ATOM     12  C   UNL     1     -14.330 -28.660 -13.584  1.00  0.00     0.021 A 
ATOM     13  C   UNL     1     -15.054 -27.865 -12.679  1.00  0.00     0.016 A 
ATOM     14  C   UNL     1     -15.259 -26.507 -12.936  1.00  0.00     0.047 A 
ATOM     15  C   UNL     1     -14.732 -25.921 -14.090  1.00  0.00     0.115 A 
ATOM     16  C   UNL     1     -13.785 -28.061 -14.734  1.00  0.00     0.016 A 
ATOM     17  C   UNL     1     -13.992 -26.701 -14.988  1.00  0.00     0.047 A 
BRANCH  15  18
ATOM     18  O   UNL     1     -14.945 -24.567 -14.334  1.00  0.00    -0.508 OA
ATOM     19  H   UNL     1     -15.879 -24.173 -14.358  1.00  0.00     0.293 HD
ENDBRANCH  15  18
ENDBRANCH   1  12
BRANCH   2  20
ATOM     20  O   UNL     1     -16.375 -30.687 -13.909  1.00  0.00    -0.502 OA
ATOM     21  H   UNL     1     -16.531 -30.218 -14.793  1.00  0.00     0.293 HD
ENDBRANCH   2  20
BRANCH   6  22
ATOM     22  O   UNL     1     -13.863 -35.233 -12.725  1.00  0.00    -0.507 OA
ATOM     23  H   UNL     1     -14.865 -35.237 -12.842  1.00  0.00     0.293 HD
ENDBRANCH   6  22
BRANCH   8  24
ATOM     24  O   UNL     1      -9.717 -33.520 -11.059  1.00  0.00    -0.508 OA
ATOM     25  H   UNL     1      -9.496 -34.418 -10.645  1.00  0.00     0.293 HD
ENDBRANCH   8  24
TORSDOF 5
ENDMDL
MODEL 6
REMARK VINA RESULT:    -7.446      1.658      6.386
REMARK INTER + INTRA:          -9.036
REMARK INTER:                  -8.748
REMARK INTRA:                  -0.288
REMARK UNBOUND:                -0.283
REMARK SMILES O=c1c(O)c(-c2ccc(O)cc2)oc2cc(O)cc(O)c12
REMARK SMILES IDX 5 1 3 2 2 3 1 4 21 5 19 6 18 7 16 8 15 9 14 10 13 11 6 12
REMARK SMILES IDX 7 13 8 14 9 15 12 16 11 17 10 18 4 20 20 22 17 24
REMARK H PARENT 10 19 4 21 20 23 17 25
REMARK Flexibility Score: inf
ROOT
ATOM      1  C   UNL     1     -13.494 -31.860 -13.367  1.00  0.00     0.180 A 
ATOM      2  C   UNL     1     -13.185 -31.880 -11.996  1.00  0.00     0.208 A 
ATOM      3  C   UNL     1     -13.167 -30.671 -11.283  1.00  0.00     0.238 A 
ATOM      4  O   UNL     1     -12.942 -30.703 -10.045  1.00  0.00    -0.285 OA
ATOM      5  C   UNL     1     -13.442 -29.454 -11.953  1.00  0.00     0.111 A 
ATOM      6  C   UNL     1     -13.411 -28.166 -11.338  1.00  0.00     0.134 A 
ATOM      7  C   UNL     1     -13.827 -27.044 -12.065  1.00  0.00     0.093 A 
ATOM      8  C   UNL     1     -14.210 -27.154 -13.402  1.00  0.00     0.123 A 
ATOM      9  C   UNL     1     -14.186 -28.399 -14.030  1.00  0.00     0.094 A 
ATOM     10  C   UNL     1     -13.811 -29.543 -13.321  1.00  0.00     0.146 A 
ATOM     11  O   UNL     1     -13.811 -30.711 -13.952  1.00  0.00    -0.452 OA
ENDROOT
BRANCH   1  12
ATOM     12  C   UNL     1     -13.508 -33.091 -14.190  1.00  0.00     0.021 A 
ATOM     13  C   UNL     1     -12.314 -33.547 -14.773  1.00  0.00     0.016 A 
ATOM     14  C   UNL     1     -12.301 -34.719 -15.535  1.00  0.00     0.047 A 
ATOM     15  C   UNL     1     -13.474 -35.457 -15.712  1.00  0.00     0.115 A 
ATOM     16  C   UNL     1     -14.682 -33.849 -14.355  1.00  0.00     0.016 A 
ATOM     17  C   UNL     1     -14.665 -35.021 -15.117  1.00  0.00     0.047 A 
BRANCH  15  18
ATOM     18  O   UNL     1     -13.446 -36.623 -16.475  1.00  0.00    -0.508 OA
ATOM     19  H   UNL     1     -13.225 -37.521 -16.061  1.00  0.00     0.293 HD
ENDBRANCH  15  18
ENDBRANCH   1  12
BRANCH   2  20
ATOM     20  O   UNL     1     -12.939 -33.096 -11.349  1.00  0.00    -0.502 OA
ATOM     21  H   UNL     1     -12.915 -33.180 -10.340  1.00  0.00     0.293 HD
ENDBRANCH   2  20
BRANCH   6  22
ATOM     22  O   UNL     1     -12.959 -27.933 -10.036  1.00  0.00    -0.507 OA
ATOM     23  H   UNL     1     -13.386 -27.291  -9.386  1.00  0.00     0.293 HD
ENDBRANCH   6  22
BRANCH   8  24
ATOM     24  O   UNL     1     -14.603 -26.014 -14.100  1.00  0.00    -0.508 OA
ATOM     25  H   UNL     1     -14.441 -25.920 -15.096  1.00  0.00     0.293 HD
ENDBRANCH   8  24
TORSDOF 5
ENDMDL
MODEL 7
REMARK VINA RESULT:    -7.274      2.014      3.197
REMARK INTER + INTRA:          -8.833
REMARK INTER:                  -9.013
REMARK INTRA:                   0.180
REMARK UNBOUND:                -0.283
REMARK SMILES O=c1c(O)c(-c2ccc(O)cc2)oc2cc(O)cc(O)c12
REMARK SMILES IDX 5 1 3 2 2 3 1 4 21 5 19 6 18 7 16 8 15 9 14 10 13 11 6 12
REMARK SMILES IDX 7 13 8 14 9 15 12 16 11 17 10 18 4 20 20 22 17 24
REMARK H PARENT 10 19 4 21 20 23 17 25
REMARK Flexibility Score: inf
ROOT
ATOM      1  C   UNL     1     -14.624 -30.998 -13.489  1.00  0.00     0.180 A 
ATOM      2  C   UNL     1     -15.765 -31.818 -13.521  1.00  0.00     0.208 A 
ATOM      3  C   UNL     1     -15.627 -33.165 -13.889  1.00  0.00     0.238 A 
ATOM      4  O   UNL     1     -16.644 -33.906 -13.864  1.00  0.00    -0.285 OA
ATOM      5  C   UNL     1     -14.352 -33.673 -14.238  1.00  0.00     0.111 A 
ATOM      6  C   UNL     1     -14.102 -35.011 -14.666  1.00  0.00     0.134 A 
ATOM      7  C   UNL     1     -12.783 -35.440 -14.859  1.00  0.00     0.093 A 
ATOM      8  C   UNL     1     -11.710 -34.562 -14.704  1.00  0.00     0.123 A 
ATOM      9  C   UNL     1     -11.948 -33.235 -14.343  1.00  0.00     0.094 A 
ATOM     10  C   UNL     1     -13.250 -32.787 -14.108  1.00  0.00     0.146 A 
ATOM     11  O   UNL     1     -13.433 -31.520 -13.757  1.00  0.00    -0.452 OA
ENDROOT
BRANCH   1  12
ATOM     12  C   UNL     1     -14.694 -29.562 -13.134  1.00  0.00     0.021 A 
ATOM     13  C   UNL     1     -13.634 -28.971 -12.427  1.00  0.00     0.016 A 
ATOM     14  C   UNL     1     -13.669 -27.613 -12.102  1.00  0.00     0.047 A 
ATOM     15  C   UNL     1     -14.754 -26.823 -12.492  1.00  0.00     0.115 A 
ATOM     16  C   UNL     1     -15.775 -28.758 -13.542  1.00  0.00     0.016 A 
ATOM     17  C   UNL     1     -15.807 -27.399 -13.216  1.00  0.00     0.047 A 
BRANCH  15  18
ATOM     18  O   UNL     1     -14.777 -25.471 -12.160  1.00  0.00    -0.508 OA
ATOM     19  H   UNL     1     -15.462 -25.095 -11.515  1.00  0.00     0.293 HD
ENDBRANCH  15  18
ENDBRANCH   1  12
BRANCH   2  20
ATOM     20  O   UNL     1     -17.012 -31.301 -13.152  1.00  0.00    -0.502 OA
ATOM     21  H   UNL     1     -17.293 -31.198 -12.184  1.00  0.00     0.293 HD
ENDBRANCH   2  20
BRANCH   6  22
ATOM     22  O   UNL     1     -15.106 -35.944 -14.939  1.00  0.00    -0.507 OA
ATOM     23  H   UNL     1     -14.952 -36.850 -15.355  1.00  0.00     0.293 HD
ENDBRANCH   6  22
BRANCH   8  24
ATOM     24  O   UNL     1     -10.412 -35.017 -14.919  1.00  0.00    -0.508 OA
ATOM     25  H   UNL     1      -9.695 -34.929 -14.208  1.00  0.00     0.293 HD
ENDBRANCH   8  24
TORSDOF 5
ENDMDL
MODEL 8
REMARK VINA RESULT:    -7.270      2.655      6.519
REMARK INTER + INTRA:          -8.828
REMARK INTER:                  -8.529
REMARK INTRA:                  -0.299
REMARK UNBOUND:                -0.283
REMARK SMILES O=c1c(O)c(-c2ccc(O)cc2)oc2cc(O)cc(O)c12
REMARK SMILES IDX 5 1 3 2 2 3 1 4 21 5 19 6 18 7 16 8 15 9 14 10 13 11 6 12
REMARK SMILES IDX 7 13 8 14 9 15 12 16 11 17 10 18 4 20 20 22 17 24
REMARK H PARENT 10 19 4 21 20 23 17 25
REMARK Flexibility Score: inf
ROOT
ATOM      1  C   UNL     1     -12.356 -30.905 -11.765  1.00  0.00     0.180 A 
ATOM      2  C   UNL     1     -11.841 -29.654 -11.383  1.00  0.00     0.208 A 
ATOM      3  C   UNL     1     -12.609 -28.501 -11.615  1.00  0.00     0.238 A 
ATOM      4  O   UNL     1     -12.165 -27.391 -11.223  1.00  0.00    -0.285 OA
ATOM      5  C   UNL     1     -13.873 -28.612 -12.242  1.00  0.00     0.111 A 
ATOM      6  C   UNL     1     -14.718 -27.506 -12.563  1.00  0.00     0.134 A 
ATOM      7  C   UNL     1     -16.004 -27.742 -13.063  1.00  0.00     0.093 A 
ATOM      8  C   UNL     1     -16.452 -29.038 -13.315  1.00  0.00     0.123 A 
ATOM      9  C   UNL     1     -15.613 -30.123 -13.061  1.00  0.00     0.094 A 
ATOM     10  C   UNL     1     -14.337 -29.922 -12.527  1.00  0.00     0.146 A 
ATOM     11  O   UNL     1     -13.573 -30.982 -12.290  1.00  0.00    -0.452 OA
ENDROOT
BRANCH   1  12
ATOM     12  C   UNL     1     -11.596 -32.161 -11.575  1.00  0.00     0.021 A 
ATOM     13  C   UNL     1     -11.823 -32.941 -10.428  1.00  0.00     0.016 A 
ATOM     14  C   UNL     1     -11.134 -34.142 -10.240  1.00  0.00     0.047 A 
ATOM     15  C   UNL     1     -10.221 -34.587 -11.200  1.00  0.00     0.115 A 
ATOM     16  C   UNL     1     -10.691 -32.625 -12.548  1.00  0.00     0.016 A 
ATOM     17  C   UNL     1     -10.003 -33.827 -12.357  1.00  0.00     0.047 A 
BRANCH  15  18
ATOM     18  O   UNL     1      -9.540 -35.786 -10.999  1.00  0.00    -0.508 OA
ATOM     19  H   UNL     1      -8.917 -36.166 -11.702  1.00  0.00     0.293 HD
ENDBRANCH  15  18
ENDBRANCH   1  12
BRANCH   2  20
ATOM     20  O   UNL     1     -10.599 -29.570 -10.746  1.00  0.00    -0.502 OA
ATOM     21  H   UNL     1      -9.846 -30.221 -10.934  1.00  0.00     0.293 HD
ENDBRANCH   2  20
BRANCH   6  22
ATOM     22  O   UNL     1     -14.334 -26.168 -12.436  1.00  0.00    -0.507 OA
ATOM     23  H   UNL     1     -13.442 -25.857 -12.081  1.00  0.00     0.293 HD
ENDBRANCH   6  22
BRANCH   8  24
ATOM     24  O   UNL     1     -17.732 -29.236 -13.827  1.00  0.00    -0.508 OA
ATOM     25  H   UNL     1     -18.338 -28.457 -14.056  1.00  0.00     0.293 HD
ENDBRANCH   8  24
TORSDOF 5
ENDMDL
MODEL 9
REMARK VINA RESULT:    -6.928      2.241      6.929
REMARK INTER + INTRA:          -8.426
REMARK INTER:                  -8.191
REMARK INTRA:                  -0.236
REMARK UNBOUND:                -0.283
REMARK SMILES O=c1c(O)c(-c2ccc(O)cc2)oc2cc(O)cc(O)c12
REMARK SMILES IDX 5 1 3 2 2 3 1 4 21 5 19 6 18 7 16 8 15 9 14 10 13 11 6 12
REMARK SMILES IDX 7 13 8 14 9 15 12 16 11 17 10 18 4 20 20 22 17 24
REMARK H PARENT 10 19 4 21 20 23 17 25
REMARK Flexibility Score: inf
ROOT
ATOM      1  C   UNL     1     -13.280 -31.566 -13.104  1.00  0.00     0.180 A 
ATOM      2  C   UNL     1     -14.331 -30.703 -13.458  1.00  0.00     0.208 A 
ATOM      3  C   UNL     1     -14.383 -29.422 -12.887  1.00  0.00     0.238 A 
ATOM      4  O   UNL     1     -15.297 -28.635 -13.249  1.00  0.00    -0.285 OA
ATOM      5  C   UNL     1     -13.393 -29.025 -11.955  1.00  0.00     0.111 A 
ATOM      6  C   UNL     1     -13.370 -27.766 -11.284  1.00  0.00     0.134 A 
ATOM      7  C   UNL     1     -12.272 -27.430 -10.483  1.00  0.00     0.093 A 
ATOM      8  C   UNL     1     -11.229 -28.332 -10.277  1.00  0.00     0.123 A 
ATOM      9  C   UNL     1     -11.270 -29.589 -10.881  1.00  0.00     0.094 A 
ATOM     10  C   UNL     1     -12.334 -29.939 -11.715  1.00  0.00     0.146 A 
ATOM     11  O   UNL     1     -12.331 -31.141 -12.279  1.00  0.00    -0.452 OA
ENDROOT
BRANCH   1  12
ATOM     12  C   UNL     1     -13.172 -32.940 -13.645  1.00  0.00     0.021 A 
ATOM     13  C   UNL     1     -14.024 -33.945 -13.157  1.00  0.00     0.016 A 
ATOM     14  C   UNL     1     -13.954 -35.243 -13.670  1.00  0.00     0.047 A 
ATOM     15  C   UNL     1     -13.046 -35.551 -14.687  1.00  0.00     0.115 A 
ATOM     16  C   UNL     1     -12.273 -33.251 -14.683  1.00  0.00     0.016 A 
ATOM     17  C   UNL     1     -12.206 -34.550 -15.194  1.00  0.00     0.047 A 
BRANCH  15  18
ATOM     18  O   UNL     1     -12.986 -36.849 -15.188  1.00  0.00    -0.508 OA
ATOM     19  H   UNL     1     -12.261 -37.135 -15.835  1.00  0.00     0.293 HD
ENDBRANCH  15  18
ENDBRANCH   1  12
BRANCH   2  20
ATOM     20  O   UNL     1     -15.287 -31.107 -14.396  1.00  0.00    -0.502 OA
ATOM     21  H   UNL     1     -15.841 -30.446 -14.928  1.00  0.00     0.293 HD
ENDBRANCH   2  20
BRANCH   6  22
ATOM     22  O   UNL     1     -14.405 -26.828 -11.349  1.00  0.00    -0.507 OA
ATOM     23  H   UNL     1     -15.355 -27.000 -11.056  1.00  0.00     0.293 HD
ENDBRANCH   6  22
BRANCH   8  24
ATOM     24  O   UNL     1     -10.159 -27.971  -9.461  1.00  0.00    -0.508 OA
ATOM     25  H   UNL     1      -9.975 -28.447  -8.586  1.00  0.00     0.293 HD
ENDBRANCH   8  24
TORSDOF 5
ENDMDL
