MODEL 1
REMARK VINA RESULT:    -5.621      0.000      0.000
REMARK INTER + INTRA:          -9.156
REMARK INTER:                  -8.579
REMARK INTRA:                  -0.577
REMARK UNBOUND:                -0.577
REMARK SMILES O=C([O-])CCCCCCCCC(=O)[O-]
REMARK SMILES IDX 7 1 6 2 5 3 4 4 2 5 1 6 3 7 8 8 9 9 10 10 11 11 12 12 13 13
REMARK SMILES IDX 14 14
REMARK H PARENT
REMARK Flexibility Score: inf
ROOT
ATOM      1  C   UNL     1     -12.851  -0.686 -10.772  1.00  0.00     0.000 C 
ENDROOT
BRANCH   1   2
ATOM      2  C   UNL     1     -11.383  -0.218 -10.694  1.00  0.00     0.000 C 
BRANCH   2   3
ATOM      3  C   UNL     1     -10.510  -0.967  -9.667  1.00  0.00     0.006 C 
BRANCH   3   4
ATOM      4  C   UNL     1     -10.738  -2.485  -9.629  1.00  0.00     0.053 C 
BRANCH   4   5
ATOM      5  C   UNL     1      -9.796  -3.169  -8.686  1.00  0.00     0.041 C 
ATOM      6  O   UNL     1      -8.583  -3.306  -8.990  1.00  0.00    -0.550 OA
ATOM      7  O   UNL     1     -10.268  -3.686  -7.485  1.00  0.00    -0.550 OA
ENDBRANCH   4   5
ENDBRANCH   3   4
ENDBRANCH   2   3
ENDBRANCH   1   2
BRANCH   1   8
ATOM      8  C   UNL     1     -13.903   0.427 -10.616  1.00  0.00     0.000 C 
BRANCH   8   9
ATOM      9  C   UNL     1     -13.689   1.278  -9.352  1.00  0.00     0.000 C 
BRANCH   9  10
ATOM     10  C   UNL     1     -13.533   2.775  -9.668  1.00  0.00     0.006 C 
BRANCH  10  11
ATOM     11  C   UNL     1     -12.070   3.236  -9.639  1.00  0.00     0.053 C 
BRANCH  11  12
ATOM     12  C   UNL     1     -11.729   3.800  -8.296  1.00  0.00     0.041 C 
ATOM     13  O   UNL     1     -10.539   3.784  -7.886  1.00  0.00    -0.550 OA
ATOM     14  O   UNL     1     -12.717   4.388  -7.516  1.00  0.00    -0.550 OA
ENDBRANCH  11  12
ENDBRANCH  10  11
ENDBRANCH   9  10
ENDBRANCH   8   9
ENDBRANCH   1   8
TORSDOF 9
ENDMDL
MODEL 2
REMARK VINA RESULT:    -5.539      0.474      6.080
REMARK INTER + INTRA:          -9.029
REMARK INTER:                  -8.549
REMARK INTRA:                  -0.480
REMARK UNBOUND:                -0.577
REMARK SMILES O=C([O-])CCCCCCCCC(=O)[O-]
REMARK SMILES IDX 7 1 6 2 5 3 4 4 2 5 1 6 3 7 8 8 9 9 10 10 11 11 12 12 13 13
REMARK SMILES IDX 14 14
REMARK H PARENT
REMARK Flexibility Score: inf
ROOT
ATOM      1  C   UNL     1     -13.973   0.143 -10.851  1.00  0.00     0.000 C 
ENDROOT
BRANCH   1   2
ATOM      2  C   UNL     1     -14.324   0.991  -9.611  1.00  0.00     0.000 C 
BRANCH   2   3
ATOM      3  C   UNL     1     -13.726   2.412  -9.597  1.00  0.00     0.006 C 
BRANCH   3   4
ATOM      4  C   UNL     1     -12.224   2.464  -9.282  1.00  0.00     0.053 C 
BRANCH   4   5
ATOM      5  C   UNL     1     -11.847   3.718  -8.556  1.00  0.00     0.041 C 
ATOM      6  O   UNL     1     -12.688   4.643  -8.409  1.00  0.00    -0.550 OA
ATOM      7  O   UNL     1     -10.555   3.881  -8.072  1.00  0.00    -0.550 OA
ENDBRANCH   4   5
ENDBRANCH   3   4
ENDBRANCH   2   3
ENDBRANCH   1   2
BRANCH   1   8
ATOM      8  C   UNL     1     -12.974  -1.001 -10.600  1.00  0.00     0.000 C 
BRANCH   8   9
ATOM      9  C   UNL     1     -11.516  -0.591 -10.868  1.00  0.00     0.000 C 
BRANCH   9  10
ATOM     10  C   UNL     1     -10.535  -1.208  -9.857  1.00  0.00     0.006 C 
BRANCH  10  11
ATOM     11  C   UNL     1     -10.721  -2.723  -9.701  1.00  0.00     0.053 C 
BRANCH  11  12
ATOM     12  C   UNL     1      -9.769  -3.262  -8.681  1.00  0.00     0.041 C 
ATOM     13  O   UNL     1     -10.193  -3.649  -7.560  1.00  0.00    -0.550 OA
ATOM     14  O   UNL     1      -8.418  -3.383  -8.984  1.00  0.00    -0.550 OA
ENDBRANCH  11  12
ENDBRANCH  10  11
ENDBRANCH   9  10
ENDBRANCH   8   9
ENDBRANCH   1   8
TORSDOF 9
ENDMDL
MODEL 3
REMARK VINA RESULT:    -5.473      1.493      2.205
REMARK INTER + INTRA:          -8.929
REMARK INTER:                  -8.216
REMARK INTRA:                  -0.713
REMARK UNBOUND:                -0.577
REMARK SMILES O=C([O-])CCCCCCCCC(=O)[O-]
REMARK SMILES IDX 7 1 6 2 5 3 4 4 2 5 1 6 3 7 8 8 9 9 10 10 11 11 12 12 13 13
REMARK SMILES IDX 14 14
REMARK H PARENT
REMARK Flexibility Score: inf
ROOT
ATOM      1  C   UNL     1     -14.299   0.469 -10.544  1.00  0.00     0.000 C 
ENDROOT
BRANCH   1   2
ATOM      2  C   UNL     1     -14.134  -1.065 -10.524  1.00  0.00     0.000 C 
BRANCH   2   3
ATOM      3  C   UNL     1     -12.766  -1.583 -11.012  1.00  0.00     0.006 C 
BRANCH   3   4
ATOM      4  C   UNL     1     -11.666  -0.512 -11.066  1.00  0.00     0.053 C 
BRANCH   4   5
ATOM      5  C   UNL     1     -10.745  -0.596  -9.888  1.00  0.00     0.041 C 
ATOM      6  O   UNL     1     -10.591   0.398  -9.131  1.00  0.00    -0.550 OA
ATOM      7  O   UNL     1     -10.030  -1.762  -9.646  1.00  0.00    -0.550 OA
ENDBRANCH   4   5
ENDBRANCH   3   4
ENDBRANCH   2   3
ENDBRANCH   1   2
BRANCH   1   8
ATOM      8  C   UNL     1     -14.953   1.073  -9.288  1.00  0.00     0.000 C 
BRANCH   8   9
ATOM      9  C   UNL     1     -14.198   2.303  -8.755  1.00  0.00     0.000 C 
BRANCH   9  10
ATOM     10  C   UNL     1     -13.006   2.694  -9.644  1.00  0.00     0.006 C 
BRANCH  10  11
ATOM     11  C   UNL     1     -12.451   4.085  -9.311  1.00  0.00     0.053 C 
BRANCH  11  12
ATOM     12  C   UNL     1     -11.694   4.048  -8.020  1.00  0.00     0.041 C 
ATOM     13  O   UNL     1     -10.501   3.646  -7.996  1.00  0.00    -0.550 OA
ATOM     14  O   UNL     1     -12.290   4.503  -6.850  1.00  0.00    -0.550 OA
ENDBRANCH  11  12
ENDBRANCH  10  11
ENDBRANCH   9  10
ENDBRANCH   8   9
ENDBRANCH   1   8
TORSDOF 9
ENDMDL
MODEL 4
REMARK VINA RESULT:    -5.034      1.358      2.007
REMARK INTER + INTRA:          -8.260
REMARK INTER:                  -7.762
REMARK INTRA:                  -0.497
REMARK UNBOUND:                -0.577
REMARK SMILES O=C([O-])CCCCCCCCC(=O)[O-]
REMARK SMILES IDX 7 1 6 2 5 3 4 4 2 5 1 6 3 7 8 8 9 9 10 10 11 11 12 12 13 13
REMARK SMILES IDX 14 14
REMARK H PARENT
REMARK Flexibility Score: inf
ROOT
ATOM      1  C   UNL     1     -11.842  -0.593 -11.099  1.00  0.00     0.000 C 
ENDROOT
BRANCH   1   2
ATOM      2  C   UNL     1     -12.513  -1.958 -10.845  1.00  0.00     0.000 C 
BRANCH   2   3
ATOM      3  C   UNL     1     -11.685  -2.949 -10.002  1.00  0.00     0.006 C 
BRANCH   3   4
ATOM      4  C   UNL     1     -10.204  -2.572  -9.854  1.00  0.00     0.053 C 
BRANCH   4   5
ATOM      5  C   UNL     1      -9.567  -3.251  -8.681  1.00  0.00     0.041 C 
ATOM      6  O   UNL     1     -10.272  -3.637  -7.712  1.00  0.00    -0.550 OA
ATOM      7  O   UNL     1      -8.189  -3.427  -8.643  1.00  0.00    -0.550 OA
ENDBRANCH   4   5
ENDBRANCH   3   4
ENDBRANCH   2   3
ENDBRANCH   1   2
BRANCH   1   8
ATOM      8  C   UNL     1     -12.215   0.516 -10.099  1.00  0.00     0.000 C 
BRANCH   8   9
ATOM      9  C   UNL     1     -11.019   0.986  -9.254  1.00  0.00     0.000 C 
BRANCH   9  10
ATOM     10  C   UNL     1     -11.116   2.472  -8.870  1.00  0.00     0.006 C 
BRANCH  10  11
ATOM     11  C   UNL     1     -12.229   3.207  -9.626  1.00  0.00     0.053 C 
BRANCH  11  12
ATOM     12  C   UNL     1     -13.284   3.676  -8.674  1.00  0.00     0.041 C 
ATOM     13  O   UNL     1     -14.173   2.880  -8.271  1.00  0.00    -0.550 OA
ATOM     14  O   UNL     1     -13.259   4.979  -8.193  1.00  0.00    -0.550 OA
ENDBRANCH  11  12
ENDBRANCH  10  11
ENDBRANCH   9  10
ENDBRANCH   8   9
ENDBRANCH   1   8
TORSDOF 9
ENDMDL
MODEL 5
REMARK VINA RESULT:    -4.866      1.443      5.863
REMARK INTER + INTRA:          -8.003
REMARK INTER:                  -7.355
REMARK INTRA:                  -0.648
REMARK UNBOUND:                -0.577
REMARK SMILES O=C([O-])CCCCCCCCC(=O)[O-]
REMARK SMILES IDX 7 1 6 2 5 3 4 4 2 5 1 6 3 7 8 8 9 9 10 10 11 11 12 12 13 13
REMARK SMILES IDX 14 14
REMARK H PARENT
REMARK Flexibility Score: inf
ROOT
ATOM      1  C   UNL     1     -12.389   1.686 -10.137  1.00  0.00     0.000 C 
ENDROOT
BRANCH   1   2
ATOM      2  C   UNL     1     -11.305   1.645  -9.041  1.00  0.00     0.000 C 
BRANCH   2   3
ATOM      3  C   UNL     1     -10.760   3.021  -8.605  1.00  0.00     0.006 C 
BRANCH   3   4
ATOM      4  C   UNL     1     -11.739   4.185  -8.818  1.00  0.00     0.053 C 
BRANCH   4   5
ATOM      5  C   UNL     1     -12.688   4.336  -7.669  1.00  0.00     0.041 C 
ATOM      6  O   UNL     1     -12.258   4.651  -6.529  1.00  0.00    -0.550 OA
ATOM      7  O   UNL     1     -14.044   4.094  -7.851  1.00  0.00    -0.550 OA
ENDBRANCH   4   5
ENDBRANCH   3   4
ENDBRANCH   2   3
ENDBRANCH   1   2
BRANCH   1   8
ATOM      8  C   UNL     1     -13.761   1.124  -9.723  1.00  0.00     0.000 C 
BRANCH   8   9
ATOM      9  C   UNL     1     -14.023  -0.285 -10.282  1.00  0.00     0.000 C 
BRANCH   9  10
ATOM     10  C   UNL     1     -12.830  -0.832 -11.084  1.00  0.00     0.006 C 
BRANCH  10  11
ATOM     11  C   UNL     1     -12.365  -2.208 -10.588  1.00  0.00     0.053 C 
BRANCH  11  12
ATOM     12  C   UNL     1     -10.996  -2.111  -9.993  1.00  0.00     0.041 C 
ATOM     13  O   UNL     1     -10.645  -2.900  -9.077  1.00  0.00    -0.550 OA
ATOM     14  O   UNL     1     -10.088  -1.179 -10.483  1.00  0.00    -0.550 OA
ENDBRANCH  11  12
ENDBRANCH  10  11
ENDBRANCH   9  10
ENDBRANCH   8   9
ENDBRANCH   1   8
TORSDOF 9
ENDMDL
MODEL 6
REMARK VINA RESULT:    -4.254     15.815     17.739
REMARK INTER + INTRA:          -7.069
REMARK INTER:                  -6.506
REMARK INTRA:                  -0.563
REMARK UNBOUND:                -0.577
REMARK SMILES O=C([O-])CCCCCCCCC(=O)[O-]
REMARK SMILES IDX 7 1 6 2 5 3 4 4 2 5 1 6 3 7 8 8 9 9 10 10 11 11 12 12 13 13
REMARK SMILES IDX 14 14
REMARK H PARENT
REMARK Flexibility Score: inf
ROOT
ATOM      1  C   UNL     1      -9.124   5.806   6.356  1.00  0.00     0.000 C 
ENDROOT
BRANCH   1   2
ATOM      2  C   UNL     1      -9.293   7.206   5.732  1.00  0.00     0.000 C 
BRANCH   2   3
ATOM      3  C   UNL     1      -8.234   8.244   6.154  1.00  0.00     0.006 C 
BRANCH   3   4
ATOM      4  C   UNL     1      -8.025   9.382   5.144  1.00  0.00     0.053 C 
BRANCH   4   5
ATOM      5  C   UNL     1      -7.318  10.552   5.757  1.00  0.00     0.041 C 
ATOM      6  O   UNL     1      -7.427  10.784   6.989  1.00  0.00    -0.550 OA
ATOM      7  O   UNL     1      -6.568  11.407   4.960  1.00  0.00    -0.550 OA
ENDBRANCH   4   5
ENDBRANCH   3   4
ENDBRANCH   2   3
ENDBRANCH   1   2
BRANCH   1   8
ATOM      8  C   UNL     1      -9.871   5.586   7.685  1.00  0.00     0.000 C 
BRANCH   8   9
ATOM      9  C   UNL     1     -10.627   4.247   7.731  1.00  0.00     0.000 C 
BRANCH   9  10
ATOM     10  C   UNL     1     -11.579   4.066   6.536  1.00  0.00     0.006 C 
BRANCH  10  11
ATOM     11  C   UNL     1     -12.827   4.953   6.636  1.00  0.00     0.053 C 
BRANCH  11  12
ATOM     12  C   UNL     1     -12.827   5.977   5.544  1.00  0.00     0.041 C 
ATOM     13  O   UNL     1     -12.822   7.203   5.825  1.00  0.00    -0.550 OA
ATOM     14  O   UNL     1     -12.782   5.576   4.214  1.00  0.00    -0.550 OA
ENDBRANCH  11  12
ENDBRANCH  10  11
ENDBRANCH   9  10
ENDBRANCH   8   9
ENDBRANCH   1   8
TORSDOF 9
ENDMDL
MODEL 7
REMARK VINA RESULT:    -4.148     16.705     18.027
REMARK INTER + INTRA:          -6.907
REMARK INTER:                  -6.587
REMARK INTRA:                  -0.319
REMARK UNBOUND:                -0.577
REMARK SMILES O=C([O-])CCCCCCCCC(=O)[O-]
REMARK SMILES IDX 7 1 6 2 5 3 4 4 2 5 1 6 3 7 8 8 9 9 10 10 11 11 12 12 13 13
REMARK SMILES IDX 14 14
REMARK H PARENT
REMARK Flexibility Score: inf
ROOT
ATOM      1  C   UNL     1      -9.252   6.990   5.742  1.00  0.00     0.000 C 
ENDROOT
BRANCH   1   2
ATOM      2  C   UNL     1      -9.161   5.741   6.643  1.00  0.00     0.000 C 
BRANCH   2   3
ATOM      3  C   UNL     1      -9.904   5.848   7.990  1.00  0.00     0.006 C 
BRANCH   3   4
ATOM      4  C   UNL     1     -10.796   4.642   8.320  1.00  0.00     0.053 C 
BRANCH   4   5
ATOM      5  C   UNL     1     -11.657   4.249   7.159  1.00  0.00     0.041 C 
ATOM      6  O   UNL     1     -11.353   3.253   6.452  1.00  0.00    -0.550 OA
ATOM      7  O   UNL     1     -12.778   5.004   6.837  1.00  0.00    -0.550 OA
ENDBRANCH   4   5
ENDBRANCH   3   4
ENDBRANCH   2   3
ENDBRANCH   1   2
BRANCH   1   8
ATOM      8  C   UNL     1      -8.416   8.195   6.209  1.00  0.00     0.000 C 
BRANCH   8   9
ATOM      9  C   UNL     1      -8.005   9.122   5.052  1.00  0.00     0.000 C 
BRANCH   9  10
ATOM     10  C   UNL     1      -7.795  10.576   5.506  1.00  0.00     0.006 C 
BRANCH  10  11
ATOM     11  C   UNL     1      -6.345  11.045   5.335  1.00  0.00     0.053 C 
BRANCH  11  12
ATOM     12  C   UNL     1      -5.576  10.835   6.601  1.00  0.00     0.041 C 
ATOM     13  O   UNL     1      -6.172  10.825   7.710  1.00  0.00    -0.550 OA
ATOM     14  O   UNL     1      -4.207  10.602   6.554  1.00  0.00    -0.550 OA
ENDBRANCH  11  12
ENDBRANCH  10  11
ENDBRANCH   9  10
ENDBRANCH   8   9
ENDBRANCH   1   8
TORSDOF 9
ENDMDL
MODEL 8
REMARK VINA RESULT:    -4.087     16.368     18.307
REMARK INTER + INTRA:          -6.814
REMARK INTER:                  -6.384
REMARK INTRA:                  -0.430
REMARK UNBOUND:                -0.577
REMARK SMILES O=C([O-])CCCCCCCCC(=O)[O-]
REMARK SMILES IDX 7 1 6 2 5 3 4 4 2 5 1 6 3 7 8 8 9 9 10 10 11 11 12 12 13 13
REMARK SMILES IDX 14 14
REMARK H PARENT
REMARK Flexibility Score: inf
ROOT
ATOM      1  C   UNL     1      -8.418   7.993   6.136  1.00  0.00     0.000 C 
ENDROOT
BRANCH   1   2
ATOM      2  C   UNL     1      -8.028   8.966   5.005  1.00  0.00     0.000 C 
BRANCH   2   3
ATOM      3  C   UNL     1      -7.923  10.447   5.421  1.00  0.00     0.006 C 
BRANCH   3   4
ATOM      4  C   UNL     1      -6.505  11.031   5.327  1.00  0.00     0.053 C 
BRANCH   4   5
ATOM      5  C   UNL     1      -5.720  10.799   6.581  1.00  0.00     0.041 C 
ATOM      6  O   UNL     1      -6.298  10.796   7.700  1.00  0.00    -0.550 OA
ATOM      7  O   UNL     1      -4.344  10.621   6.517  1.00  0.00    -0.550 OA
ENDBRANCH   4   5
ENDBRANCH   3   4
ENDBRANCH   2   3
ENDBRANCH   1   2
BRANCH   1   8
ATOM      8  C   UNL     1      -9.121   6.702   5.678  1.00  0.00     0.000 C 
BRANCH   8   9
ATOM      9  C   UNL     1      -9.484   5.772   6.848  1.00  0.00     0.000 C 
BRANCH   9  10
ATOM     10  C   UNL     1     -10.826   6.144   7.502  1.00  0.00     0.006 C 
BRANCH  10  11
ATOM     11  C   UNL     1     -11.889   6.557   6.476  1.00  0.00     0.053 C 
BRANCH  11  12
ATOM     12  C   UNL     1     -12.792   5.405   6.168  1.00  0.00     0.041 C 
ATOM     13  O   UNL     1     -13.573   5.457   5.182  1.00  0.00    -0.550 OA
ATOM     14  O   UNL     1     -12.737   4.251   6.941  1.00  0.00    -0.550 OA
ENDBRANCH  11  12
ENDBRANCH  10  11
ENDBRANCH   9  10
ENDBRANCH   8   9
ENDBRANCH   1   8
TORSDOF 9
ENDMDL
MODEL 9
REMARK VINA RESULT:    -3.433      0.521      5.984
REMARK INTER + INTRA:          -5.816
REMARK INTER:                  -5.264
REMARK INTRA:                  -0.552
REMARK UNBOUND:                -0.577
REMARK SMILES O=C([O-])CCCCCCCCC(=O)[O-]
REMARK SMILES IDX 7 1 6 2 5 3 4 4 2 5 1 6 3 7 8 8 9 9 10 10 11 11 12 12 13 13
REMARK SMILES IDX 14 14
REMARK H PARENT
REMARK Flexibility Score: inf
ROOT
ATOM      1  C   UNL     1     -13.594  -0.365 -10.113  1.00  0.00     0.000 C 
ENDROOT
BRANCH   1   2
ATOM      2  C   UNL     1     -13.995   1.102 -10.372  1.00  0.00     0.000 C 
BRANCH   2   3
ATOM      3  C   UNL     1     -13.524   2.109  -9.303  1.00  0.00     0.006 C 
BRANCH   3   4
ATOM      4  C   UNL     1     -12.112   2.666  -9.536  1.00  0.00     0.053 C 
BRANCH   4   5
ATOM      5  C   UNL     1     -11.805   3.813  -8.622  1.00  0.00     0.041 C 
ATOM      6  O   UNL     1     -10.627   4.244  -8.518  1.00  0.00    -0.550 OA
ATOM      7  O   UNL     1     -12.816   4.383  -7.858  1.00  0.00    -0.550 OA
ENDBRANCH   4   5
ENDBRANCH   3   4
ENDBRANCH   2   3
ENDBRANCH   1   2
BRANCH   1   8
ATOM      8  C   UNL     1     -12.599  -0.961 -11.125  1.00  0.00     0.000 C 
BRANCH   8   9
ATOM      9  C   UNL     1     -11.158  -0.469 -10.907  1.00  0.00     0.000 C 
BRANCH   9  10
ATOM     10  C   UNL     1     -10.487  -1.128  -9.690  1.00  0.00     0.006 C 
BRANCH  10  11
ATOM     11  C   UNL     1     -10.643  -2.654  -9.684  1.00  0.00     0.053 C 
BRANCH  11  12
ATOM     12  C   UNL     1      -9.737  -3.266  -8.662  1.00  0.00     0.041 C 
ATOM     13  O   UNL     1      -8.506  -3.382  -8.893  1.00  0.00    -0.550 OA
ATOM     14  O   UNL     1     -10.246  -3.664  -7.431  1.00  0.00    -0.550 OA
ENDBRANCH  11  12
ENDBRANCH  10  11
ENDBRANCH   9  10
ENDBRANCH   8   9
ENDBRANCH   1   8
TORSDOF 9
ENDMDL
