MODEL 1
REMARK VINA RESULT:    -3.210      0.000      0.000
REMARK INTER + INTRA:          -5.312
REMARK INTER:                  -4.899
REMARK INTRA:                  -0.413
REMARK UNBOUND:                -0.413
REMARK SMILES CC1=CCC[C@@H](C)C(=O)C[C@@H](C(C)C)C(=O)C1
REMARK SMILES IDX 8 1 9 2 6 3 7 4 5 5 4 6 3 7 2 8 1 9 10 11 11 12 15 13 16 14
REMARK SMILES IDX 17 15 12 17 13 18 14 19
REMARK H PARENT
REMARK Flexibility Score: 70.00
ROOT
ATOM      1  C   UNL     1      84.457  34.269  23.567  1.00  0.00     0.136 C 
ATOM      2  O   UNL     1      84.292  33.336  24.339  1.00  0.00    -0.299 OA
ENDROOT
BRANCH   1   3
ATOM      3  C   UNL     1      85.763  35.040  23.624  1.00  0.00     0.053 C 
ATOM      4  C   UNL     1      86.893  34.249  22.957  1.00  0.00     0.016 C 
BRANCH   3   5
ATOM      5  C   UNL     1      86.132  35.423  25.069  1.00  0.00     0.015 C 
BRANCH   5   6
ATOM      6  C   UNL     1      85.483  36.751  25.499  1.00  0.00     0.028 C 
BRANCH   6   7
ATOM      7  C   UNL     1      84.238  36.500  26.308  1.00  0.00    -0.028 C 
ATOM      8  C   UNL     1      82.986  36.834  25.916  1.00  0.00    -0.070 CG0
ATOM      9  C   UNL     1      81.837  36.456  26.818  1.00  0.00     0.039 C 
ATOM     10  G   UNL     1      82.696  37.579  24.623  1.00  0.00     0.000 G0
ENDBRANCH   6   7
ENDBRANCH   5   6
ENDBRANCH   3   5
ENDBRANCH   1   3
BRANCH   1  11
ATOM     11  C   UNL     1      83.340  34.626  22.613  1.00  0.00     0.087 C 
BRANCH  11  12
ATOM     12  C   UNL     1      83.162  36.163  22.464  1.00  0.00     0.066 C 
BRANCH  12  13
ATOM     13  C   UNL     1      82.198  36.710  23.508  1.00  0.00     0.140 C 
ATOM     14  O   UNL     1      81.001  36.481  23.410  1.00  0.00    -0.299 OA
BRANCH  13  15
ATOM     15  C   UNL     1      82.682  37.604  24.624  1.00  0.00     0.106 CG0
ATOM     16  G   UNL     1      82.974  36.826  25.898  1.00  0.00     0.000 G0
ENDBRANCH  13  15
ENDBRANCH  12  13
BRANCH  12  17
ATOM     17  C   UNL     1      82.725  36.604  21.030  1.00  0.00    -0.006 C 
ATOM     18  C   UNL     1      83.120  35.611  19.921  1.00  0.00     0.008 C 
ATOM     19  C   UNL     1      83.248  38.008  20.687  1.00  0.00     0.008 C 
ENDBRANCH  12  17
ENDBRANCH  11  12
ENDBRANCH   1  11
TORSDOF 1
ENDMDL
MODEL 2
REMARK VINA RESULT:    -3.027      5.052      8.029
REMARK INTER + INTRA:          -5.032
REMARK INTER:                  -4.766
REMARK INTRA:                  -0.266
REMARK UNBOUND:                -0.413
REMARK SMILES CC1=CCC[C@@H](C)C(=O)C[C@@H](C(C)C)C(=O)C1
REMARK SMILES IDX 8 1 9 2 6 3 7 4 5 5 4 6 3 7 2 8 1 9 10 11 11 12 15 13 16 14
REMARK SMILES IDX 17 15 12 17 13 18 14 19
REMARK H PARENT
REMARK Flexibility Score: 70.00
ROOT
ATOM      1  C   UNL     1      83.684  35.952  30.411  1.00  0.00     0.136 C 
ATOM      2  O   UNL     1      82.638  36.017  29.782  1.00  0.00    -0.299 OA
ENDROOT
BRANCH   1   3
ATOM      3  C   UNL     1      84.726  37.037  30.207  1.00  0.00     0.053 C 
ATOM      4  C   UNL     1      84.251  38.368  30.802  1.00  0.00     0.016 C 
BRANCH   3   5
ATOM      5  C   UNL     1      85.096  37.195  28.721  1.00  0.00     0.015 C 
BRANCH   5   6
ATOM      6  C   UNL     1      86.231  36.243  28.304  1.00  0.00     0.028 C 
BRANCH   6   7
ATOM      7  C   UNL     1      85.739  35.232  27.301  1.00  0.00    -0.028 C 
ATOM      8  C   UNL     1      85.707  33.895  27.511  1.00  0.00    -0.070 CG0
ATOM      9  C   UNL     1      85.126  33.022  26.427  1.00  0.00     0.039 C 
ATOM     10  G   UNL     1      86.242  33.244  28.777  1.00  0.00     0.000 G0
ENDBRANCH   6   7
ENDBRANCH   5   6
ENDBRANCH   3   5
ENDBRANCH   1   3
BRANCH   1  11
ATOM     11  C   UNL     1      83.901  34.778  31.339  1.00  0.00     0.087 C 
BRANCH  11  12
ATOM     12  C   UNL     1      85.266  34.077  31.092  1.00  0.00     0.066 C 
BRANCH  12  13
ATOM     13  C   UNL     1      85.204  33.161  29.879  1.00  0.00     0.140 C 
ATOM     14  O   UNL     1      84.336  32.302  29.808  1.00  0.00    -0.299 OA
BRANCH  13  15
ATOM     15  C   UNL     1      86.248  33.237  28.791  1.00  0.00     0.106 CG0
ATOM     16  G   UNL     1      85.714  33.891  27.525  1.00  0.00     0.000 G0
ENDBRANCH  13  15
ENDBRANCH  12  13
BRANCH  12  17
ATOM     17  C   UNL     1      85.802  33.301  32.338  1.00  0.00    -0.006 C 
ATOM     18  C   UNL     1      84.742  33.060  33.431  1.00  0.00     0.008 C 
ATOM     19  C   UNL     1      87.034  33.990  32.947  1.00  0.00     0.008 C 
ENDBRANCH  12  17
ENDBRANCH  11  12
ENDBRANCH   1  11
TORSDOF 1
ENDMDL
MODEL 3
REMARK VINA RESULT:    -2.934      4.724      7.471
REMARK INTER + INTRA:          -4.890
REMARK INTER:                  -4.500
REMARK INTRA:                  -0.390
REMARK UNBOUND:                -0.413
REMARK SMILES CC1=CCC[C@@H](C)C(=O)C[C@@H](C(C)C)C(=O)C1
REMARK SMILES IDX 8 1 9 2 6 3 7 4 5 5 4 6 3 7 2 8 1 9 10 11 11 12 15 13 16 14
REMARK SMILES IDX 17 15 12 17 13 18 14 19
REMARK H PARENT
REMARK Flexibility Score: 70.00
ROOT
ATOM      1  C   UNL     1      84.634  36.999  29.788  1.00  0.00     0.136 C 
ATOM      2  O   UNL     1      83.860  37.878  29.440  1.00  0.00    -0.299 OA
ENDROOT
BRANCH   1   3
ATOM      3  C   UNL     1      85.914  36.799  28.995  1.00  0.00     0.053 C 
ATOM      4  C   UNL     1      86.882  37.966  29.220  1.00  0.00     0.016 C 
BRANCH   3   5
ATOM      5  C   UNL     1      85.626  36.598  27.496  1.00  0.00     0.015 C 
BRANCH   5   6
ATOM      6  C   UNL     1      85.475  35.111  27.131  1.00  0.00     0.028 C 
BRANCH   6   7
ATOM      7  C   UNL     1      84.026  34.754  26.929  1.00  0.00    -0.028 C 
ATOM      8  C   UNL     1      83.327  33.902  27.716  1.00  0.00    -0.070 CG0
ATOM      9  C   UNL     1      81.863  33.699  27.415  1.00  0.00     0.039 C 
ATOM     10  G   UNL     1      83.958  33.138  28.870  1.00  0.00     0.000 G0
ENDBRANCH   6   7
ENDBRANCH   5   6
ENDBRANCH   3   5
ENDBRANCH   1   3
BRANCH   1  11
ATOM     11  C   UNL     1      84.266  36.135  30.972  1.00  0.00     0.087 C 
BRANCH  11  12
ATOM     12  C   UNL     1      84.795  34.681  30.827  1.00  0.00     0.066 C 
BRANCH  12  13
ATOM     13  C   UNL     1      83.744  33.770  30.208  1.00  0.00     0.140 C 
ATOM     14  O   UNL     1      82.724  33.508  30.830  1.00  0.00    -0.299 OA
BRANCH  13  15
ATOM     15  C   UNL     1      83.971  33.116  28.867  1.00  0.00     0.106 CG0
ATOM     16  G   UNL     1      83.334  33.899  27.729  1.00  0.00     0.000 G0
ENDBRANCH  13  15
ENDBRANCH  12  13
BRANCH  12  17
ATOM     17  C   UNL     1      85.325  34.074  32.166  1.00  0.00    -0.006 C 
ATOM     18  C   UNL     1      84.920  34.872  33.420  1.00  0.00     0.008 C 
ATOM     19  C   UNL     1      86.851  33.885  32.136  1.00  0.00     0.008 C 
ENDBRANCH  12  17
ENDBRANCH  11  12
ENDBRANCH   1  11
TORSDOF 1
ENDMDL
MODEL 4
REMARK VINA RESULT:    -2.900      6.132      7.479
REMARK INTER + INTRA:          -4.838
REMARK INTER:                  -4.582
REMARK INTRA:                  -0.256
REMARK UNBOUND:                -0.413
REMARK SMILES CC1=CCC[C@@H](C)C(=O)C[C@@H](C(C)C)C(=O)C1
REMARK SMILES IDX 8 1 9 2 6 3 7 4 5 5 4 6 3 7 2 8 1 9 10 11 11 12 15 13 16 14
REMARK SMILES IDX 17 15 12 17 13 18 14 19
REMARK H PARENT
REMARK Flexibility Score: 70.00
ROOT
ATOM      1  C   UNL     1      86.176  33.812  30.556  1.00  0.00     0.136 C 
ATOM      2  O   UNL     1      86.479  32.736  30.061  1.00  0.00    -0.299 OA
ENDROOT
BRANCH   1   3
ATOM      3  C   UNL     1      85.869  33.870  32.041  1.00  0.00     0.053 C 
ATOM      4  C   UNL     1      87.157  33.777  32.868  1.00  0.00     0.016 C 
BRANCH   3   5
ATOM      5  C   UNL     1      84.864  32.780  32.456  1.00  0.00     0.015 C 
BRANCH   5   6
ATOM      6  C   UNL     1      83.434  33.334  32.592  1.00  0.00     0.028 C 
BRANCH   6   7
ATOM      7  C   UNL     1      82.551  32.808  31.490  1.00  0.00    -0.028 C 
ATOM      8  C   UNL     1      82.107  33.544  30.445  1.00  0.00    -0.070 CG0
ATOM      9  C   UNL     1      81.279  32.852  29.391  1.00  0.00     0.039 C 
ATOM     10  G   UNL     1      82.394  35.031  30.299  1.00  0.00     0.000 G0
ENDBRANCH   6   7
ENDBRANCH   5   6
ENDBRANCH   3   5
ENDBRANCH   1   3
BRANCH   1  11
ATOM     11  C   UNL     1      86.093  35.026  29.658  1.00  0.00     0.087 C 
BRANCH  11  12
ATOM     12  C   UNL     1      84.868  35.922  29.992  1.00  0.00     0.066 C 
BRANCH  12  13
ATOM     13  C   UNL     1      83.584  35.339  29.420  1.00  0.00     0.140 C 
ATOM     14  O   UNL     1      83.482  35.162  28.214  1.00  0.00    -0.299 OA
BRANCH  13  15
ATOM     15  C   UNL     1      82.397  35.048  30.305  1.00  0.00     0.106 CG0
ATOM     16  G   UNL     1      82.137  33.556  30.447  1.00  0.00     0.000 G0
ENDBRANCH  13  15
ENDBRANCH  12  13
BRANCH  12  17
ATOM     17  C   UNL     1      85.043  37.408  29.543  1.00  0.00    -0.006 C 
ATOM     18  C   UNL     1      86.503  37.810  29.256  1.00  0.00     0.008 C 
ATOM     19  C   UNL     1      84.422  38.383  30.557  1.00  0.00     0.008 C 
ENDBRANCH  12  17
ENDBRANCH  11  12
ENDBRANCH   1  11
TORSDOF 1
ENDMDL
MODEL 5
REMARK VINA RESULT:    -2.890      3.809      6.333
REMARK INTER + INTRA:          -4.823
REMARK INTER:                  -4.504
REMARK INTRA:                  -0.319
REMARK UNBOUND:                -0.413
REMARK SMILES CC1=CCC[C@@H](C)C(=O)C[C@@H](C(C)C)C(=O)C1
REMARK SMILES IDX 8 1 9 2 6 3 7 4 5 5 4 6 3 7 2 8 1 9 10 11 11 12 15 13 16 14
REMARK SMILES IDX 17 15 12 17 13 18 14 19
REMARK H PARENT
REMARK Flexibility Score: 70.00
ROOT
ATOM      1  C   UNL     1      86.108  36.317  27.619  1.00  0.00     0.136 C 
ATOM      2  O   UNL     1      86.887  36.978  26.948  1.00  0.00    -0.299 OA
ENDROOT
BRANCH   1   3
ATOM      3  C   UNL     1      85.177  35.349  26.911  1.00  0.00     0.053 C 
ATOM      4  C   UNL     1      85.971  34.363  26.046  1.00  0.00     0.016 C 
BRANCH   3   5
ATOM      5  C   UNL     1      84.116  36.090  26.077  1.00  0.00     0.015 C 
BRANCH   5   6
ATOM      6  C   UNL     1      82.750  36.131  26.785  1.00  0.00     0.028 C 
BRANCH   6   7
ATOM      7  C   UNL     1      82.364  37.549  27.120  1.00  0.00    -0.028 C 
ATOM      8  C   UNL     1      82.241  38.035  28.377  1.00  0.00    -0.070 CG0
ATOM      9  C   UNL     1      81.908  39.496  28.542  1.00  0.00     0.039 C 
ATOM     10  G   UNL     1      82.410  37.170  29.618  1.00  0.00     0.000 G0
ENDBRANCH   6   7
ENDBRANCH   5   6
ENDBRANCH   3   5
ENDBRANCH   1   3
BRANCH   1  11
ATOM     11  C   UNL     1      86.089  36.519  29.117  1.00  0.00     0.087 C 
BRANCH  11  12
ATOM     12  C   UNL     1      84.779  35.993  29.765  1.00  0.00     0.066 C 
BRANCH  12  13
ATOM     13  C   UNL     1      83.847  37.139  30.134  1.00  0.00     0.140 C 
ATOM     14  O   UNL     1      84.234  38.017  30.892  1.00  0.00    -0.299 OA
BRANCH  13  15
ATOM     15  C   UNL     1      82.420  37.172  29.645  1.00  0.00     0.106 CG0
ATOM     16  G   UNL     1      82.256  38.037  28.404  1.00  0.00     0.000 G0
ENDBRANCH  13  15
ENDBRANCH  12  13
BRANCH  12  17
ATOM     17  C   UNL     1      85.022  35.066  30.999  1.00  0.00    -0.006 C 
ATOM     18  C   UNL     1      86.035  33.934  30.743  1.00  0.00     0.008 C 
ATOM     19  C   UNL     1      83.705  34.479  31.534  1.00  0.00     0.008 C 
ENDBRANCH  12  17
ENDBRANCH  11  12
ENDBRANCH   1  11
TORSDOF 1
ENDMDL
MODEL 6
REMARK VINA RESULT:    -2.676      3.698      6.063
REMARK INTER + INTRA:          -4.497
REMARK INTER:                  -4.101
REMARK INTRA:                  -0.396
REMARK UNBOUND:                -0.413
REMARK SMILES CC1=CCC[C@@H](C)C(=O)C[C@@H](C(C)C)C(=O)C1
REMARK SMILES IDX 8 1 9 2 6 3 7 4 5 5 4 6 3 7 2 8 1 9 10 11 11 12 15 13 16 14
REMARK SMILES IDX 17 15 12 17 13 18 14 19
REMARK H PARENT
REMARK Flexibility Score: 70.00
ROOT
ATOM      1  C   UNL     1      85.123  35.030  25.190  1.00  0.00     0.136 C 
ATOM      2  O   UNL     1      84.288  35.349  24.357  1.00  0.00    -0.299 OA
ENDROOT
BRANCH   1   3
ATOM      3  C   UNL     1      86.506  34.622  24.716  1.00  0.00     0.053 C 
ATOM      4  C   UNL     1      87.071  35.652  23.730  1.00  0.00     0.016 C 
BRANCH   3   5
ATOM      5  C   UNL     1      86.501  33.210  24.101  1.00  0.00     0.015 C 
BRANCH   5   6
ATOM      6  C   UNL     1      85.852  32.175  25.037  1.00  0.00     0.028 C 
BRANCH   6   7
ATOM      7  C   UNL     1      86.853  31.657  26.037  1.00  0.00    -0.028 C 
ATOM      8  C   UNL     1      86.719  31.756  27.380  1.00  0.00    -0.070 CG0
ATOM      9  C   UNL     1      87.783  31.129  28.246  1.00  0.00     0.039 C 
ATOM     10  G   UNL     1      85.557  32.479  28.043  1.00  0.00     0.000 G0
ENDBRANCH   6   7
ENDBRANCH   5   6
ENDBRANCH   3   5
ENDBRANCH   1   3
BRANCH   1  11
ATOM     11  C   UNL     1      84.728  35.029  26.650  1.00  0.00     0.087 C 
BRANCH  11  12
ATOM     12  C   UNL     1      85.963  35.043  27.593  1.00  0.00     0.066 C 
BRANCH  12  13
ATOM     13  C   UNL     1      85.943  33.856  28.545  1.00  0.00     0.140 C 
ATOM     14  O   UNL     1      86.300  34.001  29.706  1.00  0.00    -0.299 OA
BRANCH  13  15
ATOM     15  C   UNL     1      85.565  32.476  28.064  1.00  0.00     0.106 CG0
ATOM     16  G   UNL     1      86.723  31.770  27.374  1.00  0.00     0.000 G0
ENDBRANCH  13  15
ENDBRANCH  12  13
BRANCH  12  17
ATOM     17  C   UNL     1      86.126  36.379  28.386  1.00  0.00    -0.006 C 
ATOM     18  C   UNL     1      84.794  37.080  28.715  1.00  0.00     0.008 C 
ATOM     19  C   UNL     1      87.067  37.356  27.662  1.00  0.00     0.008 C 
ENDBRANCH  12  17
ENDBRANCH  11  12
ENDBRANCH   1  11
TORSDOF 1
ENDMDL
MODEL 7
REMARK VINA RESULT:    -2.664      2.239      3.356
REMARK INTER + INTRA:          -4.478
REMARK INTER:                  -4.245
REMARK INTRA:                  -0.233
REMARK UNBOUND:                -0.413
REMARK SMILES CC1=CCC[C@@H](C)C(=O)C[C@@H](C(C)C)C(=O)C1
REMARK SMILES IDX 8 1 9 2 6 3 7 4 5 5 4 6 3 7 2 8 1 9 10 11 11 12 15 13 16 14
REMARK SMILES IDX 17 15 12 17 13 18 14 19
REMARK H PARENT
REMARK Flexibility Score: 70.00
ROOT
ATOM      1  C   UNL     1      85.718  36.064  25.684  1.00  0.00     0.136 C 
ATOM      2  O   UNL     1      86.043  34.902  25.875  1.00  0.00    -0.299 OA
ENDROOT
BRANCH   1   3
ATOM      3  C   UNL     1      86.406  37.155  26.485  1.00  0.00     0.053 C 
ATOM      4  C   UNL     1      87.756  37.522  25.858  1.00  0.00     0.016 C 
BRANCH   3   5
ATOM      5  C   UNL     1      86.572  36.753  27.962  1.00  0.00     0.015 C 
BRANCH   5   6
ATOM      6  C   UNL     1      85.338  37.125  28.804  1.00  0.00     0.028 C 
BRANCH   6   7
ATOM      7  C   UNL     1      84.571  35.891  29.201  1.00  0.00    -0.028 C 
ATOM      8  C   UNL     1      83.345  35.563  28.729  1.00  0.00    -0.070 CG0
ATOM      9  C   UNL     1      82.738  34.258  29.180  1.00  0.00     0.039 C 
ATOM     10  G   UNL     1      82.558  36.457  27.783  1.00  0.00     0.000 G0
ENDBRANCH   6   7
ENDBRANCH   5   6
ENDBRANCH   3   5
ENDBRANCH   1   3
BRANCH   1  11
ATOM     11  C   UNL     1      84.626  36.357  24.680  1.00  0.00     0.087 C 
BRANCH  11  12
ATOM     12  C   UNL     1      83.384  37.019  25.338  1.00  0.00     0.066 C 
BRANCH  12  13
ATOM     13  C   UNL     1      82.719  36.079  26.333  1.00  0.00     0.140 C 
ATOM     14  O   UNL     1      82.251  35.017  25.948  1.00  0.00    -0.299 OA
BRANCH  13  15
ATOM     15  C   UNL     1      82.553  36.468  27.782  1.00  0.00     0.106 CG0
ATOM     16  G   UNL     1      83.346  35.566  28.715  1.00  0.00     0.000 G0
ENDBRANCH  13  15
ENDBRANCH  12  13
BRANCH  12  17
ATOM     17  C   UNL     1      82.339  37.549  24.304  1.00  0.00    -0.006 C 
ATOM     18  C   UNL     1      82.868  37.622  22.858  1.00  0.00     0.008 C 
ATOM     19  C   UNL     1      81.771  38.915  24.723  1.00  0.00     0.008 C 
ENDBRANCH  12  17
ENDBRANCH  11  12
ENDBRANCH   1  11
TORSDOF 1
ENDMDL
MODEL 8
REMARK VINA RESULT:    -2.633      3.868      5.023
REMARK INTER + INTRA:          -4.431
REMARK INTER:                  -4.263
REMARK INTRA:                  -0.169
REMARK UNBOUND:                -0.413
REMARK SMILES CC1=CCC[C@@H](C)C(=O)C[C@@H](C(C)C)C(=O)C1
REMARK SMILES IDX 8 1 9 2 6 3 7 4 5 5 4 6 3 7 2 8 1 9 10 11 11 12 15 13 16 14
REMARK SMILES IDX 17 15 12 17 13 18 14 19
REMARK H PARENT
REMARK Flexibility Score: 70.00
ROOT
ATOM      1  C   UNL     1      85.425  33.288  25.587  1.00  0.00     0.136 C 
ATOM      2  O   UNL     1      85.007  32.748  24.573  1.00  0.00    -0.299 OA
ENDROOT
BRANCH   1   3
ATOM      3  C   UNL     1      86.585  32.648  26.328  1.00  0.00     0.053 C 
ATOM      4  C   UNL     1      87.342  31.673  25.419  1.00  0.00     0.016 C 
BRANCH   3   5
ATOM      5  C   UNL     1      86.118  31.954  27.620  1.00  0.00     0.015 C 
BRANCH   5   6
ATOM      6  C   UNL     1      86.584  32.704  28.881  1.00  0.00     0.028 C 
BRANCH   6   7
ATOM      7  C   UNL     1      85.408  33.081  29.744  1.00  0.00    -0.028 C 
ATOM      8  C   UNL     1      84.997  34.350  29.971  1.00  0.00    -0.070 CG0
ATOM      9  C   UNL     1      83.762  34.556  30.811  1.00  0.00     0.039 C 
ATOM     10  G   UNL     1      85.734  35.567  29.430  1.00  0.00     0.000 G0
ENDBRANCH   6   7
ENDBRANCH   5   6
ENDBRANCH   3   5
ENDBRANCH   1   3
BRANCH   1  11
ATOM     11  C   UNL     1      84.747  34.551  26.068  1.00  0.00     0.087 C 
BRANCH  11  12
ATOM     12  C   UNL     1      85.733  35.509  26.791  1.00  0.00     0.066 C 
BRANCH  12  13
ATOM     13  C   UNL     1      85.152  36.011  28.105  1.00  0.00     0.140 C 
ATOM     14  O   UNL     1      84.250  36.838  28.095  1.00  0.00    -0.299 OA
BRANCH  13  15
ATOM     15  C   UNL     1      85.722  35.568  29.430  1.00  0.00     0.106 CG0
ATOM     16  G   UNL     1      85.011  34.342  29.982  1.00  0.00     0.000 G0
ENDBRANCH  13  15
ENDBRANCH  12  13
BRANCH  12  17
ATOM     17  C   UNL     1      86.199  36.709  25.905  1.00  0.00    -0.006 C 
ATOM     18  C   UNL     1      86.622  36.309  24.478  1.00  0.00     0.008 C 
ATOM     19  C   UNL     1      87.326  37.507  26.580  1.00  0.00     0.008 C 
ENDBRANCH  12  17
ENDBRANCH  11  12
ENDBRANCH   1  11
TORSDOF 1
ENDMDL
MODEL 9
REMARK VINA RESULT:    -2.613      6.001      8.260
REMARK INTER + INTRA:          -4.400
REMARK INTER:                  -4.207
REMARK INTRA:                  -0.193
REMARK UNBOUND:                -0.413
REMARK SMILES CC1=CCC[C@@H](C)C(=O)C[C@@H](C(C)C)C(=O)C1
REMARK SMILES IDX 8 1 9 2 6 3 7 4 5 5 4 6 3 7 2 8 1 9 10 11 11 12 15 13 16 14
REMARK SMILES IDX 17 15 12 17 13 18 14 19
REMARK H PARENT
REMARK Flexibility Score: 70.00
ROOT
ATOM      1  C   UNL     1      79.924  43.225  24.229  1.00  0.00     0.136 C 
ATOM      2  O   UNL     1      79.675  43.993  23.311  1.00  0.00    -0.299 OA
ENDROOT
BRANCH   1   3
ATOM      3  C   UNL     1      81.139  42.321  24.114  1.00  0.00     0.053 C 
ATOM      4  C   UNL     1      81.987  42.701  22.894  1.00  0.00     0.016 C 
BRANCH   3   5
ATOM      5  C   UNL     1      80.737  40.835  24.068  1.00  0.00     0.015 C 
BRANCH   5   6
ATOM      6  C   UNL     1      81.434  40.015  25.169  1.00  0.00     0.028 C 
BRANCH   6   7
ATOM      7  C   UNL     1      80.437  39.170  25.918  1.00  0.00    -0.028 C 
ATOM      8  C   UNL     1      79.875  39.511  27.101  1.00  0.00    -0.070 CG0
ATOM      9  C   UNL     1      78.845  38.581  27.691  1.00  0.00     0.039 C 
ATOM     10  G   UNL     1      80.248  40.776  27.859  1.00  0.00     0.000 G0
ENDBRANCH   6   7
ENDBRANCH   5   6
ENDBRANCH   3   5
ENDBRANCH   1   3
BRANCH   1  11
ATOM     11  C   UNL     1      78.994  43.192  25.420  1.00  0.00     0.087 C 
BRANCH  11  12
ATOM     12  C   UNL     1      79.766  43.122  26.767  1.00  0.00     0.066 C 
BRANCH  12  13
ATOM     13  C   UNL     1      79.320  41.927  27.597  1.00  0.00     0.140 C 
ATOM     14  O   UNL     1      78.209  41.920  28.107  1.00  0.00    -0.299 OA
BRANCH  13  15
ATOM     15  C   UNL     1      80.257  40.775  27.872  1.00  0.00     0.106 CG0
ATOM     16  G   UNL     1      79.865  39.519  27.108  1.00  0.00     0.000 G0
ENDBRANCH  13  15
ENDBRANCH  12  13
BRANCH  12  17
ATOM     17  C   UNL     1      79.674  44.436  27.607  1.00  0.00    -0.006 C 
ATOM     18  C   UNL     1      79.076  45.631  26.840  1.00  0.00     0.008 C 
ATOM     19  C   UNL     1      81.038  44.825  28.200  1.00  0.00     0.008 C 
ENDBRANCH  12  17
ENDBRANCH  11  12
ENDBRANCH   1  11
TORSDOF 1
ENDMDL
