MODEL 1
REMARK VINA RESULT:    -3.952      0.000      0.000
REMARK INTER + INTRA:          -9.432
REMARK INTER:                  -7.418
REMARK INTRA:                  -2.014
REMARK UNBOUND:                -2.014
REMARK SMILES O=C([O-])CCCCCCCCCCCCCCC(=O)[O-]
REMARK SMILES IDX 10 1 9 2 8 3 7 4 6 5 5 6 4 7 2 8 1 9 3 10 11 11 12 12 13 13
REMARK SMILES IDX 14 14 15 15 16 16 17 17 18 18 19 19 20 20
REMARK H PARENT
REMARK Flexibility Score: inf
ROOT
ATOM      1  C   UNL     1      49.335  -2.136  75.203  1.00  0.00     0.000 C 
ENDROOT
BRANCH   1   2
ATOM      2  C   UNL     1      48.824  -3.558  74.911  1.00  0.00     0.000 C 
BRANCH   2   3
ATOM      3  C   UNL     1      47.655  -3.572  73.913  1.00  0.00     0.000 C 
BRANCH   3   4
ATOM      4  C   UNL     1      47.977  -4.360  72.633  1.00  0.00     0.000 C 
BRANCH   4   5
ATOM      5  C   UNL     1      48.173  -5.851  72.943  1.00  0.00     0.000 C 
BRANCH   5   6
ATOM      6  C   UNL     1      46.943  -6.698  72.579  1.00  0.00     0.006 C 
BRANCH   6   7
ATOM      7  C   UNL     1      47.227  -7.702  71.455  1.00  0.00     0.053 C 
BRANCH   7   8
ATOM      8  C   UNL     1      46.155  -8.743  71.402  1.00  0.00     0.041 C 
ATOM      9  O   UNL     1      45.349  -8.871  72.361  1.00  0.00    -0.550 OA
ATOM     10  O   UNL     1      46.012  -9.539  70.273  1.00  0.00    -0.550 OA
ENDBRANCH   7   8
ENDBRANCH   6   7
ENDBRANCH   5   6
ENDBRANCH   4   5
ENDBRANCH   3   4
ENDBRANCH   2   3
ENDBRANCH   1   2
BRANCH   1  11
ATOM     11  C   UNL     1      48.266  -1.054  74.965  1.00  0.00     0.000 C 
BRANCH  11  12
ATOM     12  C   UNL     1      48.671   0.061  73.983  1.00  0.00     0.000 C 
BRANCH  12  13
ATOM     13  C   UNL     1      48.178  -0.193  72.551  1.00  0.00     0.000 C 
BRANCH  13  14
ATOM     14  C   UNL     1      49.286  -0.814  71.690  1.00  0.00     0.000 C 
BRANCH  14  15
ATOM     15  C   UNL     1      50.649  -0.183  72.006  1.00  0.00     0.000 C 
BRANCH  15  16
ATOM     16  C   UNL     1      51.744  -1.224  72.297  1.00  0.00     0.006 C 
BRANCH  16  17
ATOM     17  C   UNL     1      51.255  -2.681  72.236  1.00  0.00     0.053 C 
BRANCH  17  18
ATOM     18  C   UNL     1      52.145  -3.620  72.992  1.00  0.00     0.041 C 
ATOM     19  O   UNL     1      51.731  -4.767  73.309  1.00  0.00    -0.550 OA
ATOM     20  O   UNL     1      53.442  -3.245  73.317  1.00  0.00    -0.550 OA
ENDBRANCH  17  18
ENDBRANCH  16  17
ENDBRANCH  15  16
ENDBRANCH  14  15
ENDBRANCH  13  14
ENDBRANCH  12  13
ENDBRANCH  11  12
ENDBRANCH   1  11
TORSDOF 15
ENDMDL
MODEL 2
REMARK VINA RESULT:    -3.934      1.557      5.852
REMARK INTER + INTRA:          -9.397
REMARK INTER:                  -7.315
REMARK INTRA:                  -2.082
REMARK UNBOUND:                -2.014
REMARK SMILES O=C([O-])CCCCCCCCCCCCCCC(=O)[O-]
REMARK SMILES IDX 10 1 9 2 8 3 7 4 6 5 5 6 4 7 2 8 1 9 3 10 11 11 12 12 13 13
REMARK SMILES IDX 14 14 15 15 16 16 17 17 18 18 19 19 20 20
REMARK H PARENT
REMARK Flexibility Score: inf
ROOT
ATOM      1  C   UNL     1      47.123   0.613  74.671  1.00  0.00     0.000 C 
ENDROOT
BRANCH   1   2
ATOM      2  C   UNL     1      47.557   1.382  73.410  1.00  0.00     0.000 C 
BRANCH   2   3
ATOM      3  C   UNL     1      48.732   0.708  72.683  1.00  0.00     0.000 C 
BRANCH   3   4
ATOM      4  C   UNL     1      48.322  -0.590  71.970  1.00  0.00     0.000 C 
BRANCH   4   5
ATOM      5  C   UNL     1      49.550  -1.467  71.681  1.00  0.00     0.000 C 
BRANCH   5   6
ATOM      6  C   UNL     1      50.587  -1.427  72.815  1.00  0.00     0.006 C 
BRANCH   6   7
ATOM      7  C   UNL     1      52.026  -1.571  72.305  1.00  0.00     0.053 C 
BRANCH   7   8
ATOM      8  C   UNL     1      52.575  -2.915  72.664  1.00  0.00     0.041 C 
ATOM      9  O   UNL     1      53.810  -3.062  72.862  1.00  0.00    -0.550 OA
ATOM     10  O   UNL     1      51.718  -3.995  72.831  1.00  0.00    -0.550 OA
ENDBRANCH   7   8
ENDBRANCH   6   7
ENDBRANCH   5   6
ENDBRANCH   4   5
ENDBRANCH   3   4
ENDBRANCH   2   3
ENDBRANCH   1   2
BRANCH   1  11
ATOM     11  C   UNL     1      48.233   0.530  75.734  1.00  0.00     0.000 C 
BRANCH  11  12
ATOM     12  C   UNL     1      48.347  -0.826  76.457  1.00  0.00     0.000 C 
BRANCH  12  13
ATOM     13  C   UNL     1      48.278  -2.023  75.498  1.00  0.00     0.000 C 
BRANCH  13  14
ATOM     14  C   UNL     1      47.098  -2.939  75.846  1.00  0.00     0.000 C 
BRANCH  14  15
ATOM     15  C   UNL     1      47.006  -4.117  74.866  1.00  0.00     0.000 C 
BRANCH  15  16
ATOM     16  C   UNL     1      48.104  -4.092  73.787  1.00  0.00     0.006 C 
BRANCH  16  17
ATOM     17  C   UNL     1      47.640  -4.598  72.412  1.00  0.00     0.053 C 
BRANCH  17  18
ATOM     18  C   UNL     1      47.348  -6.068  72.407  1.00  0.00     0.041 C 
ATOM     19  O   UNL     1      46.206  -6.487  72.080  1.00  0.00    -0.550 OA
ATOM     20  O   UNL     1      48.346  -6.980  72.729  1.00  0.00    -0.550 OA
ENDBRANCH  17  18
ENDBRANCH  16  17
ENDBRANCH  15  16
ENDBRANCH  14  15
ENDBRANCH  13  14
ENDBRANCH  12  13
ENDBRANCH  11  12
ENDBRANCH   1  11
TORSDOF 15
ENDMDL
MODEL 3
REMARK VINA RESULT:    -3.915      2.756      4.167
REMARK INTER + INTRA:          -9.361
REMARK INTER:                  -7.318
REMARK INTRA:                  -2.043
REMARK UNBOUND:                -2.014
REMARK SMILES O=C([O-])CCCCCCCCCCCCCCC(=O)[O-]
REMARK SMILES IDX 10 1 9 2 8 3 7 4 6 5 5 6 4 7 2 8 1 9 3 10 11 11 12 12 13 13
REMARK SMILES IDX 14 14 15 15 16 16 17 17 18 18 19 19 20 20
REMARK H PARENT
REMARK Flexibility Score: inf
ROOT
ATOM      1  C   UNL     1      51.795  -2.030  73.075  1.00  0.00     0.000 C 
ENDROOT
BRANCH   1   2
ATOM      2  C   UNL     1      51.784  -3.446  72.473  1.00  0.00     0.000 C 
BRANCH   2   3
ATOM      3  C   UNL     1      50.385  -3.878  72.004  1.00  0.00     0.000 C 
BRANCH   3   4
ATOM      4  C   UNL     1      49.384  -4.003  73.164  1.00  0.00     0.000 C 
BRANCH   4   5
ATOM      5  C   UNL     1      47.942  -3.829  72.663  1.00  0.00     0.000 C 
BRANCH   5   6
ATOM      6  C   UNL     1      46.930  -4.657  73.471  1.00  0.00     0.006 C 
BRANCH   6   7
ATOM      7  C   UNL     1      46.885  -6.126  73.033  1.00  0.00     0.053 C 
BRANCH   7   8
ATOM      8  C   UNL     1      45.555  -6.726  73.360  1.00  0.00     0.041 C 
ATOM      9  O   UNL     1      44.663  -6.028  73.912  1.00  0.00    -0.550 OA
ATOM     10  O   UNL     1      45.279  -8.042  73.011  1.00  0.00    -0.550 OA
ENDBRANCH   7   8
ENDBRANCH   6   7
ENDBRANCH   5   6
ENDBRANCH   4   5
ENDBRANCH   3   4
ENDBRANCH   2   3
ENDBRANCH   1   2
BRANCH   1  11
ATOM     11  C   UNL     1      51.814  -0.923  72.006  1.00  0.00     0.000 C 
BRANCH  11  12
ATOM     12  C   UNL     1      50.679   0.113  72.117  1.00  0.00     0.000 C 
BRANCH  12  13
ATOM     13  C   UNL     1      49.315  -0.443  71.685  1.00  0.00     0.000 C 
BRANCH  13  14
ATOM     14  C   UNL     1      48.237  -0.130  72.731  1.00  0.00     0.000 C 
BRANCH  14  15
ATOM     15  C   UNL     1      48.768  -0.356  74.154  1.00  0.00     0.000 C 
BRANCH  15  16
ATOM     16  C   UNL     1      47.683  -0.840  75.133  1.00  0.00     0.006 C 
BRANCH  16  17
ATOM     17  C   UNL     1      48.199  -1.816  76.204  1.00  0.00     0.053 C 
BRANCH  17  18
ATOM     18  C   UNL     1      47.334  -1.838  77.427  1.00  0.00     0.041 C 
ATOM     19  O   UNL     1      47.778  -1.407  78.525  1.00  0.00    -0.550 OA
ATOM     20  O   UNL     1      46.026  -2.301  77.351  1.00  0.00    -0.550 OA
ENDBRANCH  17  18
ENDBRANCH  16  17
ENDBRANCH  15  16
ENDBRANCH  14  15
ENDBRANCH  13  14
ENDBRANCH  12  13
ENDBRANCH  11  12
ENDBRANCH   1  11
TORSDOF 15
ENDMDL
MODEL 4
REMARK VINA RESULT:    -3.898      3.207      7.470
REMARK INTER + INTRA:          -9.329
REMARK INTER:                  -7.732
REMARK INTRA:                  -1.597
REMARK UNBOUND:                -2.014
REMARK SMILES O=C([O-])CCCCCCCCCCCCCCC(=O)[O-]
REMARK SMILES IDX 10 1 9 2 8 3 7 4 6 5 5 6 4 7 2 8 1 9 3 10 11 11 12 12 13 13
REMARK SMILES IDX 14 14 15 15 16 16 17 17 18 18 19 19 20 20
REMARK H PARENT
REMARK Flexibility Score: inf
ROOT
ATOM      1  C   UNL     1      51.530  -3.912  73.490  1.00  0.00     0.000 C 
ENDROOT
BRANCH   1   2
ATOM      2  C   UNL     1      51.430  -2.386  73.665  1.00  0.00     0.000 C 
BRANCH   2   3
ATOM      3  C   UNL     1      51.714  -1.623  72.362  1.00  0.00     0.000 C 
BRANCH   3   4
ATOM      4  C   UNL     1      50.753  -0.442  72.146  1.00  0.00     0.000 C 
BRANCH   4   5
ATOM      5  C   UNL     1      49.367  -0.937  71.706  1.00  0.00     0.000 C 
BRANCH   5   6
ATOM      6  C   UNL     1      48.222  -0.232  72.451  1.00  0.00     0.006 C 
BRANCH   6   7
ATOM      7  C   UNL     1      48.639   1.128  73.025  1.00  0.00     0.053 C 
BRANCH   7   8
ATOM      8  C   UNL     1      47.434   1.971  73.295  1.00  0.00     0.041 C 
ATOM      9  O   UNL     1      46.402   1.457  73.801  1.00  0.00    -0.550 OA
ATOM     10  O   UNL     1      47.466   3.335  73.036  1.00  0.00    -0.550 OA
ENDBRANCH   7   8
ENDBRANCH   6   7
ENDBRANCH   5   6
ENDBRANCH   4   5
ENDBRANCH   3   4
ENDBRANCH   2   3
ENDBRANCH   1   2
BRANCH   1  11
ATOM     11  C   UNL     1      50.172  -4.623  73.629  1.00  0.00     0.000 C 
BRANCH  11  12
ATOM     12  C   UNL     1      49.289  -4.598  72.367  1.00  0.00     0.000 C 
BRANCH  12  13
ATOM     13  C   UNL     1      47.865  -4.093  72.641  1.00  0.00     0.000 C 
BRANCH  13  14
ATOM     14  C   UNL     1      47.632  -3.894  74.144  1.00  0.00     0.000 C 
BRANCH  14  15
ATOM     15  C   UNL     1      46.623  -4.916  74.686  1.00  0.00     0.000 C 
BRANCH  15  16
ATOM     16  C   UNL     1      45.813  -5.612  73.577  1.00  0.00     0.006 C 
BRANCH  16  17
ATOM     17  C   UNL     1      44.454  -6.158  74.044  1.00  0.00     0.053 C 
BRANCH  17  18
ATOM     18  C   UNL     1      44.526  -7.594  74.469  1.00  0.00     0.041 C 
ATOM     19  O   UNL     1      44.555  -7.892  75.692  1.00  0.00    -0.550 OA
ATOM     20  O   UNL     1      44.524  -8.605  73.516  1.00  0.00    -0.550 OA
ENDBRANCH  17  18
ENDBRANCH  16  17
ENDBRANCH  15  16
ENDBRANCH  14  15
ENDBRANCH  13  14
ENDBRANCH  12  13
ENDBRANCH  11  12
ENDBRANCH   1  11
TORSDOF 15
ENDMDL
MODEL 5
REMARK VINA RESULT:    -3.894      2.782      6.038
REMARK INTER + INTRA:          -9.323
REMARK INTER:                  -7.007
REMARK INTRA:                  -2.316
REMARK UNBOUND:                -2.014
REMARK SMILES O=C([O-])CCCCCCCCCCCCCCC(=O)[O-]
REMARK SMILES IDX 10 1 9 2 8 3 7 4 6 5 5 6 4 7 2 8 1 9 3 10 11 11 12 12 13 13
REMARK SMILES IDX 14 14 15 15 16 16 17 17 18 18 19 19 20 20
REMARK H PARENT
REMARK Flexibility Score: inf
ROOT
ATOM      1  C   UNL     1      51.954   0.023  71.545  1.00  0.00     0.000 C 
ENDROOT
BRANCH   1   2
ATOM      2  C   UNL     1      50.657   0.136  72.366  1.00  0.00     0.000 C 
BRANCH   2   3
ATOM      3  C   UNL     1      49.435  -0.419  71.617  1.00  0.00     0.000 C 
BRANCH   3   4
ATOM      4  C   UNL     1      48.362  -0.978  72.566  1.00  0.00     0.000 C 
BRANCH   4   5
ATOM      5  C   UNL     1      48.838  -0.918  74.026  1.00  0.00     0.000 C 
BRANCH   5   6
ATOM      6  C   UNL     1      48.036  -1.850  74.949  1.00  0.00     0.006 C 
BRANCH   6   7
ATOM      7  C   UNL     1      48.857  -2.343  76.148  1.00  0.00     0.053 C 
BRANCH   7   8
ATOM      8  C   UNL     1      47.989  -2.458  77.361  1.00  0.00     0.041 C 
ATOM      9  O   UNL     1      48.490  -2.346  78.511  1.00  0.00    -0.550 OA
ATOM     10  O   UNL     1      46.619  -2.640  77.222  1.00  0.00    -0.550 OA
ENDBRANCH   7   8
ENDBRANCH   6   7
ENDBRANCH   5   6
ENDBRANCH   4   5
ENDBRANCH   3   4
ENDBRANCH   2   3
ENDBRANCH   1   2
BRANCH   1  11
ATOM     11  C   UNL     1      52.848  -1.148  71.994  1.00  0.00     0.000 C 
BRANCH  11  12
ATOM     12  C   UNL     1      52.272  -2.012  73.131  1.00  0.00     0.000 C 
BRANCH  12  13
ATOM     13  C   UNL     1      52.065  -3.478  72.725  1.00  0.00     0.000 C 
BRANCH  13  14
ATOM     14  C   UNL     1      50.695  -3.989  73.190  1.00  0.00     0.000 C 
BRANCH  14  15
ATOM     15  C   UNL     1      49.769  -4.248  71.993  1.00  0.00     0.000 C 
BRANCH  15  16
ATOM     16  C   UNL     1      48.644  -5.250  72.306  1.00  0.00     0.006 C 
BRANCH  16  17
ATOM     17  C   UNL     1      47.314  -4.592  72.710  1.00  0.00     0.053 C 
BRANCH  17  18
ATOM     18  C   UNL     1      46.582  -5.371  73.761  1.00  0.00     0.041 C 
ATOM     19  O   UNL     1      46.595  -6.630  73.741  1.00  0.00    -0.550 OA
ATOM     20  O   UNL     1      45.914  -4.708  74.784  1.00  0.00    -0.550 OA
ENDBRANCH  17  18
ENDBRANCH  16  17
ENDBRANCH  15  16
ENDBRANCH  14  15
ENDBRANCH  13  14
ENDBRANCH  12  13
ENDBRANCH  11  12
ENDBRANCH   1  11
TORSDOF 15
ENDMDL
MODEL 6
REMARK VINA RESULT:    -3.889      3.031      4.938
REMARK INTER + INTRA:          -9.313
REMARK INTER:                  -7.028
REMARK INTRA:                  -2.284
REMARK UNBOUND:                -2.014
REMARK SMILES O=C([O-])CCCCCCCCCCCCCCC(=O)[O-]
REMARK SMILES IDX 10 1 9 2 8 3 7 4 6 5 5 6 4 7 2 8 1 9 3 10 11 11 12 12 13 13
REMARK SMILES IDX 14 14 15 15 16 16 17 17 18 18 19 19 20 20
REMARK H PARENT
REMARK Flexibility Score: inf
ROOT
ATOM      1  C   UNL     1      51.016  -3.779  72.733  1.00  0.00     0.000 C 
ENDROOT
BRANCH   1   2
ATOM      2  C   UNL     1      49.751  -4.213  71.972  1.00  0.00     0.000 C 
BRANCH   2   3
ATOM      3  C   UNL     1      48.458  -3.775  72.678  1.00  0.00     0.000 C 
BRANCH   3   4
ATOM      4  C   UNL     1      47.373  -4.864  72.658  1.00  0.00     0.000 C 
BRANCH   4   5
ATOM      5  C   UNL     1      46.793  -5.084  74.063  1.00  0.00     0.000 C 
BRANCH   5   6
ATOM      6  C   UNL     1      47.111  -3.927  75.024  1.00  0.00     0.006 C 
BRANCH   6   7
ATOM      7  C   UNL     1      47.788  -4.401  76.316  1.00  0.00     0.053 C 
BRANCH   7   8
ATOM      8  C   UNL     1      49.276  -4.329  76.182  1.00  0.00     0.041 C 
ATOM      9  O   UNL     1      49.893  -3.287  76.528  1.00  0.00    -0.550 OA
ATOM     10  O   UNL     1      49.988  -5.429  75.721  1.00  0.00    -0.550 OA
ENDBRANCH   7   8
ENDBRANCH   6   7
ENDBRANCH   5   6
ENDBRANCH   4   5
ENDBRANCH   3   4
ENDBRANCH   2   3
ENDBRANCH   1   2
BRANCH   1  11
ATOM     11  C   UNL     1      50.940  -2.329  73.246  1.00  0.00     0.000 C 
BRANCH  11  12
ATOM     12  C   UNL     1      51.505  -1.266  72.285  1.00  0.00     0.000 C 
BRANCH  12  13
ATOM     13  C   UNL     1      50.567  -0.063  72.103  1.00  0.00     0.000 C 
BRANCH  13  14
ATOM     14  C   UNL     1      49.191  -0.512  71.593  1.00  0.00     0.000 C 
BRANCH  14  15
ATOM     15  C   UNL     1      48.069   0.024  72.493  1.00  0.00     0.000 C 
BRANCH  15  16
ATOM     16  C   UNL     1      48.570   0.495  73.869  1.00  0.00     0.006 C 
BRANCH  16  17
ATOM     17  C   UNL     1      48.255  -0.479  75.017  1.00  0.00     0.053 C 
BRANCH  17  18
ATOM     18  C   UNL     1      48.274   0.187  76.359  1.00  0.00     0.041 C 
ATOM     19  O   UNL     1      49.236  -0.007  77.149  1.00  0.00    -0.550 OA
ATOM     20  O   UNL     1      47.248   1.048  76.727  1.00  0.00    -0.550 OA
ENDBRANCH  17  18
ENDBRANCH  16  17
ENDBRANCH  15  16
ENDBRANCH  14  15
ENDBRANCH  13  14
ENDBRANCH  12  13
ENDBRANCH  11  12
ENDBRANCH   1  11
TORSDOF 15
ENDMDL
MODEL 7
REMARK VINA RESULT:    -3.873      1.467      6.579
REMARK INTER + INTRA:          -9.284
REMARK INTER:                  -7.451
REMARK INTRA:                  -1.833
REMARK UNBOUND:                -2.014
REMARK SMILES O=C([O-])CCCCCCCCCCCCCCC(=O)[O-]
REMARK SMILES IDX 10 1 9 2 8 3 7 4 6 5 5 6 4 7 2 8 1 9 3 10 11 11 12 12 13 13
REMARK SMILES IDX 14 14 15 15 16 16 17 17 18 18 19 19 20 20
REMARK H PARENT
REMARK Flexibility Score: inf
ROOT
ATOM      1  C   UNL     1      48.299  -0.380  74.388  1.00  0.00     0.000 C 
ENDROOT
BRANCH   1   2
ATOM      2  C   UNL     1      49.067  -0.098  73.084  1.00  0.00     0.000 C 
BRANCH   2   3
ATOM      3  C   UNL     1      48.741  -1.113  71.977  1.00  0.00     0.000 C 
BRANCH   3   4
ATOM      4  C   UNL     1      49.873  -2.129  71.752  1.00  0.00     0.000 C 
BRANCH   4   5
ATOM      5  C   UNL     1      51.191  -1.622  72.357  1.00  0.00     0.000 C 
BRANCH   5   6
ATOM      6  C   UNL     1      51.911  -2.693  73.191  1.00  0.00     0.006 C 
BRANCH   6   7
ATOM      7  C   UNL     1      53.279  -3.074  72.612  1.00  0.00     0.053 C 
BRANCH   7   8
ATOM      8  C   UNL     1      53.935  -4.114  73.463  1.00  0.00     0.041 C 
ATOM      9  O   UNL     1      55.191  -4.199  73.504  1.00  0.00    -0.550 OA
ATOM     10  O   UNL     1      53.163  -4.958  74.250  1.00  0.00    -0.550 OA
ENDBRANCH   7   8
ENDBRANCH   6   7
ENDBRANCH   5   6
ENDBRANCH   4   5
ENDBRANCH   3   4
ENDBRANCH   2   3
ENDBRANCH   1   2
BRANCH   1  11
ATOM     11  C   UNL     1      49.002  -1.414  75.287  1.00  0.00     0.000 C 
BRANCH  11  12
ATOM     12  C   UNL     1      48.167  -2.664  75.621  1.00  0.00     0.000 C 
BRANCH  12  13
ATOM     13  C   UNL     1      48.444  -3.840  74.673  1.00  0.00     0.000 C 
BRANCH  13  14
ATOM     14  C   UNL     1      47.182  -4.222  73.888  1.00  0.00     0.000 C 
BRANCH  14  15
ATOM     15  C   UNL     1      47.543  -4.878  72.548  1.00  0.00     0.000 C 
BRANCH  15  16
ATOM     16  C   UNL     1      46.970  -6.298  72.397  1.00  0.00     0.006 C 
BRANCH  16  17
ATOM     17  C   UNL     1      46.496  -6.925  73.719  1.00  0.00     0.053 C 
BRANCH  17  18
ATOM     18  C   UNL     1      45.028  -7.226  73.720  1.00  0.00     0.041 C 
ATOM     19  O   UNL     1      44.200  -6.346  74.078  1.00  0.00    -0.550 OA
ATOM     20  O   UNL     1      44.568  -8.466  73.293  1.00  0.00    -0.550 OA
ENDBRANCH  17  18
ENDBRANCH  16  17
ENDBRANCH  15  16
ENDBRANCH  14  15
ENDBRANCH  13  14
ENDBRANCH  12  13
ENDBRANCH  11  12
ENDBRANCH   1  11
TORSDOF 15
ENDMDL
MODEL 8
REMARK VINA RESULT:    -3.854      2.700      4.290
REMARK INTER + INTRA:          -9.248
REMARK INTER:                  -6.628
REMARK INTRA:                  -2.620
REMARK UNBOUND:                -2.014
REMARK SMILES O=C([O-])CCCCCCCCCCCCCCC(=O)[O-]
REMARK SMILES IDX 10 1 9 2 8 3 7 4 6 5 5 6 4 7 2 8 1 9 3 10 11 11 12 12 13 13
REMARK SMILES IDX 14 14 15 15 16 16 17 17 18 18 19 19 20 20
REMARK H PARENT
REMARK Flexibility Score: inf
ROOT
ATOM      1  C   UNL     1      49.050  -0.505  71.698  1.00  0.00     0.000 C 
ENDROOT
BRANCH   1   2
ATOM      2  C   UNL     1      50.491  -0.581  72.231  1.00  0.00     0.000 C 
BRANCH   2   3
ATOM      3  C   UNL     1      50.955  -2.026  72.474  1.00  0.00     0.000 C 
BRANCH   3   4
ATOM      4  C   UNL     1      50.127  -3.055  71.688  1.00  0.00     0.000 C 
BRANCH   4   5
ATOM      5  C   UNL     1      49.442  -4.048  72.639  1.00  0.00     0.000 C 
BRANCH   5   6
ATOM      6  C   UNL     1      47.909  -4.018  72.524  1.00  0.00     0.006 C 
BRANCH   6   7
ATOM      7  C   UNL     1      47.213  -4.678  73.721  1.00  0.00     0.053 C 
BRANCH   7   8
ATOM      8  C   UNL     1      47.622  -6.112  73.835  1.00  0.00     0.041 C 
ATOM      9  O   UNL     1      48.116  -6.546  74.910  1.00  0.00    -0.550 OA
ATOM     10  O   UNL     1      47.413  -6.983  72.774  1.00  0.00    -0.550 OA
ENDBRANCH   7   8
ENDBRANCH   6   7
ENDBRANCH   5   6
ENDBRANCH   4   5
ENDBRANCH   3   4
ENDBRANCH   2   3
ENDBRANCH   1   2
BRANCH   1  11
ATOM     11  C   UNL     1      48.018  -0.200  72.800  1.00  0.00     0.000 C 
BRANCH  11  12
ATOM     12  C   UNL     1      48.548   0.637  73.978  1.00  0.00     0.000 C 
BRANCH  12  13
ATOM     13  C   UNL     1      48.239   0.010  75.346  1.00  0.00     0.000 C 
BRANCH  13  14
ATOM     14  C   UNL     1      48.431  -1.511  75.309  1.00  0.00     0.000 C 
BRANCH  14  15
ATOM     15  C   UNL     1      49.794  -1.908  75.893  1.00  0.00     0.000 C 
BRANCH  15  16
ATOM     16  C   UNL     1      49.901  -3.411  76.210  1.00  0.00     0.006 C 
BRANCH  16  17
ATOM     17  C   UNL     1      48.934  -3.888  77.307  1.00  0.00     0.053 C 
BRANCH  17  18
ATOM     18  C   UNL     1      49.448  -3.614  78.688  1.00  0.00     0.041 C 
ATOM     19  O   UNL     1      48.765  -2.928  79.494  1.00  0.00    -0.550 OA
ATOM     20  O   UNL     1      50.665  -4.145  79.099  1.00  0.00    -0.550 OA
ENDBRANCH  17  18
ENDBRANCH  16  17
ENDBRANCH  15  16
ENDBRANCH  14  15
ENDBRANCH  13  14
ENDBRANCH  12  13
ENDBRANCH  11  12
ENDBRANCH   1  11
TORSDOF 15
ENDMDL
MODEL 9
REMARK VINA RESULT:    -3.824      1.736      3.377
REMARK INTER + INTRA:          -9.192
REMARK INTER:                  -6.680
REMARK INTRA:                  -2.511
REMARK UNBOUND:                -2.014
REMARK SMILES O=C([O-])CCCCCCCCCCCCCCC(=O)[O-]
REMARK SMILES IDX 10 1 9 2 8 3 7 4 6 5 5 6 4 7 2 8 1 9 3 10 11 11 12 12 13 13
REMARK SMILES IDX 14 14 15 15 16 16 17 17 18 18 19 19 20 20
REMARK H PARENT
REMARK Flexibility Score: inf
ROOT
ATOM      1  C   UNL     1      49.024  -0.659  71.631  1.00  0.00     0.000 C 
ENDROOT
BRANCH   1   2
ATOM      2  C   UNL     1      50.487  -0.956  72.004  1.00  0.00     0.000 C 
BRANCH   2   3
ATOM      3  C   UNL     1      50.674  -2.370  72.578  1.00  0.00     0.000 C 
BRANCH   3   4
ATOM      4  C   UNL     1      50.110  -3.463  71.656  1.00  0.00     0.000 C 
BRANCH   4   5
ATOM      5  C   UNL     1      49.319  -4.504  72.462  1.00  0.00     0.000 C 
BRANCH   5   6
ATOM      6  C   UNL     1      47.803  -4.247  72.436  1.00  0.00     0.006 C 
BRANCH   6   7
ATOM      7  C   UNL     1      47.063  -4.961  73.574  1.00  0.00     0.053 C 
BRANCH   7   8
ATOM      8  C   UNL     1      46.179  -6.036  73.028  1.00  0.00     0.041 C 
ATOM      9  O   UNL     1      45.262  -6.524  73.740  1.00  0.00    -0.550 OA
ATOM     10  O   UNL     1      46.334  -6.466  71.716  1.00  0.00    -0.550 OA
ENDBRANCH   7   8
ENDBRANCH   6   7
ENDBRANCH   5   6
ENDBRANCH   4   5
ENDBRANCH   3   4
ENDBRANCH   2   3
ENDBRANCH   1   2
BRANCH   1  11
ATOM     11  C   UNL     1      48.104  -0.539  72.859  1.00  0.00     0.000 C 
BRANCH  11  12
ATOM     12  C   UNL     1      48.664   0.311  74.016  1.00  0.00     0.000 C 
BRANCH  12  13
ATOM     13  C   UNL     1      48.656  -0.429  75.361  1.00  0.00     0.000 C 
BRANCH  13  14
ATOM     14  C   UNL     1      48.097  -1.849  75.205  1.00  0.00     0.000 C 
BRANCH  14  15
ATOM     15  C   UNL     1      48.733  -2.807  76.221  1.00  0.00     0.000 C 
BRANCH  15  16
ATOM     16  C   UNL     1      50.221  -3.084  75.941  1.00  0.00     0.006 C 
BRANCH  16  17
ATOM     17  C   UNL     1      50.686  -4.488  76.360  1.00  0.00     0.053 C 
BRANCH  17  18
ATOM     18  C   UNL     1      51.408  -5.208  75.261  1.00  0.00     0.041 C 
ATOM     19  O   UNL     1      52.374  -4.657  74.670  1.00  0.00    -0.550 OA
ATOM     20  O   UNL     1      51.038  -6.501  74.912  1.00  0.00    -0.550 OA
ENDBRANCH  17  18
ENDBRANCH  16  17
ENDBRANCH  15  16
ENDBRANCH  14  15
ENDBRANCH  13  14
ENDBRANCH  12  13
ENDBRANCH  11  12
ENDBRANCH   1  11
TORSDOF 15
ENDMDL
