MODEL 1
REMARK VINA RESULT:    19.993      0.000      0.000
REMARK INTER + INTRA:          51.921
REMARK INTER:                  50.383
REMARK INTRA:                   1.538
REMARK UNBOUND:                 1.538
REMARK SMILES CCCCCCCCCCCCCCCCCCCCCCCCCCCC(=O)[O-]
REMARK SMILES IDX 15 1 16 2 17 3 18 4 19 5 20 6 21 7 22 8 23 9 24 10 25 11
REMARK SMILES IDX 26 12 27 13 28 14 29 15 30 16 14 17 13 18 12 19 11 20 10 21
REMARK SMILES IDX 9 22 8 23 7 24 6 25 5 26 4 27 3 28 2 29 1 30
REMARK H PARENT
REMARK Flexibility Score: inf
ROOT
ATOM      1  C   UNL     1     102.249  99.211   9.526  1.00  0.00     0.000 C 
ENDROOT
BRANCH   1   2
ATOM      2  C   UNL     1     101.694  98.146  10.492  1.00  0.00     0.000 C 
BRANCH   2   3
ATOM      3  C   UNL     1     102.373  96.766  10.364  1.00  0.00     0.000 C 
BRANCH   3   4
ATOM      4  C   UNL     1     101.376  95.605  10.518  1.00  0.00     0.000 C 
BRANCH   4   5
ATOM      5  C   UNL     1      99.932  96.028  10.203  1.00  0.00     0.000 C 
BRANCH   5   6
ATOM      6  C   UNL     1      98.942  95.600  11.302  1.00  0.00     0.000 C 
BRANCH   6   7
ATOM      7  C   UNL     1      98.458  94.149  11.134  1.00  0.00     0.000 C 
BRANCH   7   8
ATOM      8  C   UNL     1      99.113  93.130  12.090  1.00  0.00     0.000 C 
BRANCH   8   9
ATOM      9  C   UNL     1      98.747  93.299  13.577  1.00  0.00     0.000 C 
BRANCH   9  10
ATOM     10  C   UNL     1      98.447  94.745  14.016  1.00  0.00     0.000 C 
BRANCH  10  11
ATOM     11  C   UNL     1      98.281  94.918  15.542  1.00  0.00     0.000 C 
BRANCH  11  12
ATOM     12  C   UNL     1      99.608  95.248  16.249  1.00  0.00     0.006 C 
BRANCH  12  13
ATOM     13  C   UNL     1      99.389  95.793  17.667  1.00  0.00     0.053 C 
BRANCH  13  14
ATOM     14  C   UNL     1      99.871  97.206  17.800  1.00  0.00     0.041 C 
ATOM     15  O   UNL     1     101.088  97.479  17.622  1.00  0.00    -0.550 OA
ATOM     16  O   UNL     1      98.975  98.224  18.112  1.00  0.00    -0.550 OA
ENDBRANCH  13  14
ENDBRANCH  12  13
ENDBRANCH  11  12
ENDBRANCH  10  11
ENDBRANCH   9  10
ENDBRANCH   8   9
ENDBRANCH   7   8
ENDBRANCH   6   7
ENDBRANCH   5   6
ENDBRANCH   4   5
ENDBRANCH   3   4
ENDBRANCH   2   3
ENDBRANCH   1   2
BRANCH   1  17
ATOM     17  C   UNL     1     102.034 100.668   9.968  1.00  0.00     0.000 C 
BRANCH  17  18
ATOM     18  C   UNL     1     100.649 100.903  10.588  1.00  0.00     0.000 C 
BRANCH  18  19
ATOM     19  C   UNL     1     100.117  99.626  11.249  1.00  0.00     0.000 C 
BRANCH  19  20
ATOM     20  C   UNL     1      98.581  99.625  11.280  1.00  0.00     0.000 C 
BRANCH  20  21
ATOM     21  C   UNL     1      97.996  98.295  11.790  1.00  0.00     0.000 C 
BRANCH  21  22
ATOM     22  C   UNL     1      97.211  98.409  13.111  1.00  0.00    -0.000 C 
BRANCH  22  23
ATOM     23  C   UNL     1      96.323  99.665  13.161  1.00  0.00    -0.000 C 
BRANCH  23  24
ATOM     24  C   UNL     1      96.323 100.443  11.835  1.00  0.00    -0.000 C 
BRANCH  24  25
ATOM     25  C   UNL     1      94.936 100.987  11.465  1.00  0.00    -0.000 C 
BRANCH  25  26
ATOM     26  C   UNL     1      94.662 100.816   9.962  1.00  0.00    -0.000 C 
BRANCH  26  27
ATOM     27  C   UNL     1      95.623  99.804   9.303  1.00  0.00    -0.000 C 
BRANCH  27  28
ATOM     28  C   UNL     1      95.136  99.290   7.938  1.00  0.00    -0.000 C 
BRANCH  28  29
ATOM     29  C   UNL     1      93.679  98.805   7.969  1.00  0.00    -0.003 C 
ATOM     30  C   UNL     1      92.856  99.460   6.862  1.00  0.00     0.004 C 
ENDBRANCH  28  29
ENDBRANCH  27  28
ENDBRANCH  26  27
ENDBRANCH  25  26
ENDBRANCH  24  25
ENDBRANCH  23  24
ENDBRANCH  22  23
ENDBRANCH  21  22
ENDBRANCH  20  21
ENDBRANCH  19  20
ENDBRANCH  18  19
ENDBRANCH  17  18
ENDBRANCH   1  17
TORSDOF 26
ENDMDL
MODEL 2
REMARK VINA RESULT:    20.014      1.039      1.974
REMARK INTER + INTRA:          51.974
REMARK INTER:                  52.233
REMARK INTRA:                  -0.259
REMARK UNBOUND:                 1.538
REMARK SMILES CCCCCCCCCCCCCCCCCCCCCCCCCCCC(=O)[O-]
REMARK SMILES IDX 15 1 16 2 17 3 18 4 19 5 20 6 21 7 22 8 23 9 24 10 25 11
REMARK SMILES IDX 26 12 27 13 28 14 29 15 30 16 14 17 13 18 12 19 11 20 10 21
REMARK SMILES IDX 9 22 8 23 7 24 6 25 5 26 4 27 3 28 2 29 1 30
REMARK H PARENT
REMARK Flexibility Score: inf
ROOT
ATOM      1  C   UNL     1     101.785  99.148   9.695  1.00  0.00     0.000 C 
ENDROOT
BRANCH   1   2
ATOM      2  C   UNL     1     102.084  98.215  10.885  1.00  0.00     0.000 C 
BRANCH   2   3
ATOM      3  C   UNL     1     101.550  96.778  10.706  1.00  0.00     0.000 C 
BRANCH   3   4
ATOM      4  C   UNL     1     102.552  95.868   9.975  1.00  0.00     0.000 C 
BRANCH   4   5
ATOM      5  C   UNL     1     101.901  94.572   9.464  1.00  0.00     0.000 C 
BRANCH   5   6
ATOM      6  C   UNL     1     100.783  94.070  10.395  1.00  0.00     0.000 C 
BRANCH   6   7
ATOM      7  C   UNL     1      99.875  95.205  10.900  1.00  0.00     0.000 C 
BRANCH   7   8
ATOM      8  C   UNL     1      98.457  94.765  11.321  1.00  0.00     0.000 C 
BRANCH   8   9
ATOM      9  C   UNL     1      98.088  95.065  12.787  1.00  0.00     0.000 C 
BRANCH   9  10
ATOM     10  C   UNL     1      98.952  94.343  13.839  1.00  0.00     0.000 C 
BRANCH  10  11
ATOM     11  C   UNL     1      98.564  94.662  15.299  1.00  0.00     0.000 C 
BRANCH  11  12
ATOM     12  C   UNL     1      99.685  95.384  16.067  1.00  0.00     0.006 C 
BRANCH  12  13
ATOM     13  C   UNL     1      99.229  95.852  17.455  1.00  0.00     0.053 C 
BRANCH  13  14
ATOM     14  C   UNL     1      99.790  97.199  17.800  1.00  0.00     0.041 C 
ATOM     15  O   UNL     1      99.016  98.163  18.047  1.00  0.00    -0.550 OA
ATOM     16  O   UNL     1     101.167  97.390  17.856  1.00  0.00    -0.550 OA
ENDBRANCH  13  14
ENDBRANCH  12  13
ENDBRANCH  11  12
ENDBRANCH  10  11
ENDBRANCH   9  10
ENDBRANCH   8   9
ENDBRANCH   7   8
ENDBRANCH   6   7
ENDBRANCH   5   6
ENDBRANCH   4   5
ENDBRANCH   3   4
ENDBRANCH   2   3
ENDBRANCH   1   2
BRANCH   1  17
ATOM     17  C   UNL     1     101.427 100.594  10.074  1.00  0.00     0.000 C 
BRANCH  17  18
ATOM     18  C   UNL     1     100.168 100.686  10.949  1.00  0.00     0.000 C 
BRANCH  18  19
ATOM     19  C   UNL     1      99.107  99.675  10.495  1.00  0.00     0.000 C 
BRANCH  19  20
ATOM     20  C   UNL     1      98.297  99.157  11.693  1.00  0.00     0.000 C 
BRANCH  20  21
ATOM     21  C   UNL     1      97.456 100.258  12.365  1.00  0.00     0.000 C 
BRANCH  21  22
ATOM     22  C   UNL     1      95.937 100.009  12.334  1.00  0.00    -0.000 C 
BRANCH  22  23
ATOM     23  C   UNL     1      95.219 100.882  11.289  1.00  0.00    -0.000 C 
BRANCH  23  24
ATOM     24  C   UNL     1      95.350 100.326   9.863  1.00  0.00    -0.000 C 
BRANCH  24  25
ATOM     25  C   UNL     1      94.003  99.884   9.271  1.00  0.00    -0.000 C 
BRANCH  25  26
ATOM     26  C   UNL     1      94.212  98.922   8.090  1.00  0.00    -0.000 C 
BRANCH  26  27
ATOM     27  C   UNL     1      93.598  99.459   6.781  1.00  0.00    -0.000 C 
BRANCH  27  28
ATOM     28  C   UNL     1      92.284 100.231   6.987  1.00  0.00    -0.000 C 
BRANCH  28  29
ATOM     29  C   UNL     1      91.512 100.456   5.679  1.00  0.00    -0.003 C 
ATOM     30  C   UNL     1      90.429  99.397   5.487  1.00  0.00     0.004 C 
ENDBRANCH  28  29
ENDBRANCH  27  28
ENDBRANCH  26  27
ENDBRANCH  25  26
ENDBRANCH  24  25
ENDBRANCH  23  24
ENDBRANCH  22  23
ENDBRANCH  21  22
ENDBRANCH  20  21
ENDBRANCH  19  20
ENDBRANCH  18  19
ENDBRANCH  17  18
ENDBRANCH   1  17
TORSDOF 26
ENDMDL
MODEL 3
REMARK VINA RESULT:    20.053      3.754      8.431
REMARK INTER + INTRA:          52.070
REMARK INTER:                  54.081
REMARK INTRA:                  -2.011
REMARK UNBOUND:                 1.538
REMARK SMILES CCCCCCCCCCCCCCCCCCCCCCCCCCCC(=O)[O-]
REMARK SMILES IDX 15 1 16 2 17 3 18 4 19 5 20 6 21 7 22 8 23 9 24 10 25 11
REMARK SMILES IDX 26 12 27 13 28 14 29 15 30 16 14 17 13 18 12 19 11 20 10 21
REMARK SMILES IDX 9 22 8 23 7 24 6 25 5 26 4 27 3 28 2 29 1 30
REMARK H PARENT
REMARK Flexibility Score: inf
ROOT
ATOM      1  C   UNL     1     101.841  99.225  10.117  1.00  0.00     0.000 C 
ENDROOT
BRANCH   1   2
ATOM      2  C   UNL     1     100.898 100.381   9.731  1.00  0.00     0.000 C 
BRANCH   2   3
ATOM      3  C   UNL     1     100.102 100.966  10.916  1.00  0.00     0.000 C 
BRANCH   3   4
ATOM      4  C   UNL     1      99.017 100.003  11.426  1.00  0.00     0.000 C 
BRANCH   4   5
ATOM      5  C   UNL     1      98.747 100.168  12.931  1.00  0.00     0.000 C 
BRANCH   5   6
ATOM      6  C   UNL     1      97.384  99.590  13.350  1.00  0.00     0.000 C 
BRANCH   6   7
ATOM      7  C   UNL     1      96.347  99.629  12.214  1.00  0.00     0.000 C 
BRANCH   7   8
ATOM      8  C   UNL     1      95.686 101.004  11.983  1.00  0.00     0.000 C 
BRANCH   8   9
ATOM      9  C   UNL     1      94.443 100.987  11.072  1.00  0.00     0.000 C 
BRANCH   9  10
ATOM     10  C   UNL     1      94.739 101.057   9.561  1.00  0.00     0.000 C 
BRANCH  10  11
ATOM     11  C   UNL     1      95.542  99.853   9.022  1.00  0.00     0.000 C 
BRANCH  11  12
ATOM     12  C   UNL     1      94.864  99.181   7.814  1.00  0.00     0.006 C 
BRANCH  12  13
ATOM     13  C   UNL     1      93.333  99.196   7.926  1.00  0.00     0.053 C 
BRANCH  13  14
ATOM     14  C   UNL     1      92.690  99.712   6.675  1.00  0.00     0.041 C 
ATOM     15  O   UNL     1      91.571 100.290   6.730  1.00  0.00    -0.550 OA
ATOM     16  O   UNL     1      93.328  99.565   5.447  1.00  0.00    -0.550 OA
ENDBRANCH  13  14
ENDBRANCH  12  13
ENDBRANCH  11  12
ENDBRANCH  10  11
ENDBRANCH   9  10
ENDBRANCH   8   9
ENDBRANCH   7   8
ENDBRANCH   6   7
ENDBRANCH   5   6
ENDBRANCH   4   5
ENDBRANCH   3   4
ENDBRANCH   2   3
ENDBRANCH   1   2
BRANCH   1  17
ATOM     17  C   UNL     1     101.144  97.888  10.420  1.00  0.00     0.000 C 
BRANCH  17  18
ATOM     18  C   UNL     1     102.094  96.847  11.032  1.00  0.00     0.000 C 
BRANCH  18  19
ATOM     19  C   UNL     1     102.244  95.630  10.110  1.00  0.00     0.000 C 
BRANCH  19  20
ATOM     20  C   UNL     1     100.870  95.049   9.744  1.00  0.00     0.000 C 
BRANCH  20  21
ATOM     21  C   UNL     1     100.354  94.038  10.786  1.00  0.00     0.000 C 
BRANCH  21  22
ATOM     22  C   UNL     1      98.873  94.217  11.168  1.00  0.00    -0.000 C 
BRANCH  22  23
ATOM     23  C   UNL     1      98.584  95.604  11.771  1.00  0.00    -0.000 C 
BRANCH  23  24
ATOM     24  C   UNL     1      98.247  95.539  13.269  1.00  0.00    -0.000 C 
BRANCH  24  25
ATOM     25  C   UNL     1      98.762  94.257  13.939  1.00  0.00    -0.000 C 
BRANCH  25  26
ATOM     26  C   UNL     1      98.654  94.356  15.470  1.00  0.00    -0.000 C 
BRANCH  26  27
ATOM     27  C   UNL     1      99.203  95.693  16.011  1.00  0.00    -0.000 C 
BRANCH  27  28
ATOM     28  C   UNL     1      99.307  95.741  17.544  1.00  0.00    -0.000 C 
BRANCH  28  29
ATOM     29  C   UNL     1      99.821  97.092  18.064  1.00  0.00    -0.003 C 
ATOM     30  C   UNL     1     100.743  97.761  17.048  1.00  0.00     0.004 C 
ENDBRANCH  28  29
ENDBRANCH  27  28
ENDBRANCH  26  27
ENDBRANCH  25  26
ENDBRANCH  24  25
ENDBRANCH  23  24
ENDBRANCH  22  23
ENDBRANCH  21  22
ENDBRANCH  20  21
ENDBRANCH  19  20
ENDBRANCH  18  19
ENDBRANCH  17  18
ENDBRANCH   1  17
TORSDOF 26
ENDMDL
MODEL 4
REMARK VINA RESULT:    20.354      1.097      1.891
REMARK INTER + INTRA:          52.829
REMARK INTER:                  54.824
REMARK INTRA:                  -1.996
REMARK UNBOUND:                 1.538
REMARK SMILES CCCCCCCCCCCCCCCCCCCCCCCCCCCC(=O)[O-]
REMARK SMILES IDX 15 1 16 2 17 3 18 4 19 5 20 6 21 7 22 8 23 9 24 10 25 11
REMARK SMILES IDX 26 12 27 13 28 14 29 15 30 16 14 17 13 18 12 19 11 20 10 21
REMARK SMILES IDX 9 22 8 23 7 24 6 25 5 26 4 27 3 28 2 29 1 30
REMARK H PARENT
REMARK Flexibility Score: inf
ROOT
ATOM      1  C   UNL     1     102.131  97.239  10.825  1.00  0.00     0.000 C 
ENDROOT
BRANCH   1   2
ATOM      2  C   UNL     1     102.189  95.806  10.260  1.00  0.00     0.000 C 
BRANCH   2   3
ATOM      3  C   UNL     1     100.808  95.211   9.915  1.00  0.00     0.000 C 
BRANCH   3   4
ATOM      4  C   UNL     1     100.540  93.887  10.650  1.00  0.00     0.000 C 
BRANCH   4   5
ATOM      5  C   UNL     1      99.177  93.878  11.363  1.00  0.00     0.000 C 
BRANCH   5   6
ATOM      6  C   UNL     1      98.634  95.297  11.606  1.00  0.00     0.000 C 
BRANCH   6   7
ATOM      7  C   UNL     1      98.460  95.619  13.101  1.00  0.00     0.000 C 
BRANCH   7   8
ATOM      8  C   UNL     1      97.853  94.480  13.946  1.00  0.00     0.000 C 
BRANCH   8   9
ATOM      9  C   UNL     1      98.875  93.629  14.726  1.00  0.00     0.000 C 
BRANCH   9  10
ATOM     10  C   UNL     1      99.903  94.432  15.546  1.00  0.00     0.000 C 
BRANCH  10  11
ATOM     11  C   UNL     1      99.431  95.852  15.929  1.00  0.00     0.000 C 
BRANCH  11  12
ATOM     12  C   UNL     1      99.467  96.099  17.448  1.00  0.00     0.006 C 
BRANCH  12  13
ATOM     13  C   UNL     1      99.826  97.551  17.792  1.00  0.00     0.053 C 
BRANCH  13  14
ATOM     14  C   UNL     1      98.661  98.287  18.382  1.00  0.00     0.041 C 
ATOM     15  O   UNL     1      98.854  99.291  19.118  1.00  0.00    -0.550 OA
ATOM     16  O   UNL     1      97.361  97.870  18.112  1.00  0.00    -0.550 OA
ENDBRANCH  13  14
ENDBRANCH  12  13
ENDBRANCH  11  12
ENDBRANCH  10  11
ENDBRANCH   9  10
ENDBRANCH   8   9
ENDBRANCH   7   8
ENDBRANCH   6   7
ENDBRANCH   5   6
ENDBRANCH   4   5
ENDBRANCH   3   4
ENDBRANCH   2   3
ENDBRANCH   1   2
BRANCH   1  17
ATOM     17  C   UNL     1     101.117  98.170  10.139  1.00  0.00     0.000 C 
BRANCH  17  18
ATOM     18  C   UNL     1     101.424  99.657  10.369  1.00  0.00     0.000 C 
BRANCH  18  19
ATOM     19  C   UNL     1     100.148 100.438  10.704  1.00  0.00     0.000 C 
BRANCH  19  20
ATOM     20  C   UNL     1      99.066  99.502  11.266  1.00  0.00     0.000 C 
BRANCH  20  21
ATOM     21  C   UNL     1      98.252 100.148  12.403  1.00  0.00     0.000 C 
BRANCH  21  22
ATOM     22  C   UNL     1      96.984  99.369  12.800  1.00  0.00    -0.000 C 
BRANCH  22  23
ATOM     23  C   UNL     1      95.700 100.017  12.251  1.00  0.00    -0.000 C 
BRANCH  23  24
ATOM     24  C   UNL     1      95.941 100.804  10.954  1.00  0.00    -0.000 C 
BRANCH  24  25
ATOM     25  C   UNL     1      95.091 100.294   9.782  1.00  0.00    -0.000 C 
BRANCH  25  26
ATOM     26  C   UNL     1      95.968  99.596   8.729  1.00  0.00    -0.000 C 
BRANCH  26  27
ATOM     27  C   UNL     1      95.135  98.764   7.731  1.00  0.00    -0.000 C 
BRANCH  27  28
ATOM     28  C   UNL     1      93.633  99.091   7.758  1.00  0.00    -0.000 C 
BRANCH  28  29
ATOM     29  C   UNL     1      93.111  99.609   6.410  1.00  0.00    -0.003 C 
ATOM     30  C   UNL     1      91.800 100.371   6.582  1.00  0.00     0.004 C 
ENDBRANCH  28  29
ENDBRANCH  27  28
ENDBRANCH  26  27
ENDBRANCH  25  26
ENDBRANCH  24  25
ENDBRANCH  23  24
ENDBRANCH  22  23
ENDBRANCH  21  22
ENDBRANCH  20  21
ENDBRANCH  19  20
ENDBRANCH  18  19
ENDBRANCH  17  18
ENDBRANCH   1  17
TORSDOF 26
ENDMDL
MODEL 5
REMARK VINA RESULT:    20.943      5.619      9.791
REMARK INTER + INTRA:          54.314
REMARK INTER:                  54.396
REMARK INTRA:                  -0.082
REMARK UNBOUND:                 1.538
REMARK SMILES CCCCCCCCCCCCCCCCCCCCCCCCCCCC(=O)[O-]
REMARK SMILES IDX 15 1 16 2 17 3 18 4 19 5 20 6 21 7 22 8 23 9 24 10 25 11
REMARK SMILES IDX 26 12 27 13 28 14 29 15 30 16 14 17 13 18 12 19 11 20 10 21
REMARK SMILES IDX 9 22 8 23 7 24 6 25 5 26 4 27 3 28 2 29 1 30
REMARK H PARENT
REMARK Flexibility Score: inf
ROOT
ATOM      1  C   UNL     1      99.730  96.039  11.077  1.00  0.00     0.000 C 
ENDROOT
BRANCH   1   2
ATOM      2  C   UNL     1     100.993  95.458  10.412  1.00  0.00     0.000 C 
BRANCH   2   3
ATOM      3  C   UNL     1     102.096  96.502  10.138  1.00  0.00     0.000 C 
BRANCH   3   4
ATOM      4  C   UNL     1     101.773  97.872  10.758  1.00  0.00     0.000 C 
BRANCH   4   5
ATOM      5  C   UNL     1     102.116  99.037   9.814  1.00  0.00     0.000 C 
BRANCH   5   6
ATOM      6  C   UNL     1     101.546 100.379  10.308  1.00  0.00     0.000 C 
BRANCH   6   7
ATOM      7  C   UNL     1     100.020 100.476  10.138  1.00  0.00     0.000 C 
BRANCH   7   8
ATOM      8  C   UNL     1      99.212  99.391  10.881  1.00  0.00     0.000 C 
BRANCH   8   9
ATOM      9  C   UNL     1      97.993  98.844  10.114  1.00  0.00     0.000 C 
BRANCH   9  10
ATOM     10  C   UNL     1      97.094  99.914   9.466  1.00  0.00     0.000 C 
BRANCH  10  11
ATOM     11  C   UNL     1      96.114  99.358   8.410  1.00  0.00     0.000 C 
BRANCH  11  12
ATOM     12  C   UNL     1      94.643  99.659   8.749  1.00  0.00     0.006 C 
BRANCH  12  13
ATOM     13  C   UNL     1      93.672  98.773   7.957  1.00  0.00     0.053 C 
BRANCH  13  14
ATOM     14  C   UNL     1      92.983  99.539   6.868  1.00  0.00     0.041 C 
ATOM     15  O   UNL     1      93.539  99.686   5.747  1.00  0.00    -0.550 OA
ATOM     16  O   UNL     1      91.721 100.085   7.088  1.00  0.00    -0.550 OA
ENDBRANCH  13  14
ENDBRANCH  12  13
ENDBRANCH  11  12
ENDBRANCH  10  11
ENDBRANCH   9  10
ENDBRANCH   8   9
ENDBRANCH   7   8
ENDBRANCH   6   7
ENDBRANCH   5   6
ENDBRANCH   4   5
ENDBRANCH   3   4
ENDBRANCH   2   3
ENDBRANCH   1   2
BRANCH   1  17
ATOM     17  C   UNL     1      98.639  95.011  11.416  1.00  0.00     0.000 C 
BRANCH  17  18
ATOM     18  C   UNL     1      98.243  95.032  12.900  1.00  0.00     0.000 C 
BRANCH  18  19
ATOM     19  C   UNL     1      98.902  93.876  13.663  1.00  0.00     0.000 C 
BRANCH  19  20
ATOM     20  C   UNL     1      97.894  93.195  14.602  1.00  0.00     0.000 C 
BRANCH  20  21
ATOM     21  C   UNL     1      97.738  91.689  14.318  1.00  0.00     0.000 C 
BRANCH  21  22
ATOM     22  C   UNL     1      96.878  90.933  15.348  1.00  0.00    -0.000 C 
BRANCH  22  23
ATOM     23  C   UNL     1      95.422  91.430  15.377  1.00  0.00    -0.000 C 
BRANCH  23  24
ATOM     24  C   UNL     1      94.436  90.409  14.787  1.00  0.00    -0.000 C 
BRANCH  24  25
ATOM     25  C   UNL     1      93.346  89.991  15.784  1.00  0.00    -0.000 C 
BRANCH  25  26
ATOM     26  C   UNL     1      92.930  88.527  15.561  1.00  0.00    -0.000 C 
BRANCH  26  27
ATOM     27  C   UNL     1      91.410  88.319  15.725  1.00  0.00    -0.000 C 
BRANCH  27  28
ATOM     28  C   UNL     1      91.008  86.850  15.937  1.00  0.00    -0.000 C 
BRANCH  28  29
ATOM     29  C   UNL     1      91.407  86.317  17.322  1.00  0.00    -0.003 C 
ATOM     30  C   UNL     1      92.445  87.221  17.983  1.00  0.00     0.004 C 
ENDBRANCH  28  29
ENDBRANCH  27  28
ENDBRANCH  26  27
ENDBRANCH  25  26
ENDBRANCH  24  25
ENDBRANCH  23  24
ENDBRANCH  22  23
ENDBRANCH  21  22
ENDBRANCH  20  21
ENDBRANCH  19  20
ENDBRANCH  18  19
ENDBRANCH  17  18
ENDBRANCH   1  17
TORSDOF 26
ENDMDL
MODEL 6
REMARK VINA RESULT:    21.297      5.061      6.191
REMARK INTER + INTRA:          55.205
REMARK INTER:                  56.761
REMARK INTRA:                  -1.556
REMARK UNBOUND:                 1.538
REMARK SMILES CCCCCCCCCCCCCCCCCCCCCCCCCCCC(=O)[O-]
REMARK SMILES IDX 15 1 16 2 17 3 18 4 19 5 20 6 21 7 22 8 23 9 24 10 25 11
REMARK SMILES IDX 26 12 27 13 28 14 29 15 30 16 14 17 13 18 12 19 11 20 10 21
REMARK SMILES IDX 9 22 8 23 7 24 6 25 5 26 4 27 3 28 2 29 1 30
REMARK H PARENT
REMARK Flexibility Score: inf
ROOT
ATOM      1  C   UNL     1     100.891  94.995  10.364  1.00  0.00     0.000 C 
ENDROOT
BRANCH   1   2
ATOM      2  C   UNL     1      99.399  95.303  10.596  1.00  0.00     0.000 C 
BRANCH   2   3
ATOM      3  C   UNL     1      98.718  94.372  11.621  1.00  0.00     0.000 C 
BRANCH   3   4
ATOM      4  C   UNL     1      98.271  95.122  12.888  1.00  0.00     0.000 C 
BRANCH   4   5
ATOM      5  C   UNL     1      98.650  94.373  14.176  1.00  0.00     0.000 C 
BRANCH   5   6
ATOM      6  C   UNL     1      98.310  92.874  14.105  1.00  0.00     0.000 C 
BRANCH   6   7
ATOM      7  C   UNL     1      97.224  92.462  15.114  1.00  0.00     0.000 C 
BRANCH   7   8
ATOM      8  C   UNL     1      96.930  90.949  15.172  1.00  0.00     0.000 C 
BRANCH   8   9
ATOM      9  C   UNL     1      95.582  90.521  14.560  1.00  0.00     0.000 C 
BRANCH   9  10
ATOM     10  C   UNL     1      94.355  90.733  15.467  1.00  0.00     0.000 C 
BRANCH  10  11
ATOM     11  C   UNL     1      93.246  89.674  15.284  1.00  0.00     0.000 C 
BRANCH  11  12
ATOM     12  C   UNL     1      92.844  89.001  16.609  1.00  0.00     0.006 C 
BRANCH  12  13
ATOM     13  C   UNL     1      92.597  87.495  16.443  1.00  0.00     0.053 C 
BRANCH  13  14
ATOM     14  C   UNL     1      91.291  87.218  15.762  1.00  0.00     0.041 C 
ATOM     15  O   UNL     1      91.196  86.273  14.934  1.00  0.00    -0.550 OA
ATOM     16  O   UNL     1      90.174  87.998  16.046  1.00  0.00    -0.550 OA
ENDBRANCH  13  14
ENDBRANCH  12  13
ENDBRANCH  11  12
ENDBRANCH  10  11
ENDBRANCH   9  10
ENDBRANCH   8   9
ENDBRANCH   7   8
ENDBRANCH   6   7
ENDBRANCH   5   6
ENDBRANCH   4   5
ENDBRANCH   3   4
ENDBRANCH   2   3
ENDBRANCH   1   2
BRANCH   1  17
ATOM     17  C   UNL     1     101.816  96.224  10.352  1.00  0.00     0.000 C 
BRANCH  17  18
ATOM     18  C   UNL     1     101.054  97.544  10.541  1.00  0.00     0.000 C 
BRANCH  18  19
ATOM     19  C   UNL     1     101.875  98.732  10.026  1.00  0.00     0.000 C 
BRANCH  19  20
ATOM     20  C   UNL     1     101.032 100.017  10.017  1.00  0.00     0.000 C 
BRANCH  20  21
ATOM     21  C   UNL     1     100.002 100.061  11.161  1.00  0.00     0.000 C 
BRANCH  21  22
ATOM     22  C   UNL     1      98.567 100.400  10.713  1.00  0.00    -0.000 C 
BRANCH  22  23
ATOM     23  C   UNL     1      97.797  99.162  10.220  1.00  0.00    -0.000 C 
BRANCH  23  24
ATOM     24  C   UNL     1      96.688  99.516   9.216  1.00  0.00    -0.000 C 
BRANCH  24  25
ATOM     25  C   UNL     1      95.482 100.198   9.879  1.00  0.00    -0.000 C 
BRANCH  25  26
ATOM     26  C   UNL     1      94.294 100.277   8.907  1.00  0.00    -0.000 C 
BRANCH  26  27
ATOM     27  C   UNL     1      93.978  98.914   8.255  1.00  0.00    -0.000 C 
BRANCH  27  28
ATOM     28  C   UNL     1      93.881  98.973   6.721  1.00  0.00    -0.000 C 
BRANCH  28  29
ATOM     29  C   UNL     1      92.860 100.008   6.227  1.00  0.00    -0.003 C 
ATOM     30  C   UNL     1      91.502  99.806   6.894  1.00  0.00     0.004 C 
ENDBRANCH  28  29
ENDBRANCH  27  28
ENDBRANCH  26  27
ENDBRANCH  25  26
ENDBRANCH  24  25
ENDBRANCH  23  24
ENDBRANCH  22  23
ENDBRANCH  21  22
ENDBRANCH  20  21
ENDBRANCH  19  20
ENDBRANCH  18  19
ENDBRANCH  17  18
ENDBRANCH   1  17
TORSDOF 26
ENDMDL
MODEL 7
REMARK VINA RESULT:    21.461      4.723      8.734
REMARK INTER + INTRA:          55.619
REMARK INTER:                  56.999
REMARK INTRA:                  -1.380
REMARK UNBOUND:                 1.538
REMARK SMILES CCCCCCCCCCCCCCCCCCCCCCCCCCCC(=O)[O-]
REMARK SMILES IDX 15 1 16 2 17 3 18 4 19 5 20 6 21 7 22 8 23 9 24 10 25 11
REMARK SMILES IDX 26 12 27 13 28 14 29 15 30 16 14 17 13 18 12 19 11 20 10 21
REMARK SMILES IDX 9 22 8 23 7 24 6 25 5 26 4 27 3 28 2 29 1 30
REMARK H PARENT
REMARK Flexibility Score: inf
ROOT
ATOM      1  C   UNL     1     100.552  94.164  10.749  1.00  0.00     0.000 C 
ENDROOT
BRANCH   1   2
ATOM      2  C   UNL     1     101.494  95.142  10.020  1.00  0.00     0.000 C 
BRANCH   2   3
ATOM      3  C   UNL     1     101.740  96.462  10.779  1.00  0.00     0.000 C 
BRANCH   3   4
ATOM      4  C   UNL     1     101.034  97.659  10.119  1.00  0.00     0.000 C 
BRANCH   4   5
ATOM      5  C   UNL     1     101.728  98.994  10.432  1.00  0.00     0.000 C 
BRANCH   5   6
ATOM      6  C   UNL     1     100.727 100.104  10.800  1.00  0.00     0.000 C 
BRANCH   6   7
ATOM      7  C   UNL     1      99.268  99.619  10.780  1.00  0.00     0.000 C 
BRANCH   7   8
ATOM      8  C   UNL     1      98.643  99.378  12.171  1.00  0.00     0.000 C 
BRANCH   8   9
ATOM      9  C   UNL     1      97.635 100.450  12.629  1.00  0.00     0.000 C 
BRANCH   9  10
ATOM     10  C   UNL     1      96.155 100.028  12.558  1.00  0.00     0.000 C 
BRANCH  10  11
ATOM     11  C   UNL     1      95.275 100.962  11.699  1.00  0.00     0.000 C 
BRANCH  11  12
ATOM     12  C   UNL     1      94.687 100.255  10.465  1.00  0.00     0.006 C 
BRANCH  12  13
ATOM     13  C   UNL     1      95.719 100.101   9.340  1.00  0.00     0.053 C 
BRANCH  13  14
ATOM     14  C   UNL     1      95.188  99.272   8.209  1.00  0.00     0.041 C 
ATOM     15  O   UNL     1      95.982  98.686   7.426  1.00  0.00    -0.550 OA
ATOM     16  O   UNL     1      93.815  99.139   8.024  1.00  0.00    -0.550 OA
ENDBRANCH  13  14
ENDBRANCH  12  13
ENDBRANCH  11  12
ENDBRANCH  10  11
ENDBRANCH   9  10
ENDBRANCH   8   9
ENDBRANCH   7   8
ENDBRANCH   6   7
ENDBRANCH   5   6
ENDBRANCH   4   5
ENDBRANCH   3   4
ENDBRANCH   2   3
ENDBRANCH   1   2
BRANCH   1  17
ATOM     17  C   UNL     1      99.067  94.561  10.742  1.00  0.00     0.000 C 
BRANCH  17  18
ATOM     18  C   UNL     1      98.777  95.797  11.605  1.00  0.00     0.000 C 
BRANCH  18  19
ATOM     19  C   UNL     1      98.122  95.400  12.934  1.00  0.00     0.000 C 
BRANCH  19  20
ATOM     20  C   UNL     1      98.595  94.008  13.382  1.00  0.00     0.000 C 
BRANCH  20  21
ATOM     21  C   UNL     1      98.341  93.745  14.878  1.00  0.00     0.000 C 
BRANCH  21  22
ATOM     22  C   UNL     1      97.155  92.807  15.168  1.00  0.00    -0.000 C 
BRANCH  22  23
ATOM     23  C   UNL     1      97.343  91.411  14.546  1.00  0.00    -0.000 C 
BRANCH  23  24
ATOM     24  C   UNL     1      96.335  90.383  15.083  1.00  0.00    -0.000 C 
BRANCH  24  25
ATOM     25  C   UNL     1      94.915  90.954  15.210  1.00  0.00    -0.000 C 
BRANCH  25  26
ATOM     26  C   UNL     1      93.864  89.907  14.806  1.00  0.00    -0.000 C 
BRANCH  26  27
ATOM     27  C   UNL     1      93.140  89.302  16.027  1.00  0.00    -0.000 C 
BRANCH  27  28
ATOM     28  C   UNL     1      93.121  87.765  16.035  1.00  0.00    -0.000 C 
BRANCH  28  29
ATOM     29  C   UNL     1      91.747  87.183  15.670  1.00  0.00    -0.003 C 
ATOM     30  C   UNL     1      90.619  88.103  16.129  1.00  0.00     0.004 C 
ENDBRANCH  28  29
ENDBRANCH  27  28
ENDBRANCH  26  27
ENDBRANCH  25  26
ENDBRANCH  24  25
ENDBRANCH  23  24
ENDBRANCH  22  23
ENDBRANCH  21  22
ENDBRANCH  20  21
ENDBRANCH  19  20
ENDBRANCH  18  19
ENDBRANCH  17  18
ENDBRANCH   1  17
TORSDOF 26
ENDMDL
MODEL 8
REMARK VINA RESULT:    21.518      4.897      9.526
REMARK INTER + INTRA:          55.763
REMARK INTER:                  56.827
REMARK INTRA:                  -1.064
REMARK UNBOUND:                 1.538
REMARK SMILES CCCCCCCCCCCCCCCCCCCCCCCCCCCC(=O)[O-]
REMARK SMILES IDX 15 1 16 2 17 3 18 4 19 5 20 6 21 7 22 8 23 9 24 10 25 11
REMARK SMILES IDX 26 12 27 13 28 14 29 15 30 16 14 17 13 18 12 19 11 20 10 21
REMARK SMILES IDX 9 22 8 23 7 24 6 25 5 26 4 27 3 28 2 29 1 30
REMARK H PARENT
REMARK Flexibility Score: inf
ROOT
ATOM      1  C   UNL     1      99.094  93.270  11.974  1.00  0.00     0.000 C 
ENDROOT
BRANCH   1   2
ATOM      2  C   UNL     1      99.432  94.154  10.758  1.00  0.00     0.000 C 
BRANCH   2   3
ATOM      3  C   UNL     1      98.783  95.554  10.799  1.00  0.00     0.000 C 
BRANCH   3   4
ATOM      4  C   UNL     1      99.823  96.685  10.728  1.00  0.00     0.000 C 
BRANCH   4   5
ATOM      5  C   UNL     1     101.241  96.160  10.452  1.00  0.00     0.000 C 
BRANCH   5   6
ATOM      6  C   UNL     1     102.219  97.285  10.068  1.00  0.00     0.000 C 
BRANCH   6   7
ATOM      7  C   UNL     1     101.826  98.645  10.671  1.00  0.00     0.000 C 
BRANCH   7   8
ATOM      8  C   UNL     1     102.404  99.874   9.937  1.00  0.00     0.000 C 
BRANCH   8   9
ATOM      9  C   UNL     1     101.385 100.986   9.622  1.00  0.00     0.000 C 
BRANCH   9  10
ATOM     10  C   UNL     1      99.965 100.744  10.166  1.00  0.00     0.000 C 
BRANCH  10  11
ATOM     11  C   UNL     1      99.929 100.119  11.578  1.00  0.00     0.000 C 
BRANCH  11  12
ATOM     12  C   UNL     1      98.631 100.442  12.338  1.00  0.00     0.006 C 
BRANCH  12  13
ATOM     13  C   UNL     1      97.496  99.470  11.988  1.00  0.00     0.053 C 
BRANCH  13  14
ATOM     14  C   UNL     1      97.089  98.642  13.169  1.00  0.00     0.041 C 
ATOM     15  O   UNL     1      96.335  99.129  14.053  1.00  0.00    -0.550 OA
ATOM     16  O   UNL     1      97.535  97.330  13.292  1.00  0.00    -0.550 OA
ENDBRANCH  13  14
ENDBRANCH  12  13
ENDBRANCH  11  12
ENDBRANCH  10  11
ENDBRANCH   9  10
ENDBRANCH   8   9
ENDBRANCH   7   8
ENDBRANCH   6   7
ENDBRANCH   5   6
ENDBRANCH   4   5
ENDBRANCH   3   4
ENDBRANCH   2   3
ENDBRANCH   1   2
BRANCH   1  17
ATOM     17  C   UNL     1      98.390  93.995  13.133  1.00  0.00     0.000 C 
BRANCH  17  18
ATOM     18  C   UNL     1      98.537  93.260  14.473  1.00  0.00     0.000 C 
BRANCH  18  19
ATOM     19  C   UNL     1      97.168  93.013  15.119  1.00  0.00     0.000 C 
BRANCH  19  20
ATOM     20  C   UNL     1      96.690  91.577  14.857  1.00  0.00     0.000 C 
BRANCH  20  21
ATOM     21  C   UNL     1      95.254  91.327  15.353  1.00  0.00     0.000 C 
BRANCH  21  22
ATOM     22  C   UNL     1      94.694  89.934  15.008  1.00  0.00    -0.000 C 
BRANCH  22  23
ATOM     23  C   UNL     1      93.327  89.671  15.663  1.00  0.00    -0.000 C 
BRANCH  23  24
ATOM     24  C   UNL     1      92.998  88.173  15.767  1.00  0.00    -0.000 C 
BRANCH  24  25
ATOM     25  C   UNL     1      91.894  87.877  16.792  1.00  0.00    -0.000 C 
BRANCH  25  26
ATOM     26  C   UNL     1      92.464  87.140  18.016  1.00  0.00    -0.000 C 
BRANCH  26  27
ATOM     27  C   UNL     1      93.405  88.032  18.851  1.00  0.00    -0.000 C 
BRANCH  27  28
ATOM     28  C   UNL     1      92.731  88.655  20.085  1.00  0.00    -0.000 C 
BRANCH  28  29
ATOM     29  C   UNL     1      92.450  90.155  19.917  1.00  0.00    -0.003 C 
ATOM     30  C   UNL     1      93.667  90.885  19.353  1.00  0.00     0.004 C 
ENDBRANCH  28  29
ENDBRANCH  27  28
ENDBRANCH  26  27
ENDBRANCH  25  26
ENDBRANCH  24  25
ENDBRANCH  23  24
ENDBRANCH  22  23
ENDBRANCH  21  22
ENDBRANCH  20  21
ENDBRANCH  19  20
ENDBRANCH  18  19
ENDBRANCH  17  18
ENDBRANCH   1  17
TORSDOF 26
ENDMDL
MODEL 9
REMARK VINA RESULT:    21.546      5.945      7.623
REMARK INTER + INTRA:          55.834
REMARK INTER:                  55.758
REMARK INTRA:                   0.076
REMARK UNBOUND:                 1.538
REMARK SMILES CCCCCCCCCCCCCCCCCCCCCCCCCCCC(=O)[O-]
REMARK SMILES IDX 15 1 16 2 17 3 18 4 19 5 20 6 21 7 22 8 23 9 24 10 25 11
REMARK SMILES IDX 26 12 27 13 28 14 29 15 30 16 14 17 13 18 12 19 11 20 10 21
REMARK SMILES IDX 9 22 8 23 7 24 6 25 5 26 4 27 3 28 2 29 1 30
REMARK H PARENT
REMARK Flexibility Score: inf
ROOT
ATOM      1  C   UNL     1     100.838  95.654  10.392  1.00  0.00     0.000 C 
ENDROOT
BRANCH   1   2
ATOM      2  C   UNL     1      99.509  96.373  10.694  1.00  0.00     0.000 C 
BRANCH   2   3
ATOM      3  C   UNL     1      98.357  95.425  11.087  1.00  0.00     0.000 C 
BRANCH   3   4
ATOM      4  C   UNL     1      98.859  94.150  11.786  1.00  0.00     0.000 C 
BRANCH   4   5
ATOM      5  C   UNL     1     100.058  93.518  11.061  1.00  0.00     0.000 C 
BRANCH   5   6
ATOM      6  C   UNL     1     100.069  91.983  11.172  1.00  0.00     0.000 C 
BRANCH   6   7
ATOM      7  C   UNL     1     101.451  91.375  10.875  1.00  0.00     0.000 C 
BRANCH   7   8
ATOM      8  C   UNL     1     101.523  89.837  10.983  1.00  0.00     0.000 C 
BRANCH   8   9
ATOM      9  C   UNL     1     100.540  89.071  10.077  1.00  0.00     0.000 C 
BRANCH   9  10
ATOM     10  C   UNL     1     101.171  88.425   8.829  1.00  0.00     0.000 C 
BRANCH  10  11
ATOM     11  C   UNL     1     100.432  87.162   8.332  1.00  0.00     0.000 C 
BRANCH  11  12
ATOM     12  C   UNL     1     101.394  86.022   7.956  1.00  0.00     0.006 C 
BRANCH  12  13
ATOM     13  C   UNL     1     101.029  84.702   8.648  1.00  0.00     0.053 C 
BRANCH  13  14
ATOM     14  C   UNL     1     100.724  83.620   7.656  1.00  0.00     0.041 C 
ATOM     15  O   UNL     1     101.658  82.942   7.152  1.00  0.00    -0.550 OA
ATOM     16  O   UNL     1      99.407  83.354   7.294  1.00  0.00    -0.550 OA
ENDBRANCH  13  14
ENDBRANCH  12  13
ENDBRANCH  11  12
ENDBRANCH  10  11
ENDBRANCH   9  10
ENDBRANCH   8   9
ENDBRANCH   7   8
ENDBRANCH   6   7
ENDBRANCH   5   6
ENDBRANCH   4   5
ENDBRANCH   3   4
ENDBRANCH   2   3
ENDBRANCH   1   2
BRANCH   1  17
ATOM     17  C   UNL     1     102.005  96.576  10.005  1.00  0.00     0.000 C 
BRANCH  17  18
ATOM     18  C   UNL     1     101.942  97.942  10.706  1.00  0.00     0.000 C 
BRANCH  18  19
ATOM     19  C   UNL     1     101.824  99.080   9.685  1.00  0.00     0.000 C 
BRANCH  19  20
ATOM     20  C   UNL     1     100.718 100.066  10.090  1.00  0.00     0.000 C 
BRANCH  20  21
ATOM     21  C   UNL     1     100.186  99.812  11.513  1.00  0.00     0.000 C 
BRANCH  21  22
ATOM     22  C   UNL     1      98.687 100.115  11.696  1.00  0.00    -0.000 C 
BRANCH  22  23
ATOM     23  C   UNL     1      97.788  99.032  11.073  1.00  0.00    -0.000 C 
BRANCH  23  24
ATOM     24  C   UNL     1      97.594  99.221   9.560  1.00  0.00    -0.000 C 
BRANCH  24  25
ATOM     25  C   UNL     1      96.242  99.860   9.209  1.00  0.00    -0.000 C 
BRANCH  25  26
ATOM     26  C   UNL     1      95.850  99.552   7.755  1.00  0.00    -0.000 C 
BRANCH  26  27
ATOM     27  C   UNL     1      94.799  98.426   7.658  1.00  0.00    -0.000 C 
BRANCH  27  28
ATOM     28  C   UNL     1      93.348  98.931   7.713  1.00  0.00    -0.000 C 
BRANCH  28  29
ATOM     29  C   UNL     1      92.780  99.266   6.325  1.00  0.00    -0.003 C 
ATOM     30  C   UNL     1      92.044 100.603   6.338  1.00  0.00     0.004 C 
ENDBRANCH  28  29
ENDBRANCH  27  28
ENDBRANCH  26  27
ENDBRANCH  25  26
ENDBRANCH  24  25
ENDBRANCH  23  24
ENDBRANCH  22  23
ENDBRANCH  21  22
ENDBRANCH  20  21
ENDBRANCH  19  20
ENDBRANCH  18  19
ENDBRANCH  17  18
ENDBRANCH   1  17
TORSDOF 26
ENDMDL
