MODEL 1
REMARK VINA RESULT:    -3.252      0.000      0.000
REMARK INTER + INTRA:          -3.639
REMARK INTER:                  -3.632
REMARK INTRA:                  -0.006
REMARK UNBOUND:                -0.006
REMARK SMILES CCCC(=O)[O-]
REMARK SMILES IDX 3 1 4 2 5 3 6 4 2 5 1 6
REMARK H PARENT
REMARK Flexibility Score: inf
ROOT
ATOM      1  C   UNL     1       7.439 125.132 109.405  1.00  0.00     0.052 C 
ENDROOT
BRANCH   1   2
ATOM      2  C   UNL     1       7.805 124.243 110.552  1.00  0.00     0.041 C 
ATOM      3  O   UNL     1       8.682 124.605 111.379  1.00  0.00    -0.550 OA
ATOM      4  O   UNL     1       7.143 123.035 110.734  1.00  0.00    -0.550 OA
ENDBRANCH   1   2
BRANCH   1   5
ATOM      5  C   UNL     1       7.864 124.497 108.077  1.00  0.00     0.003 C 
ATOM      6  C   UNL     1       7.214 125.209 106.895  1.00  0.00     0.004 C 
ENDBRANCH   1   5
TORSDOF 2
ENDMDL
MODEL 2
REMARK VINA RESULT:    -3.092      1.325      2.124
REMARK INTER + INTRA:          -3.460
REMARK INTER:                  -3.425
REMARK INTRA:                  -0.034
REMARK UNBOUND:                -0.006
REMARK SMILES CCCC(=O)[O-]
REMARK SMILES IDX 3 1 4 2 5 3 6 4 2 5 1 6
REMARK H PARENT
REMARK Flexibility Score: inf
ROOT
ATOM      1  C   UNL     1       7.875 125.157 111.164  1.00  0.00     0.052 C 
ENDROOT
BRANCH   1   2
ATOM      2  C   UNL     1       8.002 123.953 112.043  1.00  0.00     0.041 C 
ATOM      3  O   UNL     1       7.132 123.044 112.001  1.00  0.00    -0.550 OA
ATOM      4  O   UNL     1       9.107 123.811 112.872  1.00  0.00    -0.550 OA
ENDBRANCH   1   2
BRANCH   1   5
ATOM      5  C   UNL     1       8.570 124.917 109.821  1.00  0.00     0.003 C 
ATOM      6  C   UNL     1       7.556 124.827 108.685  1.00  0.00     0.004 C 
ENDBRANCH   1   5
TORSDOF 2
ENDMDL
MODEL 3
REMARK VINA RESULT:    -2.783      3.163      3.796
REMARK INTER + INTRA:          -3.115
REMARK INTER:                  -3.079
REMARK INTRA:                  -0.037
REMARK UNBOUND:                -0.006
REMARK SMILES CCCC(=O)[O-]
REMARK SMILES IDX 3 1 4 2 5 3 6 4 2 5 1 6
REMARK H PARENT
REMARK Flexibility Score: inf
ROOT
ATOM      1  C   UNL     1       6.420 124.320 112.005  1.00  0.00     0.052 C 
ENDROOT
BRANCH   1   2
ATOM      2  C   UNL     1       7.884 124.014 112.074  1.00  0.00     0.041 C 
ATOM      3  O   UNL     1       8.699 124.656 111.361  1.00  0.00    -0.550 OA
ATOM      4  O   UNL     1       8.352 123.052 112.960  1.00  0.00    -0.550 OA
ENDBRANCH   1   2
BRANCH   1   5
ATOM      5  C   UNL     1       5.617 123.042 111.750  1.00  0.00     0.003 C 
ATOM      6  C   UNL     1       4.647 122.764 112.894  1.00  0.00     0.004 C 
ENDBRANCH   1   5
TORSDOF 2
ENDMDL
MODEL 4
REMARK VINA RESULT:    -2.683      3.050      3.400
REMARK INTER + INTRA:          -3.004
REMARK INTER:                  -2.992
REMARK INTRA:                  -0.012
REMARK UNBOUND:                -0.006
REMARK SMILES CCCC(=O)[O-]
REMARK SMILES IDX 3 1 4 2 5 3 6 4 2 5 1 6
REMARK H PARENT
REMARK Flexibility Score: inf
ROOT
ATOM      1  C   UNL     1       5.210 123.563 111.772  1.00  0.00     0.052 C 
ENDROOT
BRANCH   1   2
ATOM      2  C   UNL     1       6.672 123.306 111.588  1.00  0.00     0.041 C 
ATOM      3  O   UNL     1       7.422 123.165 112.590  1.00  0.00    -0.550 OA
ATOM      4  O   UNL     1       7.199 123.173 110.310  1.00  0.00    -0.550 OA
ENDBRANCH   1   2
BRANCH   1   5
ATOM      5  C   UNL     1       4.802 124.864 111.075  1.00  0.00     0.003 C 
ATOM      6  C   UNL     1       3.338 124.824 110.648  1.00  0.00     0.004 C 
ENDBRANCH   1   5
TORSDOF 2
ENDMDL
MODEL 5
REMARK VINA RESULT:    -2.674      7.811      8.436
REMARK INTER + INTRA:          -2.994
REMARK INTER:                  -2.961
REMARK INTRA:                  -0.033
REMARK UNBOUND:                -0.006
REMARK SMILES CCCC(=O)[O-]
REMARK SMILES IDX 3 1 4 2 5 3 6 4 2 5 1 6
REMARK H PARENT
REMARK Flexibility Score: inf
ROOT
ATOM      1  C   UNL     1       6.053 129.947 114.888  1.00  0.00     0.052 C 
ENDROOT
BRANCH   1   2
ATOM      2  C   UNL     1       7.318 130.743 114.966  1.00  0.00     0.041 C 
ATOM      3  O   UNL     1       7.552 131.463 115.972  1.00  0.00    -0.550 OA
ATOM      4  O   UNL     1       8.260 130.652 113.950  1.00  0.00    -0.550 OA
ENDBRANCH   1   2
BRANCH   1   5
ATOM      5  C   UNL     1       5.232 130.365 113.664  1.00  0.00     0.003 C 
ATOM      6  C   UNL     1       4.111 131.323 114.055  1.00  0.00     0.004 C 
ENDBRANCH   1   5
TORSDOF 2
ENDMDL
MODEL 6
REMARK VINA RESULT:    -2.650      2.516      3.444
REMARK INTER + INTRA:          -2.966
REMARK INTER:                  -2.961
REMARK INTRA:                  -0.005
REMARK UNBOUND:                -0.006
REMARK SMILES CCCC(=O)[O-]
REMARK SMILES IDX 3 1 4 2 5 3 6 4 2 5 1 6
REMARK H PARENT
REMARK Flexibility Score: inf
ROOT
ATOM      1  C   UNL     1       7.570 124.301 109.382  1.00  0.00     0.052 C 
ENDROOT
BRANCH   1   2
ATOM      2  C   UNL     1       7.657 124.831 107.985  1.00  0.00     0.041 C 
ATOM      3  O   UNL     1       8.735 124.745 107.341  1.00  0.00    -0.550 OA
ATOM      4  O   UNL     1       6.533 125.375 107.377  1.00  0.00    -0.550 OA
ENDBRANCH   1   2
BRANCH   1   5
ATOM      5  C   UNL     1       8.006 125.370 110.389  1.00  0.00     0.003 C 
ATOM      6  C   UNL     1       7.456 125.072 111.780  1.00  0.00     0.004 C 
ENDBRANCH   1   5
TORSDOF 2
ENDMDL
MODEL 7
REMARK VINA RESULT:    -2.588     12.664     13.900
REMARK INTER + INTRA:          -2.897
REMARK INTER:                  -2.853
REMARK INTRA:                  -0.044
REMARK UNBOUND:                -0.006
REMARK SMILES CCCC(=O)[O-]
REMARK SMILES IDX 3 1 4 2 5 3 6 4 2 5 1 6
REMARK H PARENT
REMARK Flexibility Score: inf
ROOT
ATOM      1  C   UNL     1      13.995 124.788 121.578  1.00  0.00     0.052 C 
ENDROOT
BRANCH   1   2
ATOM      2  C   UNL     1      14.396 125.471 120.308  1.00  0.00     0.041 C 
ATOM      3  O   UNL     1      14.461 126.727 120.258  1.00  0.00    -0.550 OA
ATOM      4  O   UNL     1      14.743 124.718 119.194  1.00  0.00    -0.550 OA
ENDBRANCH   1   2
BRANCH   1   5
ATOM      5  C   UNL     1      15.185 124.703 122.539  1.00  0.00     0.003 C 
ATOM      6  C   UNL     1      16.063 123.497 122.222  1.00  0.00     0.004 C 
ENDBRANCH   1   5
TORSDOF 2
ENDMDL
MODEL 8
REMARK VINA RESULT:    -2.556     11.263     11.959
REMARK INTER + INTRA:          -2.862
REMARK INTER:                  -2.855
REMARK INTRA:                  -0.007
REMARK UNBOUND:                -0.006
REMARK SMILES CCCC(=O)[O-]
REMARK SMILES IDX 3 1 4 2 5 3 6 4 2 5 1 6
REMARK H PARENT
REMARK Flexibility Score: inf
ROOT
ATOM      1  C   UNL     1      12.736 125.228 120.546  1.00  0.00     0.052 C 
ENDROOT
BRANCH   1   2
ATOM      2  C   UNL     1      14.108 125.533 120.032  1.00  0.00     0.041 C 
ATOM      3  O   UNL     1      14.697 126.588 120.386  1.00  0.00    -0.550 OA
ATOM      4  O   UNL     1      14.756 124.629 119.200  1.00  0.00    -0.550 OA
ENDBRANCH   1   2
BRANCH   1   5
ATOM      5  C   UNL     1      11.709 125.308 119.412  1.00  0.00     0.003 C 
ATOM      6  C   UNL     1      10.393 124.649 119.815  1.00  0.00     0.004 C 
ENDBRANCH   1   5
TORSDOF 2
ENDMDL
MODEL 9
REMARK VINA RESULT:    -2.492      7.217      8.051
REMARK INTER + INTRA:          -2.790
REMARK INTER:                  -2.722
REMARK INTRA:                  -0.068
REMARK UNBOUND:                -0.006
REMARK SMILES CCCC(=O)[O-]
REMARK SMILES IDX 3 1 4 2 5 3 6 4 2 5 1 6
REMARK H PARENT
REMARK Flexibility Score: inf
ROOT
ATOM      1  C   UNL     1       5.853 130.617 114.122  1.00  0.00     0.052 C 
ENDROOT
BRANCH   1   2
ATOM      2  C   UNL     1       7.272 130.829 114.548  1.00  0.00     0.041 C 
ATOM      3  O   UNL     1       8.214 130.623 113.739  1.00  0.00    -0.550 OA
ATOM      4  O   UNL     1       7.551 131.301 115.824  1.00  0.00    -0.550 OA
ENDBRANCH   1   2
BRANCH   1   5
ATOM      5  C   UNL     1       5.609 129.143 113.787  1.00  0.00     0.003 C 
ATOM      6  C   UNL     1       5.570 128.291 115.052  1.00  0.00     0.004 C 
ENDBRANCH   1   5
TORSDOF 2
ENDMDL
