MODEL 1
REMARK VINA RESULT:    -2.616      0.000      0.000
REMARK INTER + INTRA:          -5.627
REMARK INTER:                  -4.451
REMARK INTRA:                  -1.176
REMARK UNBOUND:                -1.176
REMARK SMILES CCCCCCCCCCCCCC(=O)[O-]
REMARK SMILES IDX 8 1 9 2 10 3 11 4 12 5 13 6 14 7 15 8 16 9 7 10 6 11 5 12
REMARK SMILES IDX 4 13 3 14 2 15 1 16
REMARK H PARENT
REMARK Flexibility Score: inf
ROOT
ATOM      1  C   UNL     1       8.404  -9.747   5.517  1.00  0.00     0.000 C 
ENDROOT
BRANCH   1   2
ATOM      2  C   UNL     1       7.233 -10.110   6.446  1.00  0.00     0.000 C 
BRANCH   2   3
ATOM      3  C   UNL     1       5.875 -10.083   5.725  1.00  0.00     0.000 C 
BRANCH   3   4
ATOM      4  C   UNL     1       5.217  -8.693   5.743  1.00  0.00     0.000 C 
BRANCH   4   5
ATOM      5  C   UNL     1       4.408  -8.442   7.031  1.00  0.00     0.006 C 
BRANCH   5   6
ATOM      6  C   UNL     1       3.675  -9.690   7.549  1.00  0.00     0.053 C 
BRANCH   6   7
ATOM      7  C   UNL     1       3.291  -9.566   8.990  1.00  0.00     0.041 C 
ATOM      8  O   UNL     1       4.180  -9.476   9.878  1.00  0.00    -0.550 OA
ATOM      9  O   UNL     1       1.951  -9.573   9.355  1.00  0.00    -0.550 OA
ENDBRANCH   6   7
ENDBRANCH   5   6
ENDBRANCH   4   5
ENDBRANCH   3   4
ENDBRANCH   2   3
ENDBRANCH   1   2
BRANCH   1  10
ATOM     10  C   UNL     1       9.770 -10.125   6.113  1.00  0.00     0.000 C 
BRANCH  10  11
ATOM     11  C   UNL     1      10.118  -9.303   7.368  1.00  0.00    -0.000 C 
BRANCH  11  12
ATOM     12  C   UNL     1       9.990 -10.122   8.663  1.00  0.00    -0.000 C 
BRANCH  12  13
ATOM     13  C   UNL     1      10.019  -9.242   9.923  1.00  0.00    -0.000 C 
BRANCH  13  14
ATOM     14  C   UNL     1       9.309  -7.889   9.724  1.00  0.00    -0.000 C 
BRANCH  14  15
ATOM     15  C   UNL     1       7.791  -7.979   9.495  1.00  0.00    -0.003 C 
ATOM     16  C   UNL     1       7.294  -7.037   8.399  1.00  0.00     0.004 C 
ENDBRANCH  14  15
ENDBRANCH  13  14
ENDBRANCH  12  13
ENDBRANCH  11  12
ENDBRANCH  10  11
ENDBRANCH   1  10
TORSDOF 12
ENDMDL
MODEL 2
REMARK VINA RESULT:    -2.362      2.835      5.152
REMARK INTER + INTRA:          -5.195
REMARK INTER:                  -3.771
REMARK INTRA:                  -1.424
REMARK UNBOUND:                -1.176
REMARK SMILES CCCCCCCCCCCCCC(=O)[O-]
REMARK SMILES IDX 8 1 9 2 10 3 11 4 12 5 13 6 14 7 15 8 16 9 7 10 6 11 5 12
REMARK SMILES IDX 4 13 3 14 2 15 1 16
REMARK H PARENT
REMARK Flexibility Score: inf
ROOT
ATOM      1  C   UNL     1       3.932  -9.958   6.607  1.00  0.00     0.000 C 
ENDROOT
BRANCH   1   2
ATOM      2  C   UNL     1       3.472  -9.982   8.076  1.00  0.00     0.000 C 
BRANCH   2   3
ATOM      3  C   UNL     1       4.256  -8.995   8.956  1.00  0.00     0.000 C 
BRANCH   3   4
ATOM      4  C   UNL     1       4.981  -9.684  10.125  1.00  0.00     0.000 C 
BRANCH   4   5
ATOM      5  C   UNL     1       6.514  -9.538  10.034  1.00  0.00     0.006 C 
BRANCH   5   6
ATOM      6  C   UNL     1       6.968  -8.218   9.391  1.00  0.00     0.053 C 
BRANCH   6   7
ATOM      7  C   UNL     1       8.383  -8.277   8.908  1.00  0.00     0.041 C 
ATOM      8  O   UNL     1       9.291  -7.665   9.530  1.00  0.00    -0.550 OA
ATOM      9  O   UNL     1       8.696  -8.990   7.759  1.00  0.00    -0.550 OA
ENDBRANCH   6   7
ENDBRANCH   5   6
ENDBRANCH   4   5
ENDBRANCH   3   4
ENDBRANCH   2   3
ENDBRANCH   1   2
BRANCH   1  10
ATOM     10  C   UNL     1       5.458 -10.081   6.464  1.00  0.00     0.000 C 
BRANCH  10  11
ATOM     11  C   UNL     1       6.043  -9.063   5.468  1.00  0.00    -0.000 C 
BRANCH  11  12
ATOM     12  C   UNL     1       5.309  -7.713   5.505  1.00  0.00    -0.000 C 
BRANCH  12  13
ATOM     13  C   UNL     1       5.926  -6.734   6.518  1.00  0.00    -0.000 C 
BRANCH  13  14
ATOM     14  C   UNL     1       5.805  -5.263   6.078  1.00  0.00    -0.000 C 
BRANCH  14  15
ATOM     15  C   UNL     1       5.289  -5.053   4.644  1.00  0.00    -0.003 C 
ATOM     16  C   UNL     1       5.277  -3.585   4.220  1.00  0.00     0.004 C 
ENDBRANCH  14  15
ENDBRANCH  13  14
ENDBRANCH  12  13
ENDBRANCH  11  12
ENDBRANCH  10  11
ENDBRANCH   1  10
TORSDOF 12
ENDMDL
MODEL 3
REMARK VINA RESULT:    -1.896      2.303      4.592
REMARK INTER + INTRA:          -4.403
REMARK INTER:                  -3.425
REMARK INTRA:                  -0.978
REMARK UNBOUND:                -1.176
REMARK SMILES CCCCCCCCCCCCCC(=O)[O-]
REMARK SMILES IDX 8 1 9 2 10 3 11 4 12 5 13 6 14 7 15 8 16 9 7 10 6 11 5 12
REMARK SMILES IDX 4 13 3 14 2 15 1 16
REMARK H PARENT
REMARK Flexibility Score: inf
ROOT
ATOM      1  C   UNL     1       6.007 -10.011   4.946  1.00  0.00     0.000 C 
ENDROOT
BRANCH   1   2
ATOM      2  C   UNL     1       7.521  -9.800   5.116  1.00  0.00     0.000 C 
BRANCH   2   3
ATOM      3  C   UNL     1       8.008 -10.125   6.538  1.00  0.00     0.000 C 
BRANCH   3   4
ATOM      4  C   UNL     1       8.232  -8.867   7.394  1.00  0.00     0.000 C 
BRANCH   4   5
ATOM      5  C   UNL     1       8.839  -9.194   8.774  1.00  0.00     0.006 C 
BRANCH   5   6
ATOM      6  C   UNL     1       7.851  -9.880   9.731  1.00  0.00     0.053 C 
BRANCH   6   7
ATOM      7  C   UNL     1       6.587  -9.099   9.900  1.00  0.00     0.041 C 
ATOM      8  O   UNL     1       6.632  -7.859  10.120  1.00  0.00    -0.550 OA
ATOM      9  O   UNL     1       5.358  -9.742   9.837  1.00  0.00    -0.550 OA
ENDBRANCH   6   7
ENDBRANCH   5   6
ENDBRANCH   4   5
ENDBRANCH   3   4
ENDBRANCH   2   3
ENDBRANCH   1   2
BRANCH   1  10
ATOM     10  C   UNL     1       5.267 -10.092   6.292  1.00  0.00     0.000 C 
BRANCH  10  11
ATOM     11  C   UNL     1       4.366  -8.870   6.547  1.00  0.00    -0.000 C 
BRANCH  11  12
ATOM     12  C   UNL     1       4.817  -7.630   5.758  1.00  0.00    -0.000 C 
BRANCH  12  13
ATOM     13  C   UNL     1       5.820  -6.765   6.540  1.00  0.00    -0.000 C 
BRANCH  13  14
ATOM     14  C   UNL     1       5.837  -5.298   6.074  1.00  0.00    -0.000 C 
BRANCH  14  15
ATOM     15  C   UNL     1       5.291  -5.061   4.655  1.00  0.00    -0.003 C 
ATOM     16  C   UNL     1       5.291  -3.586   4.252  1.00  0.00     0.004 C 
ENDBRANCH  14  15
ENDBRANCH  13  14
ENDBRANCH  12  13
ENDBRANCH  11  12
ENDBRANCH  10  11
ENDBRANCH   1  10
TORSDOF 12
ENDMDL
MODEL 4
REMARK VINA RESULT:    -1.878      2.018      3.968
REMARK INTER + INTRA:          -4.373
REMARK INTER:                  -3.393
REMARK INTRA:                  -0.979
REMARK UNBOUND:                -1.176
REMARK SMILES CCCCCCCCCCCCCC(=O)[O-]
REMARK SMILES IDX 8 1 9 2 10 3 11 4 12 5 13 6 14 7 15 8 16 9 7 10 6 11 5 12
REMARK SMILES IDX 4 13 3 14 2 15 1 16
REMARK H PARENT
REMARK Flexibility Score: inf
ROOT
ATOM      1  C   UNL     1       8.459  -9.360   7.819  1.00  0.00     0.000 C 
ENDROOT
BRANCH   1   2
ATOM      2  C   UNL     1       8.547  -8.020   8.572  1.00  0.00     0.000 C 
BRANCH   2   3
ATOM      3  C   UNL     1       7.228  -7.646   9.268  1.00  0.00     0.000 C 
BRANCH   3   4
ATOM      4  C   UNL     1       6.622  -8.814  10.065  1.00  0.00     0.000 C 
BRANCH   4   5
ATOM      5  C   UNL     1       5.082  -8.751  10.124  1.00  0.00     0.006 C 
BRANCH   5   6
ATOM      6  C   UNL     1       4.396 -10.043   9.653  1.00  0.00     0.053 C 
BRANCH   6   7
ATOM      7  C   UNL     1       3.161  -9.772   8.853  1.00  0.00     0.041 C 
ATOM      8  O   UNL     1       2.097  -9.423   9.428  1.00  0.00    -0.550 OA
ATOM      9  O   UNL     1       3.179  -9.926   7.473  1.00  0.00    -0.550 OA
ENDBRANCH   6   7
ENDBRANCH   5   6
ENDBRANCH   4   5
ENDBRANCH   3   4
ENDBRANCH   2   3
ENDBRANCH   1   2
BRANCH   1  10
ATOM     10  C   UNL     1       7.079  -9.590   7.181  1.00  0.00     0.000 C 
BRANCH  10  11
ATOM     11  C   UNL     1       7.071  -9.303   5.668  1.00  0.00    -0.000 C 
BRANCH  11  12
ATOM     12  C   UNL     1       5.787  -8.591   5.211  1.00  0.00    -0.000 C 
BRANCH  12  13
ATOM     13  C   UNL     1       5.327  -7.509   6.202  1.00  0.00    -0.000 C 
BRANCH  13  14
ATOM     14  C   UNL     1       6.190  -6.234   6.139  1.00  0.00    -0.000 C 
BRANCH  14  15
ATOM     15  C   UNL     1       5.403  -4.926   5.947  1.00  0.00    -0.003 C 
ATOM     16  C   UNL     1       5.488  -4.380   4.522  1.00  0.00     0.004 C 
ENDBRANCH  14  15
ENDBRANCH  13  14
ENDBRANCH  12  13
ENDBRANCH  11  12
ENDBRANCH  10  11
ENDBRANCH   1  10
TORSDOF 12
ENDMDL
MODEL 5
REMARK VINA RESULT:    -1.651      1.584      5.003
REMARK INTER + INTRA:          -3.986
REMARK INTER:                  -3.210
REMARK INTRA:                  -0.776
REMARK UNBOUND:                -1.176
REMARK SMILES CCCCCCCCCCCCCC(=O)[O-]
REMARK SMILES IDX 8 1 9 2 10 3 11 4 12 5 13 6 14 7 15 8 16 9 7 10 6 11 5 12
REMARK SMILES IDX 4 13 3 14 2 15 1 16
REMARK H PARENT
REMARK Flexibility Score: inf
ROOT
ATOM      1  C   UNL     1       8.428 -10.120   6.007  1.00  0.00     0.000 C 
ENDROOT
BRANCH   1   2
ATOM      2  C   UNL     1       9.209  -8.807   6.193  1.00  0.00     0.000 C 
BRANCH   2   3
ATOM      3  C   UNL     1       9.964  -8.752   7.531  1.00  0.00     0.000 C 
BRANCH   3   4
ATOM      4  C   UNL     1       9.884 -10.074   8.316  1.00  0.00     0.000 C 
BRANCH   4   5
ATOM      5  C   UNL     1       9.540  -9.855   9.803  1.00  0.00     0.006 C 
BRANCH   5   6
ATOM      6  C   UNL     1       9.088  -8.422  10.125  1.00  0.00     0.053 C 
BRANCH   6   7
ATOM      7  C   UNL     1       7.669  -8.170   9.721  1.00  0.00     0.041 C 
ATOM      8  O   UNL     1       7.377  -7.157   9.032  1.00  0.00    -0.550 OA
ATOM      9  O   UNL     1       6.666  -9.040  10.125  1.00  0.00    -0.550 OA
ENDBRANCH   6   7
ENDBRANCH   5   6
ENDBRANCH   4   5
ENDBRANCH   3   4
ENDBRANCH   2   3
ENDBRANCH   1   2
BRANCH   1  10
ATOM     10  C   UNL     1       6.966 -10.009   6.469  1.00  0.00     0.000 C 
BRANCH  10  11
ATOM     11  C   UNL     1       6.303  -8.693   6.025  1.00  0.00    -0.000 C 
BRANCH  11  12
ATOM     12  C   UNL     1       4.843  -8.888   5.582  1.00  0.00    -0.000 C 
BRANCH  12  13
ATOM     13  C   UNL     1       3.850  -8.751   6.748  1.00  0.00    -0.000 C 
BRANCH  13  14
ATOM     14  C   UNL     1       3.337 -10.110   7.261  1.00  0.00    -0.000 C 
BRANCH  14  15
ATOM     15  C   UNL     1       2.778 -10.095   8.694  1.00  0.00    -0.003 C 
ATOM     16  C   UNL     1       3.464  -9.068   9.594  1.00  0.00     0.004 C 
ENDBRANCH  14  15
ENDBRANCH  13  14
ENDBRANCH  12  13
ENDBRANCH  11  12
ENDBRANCH  10  11
ENDBRANCH   1  10
TORSDOF 12
ENDMDL
MODEL 6
REMARK VINA RESULT:    -1.373      3.646      4.281
REMARK INTER + INTRA:          -3.513
REMARK INTER:                  -2.050
REMARK INTRA:                  -1.464
REMARK UNBOUND:                -1.176
REMARK SMILES CCCCCCCCCCCCCC(=O)[O-]
REMARK SMILES IDX 8 1 9 2 10 3 11 4 12 5 13 6 14 7 15 8 16 9 7 10 6 11 5 12
REMARK SMILES IDX 4 13 3 14 2 15 1 16
REMARK H PARENT
REMARK Flexibility Score: inf
ROOT
ATOM      1  C   UNL     1       7.596  -9.564   5.588  1.00  0.00     0.000 C 
ENDROOT
BRANCH   1   2
ATOM      2  C   UNL     1       6.169  -9.375   6.132  1.00  0.00     0.000 C 
BRANCH   2   3
ATOM      3  C   UNL     1       5.538  -8.045   5.686  1.00  0.00     0.000 C 
BRANCH   3   4
ATOM      4  C   UNL     1       5.676  -6.935   6.742  1.00  0.00     0.000 C 
BRANCH   4   5
ATOM      5  C   UNL     1       5.859  -5.540   6.110  1.00  0.00     0.006 C 
BRANCH   5   6
ATOM      6  C   UNL     1       5.231  -5.413   4.713  1.00  0.00     0.053 C 
BRANCH   6   7
ATOM      7  C   UNL     1       5.212  -3.998   4.226  1.00  0.00     0.041 C 
ATOM      8  O   UNL     1       6.277  -3.329   4.179  1.00  0.00    -0.550 OA
ATOM      9  O   UNL     1       4.013  -3.410   3.844  1.00  0.00    -0.550 OA
ENDBRANCH   6   7
ENDBRANCH   5   6
ENDBRANCH   4   5
ENDBRANCH   3   4
ENDBRANCH   2   3
ENDBRANCH   1   2
BRANCH   1  10
ATOM     10  C   UNL     1       8.566 -10.108   6.650  1.00  0.00     0.000 C 
BRANCH  10  11
ATOM     11  C   UNL     1       9.122  -9.003   7.567  1.00  0.00    -0.000 C 
BRANCH  11  12
ATOM     12  C   UNL     1       8.660  -9.159   9.025  1.00  0.00    -0.000 C 
BRANCH  12  13
ATOM     13  C   UNL     1       8.146  -7.840   9.626  1.00  0.00    -0.000 C 
BRANCH  13  14
ATOM     14  C   UNL     1       6.692  -7.937  10.124  1.00  0.00    -0.000 C 
BRANCH  14  15
ATOM     15  C   UNL     1       5.894  -9.132   9.574  1.00  0.00    -0.003 C 
ATOM     16  C   UNL     1       4.389  -9.004   9.804  1.00  0.00     0.004 C 
ENDBRANCH  14  15
ENDBRANCH  13  14
ENDBRANCH  12  13
ENDBRANCH  11  12
ENDBRANCH  10  11
ENDBRANCH   1  10
TORSDOF 12
ENDMDL
