MODEL 1
REMARK VINA RESULT:    -3.673      0.000      0.000
REMARK INTER + INTRA:          -4.943
REMARK INTER:                  -5.176
REMARK INTRA:                   0.233
REMARK UNBOUND:                 0.233
REMARK SMILES CC1=CCC(=C(C)C)C(=O)CC(C)=CCC1
REMARK SMILES IDX 12 1 14 2 13 3 15 4 16 5 2 6 1 7 3 8 11 10 9 11 10 12 5 13
REMARK SMILES IDX 6 14 7 15 8 16 4 17
REMARK H PARENT
REMARK Flexibility Score: 60.00
ROOT
ATOM      1  C   UNL     1      45.335  58.071  27.543  1.00  0.00    -0.070 C 
ATOM      2  C   UNL     1      44.713  57.073  28.209  1.00  0.00    -0.027 C 
ATOM      3  C   UNL     1      46.776  58.357  27.882  1.00  0.00     0.039 C 
ENDROOT
BRANCH   2   4
ATOM      4  C   UNL     1      43.252  56.700  28.080  1.00  0.00     0.032 C 
BRANCH   4   5
ATOM      5  C   UNL     1      42.775  56.441  26.636  1.00  0.00     0.034 C 
BRANCH   5   6
ATOM      6  C   UNL     1      43.563  55.350  25.933  1.00  0.00    -0.077 C 
ATOM      7  C   UNL     1      43.556  53.973  26.546  1.00  0.00     0.039 C 
ATOM      8  C   UNL     1      44.326  55.550  24.831  1.00  0.00    -0.023 CG0
ATOM      9  G   UNL     1      44.471  56.833  24.037  1.00  0.00     0.000 G0
ENDBRANCH   5   6
ENDBRANCH   4   5
ENDBRANCH   2   4
BRANCH   1  10
ATOM     10  C   UNL     1      44.630  58.968  26.545  1.00  0.00     0.111 C 
BRANCH  10  11
ATOM     11  C   UNL     1      45.317  58.956  25.205  1.00  0.00     0.163 C 
ATOM     12  O   UNL     1      45.573  60.062  24.659  1.00  0.00    -0.294 OA
BRANCH  11  13
ATOM     13  C   UNL     1      45.645  57.690  24.484  1.00  0.00    -0.002 C 
ATOM     14  C   UNL     1      46.940  57.369  24.187  1.00  0.00    -0.069 C 
ATOM     15  C   UNL     1      47.292  56.178  23.322  1.00  0.00     0.039 C 
ATOM     16  C   UNL     1      48.093  58.198  24.711  1.00  0.00     0.039 C 
BRANCH  13  17
ATOM     17  C   UNL     1      44.479  56.833  24.017  1.00  0.00     0.066 CG0
ATOM     18  G   UNL     1      44.327  55.568  24.839  1.00  0.00     0.000 G0
ENDBRANCH  13  17
ENDBRANCH  11  13
ENDBRANCH  10  11
ENDBRANCH   1  10
TORSDOF 0
ENDMDL
MODEL 2
REMARK VINA RESULT:    -3.667      1.962      2.589
REMARK INTER + INTRA:          -4.935
REMARK INTER:                  -5.191
REMARK INTRA:                   0.256
REMARK UNBOUND:                 0.233
REMARK SMILES CC1=CCC(=C(C)C)C(=O)CC(C)=CCC1
REMARK SMILES IDX 12 1 14 2 13 3 15 4 16 5 2 6 1 7 3 8 11 10 9 11 10 12 5 13
REMARK SMILES IDX 6 14 7 15 8 16 4 17
REMARK H PARENT
REMARK Flexibility Score: 60.00
ROOT
ATOM      1  C   UNL     1      45.042  57.677  27.752  1.00  0.00    -0.070 C 
ATOM      2  C   UNL     1      44.296  57.171  28.759  1.00  0.00    -0.027 C 
ATOM      3  C   UNL     1      46.404  58.228  28.090  1.00  0.00     0.039 C 
ENDROOT
BRANCH   2   4
ATOM      4  C   UNL     1      42.875  56.665  28.638  1.00  0.00     0.032 C 
BRANCH   4   5
ATOM      5  C   UNL     1      42.725  55.333  27.874  1.00  0.00     0.034 C 
BRANCH   5   6
ATOM      6  C   UNL     1      41.701  55.399  26.754  1.00  0.00    -0.077 C 
ATOM      7  C   UNL     1      40.278  55.729  27.124  1.00  0.00     0.039 C 
ATOM      8  C   UNL     1      41.970  55.115  25.456  1.00  0.00    -0.023 CG0
ATOM      9  G   UNL     1      43.320  54.779  24.853  1.00  0.00     0.000 G0
ENDBRANCH   5   6
ENDBRANCH   4   5
ENDBRANCH   2   4
BRANCH   1  10
ATOM     10  C   UNL     1      44.540  57.801  26.328  1.00  0.00     0.111 C 
BRANCH  10  11
ATOM     11  C   UNL     1      44.982  56.638  25.480  1.00  0.00     0.163 C 
ATOM     12  O   UNL     1      46.159  56.211  25.625  1.00  0.00    -0.294 OA
BRANCH  11  13
ATOM     13  C   UNL     1      44.103  56.023  24.441  1.00  0.00    -0.002 C 
ATOM     14  C   UNL     1      43.954  56.609  23.215  1.00  0.00    -0.069 C 
ATOM     15  C   UNL     1      42.953  56.100  22.201  1.00  0.00     0.039 C 
ATOM     16  C   UNL     1      44.787  57.806  22.811  1.00  0.00     0.039 C 
BRANCH  13  17
ATOM     17  C   UNL     1      43.319  54.783  24.839  1.00  0.00     0.066 CG0
ATOM     18  G   UNL     1      41.972  55.122  25.445  1.00  0.00     0.000 G0
ENDBRANCH  13  17
ENDBRANCH  11  13
ENDBRANCH  10  11
ENDBRANCH   1  10
TORSDOF 0
ENDMDL
MODEL 3
REMARK VINA RESULT:    -3.516      2.168      4.167
REMARK INTER + INTRA:          -4.721
REMARK INTER:                  -5.223
REMARK INTRA:                   0.502
REMARK UNBOUND:                 0.233
REMARK SMILES CC1=CCC(=C(C)C)C(=O)CC(C)=CCC1
REMARK SMILES IDX 12 1 14 2 13 3 15 4 16 5 2 6 1 7 3 8 11 10 9 11 10 12 5 13
REMARK SMILES IDX 6 14 7 15 8 16 4 17
REMARK H PARENT
REMARK Flexibility Score: 60.00
ROOT
ATOM      1  C   UNL     1      42.270  55.908  27.786  1.00  0.00    -0.070 C 
ATOM      2  C   UNL     1      42.793  56.963  28.448  1.00  0.00    -0.027 C 
ATOM      3  C   UNL     1      40.789  55.920  27.497  1.00  0.00     0.039 C 
ENDROOT
BRANCH   2   4
ATOM      4  C   UNL     1      44.227  57.092  28.913  1.00  0.00     0.032 C 
BRANCH   4   5
ATOM      5  C   UNL     1      45.067  58.133  28.143  1.00  0.00     0.034 C 
BRANCH   5   6
ATOM      6  C   UNL     1      45.937  57.516  27.062  1.00  0.00    -0.077 C 
ATOM      7  C   UNL     1      47.398  57.311  27.368  1.00  0.00     0.039 C 
ATOM      8  C   UNL     1      45.500  57.203  25.818  1.00  0.00    -0.023 CG0
ATOM      9  G   UNL     1      44.081  57.304  25.293  1.00  0.00     0.000 G0
ENDBRANCH   5   6
ENDBRANCH   4   5
ENDBRANCH   2   4
BRANCH   1  10
ATOM     10  C   UNL     1      43.076  54.683  27.406  1.00  0.00     0.111 C 
BRANCH  10  11
ATOM     11  C   UNL     1      43.795  54.874  26.098  1.00  0.00     0.163 C 
ATOM     12  O   UNL     1      44.783  54.133  25.849  1.00  0.00    -0.294 OA
BRANCH  11  13
ATOM     13  C   UNL     1      43.418  55.943  25.125  1.00  0.00    -0.002 C 
ATOM     14  C   UNL     1      42.574  55.675  24.084  1.00  0.00    -0.069 C 
ATOM     15  C   UNL     1      42.298  56.689  22.995  1.00  0.00     0.039 C 
ATOM     16  C   UNL     1      41.870  54.341  23.969  1.00  0.00     0.039 C 
BRANCH  13  17
ATOM     17  C   UNL     1      44.084  57.300  25.290  1.00  0.00     0.066 CG0
ATOM     18  G   UNL     1      45.495  57.188  25.832  1.00  0.00     0.000 G0
ENDBRANCH  13  17
ENDBRANCH  11  13
ENDBRANCH  10  11
ENDBRANCH   1  10
TORSDOF 0
ENDMDL
MODEL 4
REMARK VINA RESULT:    -3.481      1.728      3.579
REMARK INTER + INTRA:          -4.672
REMARK INTER:                  -4.880
REMARK INTRA:                   0.207
REMARK UNBOUND:                 0.233
REMARK SMILES CC1=CCC(=C(C)C)C(=O)CC(C)=CCC1
REMARK SMILES IDX 12 1 14 2 13 3 15 4 16 5 2 6 1 7 3 8 11 10 9 11 10 12 5 13
REMARK SMILES IDX 6 14 7 15 8 16 4 17
REMARK H PARENT
REMARK Flexibility Score: 60.00
ROOT
ATOM      1  C   UNL     1      42.666  55.950  27.490  1.00  0.00    -0.070 C 
ATOM      2  C   UNL     1      43.156  56.741  28.469  1.00  0.00    -0.027 C 
ATOM      3  C   UNL     1      41.242  55.468  27.619  1.00  0.00     0.039 C 
ENDROOT
BRANCH   2   4
ATOM      4  C   UNL     1      44.581  57.244  28.569  1.00  0.00     0.032 C 
BRANCH   4   5
ATOM      5  C   UNL     1      44.923  58.413  27.621  1.00  0.00     0.034 C 
BRANCH   5   6
ATOM      6  C   UNL     1      46.151  58.149  26.768  1.00  0.00    -0.077 C 
ATOM      7  C   UNL     1      47.482  58.042  27.468  1.00  0.00     0.039 C 
ATOM      8  C   UNL     1      46.139  58.073  25.415  1.00  0.00    -0.023 CG0
ATOM      9  G   UNL     1      44.927  58.133  24.505  1.00  0.00     0.000 G0
ENDBRANCH   5   6
ENDBRANCH   4   5
ENDBRANCH   2   4
BRANCH   1  10
ATOM     10  C   UNL     1      43.500  55.453  26.327  1.00  0.00     0.111 C 
BRANCH  10  11
ATOM     11  C   UNL     1      43.249  56.257  25.080  1.00  0.00     0.163 C 
ATOM     12  O   UNL     1      42.054  56.480  24.747  1.00  0.00    -0.294 OA
BRANCH  11  13
ATOM     13  C   UNL     1      44.356  56.740  24.201  1.00  0.00    -0.002 C 
ATOM     14  C   UNL     1      44.884  55.931  23.233  1.00  0.00    -0.069 C 
ATOM     15  C   UNL     1      46.106  56.330  22.435  1.00  0.00     0.039 C 
ATOM     16  C   UNL     1      44.268  54.587  22.912  1.00  0.00     0.039 C 
BRANCH  13  17
ATOM     17  C   UNL     1      44.924  58.119  24.493  1.00  0.00     0.066 CG0
ATOM     18  G   UNL     1      46.124  58.065  25.417  1.00  0.00     0.000 G0
ENDBRANCH  13  17
ENDBRANCH  11  13
ENDBRANCH  10  11
ENDBRANCH   1  10
TORSDOF 0
ENDMDL
MODEL 5
REMARK VINA RESULT:    -3.399      1.500      2.463
REMARK INTER + INTRA:          -4.556
REMARK INTER:                  -4.852
REMARK INTRA:                   0.296
REMARK UNBOUND:                 0.233
REMARK SMILES CC1=CCC(=C(C)C)C(=O)CC(C)=CCC1
REMARK SMILES IDX 12 1 14 2 13 3 15 4 16 5 2 6 1 7 3 8 11 10 9 11 10 12 5 13
REMARK SMILES IDX 6 14 7 15 8 16 4 17
REMARK H PARENT
REMARK Flexibility Score: 60.00
ROOT
ATOM      1  C   UNL     1      44.178  56.519  28.015  1.00  0.00    -0.070 C 
ATOM      2  C   UNL     1      43.113  55.952  27.405  1.00  0.00    -0.027 C 
ATOM      3  C   UNL     1      43.966  57.139  29.373  1.00  0.00     0.039 C 
ENDROOT
BRANCH   2   4
ATOM      4  C   UNL     1      43.101  55.368  26.009  1.00  0.00     0.032 C 
BRANCH   4   5
ATOM      5  C   UNL     1      42.986  56.406  24.873  1.00  0.00     0.034 C 
BRANCH   5   6
ATOM      6  C   UNL     1      44.113  56.310  23.860  1.00  0.00    -0.077 C 
ATOM      7  C   UNL     1      44.156  55.093  22.972  1.00  0.00     0.039 C 
ATOM      8  C   UNL     1      45.119  57.211  23.750  1.00  0.00    -0.023 CG0
ATOM      9  G   UNL     1      45.274  58.510  24.517  1.00  0.00     0.000 G0
ENDBRANCH   5   6
ENDBRANCH   4   5
ENDBRANCH   2   4
BRANCH   1  10
ATOM     10  C   UNL     1      45.540  56.641  27.363  1.00  0.00     0.111 C 
BRANCH  10  11
ATOM     11  C   UNL     1      45.848  58.064  26.982  1.00  0.00     0.163 C 
ATOM     12  O   UNL     1      45.647  58.966  27.839  1.00  0.00    -0.294 OA
BRANCH  11  13
ATOM     13  C   UNL     1      46.320  58.444  25.617  1.00  0.00    -0.002 C 
ATOM     14  C   UNL     1      47.627  58.782  25.397  1.00  0.00    -0.069 C 
ATOM     15  C   UNL     1      48.102  59.321  24.066  1.00  0.00     0.039 C 
ATOM     16  C   UNL     1      48.669  58.632  26.485  1.00  0.00     0.039 C 
BRANCH  13  17
ATOM     17  C   UNL     1      45.274  58.529  24.517  1.00  0.00     0.066 CG0
ATOM     18  G   UNL     1      45.126  57.224  23.760  1.00  0.00     0.000 G0
ENDBRANCH  13  17
ENDBRANCH  11  13
ENDBRANCH  10  11
ENDBRANCH   1  10
TORSDOF 0
ENDMDL
MODEL 6
REMARK VINA RESULT:    -3.383      1.896      4.020
REMARK INTER + INTRA:          -4.534
REMARK INTER:                  -5.119
REMARK INTRA:                   0.585
REMARK UNBOUND:                 0.233
REMARK SMILES CC1=CCC(=C(C)C)C(=O)CC(C)=CCC1
REMARK SMILES IDX 12 1 14 2 13 3 15 4 16 5 2 6 1 7 3 8 11 10 9 11 10 12 5 13
REMARK SMILES IDX 6 14 7 15 8 16 4 17
REMARK H PARENT
REMARK Flexibility Score: 60.00
ROOT
ATOM      1  C   UNL     1      43.581  56.811  27.597  1.00  0.00    -0.070 C 
ATOM      2  C   UNL     1      44.462  57.508  28.348  1.00  0.00    -0.027 C 
ATOM      3  C   UNL     1      42.828  55.683  28.255  1.00  0.00     0.039 C 
ENDROOT
BRANCH   2   4
ATOM      4  C   UNL     1      45.377  58.604  27.848  1.00  0.00     0.032 C 
BRANCH   4   5
ATOM      5  C   UNL     1      46.880  58.254  27.871  1.00  0.00     0.034 C 
BRANCH   5   6
ATOM      6  C   UNL     1      47.433  57.907  26.500  1.00  0.00    -0.077 C 
ATOM      7  C   UNL     1      48.152  58.991  25.739  1.00  0.00     0.039 C 
ATOM      8  C   UNL     1      47.262  56.709  25.889  1.00  0.00    -0.023 CG0
ATOM      9  G   UNL     1      46.594  55.475  26.463  1.00  0.00     0.000 G0
ENDBRANCH   5   6
ENDBRANCH   4   5
ENDBRANCH   2   4
BRANCH   1  10
ATOM     10  C   UNL     1      43.385  57.049  26.113  1.00  0.00     0.111 C 
BRANCH  10  11
ATOM     11  C   UNL     1      44.470  56.398  25.297  1.00  0.00     0.163 C 
ATOM     12  O   UNL     1      44.693  56.846  24.141  1.00  0.00    -0.294 OA
BRANCH  11  13
ATOM     13  C   UNL     1      45.237  55.213  25.785  1.00  0.00    -0.002 C 
ATOM     14  C   UNL     1      44.700  53.958  25.722  1.00  0.00    -0.069 C 
ATOM     15  C   UNL     1      45.383  52.762  26.349  1.00  0.00     0.039 C 
ATOM     16  C   UNL     1      43.384  53.702  25.020  1.00  0.00     0.039 C 
BRANCH  13  17
ATOM     17  C   UNL     1      46.587  55.477  26.431  1.00  0.00     0.066 CG0
ATOM     18  G   UNL     1      47.263  56.714  25.873  1.00  0.00     0.000 G0
ENDBRANCH  13  17
ENDBRANCH  11  13
ENDBRANCH  10  11
ENDBRANCH   1  10
TORSDOF 0
ENDMDL
MODEL 7
REMARK VINA RESULT:    -3.355      1.850      2.290
REMARK INTER + INTRA:          -4.495
REMARK INTER:                  -4.787
REMARK INTRA:                   0.291
REMARK UNBOUND:                 0.233
REMARK SMILES CC1=CCC(=C(C)C)C(=O)CC(C)=CCC1
REMARK SMILES IDX 12 1 14 2 13 3 15 4 16 5 2 6 1 7 3 8 11 10 9 11 10 12 5 13
REMARK SMILES IDX 6 14 7 15 8 16 4 17
REMARK H PARENT
REMARK Flexibility Score: 60.00
ROOT
ATOM      1  C   UNL     1      43.686  56.982  27.851  1.00  0.00    -0.070 C 
ATOM      2  C   UNL     1      42.680  56.170  28.245  1.00  0.00    -0.027 C 
ATOM      3  C   UNL     1      44.640  57.486  28.905  1.00  0.00     0.039 C 
ENDROOT
BRANCH   2   4
ATOM      4  C   UNL     1      41.572  55.642  27.359  1.00  0.00     0.032 C 
BRANCH   4   5
ATOM      5  C   UNL     1      42.051  54.866  26.115  1.00  0.00     0.034 C 
BRANCH   5   6
ATOM      6  C   UNL     1      43.059  53.778  26.442  1.00  0.00    -0.077 C 
ATOM      7  C   UNL     1      42.617  52.662  27.353  1.00  0.00     0.039 C 
ATOM      8  C   UNL     1      44.349  53.783  26.024  1.00  0.00    -0.023 CG0
ATOM      9  G   UNL     1      45.007  54.784  25.096  1.00  0.00     0.000 G0
ENDBRANCH   5   6
ENDBRANCH   4   5
ENDBRANCH   2   4
BRANCH   1  10
ATOM     10  C   UNL     1      43.844  57.479  26.429  1.00  0.00     0.111 C 
BRANCH  10  11
ATOM     11  C   UNL     1      45.226  57.209  25.896  1.00  0.00     0.163 C 
ATOM     12  O   UNL     1      45.884  58.179  25.434  1.00  0.00    -0.294 OA
BRANCH  11  13
ATOM     13  C   UNL     1      45.809  55.835  25.840  1.00  0.00    -0.002 C 
ATOM     14  C   UNL     1      47.040  55.577  26.375  1.00  0.00    -0.069 C 
ATOM     15  C   UNL     1      47.726  54.240  26.197  1.00  0.00     0.039 C 
ATOM     16  C   UNL     1      47.784  56.624  27.175  1.00  0.00     0.039 C 
BRANCH  13  17
ATOM     17  C   UNL     1      45.022  54.775  25.088  1.00  0.00     0.066 CG0
ATOM     18  G   UNL     1      44.327  53.803  26.020  1.00  0.00     0.000 G0
ENDBRANCH  13  17
ENDBRANCH  11  13
ENDBRANCH  10  11
ENDBRANCH   1  10
TORSDOF 0
ENDMDL
MODEL 8
REMARK VINA RESULT:    -3.251      1.977      3.774
REMARK INTER + INTRA:          -4.348
REMARK INTER:                  -4.741
REMARK INTRA:                   0.393
REMARK UNBOUND:                 0.233
REMARK SMILES CC1=CCC(=C(C)C)C(=O)CC(C)=CCC1
REMARK SMILES IDX 12 1 14 2 13 3 15 4 16 5 2 6 1 7 3 8 11 10 9 11 10 12 5 13
REMARK SMILES IDX 6 14 7 15 8 16 4 17
REMARK H PARENT
REMARK Flexibility Score: 60.00
ROOT
ATOM      1  C   UNL     1      43.539  56.747  27.665  1.00  0.00    -0.070 C 
ATOM      2  C   UNL     1      44.526  57.264  28.429  1.00  0.00    -0.027 C 
ATOM      3  C   UNL     1      42.660  55.682  28.272  1.00  0.00     0.039 C 
ENDROOT
BRANCH   2   4
ATOM      4  C   UNL     1      45.566  58.264  27.972  1.00  0.00     0.032 C 
BRANCH   4   5
ATOM      5  C   UNL     1      46.857  57.640  27.399  1.00  0.00     0.034 C 
BRANCH   5   6
ATOM      6  C   UNL     1      47.121  58.034  25.956  1.00  0.00    -0.077 C 
ATOM      7  C   UNL     1      47.758  59.375  25.701  1.00  0.00     0.039 C 
ATOM      8  C   UNL     1      46.758  57.289  24.884  1.00  0.00    -0.023 CG0
ATOM      9  G   UNL     1      46.125  55.911  24.897  1.00  0.00     0.000 G0
ENDBRANCH   5   6
ENDBRANCH   4   5
ENDBRANCH   2   4
BRANCH   1  10
ATOM     10  C   UNL     1      43.334  57.117  26.210  1.00  0.00     0.111 C 
BRANCH  10  11
ATOM     11  C   UNL     1      43.578  55.944  25.298  1.00  0.00     0.163 C 
ATOM     12  O   UNL     1      42.827  54.939  25.409  1.00  0.00    -0.294 OA
BRANCH  11  13
ATOM     13  C   UNL     1      44.708  55.909  24.321  1.00  0.00    -0.002 C 
ATOM     14  C   UNL     1      44.469  55.798  22.980  1.00  0.00    -0.069 C 
ATOM     15  C   UNL     1      45.588  55.602  21.981  1.00  0.00     0.039 C 
ATOM     16  C   UNL     1      43.062  55.865  22.425  1.00  0.00     0.039 C 
BRANCH  13  17
ATOM     17  C   UNL     1      46.118  55.907  24.889  1.00  0.00     0.066 CG0
ATOM     18  G   UNL     1      46.739  57.289  24.896  1.00  0.00     0.000 G0
ENDBRANCH  13  17
ENDBRANCH  11  13
ENDBRANCH  10  11
ENDBRANCH   1  10
TORSDOF 0
ENDMDL
MODEL 9
REMARK VINA RESULT:    -3.215      1.668      2.062
REMARK INTER + INTRA:          -4.297
REMARK INTER:                  -4.436
REMARK INTRA:                   0.138
REMARK UNBOUND:                 0.233
REMARK SMILES CC1=CCC(=C(C)C)C(=O)CC(C)=CCC1
REMARK SMILES IDX 12 1 14 2 13 3 15 4 16 5 2 6 1 7 3 8 11 10 9 11 10 12 5 13
REMARK SMILES IDX 6 14 7 15 8 16 4 17
REMARK H PARENT
REMARK Flexibility Score: 60.00
ROOT
ATOM      1  C   UNL     1      43.927  56.480  28.189  1.00  0.00    -0.070 C 
ATOM      2  C   UNL     1      42.724  55.869  28.261  1.00  0.00    -0.027 C 
ATOM      3  C   UNL     1      44.230  57.564  29.192  1.00  0.00     0.039 C 
ENDROOT
BRANCH   2   4
ATOM      4  C   UNL     1      42.200  54.832  27.291  1.00  0.00     0.032 C 
BRANCH   4   5
ATOM      5  C   UNL     1      41.509  55.409  26.037  1.00  0.00     0.034 C 
BRANCH   5   6
ATOM      6  C   UNL     1      41.986  54.770  24.745  1.00  0.00    -0.077 C 
ATOM      7  C   UNL     1      41.544  53.359  24.455  1.00  0.00     0.039 C 
ATOM      8  C   UNL     1      42.838  55.360  23.872  1.00  0.00    -0.023 CG0
ATOM      9  G   UNL     1      43.396  56.768  23.945  1.00  0.00     0.000 G0
ENDBRANCH   5   6
ENDBRANCH   4   5
ENDBRANCH   2   4
BRANCH   1  10
ATOM     10  C   UNL     1      44.941  56.192  27.099  1.00  0.00     0.111 C 
BRANCH  10  11
ATOM     11  C   UNL     1      44.872  57.211  25.993  1.00  0.00     0.163 C 
ATOM     12  O   UNL     1      44.836  58.431  26.310  1.00  0.00    -0.294 OA
BRANCH  11  13
ATOM     13  C   UNL     1      44.782  56.827  24.553  1.00  0.00    -0.002 C 
ATOM     14  C   UNL     1      45.913  56.626  23.811  1.00  0.00    -0.069 C 
ATOM     15  C   UNL     1      45.859  56.392  22.317  1.00  0.00     0.039 C 
ATOM     16  C   UNL     1      47.283  56.632  24.453  1.00  0.00     0.039 C 
BRANCH  13  17
ATOM     17  C   UNL     1      43.395  56.762  23.936  1.00  0.00     0.066 CG0
ATOM     18  G   UNL     1      42.852  55.348  23.882  1.00  0.00     0.000 G0
ENDBRANCH  13  17
ENDBRANCH  11  13
ENDBRANCH  10  11
ENDBRANCH   1  10
TORSDOF 0
ENDMDL
