MODEL 1
REMARK VINA RESULT:    -4.787      0.000      0.000
REMARK INTER + INTRA:          -5.751
REMARK INTER:                  -5.487
REMARK INTRA:                  -0.264
REMARK UNBOUND:                -0.264
REMARK SMILES COc1ccc(C(C)=O)c(O)c1
REMARK SMILES IDX 6 1 10 2 12 3 3 4 4 5 5 6 7 7 8 8 9 9 11 10 2 12 1 13
REMARK H PARENT 11 11
REMARK Flexibility Score: inf
ROOT
ATOM      1  C   UNL     1      73.466  34.410  55.046  1.00  0.00     0.059 A 
ATOM      2  C   UNL     1      73.730  33.527  53.971  1.00  0.00     0.130 A 
ATOM      3  C   UNL     1      74.556  33.941  52.919  1.00  0.00     0.093 A 
ATOM      4  C   UNL     1      75.104  35.227  52.893  1.00  0.00     0.122 A 
ATOM      5  C   UNL     1      74.819  36.113  53.945  1.00  0.00     0.047 A 
ATOM      6  C   UNL     1      74.009  35.707  55.008  1.00  0.00     0.019 A 
ENDROOT
BRANCH   1   7
ATOM      7  C   UNL     1      72.667  33.997  56.224  1.00  0.00     0.163 C 
ATOM      8  C   UNL     1      71.373  34.672  56.557  1.00  0.00     0.093 C 
ATOM      9  O   UNL     1      73.116  33.121  57.011  1.00  0.00    -0.294 OA
ENDBRANCH   1   7
BRANCH   2  10
ATOM     10  O   UNL     1      73.167  32.251  53.895  1.00  0.00    -0.507 OA
ATOM     11  H   UNL     1      73.667  31.442  53.553  1.00  0.00     0.293 HD
ENDBRANCH   2  10
BRANCH   4  12
ATOM     12  O   UNL     1      75.919  35.584  51.809  1.00  0.00    -0.497 OA
ATOM     13  C   UNL     1      77.295  35.238  51.688  1.00  0.00     0.278 C 
ENDBRANCH   4  12
TORSDOF 3
ENDMDL
MODEL 2
REMARK VINA RESULT:    -4.451      2.139      5.448
REMARK INTER + INTRA:          -5.365
REMARK INTER:                  -5.026
REMARK INTRA:                  -0.339
REMARK UNBOUND:                -0.264
REMARK SMILES COc1ccc(C(C)=O)c(O)c1
REMARK SMILES IDX 6 1 10 2 12 3 3 4 4 5 5 6 7 7 8 8 9 9 11 10 2 12 1 13
REMARK H PARENT 11 11
REMARK Flexibility Score: inf
ROOT
ATOM      1  C   UNL     1      77.484  34.838  51.889  1.00  0.00     0.059 A 
ATOM      2  C   UNL     1      76.883  33.606  52.241  1.00  0.00     0.130 A 
ATOM      3  C   UNL     1      75.556  33.583  52.687  1.00  0.00     0.093 A 
ATOM      4  C   UNL     1      74.818  34.762  52.821  1.00  0.00     0.122 A 
ATOM      5  C   UNL     1      75.424  35.989  52.500  1.00  0.00     0.047 A 
ATOM      6  C   UNL     1      76.742  36.023  52.039  1.00  0.00     0.019 A 
ENDROOT
BRANCH   1   7
ATOM      7  C   UNL     1      78.857  34.913  51.334  1.00  0.00     0.163 C 
ATOM      8  C   UNL     1      79.164  35.762  50.140  1.00  0.00     0.093 C 
ATOM      9  O   UNL     1      79.769  34.190  51.816  1.00  0.00    -0.294 OA
ENDBRANCH   1   7
BRANCH   2  10
ATOM     10  O   UNL     1      77.576  32.394  52.194  1.00  0.00    -0.507 OA
ATOM     11  H   UNL     1      78.444  32.269  51.692  1.00  0.00     0.293 HD
ENDBRANCH   2  10
BRANCH   4  12
ATOM     12  O   UNL     1      73.495  34.674  53.278  1.00  0.00    -0.497 OA
ATOM     13  C   UNL     1      73.055  33.785  54.300  1.00  0.00     0.278 C 
ENDBRANCH   4  12
TORSDOF 3
ENDMDL
MODEL 3
REMARK VINA RESULT:    -4.443     16.206     16.772
REMARK INTER + INTRA:          -5.356
REMARK INTER:                  -5.022
REMARK INTRA:                  -0.335
REMARK UNBOUND:                -0.264
REMARK SMILES COc1ccc(C(C)=O)c(O)c1
REMARK SMILES IDX 6 1 10 2 12 3 3 4 4 5 5 6 7 7 8 8 9 9 11 10 2 12 1 13
REMARK H PARENT 11 11
REMARK Flexibility Score: inf
ROOT
ATOM      1  C   UNL     1      85.080  31.956  65.648  1.00  0.00     0.059 A 
ATOM      2  C   UNL     1      85.958  32.155  66.741  1.00  0.00     0.130 A 
ATOM      3  C   UNL     1      87.191  32.787  66.534  1.00  0.00     0.093 A 
ATOM      4  C   UNL     1      87.587  33.199  65.259  1.00  0.00     0.122 A 
ATOM      5  C   UNL     1      86.728  32.975  64.170  1.00  0.00     0.047 A 
ATOM      6  C   UNL     1      85.489  32.360  64.365  1.00  0.00     0.019 A 
ENDROOT
BRANCH   1   7
ATOM      7  C   UNL     1      83.730  31.368  65.823  1.00  0.00     0.163 C 
ATOM      8  C   UNL     1      83.127  30.489  64.772  1.00  0.00     0.093 C 
ATOM      9  O   UNL     1      83.038  31.673  66.830  1.00  0.00    -0.294 OA
ENDBRANCH   1   7
BRANCH   2  10
ATOM     10  O   UNL     1      85.660  31.714  68.032  1.00  0.00    -0.507 OA
ATOM     11  H   UNL     1      84.747  31.381  68.308  1.00  0.00     0.293 HD
ENDBRANCH   2  10
BRANCH   4  12
ATOM     12  O   UNL     1      88.836  33.821  65.116  1.00  0.00    -0.497 OA
ATOM     13  C   UNL     1      89.033  35.231  65.072  1.00  0.00     0.278 C 
ENDBRANCH   4  12
TORSDOF 3
ENDMDL
MODEL 4
REMARK VINA RESULT:    -4.382     15.780     16.297
REMARK INTER + INTRA:          -5.286
REMARK INTER:                  -4.970
REMARK INTRA:                  -0.316
REMARK UNBOUND:                -0.264
REMARK SMILES COc1ccc(C(C)=O)c(O)c1
REMARK SMILES IDX 6 1 10 2 12 3 3 4 4 5 5 6 7 7 8 8 9 9 11 10 2 12 1 13
REMARK H PARENT 11 11
REMARK Flexibility Score: inf
ROOT
ATOM      1  C   UNL     1      85.259  30.983  64.797  1.00  0.00     0.059 A 
ATOM      2  C   UNL     1      85.188  32.350  64.431  1.00  0.00     0.130 A 
ATOM      3  C   UNL     1      86.346  33.136  64.458  1.00  0.00     0.093 A 
ATOM      4  C   UNL     1      87.571  32.604  64.870  1.00  0.00     0.122 A 
ATOM      5  C   UNL     1      87.636  31.256  65.261  1.00  0.00     0.047 A 
ATOM      6  C   UNL     1      86.491  30.457  65.223  1.00  0.00     0.019 A 
ENDROOT
BRANCH   1   7
ATOM      7  C   UNL     1      84.083  30.085  64.708  1.00  0.00     0.163 C 
ATOM      8  C   UNL     1      84.243  28.630  64.392  1.00  0.00     0.093 C 
ATOM      9  O   UNL     1      82.921  30.558  64.817  1.00  0.00    -0.294 OA
ENDBRANCH   1   7
BRANCH   2  10
ATOM     10  O   UNL     1      83.989  32.967  64.070  1.00  0.00    -0.507 OA
ATOM     11  H   UNL     1      83.352  32.586  63.384  1.00  0.00     0.293 HD
ENDBRANCH   2  10
BRANCH   4  12
ATOM     12  O   UNL     1      88.694  33.445  64.881  1.00  0.00    -0.497 OA
ATOM     13  C   UNL     1      88.661  34.827  65.223  1.00  0.00     0.278 C 
ENDBRANCH   4  12
TORSDOF 3
ENDMDL
MODEL 5
REMARK VINA RESULT:    -4.374      2.635      3.831
REMARK INTER + INTRA:          -5.277
REMARK INTER:                  -4.946
REMARK INTRA:                  -0.331
REMARK UNBOUND:                -0.264
REMARK SMILES COc1ccc(C(C)=O)c(O)c1
REMARK SMILES IDX 6 1 10 2 12 3 3 4 4 5 5 6 7 7 8 8 9 9 11 10 2 12 1 13
REMARK H PARENT 11 11
REMARK Flexibility Score: inf
ROOT
ATOM      1  C   UNL     1      76.010  34.514  52.414  1.00  0.00     0.059 A 
ATOM      2  C   UNL     1      76.989  33.494  52.332  1.00  0.00     0.130 A 
ATOM      3  C   UNL     1      78.279  33.804  51.885  1.00  0.00     0.093 A 
ATOM      4  C   UNL     1      78.613  35.102  51.487  1.00  0.00     0.122 A 
ATOM      5  C   UNL     1      77.634  36.108  51.541  1.00  0.00     0.047 A 
ATOM      6  C   UNL     1      76.348  35.814  52.000  1.00  0.00     0.019 A 
ENDROOT
BRANCH   1   7
ATOM      7  C   UNL     1      74.654  34.260  52.958  1.00  0.00     0.163 C 
ATOM      8  C   UNL     1      73.466  35.024  52.462  1.00  0.00     0.093 C 
ATOM      9  O   UNL     1      74.501  33.448  53.909  1.00  0.00    -0.294 OA
ENDBRANCH   1   7
BRANCH   2  10
ATOM     10  O   UNL     1      76.712  32.163  52.651  1.00  0.00    -0.507 OA
ATOM     11  H   UNL     1      75.808  31.845  52.973  1.00  0.00     0.293 HD
ENDBRANCH   2  10
BRANCH   4  12
ATOM     12  O   UNL     1      79.921  35.348  51.043  1.00  0.00    -0.497 OA
ATOM     13  C   UNL     1      80.423  34.963  49.767  1.00  0.00     0.278 C 
ENDBRANCH   4  12
TORSDOF 3
ENDMDL
MODEL 6
REMARK VINA RESULT:    -4.331     16.865     17.697
REMARK INTER + INTRA:          -5.228
REMARK INTER:                  -4.995
REMARK INTRA:                  -0.233
REMARK UNBOUND:                -0.264
REMARK SMILES COc1ccc(C(C)=O)c(O)c1
REMARK SMILES IDX 6 1 10 2 12 3 3 4 4 5 5 6 7 7 8 8 9 9 11 10 2 12 1 13
REMARK H PARENT 11 11
REMARK Flexibility Score: inf
ROOT
ATOM      1  C   UNL     1      87.445  33.192  65.889  1.00  0.00     0.059 A 
ATOM      2  C   UNL     1      87.039  32.162  66.771  1.00  0.00     0.130 A 
ATOM      3  C   UNL     1      86.091  31.221  66.349  1.00  0.00     0.093 A 
ATOM      4  C   UNL     1      85.511  31.298  65.080  1.00  0.00     0.122 A 
ATOM      5  C   UNL     1      85.892  32.338  64.215  1.00  0.00     0.047 A 
ATOM      6  C   UNL     1      86.849  33.273  64.618  1.00  0.00     0.019 A 
ENDROOT
BRANCH   1   7
ATOM      7  C   UNL     1      88.504  34.164  66.251  1.00  0.00     0.163 C 
ATOM      8  C   UNL     1      88.926  35.240  65.299  1.00  0.00     0.093 C 
ATOM      9  O   UNL     1      89.123  34.042  67.341  1.00  0.00    -0.294 OA
ENDBRANCH   1   7
BRANCH   2  10
ATOM     10  O   UNL     1      87.526  32.058  68.075  1.00  0.00    -0.507 OA
ATOM     11  H   UNL     1      87.627  31.178  68.563  1.00  0.00     0.293 HD
ENDBRANCH   2  10
BRANCH   4  12
ATOM     12  O   UNL     1      84.563  30.330  64.720  1.00  0.00    -0.497 OA
ATOM     13  C   UNL     1      83.155  30.546  64.710  1.00  0.00     0.278 C 
ENDBRANCH   4  12
TORSDOF 3
ENDMDL
MODEL 7
REMARK VINA RESULT:    -4.237     16.779     17.269
REMARK INTER + INTRA:          -5.120
REMARK INTER:                  -4.880
REMARK INTRA:                  -0.240
REMARK UNBOUND:                -0.264
REMARK SMILES COc1ccc(C(C)=O)c(O)c1
REMARK SMILES IDX 6 1 10 2 12 3 3 4 4 5 5 6 7 7 8 8 9 9 11 10 2 12 1 13
REMARK H PARENT 11 11
REMARK Flexibility Score: inf
ROOT
ATOM      1  C   UNL     1      85.613  30.554  65.105  1.00  0.00     0.059 A 
ATOM      2  C   UNL     1      86.881  29.926  65.086  1.00  0.00     0.130 A 
ATOM      3  C   UNL     1      88.004  30.614  65.562  1.00  0.00     0.093 A 
ATOM      4  C   UNL     1      87.902  31.928  66.028  1.00  0.00     0.122 A 
ATOM      5  C   UNL     1      86.648  32.562  66.019  1.00  0.00     0.047 A 
ATOM      6  C   UNL     1      85.518  31.880  65.562  1.00  0.00     0.019 A 
ENDROOT
BRANCH   1   7
ATOM      7  C   UNL     1      84.378  29.844  64.691  1.00  0.00     0.163 C 
ATOM      8  C   UNL     1      83.040  30.510  64.770  1.00  0.00     0.093 C 
ATOM      9  O   UNL     1      84.435  28.634  64.345  1.00  0.00    -0.294 OA
ENDBRANCH   1   7
BRANCH   2  10
ATOM     10  O   UNL     1      87.072  28.640  64.576  1.00  0.00    -0.507 OA
ATOM     11  H   UNL     1      87.955  28.150  64.620  1.00  0.00     0.293 HD
ENDBRANCH   2  10
BRANCH   4  12
ATOM     12  O   UNL     1      89.064  32.566  66.485  1.00  0.00    -0.497 OA
ATOM     13  C   UNL     1      89.075  33.765  67.253  1.00  0.00     0.278 C 
ENDBRANCH   4  12
TORSDOF 3
ENDMDL
MODEL 8
REMARK VINA RESULT:    -4.142     16.993     17.672
REMARK INTER + INTRA:          -5.012
REMARK INTER:                  -4.670
REMARK INTRA:                  -0.342
REMARK UNBOUND:                -0.264
REMARK SMILES COc1ccc(C(C)=O)c(O)c1
REMARK SMILES IDX 6 1 10 2 12 3 3 4 4 5 5 6 7 7 8 8 9 9 11 10 2 12 1 13
REMARK H PARENT 11 11
REMARK Flexibility Score: inf
ROOT
ATOM      1  C   UNL     1      87.184  31.609  64.497  1.00  0.00     0.059 A 
ATOM      2  C   UNL     1      86.460  30.545  65.088  1.00  0.00     0.130 A 
ATOM      3  C   UNL     1      87.060  29.288  65.223  1.00  0.00     0.093 A 
ATOM      4  C   UNL     1      88.356  29.052  64.755  1.00  0.00     0.122 A 
ATOM      5  C   UNL     1      89.064  30.099  64.142  1.00  0.00     0.047 A 
ATOM      6  C   UNL     1      88.482  31.363  64.016  1.00  0.00     0.019 A 
ENDROOT
BRANCH   1   7
ATOM      7  C   UNL     1      86.629  32.981  64.404  1.00  0.00     0.163 C 
ATOM      8  C   UNL     1      87.369  34.155  64.967  1.00  0.00     0.093 C 
ATOM      9  O   UNL     1      85.480  33.162  63.919  1.00  0.00    -0.294 OA
ENDBRANCH   1   7
BRANCH   2  10
ATOM     10  O   UNL     1      85.140  30.688  65.520  1.00  0.00    -0.507 OA
ATOM     11  H   UNL     1      84.346  30.322  65.013  1.00  0.00     0.293 HD
ENDBRANCH   2  10
BRANCH   4  12
ATOM     12  O   UNL     1      88.900  27.768  64.914  1.00  0.00    -0.497 OA
ATOM     13  C   UNL     1      88.278  26.570  64.462  1.00  0.00     0.278 C 
ENDBRANCH   4  12
TORSDOF 3
ENDMDL
MODEL 9
REMARK VINA RESULT:    -4.093     17.529     18.065
REMARK INTER + INTRA:          -4.956
REMARK INTER:                  -4.609
REMARK INTRA:                  -0.347
REMARK UNBOUND:                -0.264
REMARK SMILES COc1ccc(C(C)=O)c(O)c1
REMARK SMILES IDX 6 1 10 2 12 3 3 4 4 5 5 6 7 7 8 8 9 9 11 10 2 12 1 13
REMARK H PARENT 11 11
REMARK Flexibility Score: inf
ROOT
ATOM      1  C   UNL     1      86.918  29.697  65.142  1.00  0.00     0.059 A 
ATOM      2  C   UNL     1      86.260  28.495  64.784  1.00  0.00     0.130 A 
ATOM      3  C   UNL     1      87.014  27.352  64.490  1.00  0.00     0.093 A 
ATOM      4  C   UNL     1      88.411  27.383  64.512  1.00  0.00     0.122 A 
ATOM      5  C   UNL     1      89.064  28.583  64.837  1.00  0.00     0.047 A 
ATOM      6  C   UNL     1      88.324  29.726  65.148  1.00  0.00     0.019 A 
ENDROOT
BRANCH   1   7
ATOM      7  C   UNL     1      86.170  30.912  65.543  1.00  0.00     0.163 C 
ATOM      8  C   UNL     1      86.492  31.634  66.814  1.00  0.00     0.093 C 
ATOM      9  O   UNL     1      85.192  31.305  64.853  1.00  0.00    -0.294 OA
ENDBRANCH   1   7
BRANCH   2  10
ATOM     10  O   UNL     1      84.870  28.404  64.679  1.00  0.00    -0.507 OA
ATOM     11  H   UNL     1      84.235  29.045  65.136  1.00  0.00     0.293 HD
ENDBRANCH   2  10
BRANCH   4  12
ATOM     12  O   UNL     1      89.109  26.207  64.201  1.00  0.00    -0.497 OA
ATOM     13  C   UNL     1      88.563  25.117  63.464  1.00  0.00     0.278 C 
ENDBRANCH   4  12
TORSDOF 3
ENDMDL
