MODEL 1
REMARK VINA RESULT:    -7.260      0.000      0.000
REMARK INTER + INTRA:          -9.123
REMARK INTER:                  -8.746
REMARK INTRA:                  -0.377
REMARK UNBOUND:                -0.377
REMARK SMILES Oc1cc(O)c2c(c1)O[C@@H](c1ccc(O)c(O)c1)[C@H](O)C2
REMARK SMILES IDX 21 1 19 2 10 3 9 4 7 5 8 6 2 7 3 8 4 9 6 10 20 11 11 13
REMARK SMILES IDX 18 14 12 15 16 16 13 17 14 18 17 19 15 21 5 23 1 25
REMARK H PARENT 20 12 17 20 15 22 5 24 1 26
REMARK Flexibility Score: inf
ROOT
ATOM      1  C   UNL     1       2.005  -1.200   1.487  1.00  0.00     0.079 C 
ATOM      2  C   UNL     1       0.605  -1.651   1.032  1.00  0.00     0.164 C 
ATOM      3  C   UNL     1      -0.352  -0.443   0.972  1.00  0.00     0.232 C 
ATOM      4  O   UNL     1       0.190   0.557   0.111  1.00  0.00    -0.482 OA
ATOM      5  C   UNL     1       1.558   0.847   0.069  1.00  0.00     0.131 A 
ATOM      6  C   UNL     1       1.992   1.962  -0.654  1.00  0.00     0.093 A 
ATOM      7  C   UNL     1       3.348   2.287  -0.703  1.00  0.00     0.122 A 
ATOM      8  C   UNL     1       4.278   1.496  -0.018  1.00  0.00     0.092 A 
ATOM      9  C   UNL     1       3.863   0.377   0.712  1.00  0.00     0.126 A 
ATOM     10  C   UNL     1       2.493   0.018   0.730  1.00  0.00     0.039 A 
ENDROOT
BRANCH   2  11
ATOM     11  O   UNL     1       0.109  -2.657   1.880  1.00  0.00    -0.389 OA
ATOM     12  H   UNL     1      -0.787  -2.371   2.196  1.00  0.00     0.211 HD
ENDBRANCH   2  11
BRANCH   3  13
ATOM     13  C   UNL     1      -1.720  -0.854   0.479  1.00  0.00    -0.001 A 
ATOM     14  C   UNL     1      -1.883  -1.341  -0.829  1.00  0.00     0.057 A 
ATOM     15  C   UNL     1      -2.849  -0.706   1.300  1.00  0.00     0.012 A 
ATOM     16  C   UNL     1      -3.151  -1.696  -1.304  1.00  0.00     0.157 A 
ATOM     17  C   UNL     1      -4.116  -1.060   0.830  1.00  0.00     0.050 A 
ATOM     18  C   UNL     1      -4.273  -1.557  -0.470  1.00  0.00     0.157 A 
BRANCH  16  19
ATOM     19  O   UNL     1      -3.275  -2.183  -2.605  1.00  0.00    -0.504 OA
ATOM     20  H   UNL     1      -3.104  -1.600  -3.415  1.00  0.00     0.293 HD
ENDBRANCH  16  19
BRANCH  18  21
ATOM     21  O   UNL     1      -5.538  -1.911  -0.937  1.00  0.00    -0.504 OA
ATOM     22  H   UNL     1      -6.158  -2.503  -0.396  1.00  0.00     0.293 HD
ENDBRANCH  18  21
ENDBRANCH   3  13
BRANCH   9  23
ATOM     23  O   UNL     1       4.831  -0.347   1.413  1.00  0.00    -0.507 OA
ATOM     24  H   UNL     1       5.667   0.070   1.798  1.00  0.00     0.293 HD
ENDBRANCH   9  23
BRANCH   7  25
ATOM     25  O   UNL     1       3.762   3.400  -1.431  1.00  0.00    -0.508 OA
ATOM     26  H   UNL     1       4.651   3.415  -1.918  1.00  0.00     0.293 HD
ENDBRANCH   7  25
TORSDOF 6
ENDMDL
MODEL 2
REMARK VINA RESULT:    -6.711      7.057      8.318
REMARK INTER + INTRA:          -8.461
REMARK INTER:                  -8.106
REMARK INTRA:                  -0.355
REMARK UNBOUND:                -0.377
REMARK SMILES Oc1cc(O)c2c(c1)O[C@@H](c1ccc(O)c(O)c1)[C@H](O)C2
REMARK SMILES IDX 21 1 19 2 10 3 9 4 7 5 8 6 2 7 3 8 4 9 6 10 20 11 11 13
REMARK SMILES IDX 18 14 12 15 16 16 13 17 14 18 17 19 15 21 5 23 1 25
REMARK H PARENT 20 12 17 20 15 22 5 24 1 26
REMARK Flexibility Score: inf
ROOT
ATOM      1  C   UNL     1       1.426  -1.500  -7.940  1.00  0.00     0.079 C 
ATOM      2  C   UNL     1       0.101  -2.274  -7.823  1.00  0.00     0.164 C 
ATOM      3  C   UNL     1       0.368  -3.793  -7.813  1.00  0.00     0.232 C 
ATOM      4  O   UNL     1       1.267  -4.115  -6.753  1.00  0.00    -0.482 OA
ATOM      5  C   UNL     1       2.346  -3.293  -6.411  1.00  0.00     0.131 A 
ATOM      6  C   UNL     1       3.290  -3.762  -5.493  1.00  0.00     0.093 A 
ATOM      7  C   UNL     1       4.386  -2.973  -5.142  1.00  0.00     0.122 A 
ATOM      8  C   UNL     1       4.544  -1.707  -5.719  1.00  0.00     0.092 A 
ATOM      9  C   UNL     1       3.610  -1.220  -6.640  1.00  0.00     0.126 A 
ATOM     10  C   UNL     1       2.474  -2.000  -6.967  1.00  0.00     0.039 A 
ENDROOT
BRANCH   2  11
ATOM     11  O   UNL     1      -0.777  -1.914  -8.862  1.00  0.00    -0.389 OA
ATOM     12  H   UNL     1      -1.682  -1.810  -8.468  1.00  0.00     0.211 HD
ENDBRANCH   2  11
BRANCH   3  13
ATOM     13  C   UNL     1      -0.916  -4.573  -7.647  1.00  0.00    -0.001 A 
ATOM     14  C   UNL     1      -1.545  -4.641  -6.394  1.00  0.00     0.057 A 
ATOM     15  C   UNL     1      -1.466  -5.279  -8.729  1.00  0.00     0.012 A 
ATOM     16  C   UNL     1      -2.719  -5.384  -6.225  1.00  0.00     0.157 A 
ATOM     17  C   UNL     1      -2.637  -6.023  -8.564  1.00  0.00     0.050 A 
ATOM     18  C   UNL     1      -3.269  -6.078  -7.316  1.00  0.00     0.157 A 
BRANCH  16  19
ATOM     19  O   UNL     1      -3.321  -5.424  -4.967  1.00  0.00    -0.504 OA
ATOM     20  H   UNL     1      -2.961  -4.896  -4.182  1.00  0.00     0.293 HD
ENDBRANCH  16  19
BRANCH  18  21
ATOM     21  O   UNL     1      -4.439  -6.819  -7.154  1.00  0.00    -0.504 OA
ATOM     22  H   UNL     1      -5.096  -6.617  -6.409  1.00  0.00     0.293 HD
ENDBRANCH  18  21
ENDBRANCH   3  13
BRANCH   9  23
ATOM     23  O   UNL     1       3.845   0.030  -7.216  1.00  0.00    -0.507 OA
ATOM     24  H   UNL     1       3.110   0.691  -7.431  1.00  0.00     0.293 HD
ENDBRANCH   9  23
BRANCH   7  25
ATOM     25  O   UNL     1       5.316  -3.456  -4.225  1.00  0.00    -0.508 OA
ATOM     26  H   UNL     1       6.301  -3.227  -4.297  1.00  0.00     0.293 HD
ENDBRANCH   7  25
TORSDOF 6
ENDMDL
MODEL 3
REMARK VINA RESULT:    -6.521      6.906      7.534
REMARK INTER + INTRA:          -8.233
REMARK INTER:                  -7.871
REMARK INTRA:                  -0.361
REMARK UNBOUND:                -0.377
REMARK SMILES Oc1cc(O)c2c(c1)O[C@@H](c1ccc(O)c(O)c1)[C@H](O)C2
REMARK SMILES IDX 21 1 19 2 10 3 9 4 7 5 8 6 2 7 3 8 4 9 6 10 20 11 11 13
REMARK SMILES IDX 18 14 12 15 16 16 13 17 14 18 17 19 15 21 5 23 1 25
REMARK H PARENT 20 12 17 20 15 22 5 24 1 26
REMARK Flexibility Score: inf
ROOT
ATOM      1  C   UNL     1       1.552  -6.071  -2.763  1.00  0.00     0.079 C 
ATOM      2  C   UNL     1       0.366  -6.319  -3.713  1.00  0.00     0.164 C 
ATOM      3  C   UNL     1       0.093  -5.064  -4.566  1.00  0.00     0.232 C 
ATOM      4  O   UNL     1       1.275  -4.699  -5.276  1.00  0.00    -0.482 OA
ATOM      5  C   UNL     1       2.550  -4.798  -4.708  1.00  0.00     0.131 A 
ATOM      6  C   UNL     1       3.639  -4.247  -5.389  1.00  0.00     0.093 A 
ATOM      7  C   UNL     1       4.921  -4.315  -4.842  1.00  0.00     0.122 A 
ATOM      8  C   UNL     1       5.116  -4.931  -3.601  1.00  0.00     0.092 A 
ATOM      9  C   UNL     1       4.038  -5.488  -2.903  1.00  0.00     0.126 A 
ATOM     10  C   UNL     1       2.742  -5.459  -3.474  1.00  0.00     0.039 A 
ENDROOT
BRANCH   2  11
ATOM     11  O   UNL     1      -0.776  -6.707  -2.989  1.00  0.00    -0.389 OA
ATOM     12  H   UNL     1      -1.251  -5.881  -2.711  1.00  0.00     0.211 HD
ENDBRANCH   2  11
BRANCH   3  13
ATOM     13  C   UNL     1      -1.035  -5.302  -5.543  1.00  0.00    -0.001 A 
ATOM     14  C   UNL     1      -0.832  -6.107  -6.676  1.00  0.00     0.057 A 
ATOM     15  C   UNL     1      -2.282  -4.683  -5.358  1.00  0.00     0.012 A 
ATOM     16  C   UNL     1      -1.862  -6.309  -7.601  1.00  0.00     0.157 A 
ATOM     17  C   UNL     1      -3.314  -4.883  -6.279  1.00  0.00     0.050 A 
ATOM     18  C   UNL     1      -3.111  -5.696  -7.401  1.00  0.00     0.157 A 
BRANCH  16  19
ATOM     19  O   UNL     1      -1.627  -7.120  -8.711  1.00  0.00    -0.504 OA
ATOM     20  H   UNL     1      -2.355  -7.340  -9.380  1.00  0.00     0.293 HD
ENDBRANCH  16  19
BRANCH  18  21
ATOM     21  O   UNL     1      -4.141  -5.895  -8.319  1.00  0.00    -0.504 OA
ATOM     22  H   UNL     1      -3.961  -6.250  -9.251  1.00  0.00     0.293 HD
ENDBRANCH  18  21
ENDBRANCH   3  13
BRANCH   9  23
ATOM     23  O   UNL     1       4.285  -6.048  -1.648  1.00  0.00    -0.507 OA
ATOM     24  H   UNL     1       4.662  -6.977  -1.518  1.00  0.00     0.293 HD
ENDBRANCH   9  23
BRANCH   7  25
ATOM     25  O   UNL     1       5.995  -3.763  -5.537  1.00  0.00    -0.508 OA
ATOM     26  H   UNL     1       6.676  -3.171  -5.075  1.00  0.00     0.293 HD
ENDBRANCH   7  25
TORSDOF 6
ENDMDL
MODEL 4
REMARK VINA RESULT:    -6.471      5.753      9.233
REMARK INTER + INTRA:          -8.172
REMARK INTER:                  -7.830
REMARK INTRA:                  -0.342
REMARK UNBOUND:                -0.377
REMARK SMILES Oc1cc(O)c2c(c1)O[C@@H](c1ccc(O)c(O)c1)[C@H](O)C2
REMARK SMILES IDX 21 1 19 2 10 3 9 4 7 5 8 6 2 7 3 8 4 9 6 10 20 11 11 13
REMARK SMILES IDX 18 14 12 15 16 16 13 17 14 18 17 19 15 21 5 23 1 25
REMARK H PARENT 20 12 17 20 15 22 5 24 1 26
REMARK Flexibility Score: inf
ROOT
ATOM      1  C   UNL     1      -1.891  -4.318  -4.151  1.00  0.00     0.079 C 
ATOM      2  C   UNL     1      -0.820  -3.217  -4.043  1.00  0.00     0.164 C 
ATOM      3  C   UNL     1       0.563  -3.777  -4.432  1.00  0.00     0.232 C 
ATOM      4  O   UNL     1       0.504  -4.335  -5.744  1.00  0.00    -0.482 OA
ATOM      5  C   UNL     1      -0.607  -5.050  -6.204  1.00  0.00     0.131 A 
ATOM      6  C   UNL     1      -0.519  -5.725  -7.425  1.00  0.00     0.093 A 
ATOM      7  C   UNL     1      -1.604  -6.460  -7.905  1.00  0.00     0.122 A 
ATOM      8  C   UNL     1      -2.784  -6.528  -7.155  1.00  0.00     0.092 A 
ATOM      9  C   UNL     1      -2.891  -5.859  -5.930  1.00  0.00     0.126 A 
ATOM     10  C   UNL     1      -1.807  -5.078  -5.460  1.00  0.00     0.039 A 
ENDROOT
BRANCH   2  11
ATOM     11  O   UNL     1      -0.805  -2.666  -2.750  1.00  0.00    -0.389 OA
ATOM     12  H   UNL     1       0.039  -2.154  -2.650  1.00  0.00     0.211 HD
ENDBRANCH   2  11
BRANCH   3  13
ATOM     13  C   UNL     1       1.622  -2.701  -4.383  1.00  0.00    -0.001 A 
ATOM     14  C   UNL     1       1.723  -1.760  -5.421  1.00  0.00     0.057 A 
ATOM     15  C   UNL     1       2.548  -2.658  -3.328  1.00  0.00     0.012 A 
ATOM     16  C   UNL     1       2.719  -0.777  -5.397  1.00  0.00     0.157 A 
ATOM     17  C   UNL     1       3.544  -1.679  -3.301  1.00  0.00     0.050 A 
ATOM     18  C   UNL     1       3.634  -0.734  -4.331  1.00  0.00     0.157 A 
BRANCH  16  19
ATOM     19  O   UNL     1       2.786   0.145  -6.442  1.00  0.00    -0.504 OA
ATOM     20  H   UNL     1       1.981   0.368  -7.015  1.00  0.00     0.293 HD
ENDBRANCH  16  19
BRANCH  18  21
ATOM     21  O   UNL     1       4.627   0.243  -4.302  1.00  0.00    -0.504 OA
ATOM     22  H   UNL     1       5.524   0.075  -3.859  1.00  0.00     0.293 HD
ENDBRANCH  18  21
ENDBRANCH   3  13
BRANCH   9  23
ATOM     23  O   UNL     1      -4.076  -6.002  -5.204  1.00  0.00    -0.507 OA
ATOM     24  H   UNL     1      -4.851  -6.573  -5.511  1.00  0.00     0.293 HD
ENDBRANCH   9  23
BRANCH   7  25
ATOM     25  O   UNL     1      -1.499  -7.125  -9.124  1.00  0.00    -0.508 OA
ATOM     26  H   UNL     1      -1.921  -8.035  -9.270  1.00  0.00     0.293 HD
ENDBRANCH   7  25
TORSDOF 6
ENDMDL
MODEL 5
REMARK VINA RESULT:    -6.376      5.991      7.378
REMARK INTER + INTRA:          -8.059
REMARK INTER:                  -7.697
REMARK INTRA:                  -0.361
REMARK UNBOUND:                -0.377
REMARK SMILES Oc1cc(O)c2c(c1)O[C@@H](c1ccc(O)c(O)c1)[C@H](O)C2
REMARK SMILES IDX 21 1 19 2 10 3 9 4 7 5 8 6 2 7 3 8 4 9 6 10 20 11 11 13
REMARK SMILES IDX 18 14 12 15 16 16 13 17 14 18 17 19 15 21 5 23 1 25
REMARK H PARENT 20 12 17 20 15 22 5 24 1 26
REMARK Flexibility Score: inf
ROOT
ATOM      1  C   UNL     1       1.881  -2.188  -4.848  1.00  0.00     0.079 C 
ATOM      2  C   UNL     1       0.552  -2.706  -5.429  1.00  0.00     0.164 C 
ATOM      3  C   UNL     1       0.720  -4.151  -5.940  1.00  0.00     0.232 C 
ATOM      4  O   UNL     1       1.197  -4.982  -4.882  1.00  0.00    -0.482 OA
ATOM      5  C   UNL     1       2.143  -4.539  -3.951  1.00  0.00     0.131 A 
ATOM      6  C   UNL     1       2.702  -5.462  -3.063  1.00  0.00     0.093 A 
ATOM      7  C   UNL     1       3.659  -5.055  -2.133  1.00  0.00     0.122 A 
ATOM      8  C   UNL     1       4.068  -3.717  -2.095  1.00  0.00     0.092 A 
ATOM      9  C   UNL     1       3.520  -2.778  -2.976  1.00  0.00     0.126 A 
ATOM     10  C   UNL     1       2.517  -3.177  -3.893  1.00  0.00     0.039 A 
ENDROOT
BRANCH   2  11
ATOM     11  O   UNL     1       0.091  -1.852  -6.447  1.00  0.00    -0.389 OA
ATOM     12  H   UNL     1      -0.310  -1.055  -6.012  1.00  0.00     0.211 HD
ENDBRANCH   2  11
BRANCH   3  13
ATOM     13  C   UNL     1      -0.586  -4.699  -6.468  1.00  0.00    -0.001 A 
ATOM     14  C   UNL     1      -1.611  -5.063  -5.580  1.00  0.00     0.057 A 
ATOM     15  C   UNL     1      -0.770  -4.898  -7.846  1.00  0.00     0.012 A 
ATOM     16  C   UNL     1      -2.813  -5.597  -6.059  1.00  0.00     0.157 A 
ATOM     17  C   UNL     1      -1.968  -5.431  -8.328  1.00  0.00     0.050 A 
ATOM     18  C   UNL     1      -2.994  -5.781  -7.441  1.00  0.00     0.157 A 
BRANCH  16  19
ATOM     19  O   UNL     1      -3.812  -5.942  -5.149  1.00  0.00    -0.504 OA
ATOM     20  H   UNL     1      -4.126  -5.304  -4.428  1.00  0.00     0.293 HD
ENDBRANCH  16  19
BRANCH  18  21
ATOM     21  O   UNL     1      -4.188  -6.312  -7.924  1.00  0.00    -0.504 OA
ATOM     22  H   UNL     1      -4.943  -6.576  -7.300  1.00  0.00     0.293 HD
ENDBRANCH  18  21
ENDBRANCH   3  13
BRANCH   9  23
ATOM     23  O   UNL     1       4.000  -1.468  -2.923  1.00  0.00    -0.507 OA
ATOM     24  H   UNL     1       3.596  -0.705  -3.450  1.00  0.00     0.293 HD
ENDBRANCH   9  23
BRANCH   7  25
ATOM     25  O   UNL     1       4.204  -5.989  -1.254  1.00  0.00    -0.508 OA
ATOM     26  H   UNL     1       4.504  -5.727  -0.321  1.00  0.00     0.293 HD
ENDBRANCH   7  25
TORSDOF 6
ENDMDL
MODEL 6
REMARK VINA RESULT:    -6.210      1.600      7.012
REMARK INTER + INTRA:          -7.858
REMARK INTER:                  -7.514
REMARK INTRA:                  -0.344
REMARK UNBOUND:                -0.377
REMARK SMILES Oc1cc(O)c2c(c1)O[C@@H](c1ccc(O)c(O)c1)[C@H](O)C2
REMARK SMILES IDX 21 1 19 2 10 3 9 4 7 5 8 6 2 7 3 8 4 9 6 10 20 11 11 13
REMARK SMILES IDX 18 14 12 15 16 16 13 17 14 18 17 19 15 21 5 23 1 25
REMARK H PARENT 20 12 17 20 15 22 5 24 1 26
REMARK Flexibility Score: inf
ROOT
ATOM      1  C   UNL     1      -0.973  -1.417  -1.595  1.00  0.00     0.079 C 
ATOM      2  C   UNL     1       0.493  -1.328  -1.133  1.00  0.00     0.164 C 
ATOM      3  C   UNL     1       0.744   0.007  -0.403  1.00  0.00     0.232 C 
ATOM      4  O   UNL     1      -0.166   0.136   0.688  1.00  0.00    -0.482 OA
ATOM      5  C   UNL     1      -1.498  -0.287   0.607  1.00  0.00     0.131 A 
ATOM      6  C   UNL     1      -2.376   0.041   1.643  1.00  0.00     0.093 A 
ATOM      7  C   UNL     1      -3.714  -0.351   1.584  1.00  0.00     0.122 A 
ATOM      8  C   UNL     1      -4.180  -1.072   0.478  1.00  0.00     0.092 A 
ATOM      9  C   UNL     1      -3.315  -1.409  -0.569  1.00  0.00     0.126 A 
ATOM     10  C   UNL     1      -1.948  -1.050  -0.494  1.00  0.00     0.039 A 
ENDROOT
BRANCH   2  11
ATOM     11  O   UNL     1       1.366  -1.489  -2.224  1.00  0.00    -0.389 OA
ATOM     12  H   UNL     1       1.650  -2.440  -2.244  1.00  0.00     0.211 HD
ENDBRANCH   2  11
BRANCH   3  13
ATOM     13  C   UNL     1       2.164   0.094   0.104  1.00  0.00    -0.001 A 
ATOM     14  C   UNL     1       2.981   1.176  -0.261  1.00  0.00     0.057 A 
ATOM     15  C   UNL     1       2.700  -0.929   0.904  1.00  0.00     0.012 A 
ATOM     16  C   UNL     1       4.307   1.250   0.181  1.00  0.00     0.157 A 
ATOM     17  C   UNL     1       4.023  -0.859   1.348  1.00  0.00     0.050 A 
ATOM     18  C   UNL     1       4.831   0.229   0.992  1.00  0.00     0.157 A 
BRANCH  16  19
ATOM     19  O   UNL     1       5.087   2.343  -0.196  1.00  0.00    -0.504 OA
ATOM     20  H   UNL     1       6.036   2.236  -0.533  1.00  0.00     0.293 HD
ENDBRANCH  16  19
BRANCH  18  21
ATOM     21  O   UNL     1       6.150   0.297   1.436  1.00  0.00    -0.504 OA
ATOM     22  H   UNL     1       6.922   0.414   0.790  1.00  0.00     0.293 HD
ENDBRANCH  18  21
ENDBRANCH   3  13
BRANCH   9  23
ATOM     23  O   UNL     1      -3.847  -2.088  -1.668  1.00  0.00    -0.507 OA
ATOM     24  H   UNL     1      -3.317  -2.743  -2.227  1.00  0.00     0.293 HD
ENDBRANCH   9  23
BRANCH   7  25
ATOM     25  O   UNL     1      -4.575  -0.017   2.627  1.00  0.00    -0.508 OA
ATOM     26  H   UNL     1      -4.269  -0.036   3.594  1.00  0.00     0.293 HD
ENDBRANCH   7  25
TORSDOF 6
ENDMDL
MODEL 7
REMARK VINA RESULT:    -6.196      5.274      6.760
REMARK INTER + INTRA:          -7.841
REMARK INTER:                  -7.562
REMARK INTRA:                  -0.279
REMARK UNBOUND:                -0.377
REMARK SMILES Oc1cc(O)c2c(c1)O[C@@H](c1ccc(O)c(O)c1)[C@H](O)C2
REMARK SMILES IDX 21 1 19 2 10 3 9 4 7 5 8 6 2 7 3 8 4 9 6 10 20 11 11 13
REMARK SMILES IDX 18 14 12 15 16 16 13 17 14 18 17 19 15 21 5 23 1 25
REMARK H PARENT 20 12 17 20 15 22 5 24 1 26
REMARK Flexibility Score: inf
ROOT
ATOM      1  C   UNL     1       0.362  -2.198  -2.845  1.00  0.00     0.079 C 
ATOM      2  C   UNL     1      -0.736  -2.874  -3.686  1.00  0.00     0.164 C 
ATOM      3  C   UNL     1      -0.103  -3.768  -4.772  1.00  0.00     0.232 C 
ATOM      4  O   UNL     1       0.764  -4.723  -4.163  1.00  0.00    -0.482 OA
ATOM      5  C   UNL     1       1.577  -4.405  -3.069  1.00  0.00     0.131 A 
ATOM      6  C   UNL     1       2.535  -5.331  -2.646  1.00  0.00     0.093 A 
ATOM      7  C   UNL     1       3.371  -5.039  -1.568  1.00  0.00     0.122 A 
ATOM      8  C   UNL     1       3.255  -3.808  -0.912  1.00  0.00     0.092 A 
ATOM      9  C   UNL     1       2.303  -2.868  -1.321  1.00  0.00     0.126 A 
ATOM     10  C   UNL     1       1.423  -3.177  -2.387  1.00  0.00     0.039 A 
ENDROOT
BRANCH   2  11
ATOM     11  O   UNL     1      -1.593  -1.911  -4.248  1.00  0.00    -0.389 OA
ATOM     12  H   UNL     1      -1.312  -1.023  -3.907  1.00  0.00     0.211 HD
ENDBRANCH   2  11
BRANCH   3  13
ATOM     13  C   UNL     1      -1.163  -4.483  -5.577  1.00  0.00    -0.001 A 
ATOM     14  C   UNL     1      -1.081  -4.519  -6.979  1.00  0.00     0.057 A 
ATOM     15  C   UNL     1      -2.265  -5.074  -4.940  1.00  0.00     0.012 A 
ATOM     16  C   UNL     1      -2.073  -5.155  -7.734  1.00  0.00     0.157 A 
ATOM     17  C   UNL     1      -3.258  -5.709  -5.691  1.00  0.00     0.050 A 
ATOM     18  C   UNL     1      -3.167  -5.755  -7.088  1.00  0.00     0.157 A 
BRANCH  16  19
ATOM     19  O   UNL     1      -1.957  -5.177  -9.124  1.00  0.00    -0.504 OA
ATOM     20  H   UNL     1      -2.170  -4.369  -9.695  1.00  0.00     0.293 HD
ENDBRANCH  16  19
BRANCH  18  21
ATOM     21  O   UNL     1      -4.158  -6.390  -7.835  1.00  0.00    -0.504 OA
ATOM     22  H   UNL     1      -4.097  -7.374  -8.068  1.00  0.00     0.293 HD
ENDBRANCH  18  21
ENDBRANCH   3  13
BRANCH   9  23
ATOM     23  O   UNL     1       2.265  -1.639  -0.658  1.00  0.00    -0.507 OA
ATOM     24  H   UNL     1       2.636  -1.496   0.271  1.00  0.00     0.293 HD
ENDBRANCH   9  23
BRANCH   7  25
ATOM     25  O   UNL     1       4.319  -5.975  -1.159  1.00  0.00    -0.508 OA
ATOM     26  H   UNL     1       4.213  -6.961  -1.366  1.00  0.00     0.293 HD
ENDBRANCH   7  25
TORSDOF 6
ENDMDL
MODEL 8
REMARK VINA RESULT:    -6.172      5.816      7.041
REMARK INTER + INTRA:          -7.812
REMARK INTER:                  -7.466
REMARK INTRA:                  -0.347
REMARK UNBOUND:                -0.377
REMARK SMILES Oc1cc(O)c2c(c1)O[C@@H](c1ccc(O)c(O)c1)[C@H](O)C2
REMARK SMILES IDX 21 1 19 2 10 3 9 4 7 5 8 6 2 7 3 8 4 9 6 10 20 11 11 13
REMARK SMILES IDX 18 14 12 15 16 16 13 17 14 18 17 19 15 21 5 23 1 25
REMARK H PARENT 20 12 17 20 15 22 5 24 1 26
REMARK Flexibility Score: inf
ROOT
ATOM      1  C   UNL     1       1.940  -1.660  -5.931  1.00  0.00     0.079 C 
ATOM      2  C   UNL     1       0.670  -2.377  -6.424  1.00  0.00     0.164 C 
ATOM      3  C   UNL     1       0.652  -3.836  -5.925  1.00  0.00     0.232 C 
ATOM      4  O   UNL     1       0.757  -3.859  -4.503  1.00  0.00    -0.482 OA
ATOM      5  C   UNL     1       1.580  -2.973  -3.798  1.00  0.00     0.131 A 
ATOM      6  C   UNL     1       1.778  -3.175  -2.430  1.00  0.00     0.093 A 
ATOM      7  C   UNL     1       2.604  -2.318  -1.702  1.00  0.00     0.122 A 
ATOM      8  C   UNL     1       3.244  -1.254  -2.348  1.00  0.00     0.092 A 
ATOM      9  C   UNL     1       3.059  -1.035  -3.718  1.00  0.00     0.126 A 
ATOM     10  C   UNL     1       2.188  -1.877  -4.452  1.00  0.00     0.039 A 
ENDROOT
BRANCH   2  11
ATOM     11  O   UNL     1       0.577  -2.312  -7.825  1.00  0.00    -0.389 OA
ATOM     12  H   UNL     1       0.122  -1.461  -8.057  1.00  0.00     0.211 HD
ENDBRANCH   2  11
BRANCH   3  13
ATOM     13  C   UNL     1      -0.611  -4.545  -6.354  1.00  0.00    -0.001 A 
ATOM     14  C   UNL     1      -0.569  -5.515  -7.369  1.00  0.00     0.057 A 
ATOM     15  C   UNL     1      -1.848  -4.208  -5.781  1.00  0.00     0.012 A 
ATOM     16  C   UNL     1      -1.738  -6.156  -7.792  1.00  0.00     0.157 A 
ATOM     17  C   UNL     1      -3.019  -4.846  -6.201  1.00  0.00     0.050 A 
ATOM     18  C   UNL     1      -2.970  -5.822  -7.204  1.00  0.00     0.157 A 
BRANCH  16  19
ATOM     19  O   UNL     1      -1.658  -7.119  -8.798  1.00  0.00    -0.504 OA
ATOM     20  H   UNL     1      -2.227  -7.073  -9.634  1.00  0.00     0.293 HD
ENDBRANCH  16  19
BRANCH  18  21
ATOM     21  O   UNL     1      -4.139  -6.457  -7.621  1.00  0.00    -0.504 OA
ATOM     22  H   UNL     1      -4.649  -6.146  -8.440  1.00  0.00     0.293 HD
ENDBRANCH  18  21
ENDBRANCH   3  13
BRANCH   9  23
ATOM     23  O   UNL     1       3.759   0.014  -4.317  1.00  0.00    -0.507 OA
ATOM     24  H   UNL     1       3.777   0.954  -3.948  1.00  0.00     0.293 HD
ENDBRANCH   9  23
BRANCH   7  25
ATOM     25  O   UNL     1       2.788  -2.534  -0.338  1.00  0.00    -0.508 OA
ATOM     26  H   UNL     1       3.167  -3.407   0.014  1.00  0.00     0.293 HD
ENDBRANCH   7  25
TORSDOF 6
ENDMDL
MODEL 9
REMARK VINA RESULT:    -6.130      4.742      8.270
REMARK INTER + INTRA:          -7.762
REMARK INTER:                  -7.455
REMARK INTRA:                  -0.307
REMARK UNBOUND:                -0.377
REMARK SMILES Oc1cc(O)c2c(c1)O[C@@H](c1ccc(O)c(O)c1)[C@H](O)C2
REMARK SMILES IDX 21 1 19 2 10 3 9 4 7 5 8 6 2 7 3 8 4 9 6 10 20 11 11 13
REMARK SMILES IDX 18 14 12 15 16 16 13 17 14 18 17 19 15 21 5 23 1 25
REMARK H PARENT 20 12 17 20 15 22 5 24 1 26
REMARK Flexibility Score: inf
ROOT
ATOM      1  C   UNL     1      -0.142  -2.609  -6.494  1.00  0.00     0.079 C 
ATOM      2  C   UNL     1       0.537  -2.326  -5.141  1.00  0.00     0.164 C 
ATOM      3  C   UNL     1      -0.509  -2.317  -4.009  1.00  0.00     0.232 C 
ATOM      4  O   UNL     1      -1.216  -3.557  -3.999  1.00  0.00    -0.482 OA
ATOM      5  C   UNL     1      -1.580  -4.220  -5.177  1.00  0.00     0.131 A 
ATOM      6  C   UNL     1      -2.431  -5.326  -5.095  1.00  0.00     0.093 A 
ATOM      7  C   UNL     1      -2.826  -6.000  -6.251  1.00  0.00     0.122 A 
ATOM      8  C   UNL     1      -2.373  -5.560  -7.501  1.00  0.00     0.092 A 
ATOM      9  C   UNL     1      -1.520  -4.455  -7.603  1.00  0.00     0.126 A 
ATOM     10  C   UNL     1      -1.084  -3.794  -6.429  1.00  0.00     0.039 A 
ENDROOT
BRANCH   2  11
ATOM     11  O   UNL     1       1.251  -1.115  -5.190  1.00  0.00    -0.389 OA
ATOM     12  H   UNL     1       0.608  -0.396  -5.424  1.00  0.00     0.211 HD
ENDBRANCH   2  11
BRANCH   3  13
ATOM     13  C   UNL     1       0.142  -2.092  -2.664  1.00  0.00    -0.001 A 
ATOM     14  C   UNL     1      -0.365  -1.119  -1.787  1.00  0.00     0.057 A 
ATOM     15  C   UNL     1       1.288  -2.815  -2.297  1.00  0.00     0.012 A 
ATOM     16  C   UNL     1       0.250  -0.884  -0.552  1.00  0.00     0.157 A 
ATOM     17  C   UNL     1       1.905  -2.582  -1.065  1.00  0.00     0.050 A 
ATOM     18  C   UNL     1       1.389  -1.620  -0.187  1.00  0.00     0.157 A 
BRANCH  16  19
ATOM     19  O   UNL     1      -0.284   0.086   0.297  1.00  0.00    -0.504 OA
ATOM     20  H   UNL     1      -1.038  -0.120   0.941  1.00  0.00     0.293 HD
ENDBRANCH  16  19
BRANCH  18  21
ATOM     21  O   UNL     1       2.005  -1.391   1.042  1.00  0.00    -0.504 OA
ATOM     22  H   UNL     1       2.782  -0.746   1.135  1.00  0.00     0.293 HD
ENDBRANCH  18  21
ENDBRANCH   3  13
BRANCH   9  23
ATOM     23  O   UNL     1      -1.138  -4.035  -8.879  1.00  0.00    -0.507 OA
ATOM     24  H   UNL     1      -0.510  -3.260  -9.045  1.00  0.00     0.293 HD
ENDBRANCH   9  23
BRANCH   7  25
ATOM     25  O   UNL     1      -3.673  -7.101  -6.150  1.00  0.00    -0.508 OA
ATOM     26  H   UNL     1      -4.679  -6.991  -6.086  1.00  0.00     0.293 HD
ENDBRANCH   7  25
TORSDOF 6
ENDMDL
