MODEL 1
REMARK VINA RESULT:    -0.545      0.000      0.000
REMARK INTER + INTRA:           0.145
REMARK INTER:                  -0.641
REMARK INTRA:                   0.785
REMARK UNBOUND:                 0.785
REMARK SMILES COc1cc2ccc(=O)oc2c(OC)c1OC
REMARK SMILES IDX 3 1 15 2 12 3 11 4 5 5 4 6 6 7 7 8 8 9 9 10 10 11 2 12 1 13
REMARK SMILES IDX 16 14 17 15 13 16 14 17
REMARK H PARENT
REMARK Flexibility Score: inf
ROOT
ATOM      1  C   UNL     1      -2.882   0.651  21.440  1.00  0.00     0.165 A 
ATOM      2  C   UNL     1      -2.893  -0.329  20.432  1.00  0.00     0.207 A 
ATOM      3  C   UNL     1      -2.900   0.056  19.062  1.00  0.00     0.208 A 
ATOM      4  C   UNL     1      -2.894   1.437  18.734  1.00  0.00     0.184 A 
ATOM      5  C   UNL     1      -2.883   2.405  19.763  1.00  0.00     0.025 A 
ATOM      6  C   UNL     1      -2.876   2.012  21.101  1.00  0.00     0.062 A 
ATOM      7  C   UNL     1      -2.878   3.760  19.414  1.00  0.00     0.020 A 
ATOM      8  C   UNL     1      -2.885   4.125  18.071  1.00  0.00     0.094 A 
ATOM      9  C   UNL     1      -2.896   3.119  17.104  1.00  0.00     0.336 A 
ATOM     10  O   UNL     1      -2.902   3.422  15.882  1.00  0.00    -0.246 OA
ATOM     11  O   UNL     1      -2.900   1.839  17.465  1.00  0.00    -0.419 OA
ENDROOT
BRANCH   1  12
ATOM     12  O   UNL     1      -2.875   0.223  22.778  1.00  0.00    -0.493 OA
ATOM     13  C   UNL     1      -3.331   1.000  23.880  1.00  0.00     0.278 C 
ENDBRANCH   1  12
BRANCH   2  14
ATOM     14  O   UNL     1      -2.897  -1.668  20.870  1.00  0.00    -0.490 OA
ATOM     15  C   UNL     1      -3.792  -2.263  21.804  1.00  0.00     0.278 C 
ENDBRANCH   2  14
BRANCH   3  16
ATOM     16  O   UNL     1      -2.911  -0.953  18.080  1.00  0.00    -0.490 OA
ATOM     17  C   UNL     1      -3.412  -0.852  16.751  1.00  0.00     0.278 C 
ENDBRANCH   3  16
TORSDOF 3
ENDMDL
MODEL 2
REMARK VINA RESULT:    -0.379      1.742      5.260
REMARK INTER + INTRA:           0.339
REMARK INTER:                  -0.175
REMARK INTRA:                   0.515
REMARK UNBOUND:                 0.785
REMARK SMILES COc1cc2ccc(=O)oc2c(OC)c1OC
REMARK SMILES IDX 3 1 15 2 12 3 11 4 5 5 4 6 6 7 7 8 8 9 9 10 10 11 2 12 1 13
REMARK SMILES IDX 16 14 17 15 13 16 14 17
REMARK H PARENT
REMARK Flexibility Score: inf
ROOT
ATOM      1  C   UNL     1      -3.743   2.864  16.665  1.00  0.00     0.165 A 
ATOM      2  C   UNL     1      -3.959   1.600  16.091  1.00  0.00     0.207 A 
ATOM      3  C   UNL     1      -3.848   0.426  16.887  1.00  0.00     0.208 A 
ATOM      4  C   UNL     1      -3.519   0.554  18.262  1.00  0.00     0.184 A 
ATOM      5  C   UNL     1      -3.306   1.835  18.818  1.00  0.00     0.025 A 
ATOM      6  C   UNL     1      -3.419   2.976  18.025  1.00  0.00     0.062 A 
ATOM      7  C   UNL     1      -2.981   1.936  20.176  1.00  0.00     0.020 A 
ATOM      8  C   UNL     1      -2.875   0.781  20.945  1.00  0.00     0.094 A 
ATOM      9  C   UNL     1      -3.098  -0.454  20.334  1.00  0.00     0.336 A 
ATOM     10  O   UNL     1      -3.009  -1.514  21.008  1.00  0.00    -0.246 OA
ATOM     11  O   UNL     1      -3.405  -0.519  19.042  1.00  0.00    -0.419 OA
ENDROOT
BRANCH   1  12
ATOM     12  O   UNL     1      -3.864   3.994  15.839  1.00  0.00    -0.493 OA
ATOM     13  C   UNL     1      -3.300   4.111  14.537  1.00  0.00     0.278 C 
ENDBRANCH   1  12
BRANCH   2  14
ATOM     14  O   UNL     1      -4.281   1.588  14.719  1.00  0.00    -0.490 OA
ATOM     15  C   UNL     1      -5.578   1.475  14.143  1.00  0.00     0.278 C 
ENDBRANCH   2  14
BRANCH   3  16
ATOM     16  O   UNL     1      -4.072  -0.824  16.279  1.00  0.00    -0.490 OA
ATOM     17  C   UNL     1      -3.191  -1.524  15.405  1.00  0.00     0.278 C 
ENDBRANCH   3  16
TORSDOF 3
ENDMDL
MODEL 3
REMARK VINA RESULT:    -0.321      2.211      2.588
REMARK INTER + INTRA:           0.409
REMARK INTER:                  -0.898
REMARK INTRA:                   1.307
REMARK UNBOUND:                 0.785
REMARK SMILES COc1cc2ccc(=O)oc2c(OC)c1OC
REMARK SMILES IDX 3 1 15 2 12 3 11 4 5 5 4 6 6 7 7 8 8 9 9 10 10 11 2 12 1 13
REMARK SMILES IDX 16 14 17 15 13 16 14 17
REMARK H PARENT
REMARK Flexibility Score: inf
ROOT
ATOM      1  C   UNL     1      -3.480   1.701  19.536  1.00  0.00     0.165 A 
ATOM      2  C   UNL     1      -3.487   0.546  18.736  1.00  0.00     0.207 A 
ATOM      3  C   UNL     1      -4.088   0.574  17.447  1.00  0.00     0.208 A 
ATOM      4  C   UNL     1      -4.676   1.781  16.986  1.00  0.00     0.184 A 
ATOM      5  C   UNL     1      -4.659   2.930  17.807  1.00  0.00     0.025 A 
ATOM      6  C   UNL     1      -4.065   2.887  19.068  1.00  0.00     0.062 A 
ATOM      7  C   UNL     1      -5.246   4.109  17.331  1.00  0.00     0.020 A 
ATOM      8  C   UNL     1      -5.831   4.124  16.069  1.00  0.00     0.094 A 
ATOM      9  C   UNL     1      -5.814   2.954  15.308  1.00  0.00     0.336 A 
ATOM     10  O   UNL     1      -6.336   2.941  14.162  1.00  0.00    -0.246 OA
ATOM     11  O   UNL     1      -5.249   1.849  15.786  1.00  0.00    -0.419 OA
ENDROOT
BRANCH   1  12
ATOM     12  O   UNL     1      -2.875   1.626  20.802  1.00  0.00    -0.493 OA
ATOM     13  C   UNL     1      -3.557   1.304  22.009  1.00  0.00     0.278 C 
ENDBRANCH   1  12
BRANCH   2  14
ATOM     14  O   UNL     1      -2.875  -0.596  19.290  1.00  0.00    -0.490 OA
ATOM     15  C   UNL     1      -3.251  -1.276  20.483  1.00  0.00     0.278 C 
ENDBRANCH   2  14
BRANCH   3  16
ATOM     16  O   UNL     1      -4.075  -0.602  16.672  1.00  0.00    -0.490 OA
ATOM     17  C   UNL     1      -4.384  -0.722  15.287  1.00  0.00     0.278 C 
ENDBRANCH   3  16
TORSDOF 3
ENDMDL
MODEL 4
REMARK VINA RESULT:    -0.305      1.504      5.529
REMARK INTER + INTRA:           0.426
REMARK INTER:                  -0.024
REMARK INTRA:                   0.450
REMARK UNBOUND:                 0.785
REMARK SMILES COc1cc2ccc(=O)oc2c(OC)c1OC
REMARK SMILES IDX 3 1 15 2 12 3 11 4 5 5 4 6 6 7 7 8 8 9 9 10 10 11 2 12 1 13
REMARK SMILES IDX 16 14 17 15 13 16 14 17
REMARK H PARENT
REMARK Flexibility Score: inf
ROOT
ATOM      1  C   UNL     1      -3.143   0.291  17.416  1.00  0.00     0.165 A 
ATOM      2  C   UNL     1      -3.053   1.657  17.731  1.00  0.00     0.207 A 
ATOM      3  C   UNL     1      -2.979   2.073  19.090  1.00  0.00     0.208 A 
ATOM      4  C   UNL     1      -2.996   1.090  20.114  1.00  0.00     0.184 A 
ATOM      5  C   UNL     1      -3.088  -0.278  19.775  1.00  0.00     0.025 A 
ATOM      6  C   UNL     1      -3.159  -0.670  18.439  1.00  0.00     0.062 A 
ATOM      7  C   UNL     1      -3.104  -1.228  20.802  1.00  0.00     0.020 A 
ATOM      8  C   UNL     1      -3.031  -0.810  22.127  1.00  0.00     0.094 A 
ATOM      9  C   UNL     1      -2.942   0.557  22.394  1.00  0.00     0.336 A 
ATOM     10  O   UNL     1      -2.875   0.962  23.585  1.00  0.00    -0.246 OA
ATOM     11  O   UNL     1      -2.929   1.437  21.398  1.00  0.00    -0.419 OA
ENDROOT
BRANCH   1  12
ATOM     12  O   UNL     1      -3.213  -0.072  16.061  1.00  0.00    -0.493 OA
ATOM     13  C   UNL     1      -4.420  -0.190  15.315  1.00  0.00     0.278 C 
ENDBRANCH   1  12
BRANCH   2  14
ATOM     14  O   UNL     1      -3.042   2.546  16.639  1.00  0.00    -0.490 OA
ATOM     15  C   UNL     1      -3.976   3.587  16.371  1.00  0.00     0.278 C 
ENDBRANCH   2  14
BRANCH   3  16
ATOM     16  O   UNL     1      -2.889   3.451  19.368  1.00  0.00    -0.490 OA
ATOM     17  C   UNL     1      -3.262   4.109  20.575  1.00  0.00     0.278 C 
ENDBRANCH   3  16
TORSDOF 3
ENDMDL
MODEL 5
REMARK VINA RESULT:     1.043      1.968      3.830
REMARK INTER + INTRA:           2.011
REMARK INTER:                   0.560
REMARK INTRA:                   1.451
REMARK UNBOUND:                 0.785
REMARK SMILES COc1cc2ccc(=O)oc2c(OC)c1OC
REMARK SMILES IDX 3 1 15 2 12 3 11 4 5 5 4 6 6 7 7 8 8 9 9 10 10 11 2 12 1 13
REMARK SMILES IDX 16 14 17 15 13 16 14 17
REMARK H PARENT
REMARK Flexibility Score: inf
ROOT
ATOM      1  C   UNL     1      -3.353  -0.120  18.955  1.00  0.00     0.165 A 
ATOM      2  C   UNL     1      -3.358   1.244  19.293  1.00  0.00     0.207 A 
ATOM      3  C   UNL     1      -3.831   2.209  18.360  1.00  0.00     0.208 A 
ATOM      4  C   UNL     1      -4.297   1.771  17.093  1.00  0.00     0.184 A 
ATOM      5  C   UNL     1      -4.283   0.395  16.774  1.00  0.00     0.025 A 
ATOM      6  C   UNL     1      -3.816  -0.538  17.698  1.00  0.00     0.062 A 
ATOM      7  C   UNL     1      -4.746  -0.011  15.517  1.00  0.00     0.020 A 
ATOM      8  C   UNL     1      -5.207   0.942  14.613  1.00  0.00     0.094 A 
ATOM      9  C   UNL     1      -5.194   2.285  14.990  1.00  0.00     0.336 A 
ATOM     10  O   UNL     1      -5.606   3.167  14.191  1.00  0.00    -0.246 OA
ATOM     11  O   UNL     1      -4.748   2.642  16.191  1.00  0.00    -0.419 OA
ENDROOT
BRANCH   1  12
ATOM     12  O   UNL     1      -2.876  -1.036  19.908  1.00  0.00    -0.493 OA
ATOM     13  C   UNL     1      -3.603  -1.466  21.054  1.00  0.00     0.278 C 
ENDBRANCH   1  12
BRANCH   2  14
ATOM     14  O   UNL     1      -2.875   1.566  20.576  1.00  0.00    -0.490 OA
ATOM     15  C   UNL     1      -3.640   1.714  21.768  1.00  0.00     0.278 C 
ENDBRANCH   2  14
BRANCH   3  16
ATOM     16  O   UNL     1      -3.822   3.566  18.733  1.00  0.00    -0.490 OA
ATOM     17  C   UNL     1      -3.312   4.121  19.941  1.00  0.00     0.278 C 
ENDBRANCH   3  16
TORSDOF 3
ENDMDL
MODEL 6
REMARK VINA RESULT:     1.603      1.146      3.136
REMARK INTER + INTRA:           2.670
REMARK INTER:                   2.313
REMARK INTRA:                   0.356
REMARK UNBOUND:                 0.785
REMARK SMILES COc1cc2ccc(=O)oc2c(OC)c1OC
REMARK SMILES IDX 3 1 15 2 12 3 11 4 5 5 4 6 6 7 7 8 8 9 9 10 10 11 2 12 1 13
REMARK SMILES IDX 16 14 17 15 13 16 14 17
REMARK H PARENT
REMARK Flexibility Score: inf
ROOT
ATOM      1  C   UNL     1      -2.878  -0.766  20.644  1.00  0.00     0.165 A 
ATOM      2  C   UNL     1      -2.877   0.571  21.076  1.00  0.00     0.207 A 
ATOM      3  C   UNL     1      -2.877   1.629  20.124  1.00  0.00     0.208 A 
ATOM      4  C   UNL     1      -2.880   1.311  18.741  1.00  0.00     0.184 A 
ATOM      5  C   UNL     1      -2.881  -0.041  18.329  1.00  0.00     0.025 A 
ATOM      6  C   UNL     1      -2.880  -1.066  19.274  1.00  0.00     0.062 A 
ATOM      7  C   UNL     1      -2.883  -0.329  16.959  1.00  0.00     0.020 A 
ATOM      8  C   UNL     1      -2.883   0.713  16.037  1.00  0.00     0.094 A 
ATOM      9  C   UNL     1      -2.883   2.026  16.510  1.00  0.00     0.336 A 
ATOM     10  O   UNL     1      -2.883   2.988  15.697  1.00  0.00    -0.246 OA
ATOM     11  O   UNL     1      -2.881   2.270  17.817  1.00  0.00    -0.419 OA
ENDROOT
BRANCH   1  12
ATOM     12  O   UNL     1      -2.877  -1.776  21.621  1.00  0.00    -0.493 OA
ATOM     13  C   UNL     1      -4.044  -2.415  22.127  1.00  0.00     0.278 C 
ENDBRANCH   1  12
BRANCH   2  14
ATOM     14  O   UNL     1      -2.875   0.773  22.470  1.00  0.00    -0.490 OA
ATOM     15  C   UNL     1      -4.003   1.021  23.303  1.00  0.00     0.278 C 
ENDBRANCH   2  14
BRANCH   3  16
ATOM     16  O   UNL     1      -2.877   2.956  20.592  1.00  0.00    -0.490 OA
ATOM     17  C   UNL     1      -3.247   4.124  19.865  1.00  0.00     0.278 C 
ENDBRANCH   3  16
TORSDOF 3
ENDMDL
