MODEL 1
REMARK VINA RESULT:    -4.907      0.000      0.000
REMARK INTER + INTRA:         -10.545
REMARK INTER:                  -9.209
REMARK INTRA:                  -1.335
REMARK UNBOUND:                -1.335
REMARK SMILES CCCCCCCCC=CCCCCCCCC(=O)[O-]
REMARK SMILES IDX 10 1 9 2 11 3 12 4 13 5 14 6 15 7 16 8 17 9 18 10 19 11
REMARK SMILES IDX 20 12 8 13 7 14 6 15 5 16 4 17 3 18 2 19 1 20
REMARK H PARENT
REMARK Flexibility Score: inf
ROOT
ATOM      1  C   UNL     1       7.511   7.012 -32.267  1.00  0.00    -0.031 C 
ATOM      2  C   UNL     1       6.847   5.966 -31.741  1.00  0.00    -0.031 C 
ENDROOT
BRANCH   1   3
ATOM      3  C   UNL     1       8.678   6.894 -33.214  1.00  0.00     0.027 C 
BRANCH   3   4
ATOM      4  C   UNL     1       9.985   6.688 -32.442  1.00  0.00     0.004 C 
BRANCH   4   5
ATOM      5  C   UNL     1      11.157   6.437 -33.402  1.00  0.00     0.000 C 
BRANCH   5   6
ATOM      6  C   UNL     1      11.347   4.948 -33.738  1.00  0.00     0.000 C 
BRANCH   6   7
ATOM      7  C   UNL     1      12.516   4.256 -33.007  1.00  0.00     0.000 C 
BRANCH   7   8
ATOM      8  C   UNL     1      13.467   5.203 -32.249  1.00  0.00     0.006 C 
BRANCH   8   9
ATOM      9  C   UNL     1      13.514   4.973 -30.731  1.00  0.00     0.053 C 
BRANCH   9  10
ATOM     10  C   UNL     1      14.558   3.971 -30.348  1.00  0.00     0.041 C 
ATOM     11  O   UNL     1      14.225   2.802 -30.016  1.00  0.00    -0.550 OA
ATOM     12  O   UNL     1      15.899   4.336 -30.323  1.00  0.00    -0.550 OA
ENDBRANCH   9  10
ENDBRANCH   8   9
ENDBRANCH   7   8
ENDBRANCH   6   7
ENDBRANCH   5   6
ENDBRANCH   4   5
ENDBRANCH   3   4
ENDBRANCH   1   3
BRANCH   2  13
ATOM     13  C   UNL     1       7.105   4.520 -32.091  1.00  0.00     0.027 C 
BRANCH  13  14
ATOM     14  C   UNL     1       5.864   3.645 -31.864  1.00  0.00     0.004 C 
BRANCH  14  15
ATOM     15  C   UNL     1       4.813   3.832 -32.972  1.00  0.00     0.000 C 
BRANCH  15  16
ATOM     16  C   UNL     1       3.400   3.437 -32.516  1.00  0.00     0.000 C 
BRANCH  16  17
ATOM     17  C   UNL     1       3.272   3.365 -30.984  1.00  0.00    -0.000 C 
BRANCH  17  18
ATOM     18  C   UNL     1       2.356   4.460 -30.409  1.00  0.00    -0.000 C 
BRANCH  18  19
ATOM     19  C   UNL     1       3.005   5.340 -29.326  1.00  0.00    -0.003 C 
ATOM     20  C   UNL     1       4.050   6.304 -29.886  1.00  0.00     0.004 C 
ENDBRANCH  18  19
ENDBRANCH  17  18
ENDBRANCH  16  17
ENDBRANCH  15  16
ENDBRANCH  14  15
ENDBRANCH  13  14
ENDBRANCH   2  13
TORSDOF 15
ENDMDL
MODEL 2
REMARK VINA RESULT:    -4.904      0.879      1.968
REMARK INTER + INTRA:         -10.540
REMARK INTER:                  -8.892
REMARK INTRA:                  -1.648
REMARK UNBOUND:                -1.335
REMARK SMILES CCCCCCCCC=CCCCCCCCC(=O)[O-]
REMARK SMILES IDX 10 1 9 2 11 3 12 4 13 5 14 6 15 7 16 8 17 9 18 10 19 11
REMARK SMILES IDX 20 12 8 13 7 14 6 15 5 16 4 17 3 18 2 19 1 20
REMARK H PARENT
REMARK Flexibility Score: inf
ROOT
ATOM      1  C   UNL     1       9.990   6.609 -32.420  1.00  0.00    -0.031 C 
ATOM      2  C   UNL     1       8.753   6.607 -31.890  1.00  0.00    -0.031 C 
ENDROOT
BRANCH   1   3
ATOM      3  C   UNL     1      10.288   6.726 -33.894  1.00  0.00     0.027 C 
BRANCH   3   4
ATOM      4  C   UNL     1      10.951   5.447 -34.417  1.00  0.00     0.004 C 
BRANCH   4   5
ATOM      5  C   UNL     1      11.789   4.775 -33.320  1.00  0.00     0.000 C 
BRANCH   5   6
ATOM      6  C   UNL     1      13.286   5.117 -33.417  1.00  0.00     0.000 C 
BRANCH   6   7
ATOM      7  C   UNL     1      13.947   5.547 -32.091  1.00  0.00     0.000 C 
BRANCH   7   8
ATOM      8  C   UNL     1      13.106   5.289 -30.825  1.00  0.00     0.006 C 
BRANCH   8   9
ATOM      9  C   UNL     1      13.797   4.410 -29.773  1.00  0.00     0.053 C 
BRANCH   9  10
ATOM     10  C   UNL     1      14.231   3.094 -30.339  1.00  0.00     0.041 C 
ATOM     11  O   UNL     1      15.425   2.710 -30.212  1.00  0.00    -0.550 OA
ATOM     12  O   UNL     1      13.327   2.304 -31.039  1.00  0.00    -0.550 OA
ENDBRANCH   9  10
ENDBRANCH   8   9
ENDBRANCH   7   8
ENDBRANCH   6   7
ENDBRANCH   5   6
ENDBRANCH   4   5
ENDBRANCH   3   4
ENDBRANCH   1   3
BRANCH   2  13
ATOM     13  C   UNL     1       7.481   6.816 -32.675  1.00  0.00     0.027 C 
BRANCH  13  14
ATOM     14  C   UNL     1       6.372   5.848 -32.238  1.00  0.00     0.004 C 
BRANCH  14  15
ATOM     15  C   UNL     1       6.858   4.390 -32.198  1.00  0.00     0.000 C 
BRANCH  15  16
ATOM     16  C   UNL     1       5.835   3.445 -31.551  1.00  0.00     0.000 C 
BRANCH  16  17
ATOM     17  C   UNL     1       4.385   3.797 -31.928  1.00  0.00    -0.000 C 
BRANCH  17  18
ATOM     18  C   UNL     1       3.393   3.563 -30.773  1.00  0.00    -0.000 C 
BRANCH  18  19
ATOM     19  C   UNL     1       2.771   4.843 -30.188  1.00  0.00    -0.003 C 
ATOM     20  C   UNL     1       3.796   5.744 -29.498  1.00  0.00     0.004 C 
ENDBRANCH  18  19
ENDBRANCH  17  18
ENDBRANCH  16  17
ENDBRANCH  15  16
ENDBRANCH  14  15
ENDBRANCH  13  14
ENDBRANCH   2  13
TORSDOF 15
ENDMDL
MODEL 3
REMARK VINA RESULT:    -4.899      3.968      8.918
REMARK INTER + INTRA:         -10.530
REMARK INTER:                  -9.151
REMARK INTRA:                  -1.379
REMARK UNBOUND:                -1.335
REMARK SMILES CCCCCCCCC=CCCCCCCCC(=O)[O-]
REMARK SMILES IDX 10 1 9 2 11 3 12 4 13 5 14 6 15 7 16 8 17 9 18 10 19 11
REMARK SMILES IDX 20 12 8 13 7 14 6 15 5 16 4 17 3 18 2 19 1 20
REMARK H PARENT
REMARK Flexibility Score: inf
ROOT
ATOM      1  C   UNL     1       9.483   6.966 -32.823  1.00  0.00    -0.031 C 
ATOM      2  C   UNL     1      10.712   6.615 -33.244  1.00  0.00    -0.031 C 
ENDROOT
BRANCH   1   3
ATOM      3  C   UNL     1       8.535   6.049 -32.091  1.00  0.00     0.027 C 
BRANCH   3   4
ATOM      4  C   UNL     1       7.170   6.719 -31.903  1.00  0.00     0.004 C 
BRANCH   4   5
ATOM      5  C   UNL     1       6.030   5.726 -32.172  1.00  0.00     0.000 C 
BRANCH   5   6
ATOM      6  C   UNL     1       6.435   4.265 -31.912  1.00  0.00     0.000 C 
BRANCH   6   7
ATOM      7  C   UNL     1       5.296   3.347 -31.422  1.00  0.00     0.000 C 
BRANCH   7   8
ATOM      8  C   UNL     1       3.873   3.904 -31.625  1.00  0.00     0.006 C 
BRANCH   8   9
ATOM      9  C   UNL     1       2.969   3.800 -30.386  1.00  0.00     0.053 C 
BRANCH   9  10
ATOM     10  C   UNL     1       2.704   5.139 -29.772  1.00  0.00     0.041 C 
ATOM     11  O   UNL     1       1.520   5.513 -29.553  1.00  0.00    -0.550 OA
ATOM     12  O   UNL     1       3.760   5.990 -29.474  1.00  0.00    -0.550 OA
ENDBRANCH   9  10
ENDBRANCH   8   9
ENDBRANCH   7   8
ENDBRANCH   6   7
ENDBRANCH   5   6
ENDBRANCH   4   5
ENDBRANCH   3   4
ENDBRANCH   1   3
BRANCH   2  13
ATOM     13  C   UNL     1      11.368   5.284 -32.964  1.00  0.00     0.027 C 
BRANCH  13  14
ATOM     14  C   UNL     1      12.723   5.449 -32.261  1.00  0.00     0.004 C 
BRANCH  14  15
ATOM     15  C   UNL     1      12.565   5.848 -30.784  1.00  0.00     0.000 C 
BRANCH  15  16
ATOM     16  C   UNL     1      13.132   4.791 -29.824  1.00  0.00     0.000 C 
BRANCH  16  17
ATOM     17  C   UNL     1      14.532   4.306 -30.241  1.00  0.00    -0.000 C 
BRANCH  17  18
ATOM     18  C   UNL     1      14.642   2.771 -30.287  1.00  0.00    -0.000 C 
BRANCH  18  19
ATOM     19  C   UNL     1      14.452   2.153 -31.683  1.00  0.00    -0.003 C 
ATOM     20  C   UNL     1      13.027   1.655 -31.927  1.00  0.00     0.004 C 
ENDBRANCH  18  19
ENDBRANCH  17  18
ENDBRANCH  16  17
ENDBRANCH  15  16
ENDBRANCH  14  15
ENDBRANCH  13  14
ENDBRANCH   2  13
TORSDOF 15
ENDMDL
MODEL 4
REMARK VINA RESULT:    -4.842      4.433      9.395
REMARK INTER + INTRA:         -10.424
REMARK INTER:                  -9.405
REMARK INTRA:                  -1.018
REMARK UNBOUND:                -1.335
REMARK SMILES CCCCCCCCC=CCCCCCCCC(=O)[O-]
REMARK SMILES IDX 10 1 9 2 11 3 12 4 13 5 14 6 15 7 16 8 17 9 18 10 19 11
REMARK SMILES IDX 20 12 8 13 7 14 6 15 5 16 4 17 3 18 2 19 1 20
REMARK H PARENT
REMARK Flexibility Score: inf
ROOT
ATOM      1  C   UNL     1       8.504   7.246 -33.277  1.00  0.00    -0.031 C 
ATOM      2  C   UNL     1       9.833   7.118 -33.447  1.00  0.00    -0.031 C 
ENDROOT
BRANCH   1   3
ATOM      3  C   UNL     1       7.721   6.612 -32.155  1.00  0.00     0.027 C 
BRANCH   3   4
ATOM      4  C   UNL     1       6.706   5.604 -32.705  1.00  0.00     0.004 C 
BRANCH   4   5
ATOM      5  C   UNL     1       6.487   4.450 -31.716  1.00  0.00     0.000 C 
BRANCH   5   6
ATOM      6  C   UNL     1       5.054   4.404 -31.157  1.00  0.00     0.000 C 
BRANCH   6   7
ATOM      7  C   UNL     1       4.591   5.685 -30.435  1.00  0.00     0.000 C 
BRANCH   7   8
ATOM      8  C   UNL     1       3.397   5.503 -29.477  1.00  0.00     0.006 C 
BRANCH   8   9
ATOM      9  C   UNL     1       2.361   4.470 -29.945  1.00  0.00     0.053 C 
BRANCH   9  10
ATOM     10  C   UNL     1       1.422   5.040 -30.963  1.00  0.00     0.041 C 
ATOM     11  O   UNL     1       0.320   5.534 -30.603  1.00  0.00    -0.550 OA
ATOM     12  O   UNL     1       1.748   4.997 -32.313  1.00  0.00    -0.550 OA
ENDBRANCH   9  10
ENDBRANCH   8   9
ENDBRANCH   7   8
ENDBRANCH   6   7
ENDBRANCH   5   6
ENDBRANCH   4   5
ENDBRANCH   3   4
ENDBRANCH   1   3
BRANCH   2  13
ATOM     13  C   UNL     1      10.756   6.403 -32.490  1.00  0.00     0.027 C 
BRANCH  13  14
ATOM     14  C   UNL     1      11.771   5.517 -33.228  1.00  0.00     0.004 C 
BRANCH  14  15
ATOM     15  C   UNL     1      12.975   5.155 -32.342  1.00  0.00     0.000 C 
BRANCH  15  16
ATOM     16  C   UNL     1      12.826   5.675 -30.904  1.00  0.00     0.000 C 
BRANCH  16  17
ATOM     17  C   UNL     1      13.444   4.723 -29.864  1.00  0.00    -0.000 C 
BRANCH  17  18
ATOM     18  C   UNL     1      13.856   3.368 -30.467  1.00  0.00    -0.000 C 
BRANCH  18  19
ATOM     19  C   UNL     1      15.268   2.892 -30.079  1.00  0.00    -0.003 C 
ATOM     20  C   UNL     1      16.310   4.010 -30.132  1.00  0.00     0.004 C 
ENDBRANCH  18  19
ENDBRANCH  17  18
ENDBRANCH  16  17
ENDBRANCH  15  16
ENDBRANCH  14  15
ENDBRANCH  13  14
ENDBRANCH   2  13
TORSDOF 15
ENDMDL
MODEL 5
REMARK VINA RESULT:    -4.804      1.875      2.411
REMARK INTER + INTRA:         -10.352
REMARK INTER:                  -8.386
REMARK INTRA:                  -1.966
REMARK UNBOUND:                -1.335
REMARK SMILES CCCCCCCCC=CCCCCCCCC(=O)[O-]
REMARK SMILES IDX 10 1 9 2 11 3 12 4 13 5 14 6 15 7 16 8 17 9 18 10 19 11
REMARK SMILES IDX 20 12 8 13 7 14 6 15 5 16 4 17 3 18 2 19 1 20
REMARK H PARENT
REMARK Flexibility Score: inf
ROOT
ATOM      1  C   UNL     1       7.502   6.238 -31.777  1.00  0.00    -0.031 C 
ATOM      2  C   UNL     1       7.257   4.914 -31.780  1.00  0.00    -0.031 C 
ENDROOT
BRANCH   1   3
ATOM      3  C   UNL     1       7.457   7.118 -33.000  1.00  0.00     0.027 C 
BRANCH   3   4
ATOM      4  C   UNL     1       8.866   7.337 -33.562  1.00  0.00     0.004 C 
BRANCH   4   5
ATOM      5  C   UNL     1       9.934   7.018 -32.506  1.00  0.00     0.000 C 
BRANCH   5   6
ATOM      6  C   UNL     1      11.109   6.201 -33.072  1.00  0.00     0.000 C 
BRANCH   6   7
ATOM      7  C   UNL     1      10.774   5.341 -34.307  1.00  0.00     0.000 C 
BRANCH   7   8
ATOM      8  C   UNL     1      10.337   3.894 -34.000  1.00  0.00     0.006 C 
BRANCH   8   9
ATOM      9  C   UNL     1      11.346   2.821 -34.434  1.00  0.00     0.053 C 
BRANCH   9  10
ATOM     10  C   UNL     1      12.157   2.315 -33.282  1.00  0.00     0.041 C 
ATOM     11  O   UNL     1      12.981   3.073 -32.704  1.00  0.00    -0.550 OA
ATOM     12  O   UNL     1      12.029   0.995 -32.867  1.00  0.00    -0.550 OA
ENDBRANCH   9  10
ENDBRANCH   8   9
ENDBRANCH   7   8
ENDBRANCH   6   7
ENDBRANCH   5   6
ENDBRANCH   4   5
ENDBRANCH   3   4
ENDBRANCH   1   3
BRANCH   2  13
ATOM     13  C   UNL     1       6.807   4.127 -32.987  1.00  0.00     0.027 C 
BRANCH  13  14
ATOM     14  C   UNL     1       5.600   3.231 -32.670  1.00  0.00     0.004 C 
BRANCH  14  15
ATOM     15  C   UNL     1       4.311   3.739 -33.337  1.00  0.00     0.000 C 
BRANCH  15  16
ATOM     16  C   UNL     1       3.082   3.601 -32.425  1.00  0.00     0.000 C 
BRANCH  16  17
ATOM     17  C   UNL     1       3.457   3.537 -30.934  1.00  0.00    -0.000 C 
BRANCH  17  18
ATOM     18  C   UNL     1       2.472   4.308 -30.037  1.00  0.00    -0.000 C 
BRANCH  18  19
ATOM     19  C   UNL     1       3.077   5.520 -29.307  1.00  0.00    -0.003 C 
ATOM     20  C   UNL     1       4.154   6.234 -30.124  1.00  0.00     0.004 C 
ENDBRANCH  18  19
ENDBRANCH  17  18
ENDBRANCH  16  17
ENDBRANCH  15  16
ENDBRANCH  14  15
ENDBRANCH  13  14
ENDBRANCH   2  13
TORSDOF 15
ENDMDL
MODEL 6
REMARK VINA RESULT:    -4.756      1.061      1.833
REMARK INTER + INTRA:         -10.262
REMARK INTER:                  -8.814
REMARK INTRA:                  -1.448
REMARK UNBOUND:                -1.335
REMARK SMILES CCCCCCCCC=CCCCCCCCC(=O)[O-]
REMARK SMILES IDX 10 1 9 2 11 3 12 4 13 5 14 6 15 7 16 8 17 9 18 10 19 11
REMARK SMILES IDX 20 12 8 13 7 14 6 15 5 16 4 17 3 18 2 19 1 20
REMARK H PARENT
REMARK Flexibility Score: inf
ROOT
ATOM      1  C   UNL     1       7.722   5.236 -32.151  1.00  0.00    -0.031 C 
ATOM      2  C   UNL     1       7.030   4.300 -32.828  1.00  0.00    -0.031 C 
ENDROOT
BRANCH   1   3
ATOM      3  C   UNL     1       7.548   6.723 -32.330  1.00  0.00     0.027 C 
BRANCH   3   4
ATOM      4  C   UNL     1       8.706   7.311 -33.143  1.00  0.00     0.004 C 
BRANCH   4   5
ATOM      5  C   UNL     1      10.051   6.731 -32.681  1.00  0.00     0.000 C 
BRANCH   5   6
ATOM      6  C   UNL     1      10.977   6.361 -33.853  1.00  0.00     0.000 C 
BRANCH   6   7
ATOM      7  C   UNL     1      12.083   5.340 -33.516  1.00  0.00     0.000 C 
BRANCH   7   8
ATOM      8  C   UNL     1      12.708   5.489 -32.114  1.00  0.00     0.006 C 
BRANCH   8   9
ATOM      9  C   UNL     1      13.775   4.436 -31.781  1.00  0.00     0.053 C 
BRANCH   9  10
ATOM     10  C   UNL     1      14.093   4.404 -30.318  1.00  0.00     0.041 C 
ATOM     11  O   UNL     1      15.218   3.998 -29.922  1.00  0.00    -0.550 OA
ATOM     12  O   UNL     1      13.135   4.789 -29.388  1.00  0.00    -0.550 OA
ENDBRANCH   9  10
ENDBRANCH   8   9
ENDBRANCH   7   8
ENDBRANCH   6   7
ENDBRANCH   5   6
ENDBRANCH   4   5
ENDBRANCH   3   4
ENDBRANCH   1   3
BRANCH   2  13
ATOM     13  C   UNL     1       5.911   4.593 -33.798  1.00  0.00     0.027 C 
BRANCH  13  14
ATOM     14  C   UNL     1       4.561   4.754 -33.083  1.00  0.00     0.004 C 
BRANCH  14  15
ATOM     15  C   UNL     1       4.237   3.553 -32.179  1.00  0.00     0.000 C 
BRANCH  15  16
ATOM     16  C   UNL     1       4.385   3.883 -30.686  1.00  0.00     0.000 C 
BRANCH  16  17
ATOM     17  C   UNL     1       4.297   5.393 -30.403  1.00  0.00    -0.000 C 
BRANCH  17  18
ATOM     18  C   UNL     1       3.123   5.760 -29.477  1.00  0.00    -0.000 C 
BRANCH  18  19
ATOM     19  C   UNL     1       1.882   4.861 -29.623  1.00  0.00    -0.003 C 
ATOM     20  C   UNL     1       0.843   5.429 -30.590  1.00  0.00     0.004 C 
ENDBRANCH  18  19
ENDBRANCH  17  18
ENDBRANCH  16  17
ENDBRANCH  15  16
ENDBRANCH  14  15
ENDBRANCH  13  14
ENDBRANCH   2  13
TORSDOF 15
ENDMDL
MODEL 7
REMARK VINA RESULT:    -4.753      1.487      2.940
REMARK INTER + INTRA:         -10.256
REMARK INTER:                  -9.155
REMARK INTRA:                  -1.101
REMARK UNBOUND:                -1.335
REMARK SMILES CCCCCCCCC=CCCCCCCCC(=O)[O-]
REMARK SMILES IDX 10 1 9 2 11 3 12 4 13 5 14 6 15 7 16 8 17 9 18 10 19 11
REMARK SMILES IDX 20 12 8 13 7 14 6 15 5 16 4 17 3 18 2 19 1 20
REMARK H PARENT
REMARK Flexibility Score: inf
ROOT
ATOM      1  C   UNL     1      10.661   6.553 -32.156  1.00  0.00    -0.031 C 
ATOM      2  C   UNL     1       9.322   6.540 -32.296  1.00  0.00    -0.031 C 
ENDROOT
BRANCH   1   3
ATOM      3  C   UNL     1      11.624   5.869 -33.093  1.00  0.00     0.027 C 
BRANCH   3   4
ATOM      4  C   UNL     1      12.598   4.978 -32.314  1.00  0.00     0.004 C 
BRANCH   4   5
ATOM      5  C   UNL     1      13.045   5.660 -31.013  1.00  0.00     0.000 C 
BRANCH   5   6
ATOM      6  C   UNL     1      13.377   4.657 -29.894  1.00  0.00     0.000 C 
BRANCH   6   7
ATOM      7  C   UNL     1      14.006   3.331 -30.370  1.00  0.00     0.000 C 
BRANCH   7   8
ATOM      8  C   UNL     1      15.511   3.177 -30.073  1.00  0.00     0.006 C 
BRANCH   8   9
ATOM      9  C   UNL     1      16.388   4.304 -30.641  1.00  0.00     0.053 C 
BRANCH   9  10
ATOM     10  C   UNL     1      16.586   4.168 -32.119  1.00  0.00     0.041 C 
ATOM     11  O   UNL     1      16.868   5.180 -32.816  1.00  0.00    -0.550 OA
ATOM     12  O   UNL     1      16.426   2.933 -32.733  1.00  0.00    -0.550 OA
ENDBRANCH   9  10
ENDBRANCH   8   9
ENDBRANCH   7   8
ENDBRANCH   6   7
ENDBRANCH   5   6
ENDBRANCH   4   5
ENDBRANCH   3   4
ENDBRANCH   1   3
BRANCH   2  13
ATOM     13  C   UNL     1       8.586   5.921 -33.459  1.00  0.00     0.027 C 
BRANCH  13  14
ATOM     14  C   UNL     1       7.890   4.610 -33.066  1.00  0.00     0.004 C 
BRANCH  14  15
ATOM     15  C   UNL     1       6.883   4.810 -31.920  1.00  0.00     0.000 C 
BRANCH  15  16
ATOM     16  C   UNL     1       6.017   3.565 -31.673  1.00  0.00     0.000 C 
BRANCH  16  17
ATOM     17  C   UNL     1       4.716   3.891 -30.918  1.00  0.00    -0.000 C 
BRANCH  17  18
ATOM     18  C   UNL     1       4.516   5.402 -30.698  1.00  0.00    -0.000 C 
BRANCH  18  19
ATOM     19  C   UNL     1       3.571   5.765 -29.539  1.00  0.00    -0.003 C 
ATOM     20  C   UNL     1       2.233   5.029 -29.606  1.00  0.00     0.004 C 
ENDBRANCH  18  19
ENDBRANCH  17  18
ENDBRANCH  16  17
ENDBRANCH  15  16
ENDBRANCH  14  15
ENDBRANCH  13  14
ENDBRANCH   2  13
TORSDOF 15
ENDMDL
MODEL 8
REMARK VINA RESULT:    -4.704      1.151      2.085
REMARK INTER + INTRA:         -10.165
REMARK INTER:                  -8.985
REMARK INTRA:                  -1.180
REMARK UNBOUND:                -1.335
REMARK SMILES CCCCCCCCC=CCCCCCCCC(=O)[O-]
REMARK SMILES IDX 10 1 9 2 11 3 12 4 13 5 14 6 15 7 16 8 17 9 18 10 19 11
REMARK SMILES IDX 20 12 8 13 7 14 6 15 5 16 4 17 3 18 2 19 1 20
REMARK H PARENT
REMARK Flexibility Score: inf
ROOT
ATOM      1  C   UNL     1       9.779   6.624 -32.295  1.00  0.00    -0.031 C 
ATOM      2  C   UNL     1       8.452   6.648 -32.070  1.00  0.00    -0.031 C 
ENDROOT
BRANCH   1   3
ATOM      3  C   UNL     1      10.414   6.392 -33.642  1.00  0.00     0.027 C 
BRANCH   3   4
ATOM      4  C   UNL     1      10.974   4.969 -33.741  1.00  0.00     0.004 C 
BRANCH   4   5
ATOM      5  C   UNL     1      12.509   4.984 -33.780  1.00  0.00     0.000 C 
BRANCH   5   6
ATOM      6  C   UNL     1      13.145   4.390 -32.511  1.00  0.00     0.000 C 
BRANCH   6   7
ATOM      7  C   UNL     1      13.127   5.314 -31.276  1.00  0.00     0.000 C 
BRANCH   7   8
ATOM      8  C   UNL     1      13.711   4.699 -29.988  1.00  0.00     0.006 C 
BRANCH   8   9
ATOM      9  C   UNL     1      14.619   3.482 -30.223  1.00  0.00     0.053 C 
BRANCH   9  10
ATOM     10  C   UNL     1      16.069   3.832 -30.091  1.00  0.00     0.041 C 
ATOM     11  O   UNL     1      16.556   4.782 -30.761  1.00  0.00    -0.550 OA
ATOM     12  O   UNL     1      16.892   3.088 -29.254  1.00  0.00    -0.550 OA
ENDBRANCH   9  10
ENDBRANCH   8   9
ENDBRANCH   7   8
ENDBRANCH   6   7
ENDBRANCH   5   6
ENDBRANCH   4   5
ENDBRANCH   3   4
ENDBRANCH   1   3
BRANCH   2  13
ATOM     13  C   UNL     1       7.398   6.543 -33.144  1.00  0.00     0.027 C 
BRANCH  13  14
ATOM     14  C   UNL     1       6.728   5.161 -33.157  1.00  0.00     0.004 C 
BRANCH  14  15
ATOM     15  C   UNL     1       6.350   4.688 -31.743  1.00  0.00     0.000 C 
BRANCH  15  16
ATOM     16  C   UNL     1       5.649   3.321 -31.746  1.00  0.00     0.000 C 
BRANCH  16  17
ATOM     17  C   UNL     1       4.170   3.415 -31.334  1.00  0.00    -0.000 C 
BRANCH  17  18
ATOM     18  C   UNL     1       3.723   4.858 -31.037  1.00  0.00    -0.000 C 
BRANCH  18  19
ATOM     19  C   UNL     1       3.031   5.052 -29.676  1.00  0.00    -0.003 C 
ATOM     20  C   UNL     1       1.566   5.467 -29.804  1.00  0.00     0.004 C 
ENDBRANCH  18  19
ENDBRANCH  17  18
ENDBRANCH  16  17
ENDBRANCH  15  16
ENDBRANCH  14  15
ENDBRANCH  13  14
ENDBRANCH   2  13
TORSDOF 15
ENDMDL
MODEL 9
REMARK VINA RESULT:    -4.564      1.951      3.950
REMARK INTER + INTRA:          -9.902
REMARK INTER:                  -7.571
REMARK INTRA:                  -2.331
REMARK UNBOUND:                -1.335
REMARK SMILES CCCCCCCCC=CCCCCCCCC(=O)[O-]
REMARK SMILES IDX 10 1 9 2 11 3 12 4 13 5 14 6 15 7 16 8 17 9 18 10 19 11
REMARK SMILES IDX 20 12 8 13 7 14 6 15 5 16 4 17 3 18 2 19 1 20
REMARK H PARENT
REMARK Flexibility Score: inf
ROOT
ATOM      1  C   UNL     1       4.874   6.423 -29.880  1.00  0.00    -0.031 C 
ATOM      2  C   UNL     1       3.773   5.760 -29.481  1.00  0.00    -0.031 C 
ENDROOT
BRANCH   1   3
ATOM      3  C   UNL     1       5.332   6.536 -31.312  1.00  0.00     0.027 C 
BRANCH   3   4
ATOM      4  C   UNL     1       6.861   6.620 -31.388  1.00  0.00     0.004 C 
BRANCH   4   5
ATOM      5  C   UNL     1       7.310   7.296 -32.691  1.00  0.00     0.000 C 
BRANCH   5   6
ATOM      6  C   UNL     1       8.186   6.383 -33.568  1.00  0.00     0.000 C 
BRANCH   6   7
ATOM      7  C   UNL     1       9.265   5.585 -32.808  1.00  0.00     0.000 C 
BRANCH   7   8
ATOM      8  C   UNL     1      10.600   6.326 -32.595  1.00  0.00     0.006 C 
BRANCH   8   9
ATOM      9  C   UNL     1      11.467   6.444 -33.858  1.00  0.00     0.053 C 
BRANCH   9  10
ATOM     10  C   UNL     1      12.619   5.487 -33.838  1.00  0.00     0.041 C 
ATOM     11  O   UNL     1      13.422   5.442 -34.808  1.00  0.00    -0.550 OA
ATOM     12  O   UNL     1      12.786   4.620 -32.765  1.00  0.00    -0.550 OA
ENDBRANCH   9  10
ENDBRANCH   8   9
ENDBRANCH   7   8
ENDBRANCH   6   7
ENDBRANCH   5   6
ENDBRANCH   4   5
ENDBRANCH   3   4
ENDBRANCH   1   3
BRANCH   2  13
ATOM     13  C   UNL     1       2.778   5.109 -30.411  1.00  0.00     0.027 C 
BRANCH  13  14
ATOM     14  C   UNL     1       3.002   3.594 -30.521  1.00  0.00     0.004 C 
BRANCH  14  15
ATOM     15  C   UNL     1       3.715   3.207 -31.828  1.00  0.00     0.000 C 
BRANCH  15  16
ATOM     16  C   UNL     1       5.245   3.189 -31.681  1.00  0.00     0.000 C 
BRANCH  16  17
ATOM     17  C   UNL     1       5.969   3.321 -33.033  1.00  0.00    -0.000 C 
BRANCH  17  18
ATOM     18  C   UNL     1       5.007   3.610 -34.200  1.00  0.00    -0.000 C 
BRANCH  18  19
ATOM     19  C   UNL     1       5.056   5.054 -34.732  1.00  0.00    -0.003 C 
ATOM     20  C   UNL     1       3.748   5.814 -34.518  1.00  0.00     0.004 C 
ENDBRANCH  18  19
ENDBRANCH  17  18
ENDBRANCH  16  17
ENDBRANCH  15  16
ENDBRANCH  14  15
ENDBRANCH  13  14
ENDBRANCH   2  13
TORSDOF 15
ENDMDL
