MODEL 1
REMARK VINA RESULT:    -7.046      0.000      0.000
REMARK INTER + INTRA:          -7.664
REMARK INTER:                  -7.664
REMARK INTRA:                   0.000
REMARK UNBOUND:                 0.000
REMARK SMILES Cc1cc(O)c2c(c1)C(=O)c1cc(O)cc(O)c1C2=O
REMARK SMILES IDX 1 1 2 2 8 3 7 4 6 5 4 6 3 7 19 8 20 9 18 10 11 11 9 12 10 13
REMARK SMILES IDX 12 14 13 15 15 16 16 17 5 18 17 20 14 22
REMARK H PARENT 5 19 17 21 14 23
REMARK Flexibility Score: inf
ROOT
ATOM      1  C   UNL     1       0.268  -5.613   8.712  1.00  0.00     0.044 C 
ATOM      2  C   UNL     1       1.473  -6.452   8.402  1.00  0.00    -0.047 A 
ATOM      3  C   UNL     1       1.677  -6.941   7.107  1.00  0.00     0.016 A 
ATOM      4  C   UNL     1       2.817  -7.704   6.801  1.00  0.00     0.038 A 
ATOM      5  C   UNL     1       3.768  -7.982   7.808  1.00  0.00     0.076 A 
ATOM      6  C   UNL     1       3.597  -7.414   9.096  1.00  0.00     0.127 A 
ATOM      7  C   UNL     1       2.445  -6.676   9.382  1.00  0.00     0.050 A 
ATOM      8  C   UNL     1       4.879  -8.914   7.485  1.00  0.00     0.201 C 
ATOM      9  O   UNL     1       5.383  -9.627   8.393  1.00  0.00    -0.288 OA
ATOM     10  C   UNL     1       5.267  -9.138   6.068  1.00  0.00     0.076 A 
ATOM     11  C   UNL     1       4.314  -8.855   5.063  1.00  0.00     0.041 A 
ATOM     12  C   UNL     1       3.029  -8.211   5.424  1.00  0.00     0.194 C 
ATOM     13  O   UNL     1       2.126  -8.071   4.554  1.00  0.00    -0.289 OA
ATOM     14  C   UNL     1       4.591  -9.182   3.724  1.00  0.00     0.059 A 
ATOM     15  C   UNL     1       5.809  -9.772   3.377  1.00  0.00     0.120 A 
ATOM     16  C   UNL     1       6.768 -10.015   4.360  1.00  0.00     0.093 A 
ATOM     17  C   UNL     1       6.524  -9.681   5.696  1.00  0.00     0.131 A 
ENDROOT
BRANCH   6  18
ATOM     18  O   UNL     1       4.558  -7.527  10.104  1.00  0.00    -0.507 OA
ATOM     19  H   UNL     1       5.553  -7.482   9.934  1.00  0.00     0.293 HD
ENDBRANCH   6  18
BRANCH  17  20
ATOM     20  O   UNL     1       7.566  -9.869   6.608  1.00  0.00    -0.507 OA
ATOM     21  H   UNL     1       8.255  -9.164   6.822  1.00  0.00     0.293 HD
ENDBRANCH  17  20
BRANCH  15  22
ATOM     22  O   UNL     1       6.083 -10.109   2.054  1.00  0.00    -0.508 OA
ATOM     23  H   UNL     1       6.459 -11.017   1.804  1.00  0.00     0.293 HD
ENDBRANCH  15  22
TORSDOF 3
ENDMDL
MODEL 2
REMARK VINA RESULT:    -5.850      2.003      5.924
REMARK INTER + INTRA:          -6.363
REMARK INTER:                  -6.363
REMARK INTRA:                   0.000
REMARK UNBOUND:                 0.000
REMARK SMILES Cc1cc(O)c2c(c1)C(=O)c1cc(O)cc(O)c1C2=O
REMARK SMILES IDX 1 1 2 2 8 3 7 4 6 5 4 6 3 7 19 8 20 9 18 10 11 11 9 12 10 13
REMARK SMILES IDX 12 14 13 15 15 16 16 17 5 18 17 20 14 22
REMARK H PARENT 5 19 17 21 14 23
REMARK Flexibility Score: inf
ROOT
ATOM      1  C   UNL     1       9.571 -10.125   8.777  1.00  0.00     0.044 C 
ATOM      2  C   UNL     1       8.274  -9.864   8.071  1.00  0.00    -0.047 A 
ATOM      3  C   UNL     1       7.196  -9.300   8.763  1.00  0.00     0.016 A 
ATOM      4  C   UNL     1       5.986  -9.026   8.104  1.00  0.00     0.038 A 
ATOM      5  C   UNL     1       5.852  -9.319   6.729  1.00  0.00     0.076 A 
ATOM      6  C   UNL     1       6.975  -9.812   6.015  1.00  0.00     0.127 A 
ATOM      7  C   UNL     1       8.161 -10.096   6.696  1.00  0.00     0.050 A 
ATOM      8  C   UNL     1       4.515  -9.155   6.103  1.00  0.00     0.201 C 
ATOM      9  O   UNL     1       4.182  -9.888   5.134  1.00  0.00    -0.288 OA
ATOM     10  C   UNL     1       3.509  -8.262   6.733  1.00  0.00     0.076 A 
ATOM     11  C   UNL     1       3.648  -7.967   8.109  1.00  0.00     0.041 A 
ATOM     12  C   UNL     1       4.852  -8.422   8.844  1.00  0.00     0.194 C 
ATOM     13  O   UNL     1       4.923  -8.272  10.095  1.00  0.00    -0.289 OA
ATOM     14  C   UNL     1       2.645  -7.240   8.773  1.00  0.00     0.059 A 
ATOM     15  C   UNL     1       1.517  -6.793   8.080  1.00  0.00     0.120 A 
ATOM     16  C   UNL     1       1.397  -7.046   6.715  1.00  0.00     0.093 A 
ATOM     17  C   UNL     1       2.390  -7.750   6.026  1.00  0.00     0.131 A 
ENDROOT
BRANCH   6  18
ATOM     18  O   UNL     1       6.966  -9.997   4.629  1.00  0.00    -0.507 OA
ATOM     19  H   UNL     1       7.143 -10.886   4.184  1.00  0.00     0.293 HD
ENDBRANCH   6  18
BRANCH  17  20
ATOM     20  O   UNL     1       2.244  -7.885   4.643  1.00  0.00    -0.507 OA
ATOM     21  H   UNL     1       1.374  -7.727   4.155  1.00  0.00     0.293 HD
ENDBRANCH  17  20
BRANCH  15  22
ATOM     22  O   UNL     1       0.515  -6.083   8.737  1.00  0.00    -0.508 OA
ATOM     23  H   UNL     1       0.721  -5.488   9.532  1.00  0.00     0.293 HD
ENDBRANCH  15  22
TORSDOF 3
ENDMDL
MODEL 3
REMARK VINA RESULT:    -4.839      1.543      3.642
REMARK INTER + INTRA:          -5.263
REMARK INTER:                  -5.263
REMARK INTRA:                   0.000
REMARK UNBOUND:                 0.000
REMARK SMILES Cc1cc(O)c2c(c1)C(=O)c1cc(O)cc(O)c1C2=O
REMARK SMILES IDX 1 1 2 2 8 3 7 4 6 5 4 6 3 7 19 8 20 9 18 10 11 11 9 12 10 13
REMARK SMILES IDX 12 14 13 15 15 16 16 17 5 18 17 20 14 22
REMARK H PARENT 5 19 17 21 14 23
REMARK Flexibility Score: inf
ROOT
ATOM      1  C   UNL     1       0.002  -6.493   9.570  1.00  0.00     0.044 C 
ATOM      2  C   UNL     1       1.097  -7.001   8.680  1.00  0.00    -0.047 A 
ATOM      3  C   UNL     1       2.376  -7.231   9.197  1.00  0.00     0.016 A 
ATOM      4  C   UNL     1       3.401  -7.734   8.377  1.00  0.00     0.038 A 
ATOM      5  C   UNL     1       3.140  -8.013   7.017  1.00  0.00     0.076 A 
ATOM      6  C   UNL     1       1.821  -7.857   6.521  1.00  0.00     0.127 A 
ATOM      7  C   UNL     1       0.823  -7.336   7.349  1.00  0.00     0.050 A 
ATOM      8  C   UNL     1       4.282  -8.400   6.149  1.00  0.00     0.201 C 
ATOM      9  O   UNL     1       4.263  -8.111   4.923  1.00  0.00    -0.288 OA
ATOM     10  C   UNL     1       5.517  -8.957   6.758  1.00  0.00     0.076 A 
ATOM     11  C   UNL     1       5.773  -8.679   8.120  1.00  0.00     0.041 A 
ATOM     12  C   UNL     1       4.752  -7.980   8.936  1.00  0.00     0.194 C 
ATOM     13  O   UNL     1       5.023  -7.619  10.114  1.00  0.00    -0.289 OA
ATOM     14  C   UNL     1       6.994  -9.071   8.696  1.00  0.00     0.059 A 
ATOM     15  C   UNL     1       7.952  -9.746   7.936  1.00  0.00     0.120 A 
ATOM     16  C   UNL     1       7.686 -10.058   6.604  1.00  0.00     0.093 A 
ATOM     17  C   UNL     1       6.471  -9.698   6.012  1.00  0.00     0.131 A 
ENDROOT
BRANCH   6  18
ATOM     18  O   UNL     1       1.450  -8.241   5.229  1.00  0.00    -0.507 OA
ATOM     19  H   UNL     1       0.575  -7.978   4.798  1.00  0.00     0.293 HD
ENDBRANCH   6  18
BRANCH  17  20
ATOM     20  O   UNL     1       6.239 -10.125   4.702  1.00  0.00    -0.507 OA
ATOM     21  H   UNL     1       6.976 -10.305   4.036  1.00  0.00     0.293 HD
ENDBRANCH  17  20
BRANCH  15  22
ATOM     22  O   UNL     1       9.168 -10.125   8.500  1.00  0.00    -0.508 OA
ATOM     23  H   UNL     1      10.034  -9.660   8.253  1.00  0.00     0.293 HD
ENDBRANCH  15  22
TORSDOF 3
ENDMDL
MODEL 4
REMARK VINA RESULT:    -4.421      1.376      5.480
REMARK INTER + INTRA:          -4.808
REMARK INTER:                  -4.808
REMARK INTRA:                   0.000
REMARK UNBOUND:                 0.000
REMARK SMILES Cc1cc(O)c2c(c1)C(=O)c1cc(O)cc(O)c1C2=O
REMARK SMILES IDX 1 1 2 2 8 3 7 4 6 5 4 6 3 7 19 8 20 9 18 10 11 11 9 12 10 13
REMARK SMILES IDX 12 14 13 15 15 16 16 17 5 18 17 20 14 22
REMARK H PARENT 5 19 17 21 14 23
REMARK Flexibility Score: inf
ROOT
ATOM      1  C   UNL     1       6.295 -10.125   1.782  1.00  0.00     0.044 C 
ATOM      2  C   UNL     1       6.015  -9.763   3.210  1.00  0.00    -0.047 A 
ATOM      3  C   UNL     1       4.770  -9.236   3.572  1.00  0.00     0.016 A 
ATOM      4  C   UNL     1       4.488  -8.921   4.912  1.00  0.00     0.038 A 
ATOM      5  C   UNL     1       5.467  -9.138   5.907  1.00  0.00     0.076 A 
ATOM      6  C   UNL     1       6.694  -9.751   5.546  1.00  0.00     0.127 A 
ATOM      7  C   UNL     1       6.960 -10.036   4.204  1.00  0.00     0.050 A 
ATOM      8  C   UNL     1       5.187  -8.656   7.284  1.00  0.00     0.201 C 
ATOM      9  O   UNL     1       6.138  -8.295   8.026  1.00  0.00    -0.288 OA
ATOM     10  C   UNL     1       3.784  -8.424   7.715  1.00  0.00     0.076 A 
ATOM     11  C   UNL     1       2.807  -8.210   6.717  1.00  0.00     0.041 A 
ATOM     12  C   UNL     1       3.163  -8.369   5.287  1.00  0.00     0.194 C 
ATOM     13  O   UNL     1       2.332  -8.058   4.390  1.00  0.00    -0.289 OA
ATOM     14  C   UNL     1       1.498  -7.853   7.085  1.00  0.00     0.059 A 
ATOM     15  C   UNL     1       1.152  -7.722   8.432  1.00  0.00     0.120 A 
ATOM     16  C   UNL     1       2.103  -7.971   9.420  1.00  0.00     0.093 A 
ATOM     17  C   UNL     1       3.406  -8.348   9.081  1.00  0.00     0.131 A 
ENDROOT
BRANCH   6  18
ATOM     18  O   UNL     1       7.656 -10.125   6.488  1.00  0.00    -0.507 OA
ATOM     19  H   UNL     1       7.432 -10.418   7.429  1.00  0.00     0.293 HD
ENDBRANCH   6  18
BRANCH  17  20
ATOM     20  O   UNL     1       4.277  -8.671  10.125  1.00  0.00    -0.507 OA
ATOM     21  H   UNL     1       5.155  -9.151   9.991  1.00  0.00     0.293 HD
ENDBRANCH  17  20
BRANCH  15  22
ATOM     22  O   UNL     1      -0.140  -7.355   8.801  1.00  0.00    -0.508 OA
ATOM     23  H   UNL     1      -0.657  -7.871   9.504  1.00  0.00     0.293 HD
ENDBRANCH  15  22
TORSDOF 3
ENDMDL
