MODEL 1
REMARK VINA RESULT:    -6.225      0.000      0.000
REMARK INTER + INTRA:          -9.065
REMARK INTER:                  -8.408
REMARK INTRA:                  -0.657
REMARK UNBOUND:                -0.657
REMARK SMILES O=c1c(-c2ccc(O)cc2)coc2c([C@@H]3O[C@H](CO)[C@H](O)[C@@H](O)[C@@H]3O)c(O)ccc12
REMARK SMILES IDX 3 1 11 2 12 3 13 4 30 5 2 6 1 7 29 8 28 9 26 10 14 11 4 12
REMARK SMILES IDX 5 13 6 14 7 15 10 16 9 17 8 18 15 20 24 21 16 22 22 23 17 24
REMARK SMILES IDX 20 25 25 26 23 28 18 30 19 31 21 33 27 35
REMARK H PARENT 8 19 25 27 23 29 19 32 21 34 27 36
REMARK Flexibility Score: inf
ROOT
ATOM      1  C   UNL     1       3.588  -7.871  -8.053  1.00  0.00     0.065 A 
ATOM      2  C   UNL     1       4.172  -6.609  -7.875  1.00  0.00     0.208 A 
ATOM      3  O   UNL     1       5.488  -6.453  -7.941  1.00  0.00    -0.463 OA
ATOM      4  C   UNL     1       6.332  -7.454  -8.173  1.00  0.00     0.147 A 
ATOM      5  C   UNL     1       5.828  -8.762  -8.368  1.00  0.00     0.066 A 
ATOM      6  C   UNL     1       4.437  -8.966  -8.297  1.00  0.00     0.200 A 
ATOM      7  O   UNL     1       3.956 -10.125  -8.431  1.00  0.00    -0.288 OA
ATOM      8  C   UNL     1       6.716  -9.816  -8.630  1.00  0.00     0.020 A 
ATOM      9  C   UNL     1       8.085  -9.575  -8.716  1.00  0.00     0.047 A 
ATOM     10  C   UNL     1       8.596  -8.286  -8.530  1.00  0.00     0.125 A 
ATOM     11  C   UNL     1       7.728  -7.212  -8.231  1.00  0.00     0.069 A 
ENDROOT
BRANCH   1  12
ATOM     12  C   UNL     1       2.113  -8.020  -7.980  1.00  0.00    -0.011 A 
ATOM     13  C   UNL     1       1.307  -7.726  -9.095  1.00  0.00     0.013 A 
ATOM     14  C   UNL     1      -0.083  -7.859  -9.018  1.00  0.00     0.047 A 
ATOM     15  C   UNL     1      -0.685  -8.284  -7.825  1.00  0.00     0.115 A 
ATOM     16  C   UNL     1       1.500  -8.437  -6.785  1.00  0.00     0.013 A 
ATOM     17  C   UNL     1       0.110  -8.570  -6.711  1.00  0.00     0.047 A 
BRANCH  15  18
ATOM     18  O   UNL     1      -2.068  -8.420  -7.736  1.00  0.00    -0.508 OA
ATOM     19  H   UNL     1      -2.515  -9.329  -7.786  1.00  0.00     0.293 HD
ENDBRANCH  15  18
ENDBRANCH   1  12
BRANCH  11  20
ATOM     20  C   UNL     1       8.297  -5.809  -8.053  1.00  0.00     0.188 C 
ATOM     21  C   UNL     1       8.172  -4.995  -9.365  1.00  0.00     0.179 C 
ATOM     22  O   UNL     1       7.648  -5.146  -6.979  1.00  0.00    -0.362 OA
ATOM     23  C   UNL     1       8.732  -3.573  -9.155  1.00  0.00     0.177 C 
ATOM     24  C   UNL     1       8.285  -3.912  -6.689  1.00  0.00     0.176 C 
ATOM     25  C   UNL     1       8.140  -2.935  -7.882  1.00  0.00     0.177 C 
BRANCH  21  26
ATOM     26  O   UNL     1       6.828  -4.904  -9.767  1.00  0.00    -0.387 OA
ATOM     27  H   UNL     1       6.823  -4.567 -10.701  1.00  0.00     0.211 HD
ENDBRANCH  21  26
BRANCH  23  28
ATOM     28  O   UNL     1      10.133  -3.618  -9.042  1.00  0.00    -0.387 OA
ATOM     29  H   UNL     1      10.465  -2.695  -9.199  1.00  0.00     0.211 HD
ENDBRANCH  23  28
BRANCH  24  30
ATOM     30  C   UNL     1       7.668  -3.334  -5.406  1.00  0.00     0.191 C 
BRANCH  30  31
ATOM     31  O   UNL     1       6.343  -3.766  -5.245  1.00  0.00    -0.394 OA
ATOM     32  H   UNL     1       6.295  -4.685  -5.617  1.00  0.00     0.210 HD
ENDBRANCH  30  31
ENDBRANCH  24  30
BRANCH  25  33
ATOM     33  O   UNL     1       6.784  -2.624  -8.083  1.00  0.00    -0.388 OA
ATOM     34  H   UNL     1       6.757  -1.848  -8.701  1.00  0.00     0.211 HD
ENDBRANCH  25  33
ENDBRANCH  11  20
BRANCH  10  35
ATOM     35  O   UNL     1       9.969  -8.070  -8.647  1.00  0.00    -0.507 OA
ATOM     36  H   UNL     1      10.600  -8.802  -8.952  1.00  0.00     0.293 HD
ENDBRANCH  10  35
TORSDOF 9
ENDMDL
MODEL 2
REMARK VINA RESULT:    -5.761      1.642      2.771
REMARK INTER + INTRA:          -8.438
REMARK INTER:                  -7.414
REMARK INTRA:                  -1.025
REMARK UNBOUND:                -0.657
REMARK SMILES O=c1c(-c2ccc(O)cc2)coc2c([C@@H]3O[C@H](CO)[C@H](O)[C@@H](O)[C@@H]3O)c(O)ccc12
REMARK SMILES IDX 3 1 11 2 12 3 13 4 30 5 2 6 1 7 29 8 28 9 26 10 14 11 4 12
REMARK SMILES IDX 5 13 6 14 7 15 10 16 9 17 8 18 15 20 24 21 16 22 22 23 17 24
REMARK SMILES IDX 20 25 25 26 23 28 18 30 19 31 21 33 27 35
REMARK H PARENT 8 19 25 27 23 29 19 32 21 34 27 36
REMARK Flexibility Score: inf
ROOT
ATOM      1  C   UNL     1       2.030  -8.100  -7.606  1.00  0.00     0.065 A 
ATOM      2  C   UNL     1       2.532  -6.953  -6.978  1.00  0.00     0.208 A 
ATOM      3  O   UNL     1       3.727  -6.471  -7.293  1.00  0.00    -0.463 OA
ATOM      4  C   UNL     1       4.521  -7.027  -8.205  1.00  0.00     0.147 A 
ATOM      5  C   UNL     1       4.092  -8.187  -8.891  1.00  0.00     0.066 A 
ATOM      6  C   UNL     1       2.832  -8.731  -8.575  1.00  0.00     0.200 A 
ATOM      7  O   UNL     1       2.433  -9.785  -9.142  1.00  0.00    -0.288 OA
ATOM      8  C   UNL     1       4.920  -8.765  -9.865  1.00  0.00     0.020 A 
ATOM      9  C   UNL     1       6.152  -8.189 -10.169  1.00  0.00     0.047 A 
ATOM     10  C   UNL     1       6.585  -7.038  -9.502  1.00  0.00     0.125 A 
ATOM     11  C   UNL     1       5.786  -6.456  -8.492  1.00  0.00     0.069 A 
ENDROOT
BRANCH   1  12
ATOM     12  C   UNL     1       0.687  -8.618  -7.240  1.00  0.00    -0.011 A 
ATOM     13  C   UNL     1       0.548  -9.616  -6.259  1.00  0.00     0.013 A 
ATOM     14  C   UNL     1      -0.719 -10.107  -5.924  1.00  0.00     0.047 A 
ATOM     15  C   UNL     1      -1.859  -9.610  -6.568  1.00  0.00     0.115 A 
ATOM     16  C   UNL     1      -0.462  -8.131  -7.887  1.00  0.00     0.013 A 
ATOM     17  C   UNL     1      -1.727  -8.622  -7.550  1.00  0.00     0.047 A 
BRANCH  15  18
ATOM     18  O   UNL     1      -3.126 -10.091  -6.244  1.00  0.00    -0.508 OA
ATOM     19  H   UNL     1      -3.815  -9.503  -5.790  1.00  0.00     0.293 HD
ENDBRANCH  15  18
ENDBRANCH   1  12
BRANCH  11  20
ATOM     20  C   UNL     1       6.263  -5.190  -7.790  1.00  0.00     0.188 C 
ATOM     21  C   UNL     1       7.288  -5.531  -6.680  1.00  0.00     0.179 C 
ATOM     22  O   UNL     1       6.815  -4.282  -8.731  1.00  0.00    -0.362 OA
ATOM     23  C   UNL     1       7.774  -4.235  -5.999  1.00  0.00     0.177 C 
ATOM     24  C   UNL     1       7.100  -3.034  -8.119  1.00  0.00     0.176 C 
ATOM     25  C   UNL     1       8.209  -3.195  -7.051  1.00  0.00     0.177 C 
BRANCH  21  26
ATOM     26  O   UNL     1       8.396  -6.210  -7.217  1.00  0.00    -0.387 OA
ATOM     27  H   UNL     1       8.207  -6.364  -8.180  1.00  0.00     0.211 HD
ENDBRANCH  21  26
BRANCH  23  28
ATOM     28  O   UNL     1       6.747  -3.691  -5.207  1.00  0.00    -0.387 OA
ATOM     29  H   UNL     1       6.830  -4.100  -4.305  1.00  0.00     0.211 HD
ENDBRANCH  23  28
BRANCH  24  30
ATOM     30  C   UNL     1       7.509  -2.036  -9.214  1.00  0.00     0.191 C 
BRANCH  30  31
ATOM     31  O   UNL     1       8.249  -2.671 -10.223  1.00  0.00    -0.394 OA
ATOM     32  H   UNL     1       7.595  -2.990 -10.899  1.00  0.00     0.210 HD
ENDBRANCH  30  31
ENDBRANCH  24  30
BRANCH  25  33
ATOM     33  O   UNL     1       9.408  -3.600  -7.663  1.00  0.00    -0.388 OA
ATOM     34  H   UNL     1       9.556  -2.991  -8.433  1.00  0.00     0.211 HD
ENDBRANCH  25  33
ENDBRANCH  11  20
BRANCH  10  35
ATOM     35  O   UNL     1       7.812  -6.468  -9.845  1.00  0.00    -0.507 OA
ATOM     36  H   UNL     1       7.946  -5.464  -9.867  1.00  0.00     0.293 HD
ENDBRANCH  10  35
TORSDOF 9
ENDMDL
MODEL 3
REMARK VINA RESULT:    -5.263      1.569      2.053
REMARK INTER + INTRA:          -7.766
REMARK INTER:                  -7.767
REMARK INTRA:                   0.002
REMARK UNBOUND:                -0.657
REMARK SMILES O=c1c(-c2ccc(O)cc2)coc2c([C@@H]3O[C@H](CO)[C@H](O)[C@@H](O)[C@@H]3O)c(O)ccc12
REMARK SMILES IDX 3 1 11 2 12 3 13 4 30 5 2 6 1 7 29 8 28 9 26 10 14 11 4 12
REMARK SMILES IDX 5 13 6 14 7 15 10 16 9 17 8 18 15 20 24 21 16 22 22 23 17 24
REMARK SMILES IDX 20 25 25 26 23 28 18 30 19 31 21 33 27 35
REMARK H PARENT 8 19 25 27 23 29 19 32 21 34 27 36
REMARK Flexibility Score: inf
ROOT
ATOM      1  C   UNL     1       4.124  -7.575  -8.161  1.00  0.00     0.065 A 
ATOM      2  C   UNL     1       4.711  -6.303  -8.130  1.00  0.00     0.208 A 
ATOM      3  O   UNL     1       6.030  -6.162  -8.123  1.00  0.00    -0.463 OA
ATOM      4  C   UNL     1       6.875  -7.190  -8.141  1.00  0.00     0.147 A 
ATOM      5  C   UNL     1       6.368  -8.510  -8.175  1.00  0.00     0.066 A 
ATOM      6  C   UNL     1       4.972  -8.697  -8.176  1.00  0.00     0.200 A 
ATOM      7  O   UNL     1       4.485  -9.862  -8.170  1.00  0.00    -0.288 OA
ATOM      8  C   UNL     1       7.257  -9.595  -8.211  1.00  0.00     0.020 A 
ATOM      9  C   UNL     1       8.632  -9.374  -8.232  1.00  0.00     0.047 A 
ATOM     10  C   UNL     1       9.146  -8.073  -8.204  1.00  0.00     0.125 A 
ATOM     11  C   UNL     1       8.274  -6.964  -8.133  1.00  0.00     0.069 A 
ENDROOT
BRANCH   1  12
ATOM     12  C   UNL     1       2.645  -7.708  -8.174  1.00  0.00    -0.011 A 
ATOM     13  C   UNL     1       1.958  -7.946  -9.378  1.00  0.00     0.013 A 
ATOM     14  C   UNL     1       0.564  -8.060  -9.386  1.00  0.00     0.047 A 
ATOM     15  C   UNL     1      -0.160  -7.933  -8.193  1.00  0.00     0.115 A 
ATOM     16  C   UNL     1       1.910  -7.573  -6.983  1.00  0.00     0.013 A 
ATOM     17  C   UNL     1       0.517  -7.688  -6.993  1.00  0.00     0.047 A 
BRANCH  15  18
ATOM     18  O   UNL     1      -1.549  -8.044  -8.188  1.00  0.00    -0.508 OA
ATOM     19  H   UNL     1      -2.113  -7.601  -7.473  1.00  0.00     0.293 HD
ENDBRANCH  15  18
ENDBRANCH   1  12
BRANCH  11  20
ATOM     20  C   UNL     1       8.849  -5.552  -8.125  1.00  0.00     0.188 C 
ATOM     21  C   UNL     1       7.842  -4.552  -7.504  1.00  0.00     0.179 C 
ATOM     22  O   UNL     1      10.085  -5.527  -7.427  1.00  0.00    -0.362 OA
ATOM     23  C   UNL     1       8.453  -3.136  -7.485  1.00  0.00     0.177 C 
ATOM     24  C   UNL     1      10.715  -4.263  -7.563  1.00  0.00     0.176 C 
ATOM     25  C   UNL     1       9.870  -3.161  -6.878  1.00  0.00     0.177 C 
BRANCH  21  26
ATOM     26  O   UNL     1       7.513  -4.929  -6.190  1.00  0.00    -0.387 OA
ATOM     27  H   UNL     1       6.522  -4.919  -6.121  1.00  0.00     0.211 HD
ENDBRANCH  21  26
BRANCH  23  28
ATOM     28  O   UNL     1       8.517  -2.620  -8.791  1.00  0.00    -0.387 OA
ATOM     29  H   UNL     1       9.135  -1.843  -8.764  1.00  0.00     0.211 HD
ENDBRANCH  23  28
BRANCH  24  30
ATOM     30  C   UNL     1      12.125  -4.353  -6.959  1.00  0.00     0.191 C 
BRANCH  30  31
ATOM     31  O   UNL     1      12.125  -5.136  -5.795  1.00  0.00    -0.394 OA
ATOM     32  H   UNL     1      12.717  -5.913  -5.973  1.00  0.00     0.210 HD
ENDBRANCH  30  31
ENDBRANCH  24  30
BRANCH  25  33
ATOM     33  O   UNL     1       9.799  -3.404  -5.495  1.00  0.00    -0.388 OA
ATOM     34  H   UNL     1       9.121  -2.778  -5.129  1.00  0.00     0.211 HD
ENDBRANCH  25  33
ENDBRANCH  11  20
BRANCH  10  35
ATOM     35  O   UNL     1      10.527  -7.882  -8.252  1.00  0.00    -0.507 OA
ATOM     36  H   UNL     1      11.127  -8.464  -8.825  1.00  0.00     0.293 HD
ENDBRANCH  10  35
TORSDOF 9
ENDMDL
MODEL 4
REMARK VINA RESULT:    -4.746      1.441      1.504
REMARK INTER + INTRA:          -7.067
REMARK INTER:                  -7.521
REMARK INTRA:                   0.454
REMARK UNBOUND:                -0.657
REMARK SMILES O=c1c(-c2ccc(O)cc2)coc2c([C@@H]3O[C@H](CO)[C@H](O)[C@@H](O)[C@@H]3O)c(O)ccc12
REMARK SMILES IDX 3 1 11 2 12 3 13 4 30 5 2 6 1 7 29 8 28 9 26 10 14 11 4 12
REMARK SMILES IDX 5 13 6 14 7 15 10 16 9 17 8 18 15 20 24 21 16 22 22 23 17 24
REMARK SMILES IDX 20 25 25 26 23 28 18 30 19 31 21 33 27 35
REMARK H PARENT 8 19 25 27 23 29 19 32 21 34 27 36
REMARK Flexibility Score: inf
ROOT
ATOM      1  C   UNL     1       2.676  -8.280  -8.551  1.00  0.00     0.065 A 
ATOM      2  C   UNL     1       3.318  -7.336  -7.738  1.00  0.00     0.208 A 
ATOM      3  O   UNL     1       4.606  -7.064  -7.899  1.00  0.00    -0.463 OA
ATOM      4  C   UNL     1       5.369  -7.651  -8.818  1.00  0.00     0.147 A 
ATOM      5  C   UNL     1       4.801  -8.616  -9.683  1.00  0.00     0.066 A 
ATOM      6  C   UNL     1       3.438  -8.936  -9.536  1.00  0.00     0.200 A 
ATOM      7  O   UNL     1       2.907  -9.817 -10.267  1.00  0.00    -0.288 OA
ATOM      8  C   UNL     1       5.599  -9.224 -10.664  1.00  0.00     0.020 A 
ATOM      9  C   UNL     1       6.939  -8.868 -10.797  1.00  0.00     0.047 A 
ATOM     10  C   UNL     1       7.511  -7.912  -9.951  1.00  0.00     0.125 A 
ATOM     11  C   UNL     1       6.739  -7.309  -8.932  1.00  0.00     0.069 A 
ENDROOT
BRANCH   1  12
ATOM     12  C   UNL     1       1.231  -8.565  -8.356  1.00  0.00    -0.011 A 
ATOM     13  C   UNL     1       0.289  -8.191  -9.332  1.00  0.00     0.013 A 
ATOM     14  C   UNL     1      -1.071  -8.452  -9.138  1.00  0.00     0.047 A 
ATOM     15  C   UNL     1      -1.506  -9.086  -7.967  1.00  0.00     0.115 A 
ATOM     16  C   UNL     1       0.784  -9.193  -7.180  1.00  0.00     0.013 A 
ATOM     17  C   UNL     1      -0.576  -9.454  -6.990  1.00  0.00     0.047 A 
BRANCH  15  18
ATOM     18  O   UNL     1      -2.859  -9.352  -7.763  1.00  0.00    -0.508 OA
ATOM     19  H   UNL     1      -3.386  -9.934  -8.403  1.00  0.00     0.293 HD
ENDBRANCH  15  18
ENDBRANCH   1  12
BRANCH  11  20
ATOM     20  C   UNL     1       7.371  -6.254  -8.033  1.00  0.00     0.188 C 
ATOM     21  C   UNL     1       8.280  -5.305  -8.853  1.00  0.00     0.179 C 
ATOM     22  O   UNL     1       6.365  -5.525  -7.345  1.00  0.00    -0.362 OA
ATOM     23  C   UNL     1       8.889  -4.232  -7.928  1.00  0.00     0.177 C 
ATOM     24  C   UNL     1       6.940  -4.663  -6.376  1.00  0.00     0.176 C 
ATOM     25  C   UNL     1       7.797  -3.572  -7.063  1.00  0.00     0.177 C 
BRANCH  21  26
ATOM     26  O   UNL     1       7.546  -4.670  -9.871  1.00  0.00    -0.387 OA
ATOM     27  H   UNL     1       8.090  -3.905 -10.192  1.00  0.00     0.211 HD
ENDBRANCH  21  26
BRANCH  23  28
ATOM     28  O   UNL     1       9.857  -4.812  -7.088  1.00  0.00    -0.387 OA
ATOM     29  H   UNL     1      10.277  -5.552  -7.600  1.00  0.00     0.211 HD
ENDBRANCH  23  28
BRANCH  24  30
ATOM     30  C   UNL     1       5.809  -4.050  -5.536  1.00  0.00     0.191 C 
BRANCH  30  31
ATOM     31  O   UNL     1       4.598  -4.725  -5.752  1.00  0.00    -0.394 OA
ATOM     32  H   UNL     1       4.532  -5.424  -5.050  1.00  0.00     0.210 HD
ENDBRANCH  30  31
ENDBRANCH  24  30
BRANCH  25  33
ATOM     33  O   UNL     1       6.978  -2.754  -7.861  1.00  0.00    -0.388 OA
ATOM     34  H   UNL     1       7.273  -1.818  -7.708  1.00  0.00     0.211 HD
ENDBRANCH  25  33
ENDBRANCH  11  20
BRANCH  10  35
ATOM     35  O   UNL     1       8.849  -7.557 -10.124  1.00  0.00    -0.507 OA
ATOM     36  H   UNL     1       9.451  -8.047 -10.776  1.00  0.00     0.293 HD
ENDBRANCH  10  35
TORSDOF 9
ENDMDL
MODEL 5
REMARK VINA RESULT:    -4.636      2.178      7.824
REMARK INTER + INTRA:          -6.919
REMARK INTER:                  -6.236
REMARK INTRA:                  -0.683
REMARK UNBOUND:                -0.657
REMARK SMILES O=c1c(-c2ccc(O)cc2)coc2c([C@@H]3O[C@H](CO)[C@H](O)[C@@H](O)[C@@H]3O)c(O)ccc12
REMARK SMILES IDX 3 1 11 2 12 3 13 4 30 5 2 6 1 7 29 8 28 9 26 10 14 11 4 12
REMARK SMILES IDX 5 13 6 14 7 15 10 16 9 17 8 18 15 20 24 21 16 22 22 23 17 24
REMARK SMILES IDX 20 25 25 26 23 28 18 30 19 31 21 33 27 35
REMARK H PARENT 8 19 25 27 23 29 19 32 21 34 27 36
REMARK Flexibility Score: inf
ROOT
ATOM      1  C   UNL     1       7.124  -6.468  -8.574  1.00  0.00     0.065 A 
ATOM      2  C   UNL     1       6.076  -6.181  -7.689  1.00  0.00     0.208 A 
ATOM      3  O   UNL     1       4.916  -6.819  -7.778  1.00  0.00    -0.463 OA
ATOM      4  C   UNL     1       4.664  -7.754  -8.691  1.00  0.00     0.147 A 
ATOM      5  C   UNL     1       5.668  -8.107  -9.624  1.00  0.00     0.066 A 
ATOM      6  C   UNL     1       6.908  -7.445  -9.564  1.00  0.00     0.200 A 
ATOM      7  O   UNL     1       7.814  -7.710 -10.402  1.00  0.00    -0.288 OA
ATOM      8  C   UNL     1       5.410  -9.104 -10.576  1.00  0.00     0.020 A 
ATOM      9  C   UNL     1       4.179  -9.756 -10.594  1.00  0.00     0.047 A 
ATOM     10  C   UNL     1       3.180  -9.419  -9.674  1.00  0.00     0.125 A 
ATOM     11  C   UNL     1       3.400  -8.395  -8.726  1.00  0.00     0.069 A 
ENDROOT
BRANCH   1  12
ATOM     12  C   UNL     1       8.415  -5.744  -8.452  1.00  0.00    -0.011 A 
ATOM     13  C   UNL     1       8.603  -4.502  -9.085  1.00  0.00     0.013 A 
ATOM     14  C   UNL     1       9.824  -3.830  -8.974  1.00  0.00     0.047 A 
ATOM     15  C   UNL     1      10.873  -4.392  -8.235  1.00  0.00     0.115 A 
ATOM     16  C   UNL     1       9.476  -6.305  -7.719  1.00  0.00     0.013 A 
ATOM     17  C   UNL     1      10.695  -5.630  -7.609  1.00  0.00     0.047 A 
BRANCH  15  18
ATOM     18  O   UNL     1      12.094  -3.732  -8.117  1.00  0.00    -0.508 OA
ATOM     19  H   UNL     1      12.346  -2.971  -8.738  1.00  0.00     0.293 HD
ENDBRANCH  15  18
ENDBRANCH   1  12
BRANCH  11  20
ATOM     20  C   UNL     1       2.310  -8.054  -7.717  1.00  0.00     0.188 C 
ATOM     21  C   UNL     1       1.643  -6.699  -8.065  1.00  0.00     0.179 C 
ATOM     22  O   UNL     1       1.347  -9.095  -7.661  1.00  0.00    -0.362 OA
ATOM     23  C   UNL     1       0.529  -6.386  -7.046  1.00  0.00     0.177 C 
ATOM     24  C   UNL     1       0.427  -8.874  -6.604  1.00  0.00     0.176 C 
ATOM     25  C   UNL     1      -0.409  -7.598  -6.872  1.00  0.00     0.177 C 
BRANCH  21  26
ATOM     26  O   UNL     1       1.088  -6.736  -9.357  1.00  0.00    -0.387 OA
ATOM     27  H   UNL     1       1.426  -7.558  -9.798  1.00  0.00     0.211 HD
ENDBRANCH  21  26
BRANCH  23  28
ATOM     28  O   UNL     1       1.092  -6.054  -5.801  1.00  0.00    -0.387 OA
ATOM     29  H   UNL     1       2.078  -6.103  -5.908  1.00  0.00     0.211 HD
ENDBRANCH  23  28
BRANCH  24  30
ATOM     30  C   UNL     1      -0.466 -10.117  -6.467  1.00  0.00     0.191 C 
BRANCH  30  31
ATOM     31  O   UNL     1      -1.754  -9.767  -6.033  1.00  0.00    -0.394 OA
ATOM     32  H   UNL     1      -1.996  -8.928  -6.505  1.00  0.00     0.210 HD
ENDBRANCH  30  31
ENDBRANCH  24  30
BRANCH  25  33
ATOM     33  O   UNL     1      -1.191  -7.773  -8.027  1.00  0.00    -0.388 OA
ATOM     34  H   UNL     1      -2.128  -7.897  -7.722  1.00  0.00     0.211 HD
ENDBRANCH  25  33
ENDBRANCH  11  20
BRANCH  10  35
ATOM     35  O   UNL     1       1.965 -10.106  -9.699  1.00  0.00    -0.507 OA
ATOM     36  H   UNL     1       1.173  -9.769 -10.234  1.00  0.00     0.293 HD
ENDBRANCH  10  35
TORSDOF 9
ENDMDL
MODEL 6
REMARK VINA RESULT:    -4.303      1.916      3.546
REMARK INTER + INTRA:          -6.469
REMARK INTER:                  -5.458
REMARK INTRA:                  -1.011
REMARK UNBOUND:                -0.657
REMARK SMILES O=c1c(-c2ccc(O)cc2)coc2c([C@@H]3O[C@H](CO)[C@H](O)[C@@H](O)[C@@H]3O)c(O)ccc12
REMARK SMILES IDX 3 1 11 2 12 3 13 4 30 5 2 6 1 7 29 8 28 9 26 10 14 11 4 12
REMARK SMILES IDX 5 13 6 14 7 15 10 16 9 17 8 18 15 20 24 21 16 22 22 23 17 24
REMARK SMILES IDX 20 25 25 26 23 28 18 30 19 31 21 33 27 35
REMARK H PARENT 8 19 25 27 23 29 19 32 21 34 27 36
REMARK Flexibility Score: inf
ROOT
ATOM      1  C   UNL     1       3.514  -7.480  -7.795  1.00  0.00     0.065 A 
ATOM      2  C   UNL     1       4.622  -7.915  -8.535  1.00  0.00     0.208 A 
ATOM      3  O   UNL     1       5.799  -7.315  -8.415  1.00  0.00    -0.463 OA
ATOM      4  C   UNL     1       6.013  -6.279  -7.606  1.00  0.00     0.147 A 
ATOM      5  C   UNL     1       4.949  -5.777  -6.821  1.00  0.00     0.066 A 
ATOM      6  C   UNL     1       3.684  -6.385  -6.929  1.00  0.00     0.200 A 
ATOM      7  O   UNL     1       2.705  -5.939  -6.269  1.00  0.00    -0.288 OA
ATOM      8  C   UNL     1       5.176  -4.696  -5.955  1.00  0.00     0.020 A 
ATOM      9  C   UNL     1       6.446  -4.132  -5.855  1.00  0.00     0.047 A 
ATOM     10  C   UNL     1       7.507  -4.624  -6.624  1.00  0.00     0.125 A 
ATOM     11  C   UNL     1       7.299  -5.689  -7.529  1.00  0.00     0.069 A 
ENDROOT
BRANCH   1  12
ATOM     12  C   UNL     1       2.208  -8.171  -7.943  1.00  0.00    -0.011 A 
ATOM     13  C   UNL     1       1.973  -9.402  -7.304  1.00  0.00     0.013 A 
ATOM     14  C   UNL     1       0.745 -10.053  -7.455  1.00  0.00     0.047 A 
ATOM     15  C   UNL     1      -0.261  -9.485  -8.247  1.00  0.00     0.115 A 
ATOM     16  C   UNL     1       1.196  -7.612  -8.744  1.00  0.00     0.013 A 
ATOM     17  C   UNL     1      -0.031  -8.265  -8.891  1.00  0.00     0.047 A 
BRANCH  15  18
ATOM     18  O   UNL     1      -1.488 -10.125  -8.405  1.00  0.00    -0.508 OA
ATOM     19  H   UNL     1      -1.560 -11.136  -8.426  1.00  0.00     0.293 HD
ENDBRANCH  15  18
ENDBRANCH   1  12
BRANCH  11  20
ATOM     20  C   UNL     1       8.469  -6.227  -8.342  1.00  0.00     0.188 C 
ATOM     21  C   UNL     1       8.692  -5.373  -9.616  1.00  0.00     0.179 C 
ATOM     22  O   UNL     1       9.645  -6.269  -7.547  1.00  0.00    -0.362 OA
ATOM     23  C   UNL     1       9.895  -5.921 -10.411  1.00  0.00     0.177 C 
ATOM     24  C   UNL     1      10.695  -6.930  -8.235  1.00  0.00     0.176 C 
ATOM     25  C   UNL     1      11.113  -6.122  -9.488  1.00  0.00     0.177 C 
BRANCH  21  26
ATOM     26  O   UNL     1       8.938  -4.030  -9.277  1.00  0.00    -0.387 OA
ATOM     27  H   UNL     1       9.811  -3.782  -9.678  1.00  0.00     0.211 HD
ENDBRANCH  21  26
BRANCH  23  28
ATOM     28  O   UNL     1       9.559  -7.148 -11.010  1.00  0.00    -0.387 OA
ATOM     29  H   UNL     1      10.411  -7.631 -11.174  1.00  0.00     0.211 HD
ENDBRANCH  23  28
BRANCH  24  30
ATOM     30  C   UNL     1      11.871  -7.118  -7.264  1.00  0.00     0.191 C 
BRANCH  30  31
ATOM     31  O   UNL     1      11.847  -6.149  -6.250  1.00  0.00    -0.394 OA
ATOM     32  H   UNL     1      12.649  -5.579  -6.382  1.00  0.00     0.210 HD
ENDBRANCH  30  31
ENDBRANCH  24  30
BRANCH  25  33
ATOM     33  O   UNL     1      11.637  -4.877  -9.101  1.00  0.00    -0.388 OA
ATOM     34  H   UNL     1      12.039  -5.002  -8.202  1.00  0.00     0.211 HD
ENDBRANCH  25  33
ENDBRANCH  11  20
BRANCH  10  35
ATOM     35  O   UNL     1       8.774  -4.056  -6.484  1.00  0.00    -0.507 OA
ATOM     36  H   UNL     1       9.474  -4.127  -7.215  1.00  0.00     0.293 HD
ENDBRANCH  10  35
TORSDOF 9
ENDMDL
MODEL 7
REMARK VINA RESULT:    -4.172      2.128      7.393
REMARK INTER + INTRA:          -6.292
REMARK INTER:                  -6.853
REMARK INTRA:                   0.561
REMARK UNBOUND:                -0.657
REMARK SMILES O=c1c(-c2ccc(O)cc2)coc2c([C@@H]3O[C@H](CO)[C@H](O)[C@@H](O)[C@@H]3O)c(O)ccc12
REMARK SMILES IDX 3 1 11 2 12 3 13 4 30 5 2 6 1 7 29 8 28 9 26 10 14 11 4 12
REMARK SMILES IDX 5 13 6 14 7 15 10 16 9 17 8 18 15 20 24 21 16 22 22 23 17 24
REMARK SMILES IDX 20 25 25 26 23 28 18 30 19 31 21 33 27 35
REMARK H PARENT 8 19 25 27 23 29 19 32 21 34 27 36
REMARK Flexibility Score: inf
ROOT
ATOM      1  C   UNL     1       7.496  -5.486  -7.744  1.00  0.00     0.065 A 
ATOM      2  C   UNL     1       6.217  -5.705  -7.216  1.00  0.00     0.208 A 
ATOM      3  O   UNL     1       5.386  -6.572  -7.781  1.00  0.00    -0.463 OA
ATOM      4  C   UNL     1       5.694  -7.280  -8.865  1.00  0.00     0.147 A 
ATOM      5  C   UNL     1       6.967  -7.123  -9.462  1.00  0.00     0.066 A 
ATOM      6  C   UNL     1       7.871  -6.206  -8.894  1.00  0.00     0.200 A 
ATOM      7  O   UNL     1       9.002  -6.015  -9.421  1.00  0.00    -0.288 OA
ATOM      8  C   UNL     1       7.300  -7.880 -10.595  1.00  0.00     0.020 A 
ATOM      9  C   UNL     1       6.390  -8.795 -11.119  1.00  0.00     0.047 A 
ATOM     10  C   UNL     1       5.130  -8.964 -10.534  1.00  0.00     0.125 A 
ATOM     11  C   UNL     1       4.756  -8.189  -9.413  1.00  0.00     0.069 A 
ENDROOT
BRANCH   1  12
ATOM     12  C   UNL     1       8.410  -4.515  -7.091  1.00  0.00    -0.011 A 
ATOM     13  C   UNL     1       9.805  -4.670  -7.185  1.00  0.00     0.013 A 
ATOM     14  C   UNL     1      10.661  -3.758  -6.559  1.00  0.00     0.047 A 
ATOM     15  C   UNL     1      10.135  -2.684  -5.830  1.00  0.00     0.115 A 
ATOM     16  C   UNL     1       7.891  -3.439  -6.350  1.00  0.00     0.013 A 
ATOM     17  C   UNL     1       8.749  -2.529  -5.727  1.00  0.00     0.047 A 
BRANCH  15  18
ATOM     18  O   UNL     1      10.978  -1.769  -5.203  1.00  0.00    -0.508 OA
ATOM     19  H   UNL     1      11.026  -0.802  -5.503  1.00  0.00     0.293 HD
ENDBRANCH  15  18
ENDBRANCH   1  12
BRANCH  11  20
ATOM     20  C   UNL     1       3.388  -8.399  -8.775  1.00  0.00     0.188 C 
ATOM     21  C   UNL     1       3.259  -9.838  -8.215  1.00  0.00     0.179 C 
ATOM     22  O   UNL     1       3.166  -7.435  -7.756  1.00  0.00    -0.362 OA
ATOM     23  C   UNL     1       1.877 -10.021  -7.553  1.00  0.00     0.177 C 
ATOM     24  C   UNL     1       1.833  -7.507  -7.276  1.00  0.00     0.176 C 
ATOM     25  C   UNL     1       1.583  -8.865  -6.575  1.00  0.00     0.177 C 
BRANCH  21  26
ATOM     26  O   UNL     1       4.262 -10.093  -7.263  1.00  0.00    -0.387 OA
ATOM     27  H   UNL     1       3.815 -10.172  -6.380  1.00  0.00     0.211 HD
ENDBRANCH  21  26
BRANCH  23  28
ATOM     28  O   UNL     1       0.873 -10.063  -8.536  1.00  0.00    -0.387 OA
ATOM     29  H   UNL     1       1.025 -10.887  -9.069  1.00  0.00     0.211 HD
ENDBRANCH  23  28
BRANCH  24  30
ATOM     30  C   UNL     1       1.593  -6.326  -6.324  1.00  0.00     0.191 C 
BRANCH  30  31
ATOM     31  O   UNL     1       2.759  -5.564  -6.163  1.00  0.00    -0.394 OA
ATOM     32  H   UNL     1       3.466  -6.186  -5.847  1.00  0.00     0.210 HD
ENDBRANCH  30  31
ENDBRANCH  24  30
BRANCH  25  33
ATOM     33  O   UNL     1       2.403  -8.974  -5.438  1.00  0.00    -0.388 OA
ATOM     34  H   UNL     1       2.929  -9.809  -5.543  1.00  0.00     0.211 HD
ENDBRANCH  25  33
ENDBRANCH  11  20
BRANCH  10  35
ATOM     35  O   UNL     1       4.249  -9.906 -11.065  1.00  0.00    -0.507 OA
ATOM     36  H   UNL     1       4.512 -10.878 -11.178  1.00  0.00     0.293 HD
ENDBRANCH  10  35
TORSDOF 9
ENDMDL
MODEL 8
REMARK VINA RESULT:    -3.809      2.090      7.672
REMARK INTER + INTRA:          -5.801
REMARK INTER:                  -6.399
REMARK INTRA:                   0.598
REMARK UNBOUND:                -0.657
REMARK SMILES O=c1c(-c2ccc(O)cc2)coc2c([C@@H]3O[C@H](CO)[C@H](O)[C@@H](O)[C@@H]3O)c(O)ccc12
REMARK SMILES IDX 3 1 11 2 12 3 13 4 30 5 2 6 1 7 29 8 28 9 26 10 14 11 4 12
REMARK SMILES IDX 5 13 6 14 7 15 10 16 9 17 8 18 15 20 24 21 16 22 22 23 17 24
REMARK SMILES IDX 20 25 25 26 23 28 18 30 19 31 21 33 27 35
REMARK H PARENT 8 19 25 27 23 29 19 32 21 34 27 36
REMARK Flexibility Score: inf
ROOT
ATOM      1  C   UNL     1       6.554  -5.075  -7.894  1.00  0.00     0.065 A 
ATOM      2  C   UNL     1       5.361  -5.503  -7.297  1.00  0.00     0.208 A 
ATOM      3  O   UNL     1       4.678  -6.526  -7.796  1.00  0.00    -0.463 OA
ATOM      4  C   UNL     1       5.062  -7.204  -8.875  1.00  0.00     0.147 A 
ATOM      5  C   UNL     1       6.256  -6.839  -9.540  1.00  0.00     0.066 A 
ATOM      6  C   UNL     1       7.002  -5.754  -9.042  1.00  0.00     0.200 A 
ATOM      7  O   UNL     1       8.054  -5.380  -9.631  1.00  0.00    -0.288 OA
ATOM      8  C   UNL     1       6.672  -7.564 -10.667  1.00  0.00     0.020 A 
ATOM      9  C   UNL     1       5.922  -8.647 -11.120  1.00  0.00     0.047 A 
ATOM     10  C   UNL     1       4.742  -9.020 -10.468  1.00  0.00     0.125 A 
ATOM     11  C   UNL     1       4.282  -8.287  -9.351  1.00  0.00     0.069 A 
ENDROOT
BRANCH   1  12
ATOM     12  C   UNL     1       7.303  -3.931  -7.314  1.00  0.00    -0.011 A 
ATOM     13  C   UNL     1       8.043  -4.088  -6.129  1.00  0.00     0.013 A 
ATOM     14  C   UNL     1       8.739  -3.005  -5.581  1.00  0.00     0.047 A 
ATOM     15  C   UNL     1       8.700  -1.753  -6.209  1.00  0.00     0.115 A 
ATOM     16  C   UNL     1       7.262  -2.669  -7.933  1.00  0.00     0.013 A 
ATOM     17  C   UNL     1       7.959  -1.589  -7.384  1.00  0.00     0.047 A 
BRANCH  15  18
ATOM     18  O   UNL     1       9.388  -0.667  -5.674  1.00  0.00    -0.508 OA
ATOM     19  H   UNL     1      10.381  -0.539  -5.832  1.00  0.00     0.293 HD
ENDBRANCH  15  18
ENDBRANCH   1  12
BRANCH  11  20
ATOM     20  C   UNL     1       3.006  -8.719  -8.639  1.00  0.00     0.188 C 
ATOM     21  C   UNL     1       2.517  -7.615  -7.668  1.00  0.00     0.179 C 
ATOM     22  O   UNL     1       1.999  -9.046  -9.585  1.00  0.00    -0.362 OA
ATOM     23  C   UNL     1       1.214  -8.063  -6.977  1.00  0.00     0.177 C 
ATOM     24  C   UNL     1       0.870  -9.616  -8.943  1.00  0.00     0.176 C 
ATOM     25  C   UNL     1       0.195  -8.578  -8.013  1.00  0.00     0.177 C 
BRANCH  21  26
ATOM     26  O   UNL     1       2.281  -6.414  -8.361  1.00  0.00    -0.387 OA
ATOM     27  H   UNL     1       1.999  -6.656  -9.281  1.00  0.00     0.211 HD
ENDBRANCH  21  26
BRANCH  23  28
ATOM     28  O   UNL     1       1.486  -9.084  -6.049  1.00  0.00    -0.387 OA
ATOM     29  H   UNL     1       0.779  -9.037  -5.353  1.00  0.00     0.211 HD
ENDBRANCH  23  28
BRANCH  24  30
ATOM     30  C   UNL     1      -0.099 -10.125 -10.022  1.00  0.00     0.191 C 
BRANCH  30  31
ATOM     31  O   UNL     1      -0.260  -9.176 -11.042  1.00  0.00    -0.394 OA
ATOM     32  H   UNL     1      -0.430  -9.683 -11.879  1.00  0.00     0.210 HD
ENDBRANCH  30  31
ENDBRANCH  24  30
BRANCH  25  33
ATOM     33  O   UNL     1      -0.302  -7.506  -8.775  1.00  0.00    -0.388 OA
ATOM     34  H   UNL     1      -1.074  -7.856  -9.293  1.00  0.00     0.211 HD
ENDBRANCH  25  33
ENDBRANCH  11  20
BRANCH  10  35
ATOM     35  O   UNL     1       4.025 -10.125 -10.929  1.00  0.00    -0.507 OA
ATOM     36  H   UNL     1       3.521 -10.105 -11.808  1.00  0.00     0.293 HD
ENDBRANCH  10  35
TORSDOF 9
ENDMDL
