MODEL 1
REMARK VINA RESULT:    -4.433      0.000      0.000
REMARK INTER + INTRA:          -6.901
REMARK INTER:                  -6.765
REMARK INTRA:                  -0.136
REMARK UNBOUND:                -0.136
REMARK SMILES CC1=CCC[C@@H](C)C(=O)C[C@H](C(C)C)C(=O)C1
REMARK SMILES IDX 8 1 9 2 6 3 7 4 5 5 4 6 3 7 2 8 1 9 10 11 11 12 15 13 16 14
REMARK SMILES IDX 17 15 12 17 13 18 14 19
REMARK H PARENT
REMARK Flexibility Score: 70.00
ROOT
ATOM      1  C   UNL     1      -0.923  27.990  31.161  1.00  0.00     0.136 C 
ATOM      2  O   UNL     1      -1.326  27.191  31.996  1.00  0.00    -0.299 OA
ENDROOT
BRANCH   1   3
ATOM      3  C   UNL     1      -1.052  27.668  29.686  1.00  0.00     0.053 C 
ATOM      4  C   UNL     1      -2.519  27.373  29.359  1.00  0.00     0.016 C 
BRANCH   3   5
ATOM      5  C   UNL     1      -0.162  26.473  29.279  1.00  0.00     0.015 C 
BRANCH   5   6
ATOM      6  C   UNL     1       1.340  26.799  29.298  1.00  0.00     0.028 C 
BRANCH   6   7
ATOM      7  C   UNL     1       1.632  28.082  28.555  1.00  0.00    -0.028 C 
ATOM      8  C   UNL     1       2.386  29.106  29.017  1.00  0.00    -0.070 CG0
ATOM      9  C   UNL     1       2.566  30.308  28.124  1.00  0.00     0.039 C 
ATOM     10  G   UNL     1       3.023  29.115  30.393  1.00  0.00     0.000 G0
ENDBRANCH   6   7
ENDBRANCH   5   6
ENDBRANCH   3   5
ENDBRANCH   1   3
BRANCH   1  11
ATOM     11  C   UNL     1      -0.321  29.291  31.625  1.00  0.00     0.087 C 
BRANCH  11  12
ATOM     12  C   UNL     1       1.100  29.094  32.212  1.00  0.00     0.066 C 
BRANCH  12  13
ATOM     13  C   UNL     1       2.134  29.853  31.396  1.00  0.00     0.140 C 
ATOM     14  O   UNL     1       2.288  31.053  31.573  1.00  0.00    -0.299 OA
BRANCH  13  15
ATOM     15  C   UNL     1       3.022  29.146  30.404  1.00  0.00     0.106 CG0
ATOM     16  G   UNL     1       2.375  29.105  29.033  1.00  0.00     0.000 G0
ENDBRANCH  13  15
ENDBRANCH  12  13
BRANCH  12  17
ATOM     17  C   UNL     1       1.211  29.479  33.720  1.00  0.00    -0.006 C 
ATOM     18  C   UNL     1       0.244  28.703  34.633  1.00  0.00     0.008 C 
ATOM     19  C   UNL     1       2.651  29.336  34.238  1.00  0.00     0.008 C 
ENDBRANCH  12  17
ENDBRANCH  11  12
ENDBRANCH   1  11
TORSDOF 1
ENDMDL
MODEL 2
REMARK VINA RESULT:    -4.370      1.179      1.432
REMARK INTER + INTRA:          -6.806
REMARK INTER:                  -6.681
REMARK INTRA:                  -0.125
REMARK UNBOUND:                -0.136
REMARK SMILES CC1=CCC[C@@H](C)C(=O)C[C@H](C(C)C)C(=O)C1
REMARK SMILES IDX 8 1 9 2 6 3 7 4 5 5 4 6 3 7 2 8 1 9 10 11 11 12 15 13 16 14
REMARK SMILES IDX 17 15 12 17 13 18 14 19
REMARK H PARENT
REMARK Flexibility Score: 70.00
ROOT
ATOM      1  C   UNL     1      -0.617  28.148  31.615  1.00  0.00     0.136 C 
ATOM      2  O   UNL     1      -0.410  27.562  32.670  1.00  0.00    -0.299 OA
ENDROOT
BRANCH   1   3
ATOM      3  C   UNL     1      -1.479  27.501  30.550  1.00  0.00     0.053 C 
ATOM      4  C   UNL     1      -2.535  26.617  31.221  1.00  0.00     0.016 C 
BRANCH   3   5
ATOM      5  C   UNL     1      -0.636  26.668  29.558  1.00  0.00     0.015 C 
BRANCH   5   6
ATOM      6  C   UNL     1      -0.065  27.499  28.398  1.00  0.00     0.028 C 
BRANCH   6   7
ATOM      7  C   UNL     1       1.443  27.417  28.354  1.00  0.00    -0.028 C 
ATOM      8  C   UNL     1       2.295  28.446  28.561  1.00  0.00    -0.070 CG0
ATOM      9  C   UNL     1       3.774  28.165  28.476  1.00  0.00     0.039 C 
ATOM     10  G   UNL     1       1.835  29.864  28.836  1.00  0.00     0.000 G0
ENDBRANCH   6   7
ENDBRANCH   5   6
ENDBRANCH   3   5
ENDBRANCH   1   3
BRANCH   1  11
ATOM     11  C   UNL     1      -0.021  29.517  31.410  1.00  0.00     0.087 C 
BRANCH  11  12
ATOM     12  C   UNL     1       1.528  29.483  31.440  1.00  0.00     0.066 C 
BRANCH  12  13
ATOM     13  C   UNL     1       2.111  30.269  30.277  1.00  0.00     0.140 C 
ATOM     14  O   UNL     1       2.860  31.212  30.494  1.00  0.00    -0.299 OA
BRANCH  13  15
ATOM     15  C   UNL     1       1.831  29.879  28.849  1.00  0.00     0.106 CG0
ATOM     16  G   UNL     1       2.292  28.460  28.576  1.00  0.00     0.000 G0
ENDBRANCH  13  15
ENDBRANCH  12  13
BRANCH  12  17
ATOM     17  C   UNL     1       2.137  29.978  32.789  1.00  0.00    -0.006 C 
ATOM     18  C   UNL     1       1.099  30.560  33.765  1.00  0.00     0.008 C 
ATOM     19  C   UNL     1       2.951  28.875  33.484  1.00  0.00     0.008 C 
ENDBRANCH  12  17
ENDBRANCH  11  12
ENDBRANCH   1  11
TORSDOF 1
ENDMDL
MODEL 3
REMARK VINA RESULT:    -3.859      2.316      4.499
REMARK INTER + INTRA:          -6.025
REMARK INTER:                  -5.941
REMARK INTRA:                  -0.084
REMARK UNBOUND:                -0.136
REMARK SMILES CC1=CCC[C@@H](C)C(=O)C[C@H](C(C)C)C(=O)C1
REMARK SMILES IDX 8 1 9 2 6 3 7 4 5 5 4 6 3 7 2 8 1 9 10 11 11 12 15 13 16 14
REMARK SMILES IDX 17 15 12 17 13 18 14 19
REMARK H PARENT
REMARK Flexibility Score: 70.00
ROOT
ATOM      1  C   UNL     1       3.162  28.156  32.718  1.00  0.00     0.136 C 
ATOM      2  O   UNL     1       3.429  27.073  33.222  1.00  0.00    -0.299 OA
ENDROOT
BRANCH   1   3
ATOM      3  C   UNL     1       2.439  29.208  33.535  1.00  0.00     0.053 C 
ATOM      4  C   UNL     1       1.476  28.521  34.508  1.00  0.00     0.016 C 
BRANCH   3   5
ATOM      5  C   UNL     1       1.672  30.205  32.637  1.00  0.00     0.015 C 
BRANCH   5   6
ATOM      6  C   UNL     1       0.333  29.655  32.123  1.00  0.00     0.028 C 
BRANCH   6   7
ATOM      7  C   UNL     1      -0.054  30.290  30.808  1.00  0.00    -0.028 C 
ATOM      8  C   UNL     1       0.020  29.697  29.595  1.00  0.00    -0.070 CG0
ATOM      9  C   UNL     1      -0.416  30.495  28.392  1.00  0.00     0.039 C 
ATOM     10  G   UNL     1       0.550  28.292  29.386  1.00  0.00     0.000 G0
ENDBRANCH   6   7
ENDBRANCH   5   6
ENDBRANCH   3   5
ENDBRANCH   1   3
BRANCH   1  11
ATOM     11  C   UNL     1       3.576  28.422  31.295  1.00  0.00     0.087 C 
BRANCH  11  12
ATOM     12  C   UNL     1       2.874  27.465  30.298  1.00  0.00     0.066 C 
BRANCH  12  13
ATOM     13  C   UNL     1       2.046  28.244  29.289  1.00  0.00     0.140 C 
ATOM     14  O   UNL     1       2.599  28.818  28.361  1.00  0.00    -0.299 OA
BRANCH  13  15
ATOM     15  C   UNL     1       0.542  28.282  29.373  1.00  0.00     0.106 CG0
ATOM     16  G   UNL     1       0.048  29.699  29.595  1.00  0.00     0.000 G0
ENDBRANCH  13  15
ENDBRANCH  12  13
BRANCH  12  17
ATOM     17  C   UNL     1       3.855  26.499  29.564  1.00  0.00    -0.006 C 
ATOM     18  C   UNL     1       5.277  26.488  30.154  1.00  0.00     0.008 C 
ATOM     19  C   UNL     1       3.301  25.066  29.503  1.00  0.00     0.008 C 
ENDBRANCH  12  17
ENDBRANCH  11  12
ENDBRANCH   1  11
TORSDOF 1
ENDMDL
MODEL 4
REMARK VINA RESULT:    -3.720      1.664      3.816
REMARK INTER + INTRA:          -5.812
REMARK INTER:                  -5.886
REMARK INTRA:                   0.073
REMARK UNBOUND:                -0.136
REMARK SMILES CC1=CCC[C@@H](C)C(=O)C[C@H](C(C)C)C(=O)C1
REMARK SMILES IDX 8 1 9 2 6 3 7 4 5 5 4 6 3 7 2 8 1 9 10 11 11 12 15 13 16 14
REMARK SMILES IDX 17 15 12 17 13 18 14 19
REMARK H PARENT
REMARK Flexibility Score: 70.00
ROOT
ATOM      1  C   UNL     1       3.039  28.888  30.469  1.00  0.00     0.136 C 
ATOM      2  O   UNL     1       3.457  30.037  30.528  1.00  0.00    -0.299 OA
ENDROOT
BRANCH   1   3
ATOM      3  C   UNL     1       3.272  28.065  29.218  1.00  0.00     0.053 C 
ATOM      4  C   UNL     1       3.164  28.972  27.988  1.00  0.00     0.016 C 
BRANCH   3   5
ATOM      5  C   UNL     1       2.272  26.892  29.108  1.00  0.00     0.015 C 
BRANCH   5   6
ATOM      6  C   UNL     1       0.976  27.265  28.371  1.00  0.00     0.028 C 
BRANCH   6   7
ATOM      7  C   UNL     1      -0.208  26.511  28.928  1.00  0.00    -0.028 C 
ATOM      8  C   UNL     1      -1.086  26.985  29.842  1.00  0.00    -0.070 CG0
ATOM      9  C   UNL     1      -2.211  26.081  30.276  1.00  0.00     0.039 C 
ATOM     10  G   UNL     1      -0.970  28.361  30.471  1.00  0.00     0.000 G0
ENDBRANCH   6   7
ENDBRANCH   5   6
ENDBRANCH   3   5
ENDBRANCH   1   3
BRANCH   1  11
ATOM     11  C   UNL     1       2.313  28.312  31.657  1.00  0.00     0.087 C 
BRANCH  11  12
ATOM     12  C   UNL     1       1.046  29.130  32.013  1.00  0.00     0.066 C 
BRANCH  12  13
ATOM     13  C   UNL     1      -0.212  28.303  31.798  1.00  0.00     0.140 C 
ATOM     14  O   UNL     1      -0.645  27.606  32.704  1.00  0.00    -0.299 OA
BRANCH  13  15
ATOM     15  C   UNL     1      -0.977  28.366  30.501  1.00  0.00     0.106 CG0
ATOM     16  G   UNL     1      -1.060  26.996  29.856  1.00  0.00     0.000 G0
ENDBRANCH  13  15
ENDBRANCH  12  13
BRANCH  12  17
ATOM     17  C   UNL     1       1.067  29.717  33.459  1.00  0.00    -0.006 C 
ATOM     18  C   UNL     1       1.757  28.806  34.491  1.00  0.00     0.008 C 
ATOM     19  C   UNL     1       1.696  31.120  33.493  1.00  0.00     0.008 C 
ENDBRANCH  12  17
ENDBRANCH  11  12
ENDBRANCH   1  11
TORSDOF 1
ENDMDL
MODEL 5
REMARK VINA RESULT:    -3.713      2.512      3.860
REMARK INTER + INTRA:          -5.802
REMARK INTER:                  -5.940
REMARK INTRA:                   0.138
REMARK UNBOUND:                -0.136
REMARK SMILES CC1=CCC[C@@H](C)C(=O)C[C@H](C(C)C)C(=O)C1
REMARK SMILES IDX 8 1 9 2 6 3 7 4 5 5 4 6 3 7 2 8 1 9 10 11 11 12 15 13 16 14
REMARK SMILES IDX 17 15 12 17 13 18 14 19
REMARK H PARENT
REMARK Flexibility Score: 70.00
ROOT
ATOM      1  C   UNL     1       3.435  27.382  30.944  1.00  0.00     0.136 C 
ATOM      2  O   UNL     1       3.609  27.347  32.155  1.00  0.00    -0.299 OA
ENDROOT
BRANCH   1   3
ATOM      3  C   UNL     1       4.182  26.415  30.048  1.00  0.00     0.053 C 
ATOM      4  C   UNL     1       4.611  25.193  30.867  1.00  0.00     0.016 C 
BRANCH   3   5
ATOM      5  C   UNL     1       5.413  27.077  29.388  1.00  0.00     0.015 C 
BRANCH   5   6
ATOM      6  C   UNL     1       5.167  27.504  27.933  1.00  0.00     0.028 C 
BRANCH   6   7
ATOM      7  C   UNL     1       5.644  28.917  27.688  1.00  0.00    -0.028 C 
ATOM      8  C   UNL     1       4.901  30.037  27.837  1.00  0.00    -0.070 CG0
ATOM      9  C   UNL     1       5.556  31.363  27.545  1.00  0.00     0.039 C 
ATOM     10  G   UNL     1       3.441  30.018  28.246  1.00  0.00     0.000 G0
ENDBRANCH   6   7
ENDBRANCH   5   6
ENDBRANCH   3   5
ENDBRANCH   1   3
BRANCH   1  11
ATOM     11  C   UNL     1       2.462  28.380  30.373  1.00  0.00     0.087 C 
BRANCH  11  12
ATOM     12  C   UNL     1       2.812  29.832  30.790  1.00  0.00     0.066 C 
BRANCH  12  13
ATOM     13  C   UNL     1       3.224  30.659  29.583  1.00  0.00     0.140 C 
ATOM     14  O   UNL     1       3.439  31.856  29.711  1.00  0.00    -0.299 OA
BRANCH  13  15
ATOM     15  C   UNL     1       3.431  30.024  28.232  1.00  0.00     0.106 CG0
ATOM     16  G   UNL     1       4.899  30.024  27.853  1.00  0.00     0.000 G0
ENDBRANCH  13  15
ENDBRANCH  12  13
BRANCH  12  17
ATOM     17  C   UNL     1       1.668  30.548  31.574  1.00  0.00    -0.006 C 
ATOM     18  C   UNL     1       0.294  29.871  31.428  1.00  0.00     0.008 C 
ATOM     19  C   UNL     1       2.017  30.715  33.062  1.00  0.00     0.008 C 
ENDBRANCH  12  17
ENDBRANCH  11  12
ENDBRANCH   1  11
TORSDOF 1
ENDMDL
MODEL 6
REMARK VINA RESULT:    -3.523      1.756      4.567
REMARK INTER + INTRA:          -5.512
REMARK INTER:                  -5.647
REMARK INTRA:                   0.136
REMARK UNBOUND:                -0.136
REMARK SMILES CC1=CCC[C@@H](C)C(=O)C[C@H](C(C)C)C(=O)C1
REMARK SMILES IDX 8 1 9 2 6 3 7 4 5 5 4 6 3 7 2 8 1 9 10 11 11 12 15 13 16 14
REMARK SMILES IDX 17 15 12 17 13 18 14 19
REMARK H PARENT
REMARK Flexibility Score: 70.00
ROOT
ATOM      1  C   UNL     1       2.397  29.966  32.216  1.00  0.00     0.136 C 
ATOM      2  O   UNL     1       3.439  29.334  32.335  1.00  0.00    -0.299 OA
ENDROOT
BRANCH   1   3
ATOM      3  C   UNL     1       1.394  29.985  33.352  1.00  0.00     0.053 C 
ATOM      4  C   UNL     1       1.857  29.024  34.452  1.00  0.00     0.016 C 
BRANCH   3   5
ATOM      5  C   UNL     1      -0.025  29.605  32.872  1.00  0.00     0.015 C 
BRANCH   5   6
ATOM      6  C   UNL     1      -0.178  28.111  32.548  1.00  0.00     0.028 C 
BRANCH   6   7
ATOM      7  C   UNL     1      -0.978  27.902  31.284  1.00  0.00    -0.028 C 
ATOM      8  C   UNL     1      -0.464  27.744  30.043  1.00  0.00    -0.070 CG0
ATOM      9  C   UNL     1      -1.428  27.544  28.900  1.00  0.00     0.039 C 
ATOM     10  G   UNL     1       1.022  27.793  29.745  1.00  0.00     0.000 G0
ENDBRANCH   6   7
ENDBRANCH   5   6
ENDBRANCH   3   5
ENDBRANCH   1   3
BRANCH   1  11
ATOM     11  C   UNL     1       2.145  30.727  30.941  1.00  0.00     0.087 C 
BRANCH  11  12
ATOM     12  C   UNL     1       2.590  29.927  29.691  1.00  0.00     0.066 C 
BRANCH  12  13
ATOM     13  C   UNL     1       1.433  29.122  29.121  1.00  0.00     0.140 C 
ATOM     14  O   UNL     1       0.835  29.532  28.136  1.00  0.00    -0.299 OA
BRANCH  13  15
ATOM     15  C   UNL     1       1.036  27.794  29.712  1.00  0.00     0.106 CG0
ATOM     16  G   UNL     1      -0.447  27.763  30.026  1.00  0.00     0.000 G0
ENDBRANCH  13  15
ENDBRANCH  12  13
BRANCH  12  17
ATOM     17  C   UNL     1       3.235  30.812  28.580  1.00  0.00    -0.006 C 
ATOM     18  C   UNL     1       3.496  32.265  29.014  1.00  0.00     0.008 C 
ATOM     19  C   UNL     1       4.529  30.186  28.034  1.00  0.00     0.008 C 
ENDBRANCH  12  17
ENDBRANCH  11  12
ENDBRANCH   1  11
TORSDOF 1
ENDMDL
MODEL 7
REMARK VINA RESULT:    -3.519      1.880      4.083
REMARK INTER + INTRA:          -5.507
REMARK INTER:                  -5.568
REMARK INTRA:                   0.062
REMARK UNBOUND:                -0.136
REMARK SMILES CC1=CCC[C@@H](C)C(=O)C[C@H](C(C)C)C(=O)C1
REMARK SMILES IDX 8 1 9 2 6 3 7 4 5 5 4 6 3 7 2 8 1 9 10 11 11 12 15 13 16 14
REMARK SMILES IDX 17 15 12 17 13 18 14 19
REMARK H PARENT
REMARK Flexibility Score: 70.00
ROOT
ATOM      1  C   UNL     1       2.908  30.883  29.433  1.00  0.00     0.136 C 
ATOM      2  O   UNL     1       3.518  31.923  29.642  1.00  0.00    -0.299 OA
ENDROOT
BRANCH   1   3
ATOM      3  C   UNL     1       2.281  30.636  28.076  1.00  0.00     0.053 C 
ATOM      4  C   UNL     1       3.347  30.802  26.989  1.00  0.00     0.016 C 
BRANCH   3   5
ATOM      5  C   UNL     1       1.093  31.588  27.811  1.00  0.00     0.015 C 
BRANCH   5   6
ATOM      6  C   UNL     1      -0.205  31.148  28.505  1.00  0.00     0.028 C 
BRANCH   6   7
ATOM      7  C   UNL     1      -0.500  29.690  28.244  1.00  0.00    -0.028 C 
ATOM      8  C   UNL     1      -0.766  28.758  29.188  1.00  0.00    -0.070 CG0
ATOM      9  C   UNL     1      -1.040  27.348  28.731  1.00  0.00     0.039 C 
ATOM     10  G   UNL     1      -0.767  29.058  30.675  1.00  0.00     0.000 G0
ENDBRANCH   6   7
ENDBRANCH   5   6
ENDBRANCH   3   5
ENDBRANCH   1   3
BRANCH   1  11
ATOM     11  C   UNL     1       2.811  29.859  30.534  1.00  0.00     0.087 C 
BRANCH  11  12
ATOM     12  C   UNL     1       1.546  30.064  31.406  1.00  0.00     0.066 C 
BRANCH  12  13
ATOM     13  C   UNL     1       0.599  28.882  31.275  1.00  0.00     0.140 C 
ATOM     14  O   UNL     1       0.934  27.784  31.696  1.00  0.00    -0.299 OA
BRANCH  13  15
ATOM     15  C   UNL     1      -0.778  29.043  30.684  1.00  0.00     0.106 CG0
ATOM     16  G   UNL     1      -0.760  28.776  29.191  1.00  0.00     0.000 G0
ENDBRANCH  13  15
ENDBRANCH  12  13
BRANCH  12  17
ATOM     17  C   UNL     1       1.861  30.343  32.908  1.00  0.00    -0.006 C 
ATOM     18  C   UNL     1       0.627  30.273  33.827  1.00  0.00     0.008 C 
ATOM     19  C   UNL     1       2.964  29.413  33.440  1.00  0.00     0.008 C 
ENDBRANCH  12  17
ENDBRANCH  11  12
ENDBRANCH   1  11
TORSDOF 1
ENDMDL
MODEL 8
REMARK VINA RESULT:    -3.506      2.205      4.681
REMARK INTER + INTRA:          -5.486
REMARK INTER:                  -5.745
REMARK INTRA:                   0.259
REMARK UNBOUND:                -0.136
REMARK SMILES CC1=CCC[C@@H](C)C(=O)C[C@H](C(C)C)C(=O)C1
REMARK SMILES IDX 8 1 9 2 6 3 7 4 5 5 4 6 3 7 2 8 1 9 10 11 11 12 15 13 16 14
REMARK SMILES IDX 17 15 12 17 13 18 14 19
REMARK H PARENT
REMARK Flexibility Score: 70.00
ROOT
ATOM      1  C   UNL     1       2.748  29.018  31.635  1.00  0.00     0.136 C 
ATOM      2  O   UNL     1       2.951  28.166  32.491  1.00  0.00    -0.299 OA
ENDROOT
BRANCH   1   3
ATOM      3  C   UNL     1       1.884  30.220  31.960  1.00  0.00     0.053 C 
ATOM      4  C   UNL     1       1.945  30.495  33.466  1.00  0.00     0.016 C 
BRANCH   3   5
ATOM      5  C   UNL     1       0.420  30.012  31.512  1.00  0.00     0.015 C 
BRANCH   5   6
ATOM      6  C   UNL     1       0.207  30.238  30.007  1.00  0.00     0.028 C 
BRANCH   6   7
ATOM      7  C   UNL     1      -0.595  29.114  29.392  1.00  0.00    -0.028 C 
ATOM      8  C   UNL     1      -0.096  28.117  28.626  1.00  0.00    -0.070 CG0
ATOM      9  C   UNL     1      -1.058  27.081  28.102  1.00  0.00     0.039 C 
ATOM     10  G   UNL     1       1.368  28.014  28.245  1.00  0.00     0.000 G0
ENDBRANCH   6   7
ENDBRANCH   5   6
ENDBRANCH   3   5
ENDBRANCH   1   3
BRANCH   1  11
ATOM     11  C   UNL     1       3.380  28.856  30.278  1.00  0.00     0.087 C 
BRANCH  11  12
ATOM     12  C   UNL     1       3.403  27.374  29.823  1.00  0.00     0.066 C 
BRANCH  12  13
ATOM     13  C   UNL     1       2.106  27.001  29.124  1.00  0.00     0.140 C 
ATOM     14  O   UNL     1       1.610  25.898  29.310  1.00  0.00    -0.299 OA
BRANCH  13  15
ATOM     15  C   UNL     1       1.380  27.984  28.242  1.00  0.00     0.106 CG0
ATOM     16  G   UNL     1      -0.077  28.098  28.645  1.00  0.00     0.000 G0
ENDBRANCH  13  15
ENDBRANCH  12  13
BRANCH  12  17
ATOM     17  C   UNL     1       4.627  27.016  28.923  1.00  0.00    -0.006 C 
ATOM     18  C   UNL     1       5.277  28.235  28.242  1.00  0.00     0.008 C 
ATOM     19  C   UNL     1       5.689  26.219  29.698  1.00  0.00     0.008 C 
ENDBRANCH  12  17
ENDBRANCH  11  12
ENDBRANCH   1  11
TORSDOF 1
ENDMDL
MODEL 9
REMARK VINA RESULT:    -3.441      2.373      3.266
REMARK INTER + INTRA:          -5.388
REMARK INTER:                  -5.623
REMARK INTRA:                   0.235
REMARK UNBOUND:                -0.136
REMARK SMILES CC1=CCC[C@@H](C)C(=O)C[C@H](C(C)C)C(=O)C1
REMARK SMILES IDX 8 1 9 2 6 3 7 4 5 5 4 6 3 7 2 8 1 9 10 11 11 12 15 13 16 14
REMARK SMILES IDX 17 15 12 17 13 18 14 19
REMARK H PARENT
REMARK Flexibility Score: 70.00
ROOT
ATOM      1  C   UNL     1       1.055  30.688  29.724  1.00  0.00     0.136 C 
ATOM      2  O   UNL     1      -0.146  30.478  29.825  1.00  0.00    -0.299 OA
ENDROOT
BRANCH   1   3
ATOM      3  C   UNL     1       1.633  31.140  28.398  1.00  0.00     0.053 C 
ATOM      4  C   UNL     1       0.776  30.582  27.257  1.00  0.00     0.016 C 
BRANCH   3   5
ATOM      5  C   UNL     1       3.103  30.695  28.231  1.00  0.00     0.015 C 
BRANCH   5   6
ATOM      6  C   UNL     1       3.254  29.365  27.477  1.00  0.00     0.028 C 
BRANCH   6   7
ATOM      7  C   UNL     1       4.261  28.463  28.151  1.00  0.00    -0.028 C 
ATOM      8  C   UNL     1       4.004  27.627  29.183  1.00  0.00    -0.070 CG0
ATOM      9  C   UNL     1       5.144  26.801  29.722  1.00  0.00     0.039 C 
ATOM     10  G   UNL     1       2.643  27.510  29.840  1.00  0.00     0.000 G0
ENDBRANCH   6   7
ENDBRANCH   5   6
ENDBRANCH   3   5
ENDBRANCH   1   3
BRANCH   1  11
ATOM     11  C   UNL     1       1.933  30.509  30.936  1.00  0.00     0.087 C 
BRANCH  11  12
ATOM     12  C   UNL     1       1.647  29.171  31.665  1.00  0.00     0.066 C 
BRANCH  12  13
ATOM     13  C   UNL     1       2.649  28.104  31.255  1.00  0.00     0.140 C 
ATOM     14  O   UNL     1       3.461  27.688  32.069  1.00  0.00    -0.299 OA
BRANCH  13  15
ATOM     15  C   UNL     1       2.631  27.501  29.874  1.00  0.00     0.106 CG0
ATOM     16  G   UNL     1       3.989  27.629  29.210  1.00  0.00     0.000 G0
ENDBRANCH  13  15
ENDBRANCH  12  13
BRANCH  12  17
ATOM     17  C   UNL     1       1.601  29.304  33.219  1.00  0.00    -0.006 C 
ATOM     18  C   UNL     1       1.943  30.714  33.733  1.00  0.00     0.008 C 
ATOM     19  C   UNL     1       0.247  28.851  33.788  1.00  0.00     0.008 C 
ENDBRANCH  12  17
ENDBRANCH  11  12
ENDBRANCH   1  11
TORSDOF 1
ENDMDL
