MODEL 1
REMARK VINA RESULT:    -4.813      0.000      0.000
REMARK INTER + INTRA:         -10.519
REMARK INTER:                  -8.752
REMARK INTRA:                  -1.767
REMARK UNBOUND:                -1.767
REMARK SMILES CCCCCC=CCC=CCCCCCCCC(=O)[O-]
REMARK SMILES IDX 11 1 12 2 13 3 14 4 15 5 16 6 17 7 18 8 19 9 20 10 10 11
REMARK SMILES IDX 9 12 8 13 7 14 6 15 5 16 4 17 3 18 2 19 1 20
REMARK H PARENT
REMARK Flexibility Score: inf
ROOT
ATOM      1  C   UNL     1      58.570  34.129  80.705  1.00  0.00     0.027 C 
ENDROOT
BRANCH   1   2
ATOM      2  C   UNL     1      58.924  35.560  81.154  1.00  0.00     0.004 C 
BRANCH   2   3
ATOM      3  C   UNL     1      58.008  36.653  80.572  1.00  0.00     0.000 C 
BRANCH   3   4
ATOM      4  C   UNL     1      58.747  37.595  79.606  1.00  0.00     0.000 C 
BRANCH   4   5
ATOM      5  C   UNL     1      58.572  37.185  78.135  1.00  0.00     0.000 C 
BRANCH   5   6
ATOM      6  C   UNL     1      57.245  37.680  77.534  1.00  0.00     0.006 C 
BRANCH   6   7
ATOM      7  C   UNL     1      56.264  36.529  77.274  1.00  0.00     0.053 C 
BRANCH   7   8
ATOM      8  C   UNL     1      55.980  36.363  75.813  1.00  0.00     0.041 C 
ATOM      9  O   UNL     1      55.447  37.298  75.160  1.00  0.00    -0.550 OA
ATOM     10  O   UNL     1      56.335  35.187  75.164  1.00  0.00    -0.550 OA
ENDBRANCH   7   8
ENDBRANCH   6   7
ENDBRANCH   5   6
ENDBRANCH   4   5
ENDBRANCH   3   4
ENDBRANCH   2   3
ENDBRANCH   1   2
BRANCH   1  11
ATOM     11  C   UNL     1      58.880  33.879  79.254  1.00  0.00    -0.031 C 
ATOM     12  C   UNL     1      57.955  33.403  78.410  1.00  0.00    -0.027 C 
BRANCH  12  13
ATOM     13  C   UNL     1      58.282  33.168  76.962  1.00  0.00     0.054 C 
BRANCH  13  14
ATOM     14  C   UNL     1      57.974  31.752  76.566  1.00  0.00    -0.027 C 
ATOM     15  C   UNL     1      58.954  30.871  76.314  1.00  0.00    -0.031 C 
BRANCH  15  16
ATOM     16  C   UNL     1      58.657  29.463  75.872  1.00  0.00     0.027 C 
BRANCH  16  17
ATOM     17  C   UNL     1      57.149  29.166  75.861  1.00  0.00     0.004 C 
BRANCH  17  18
ATOM     18  C   UNL     1      56.596  29.031  74.435  1.00  0.00     0.000 C 
BRANCH  18  19
ATOM     19  C   UNL     1      55.602  30.155  74.123  1.00  0.00    -0.003 C 
ATOM     20  C   UNL     1      56.242  31.229  73.247  1.00  0.00     0.004 C 
ENDBRANCH  18  19
ENDBRANCH  17  18
ENDBRANCH  16  17
ENDBRANCH  15  16
ENDBRANCH  13  14
ENDBRANCH  12  13
ENDBRANCH   1  11
TORSDOF 14
ENDMDL
MODEL 2
REMARK VINA RESULT:    -4.650      2.588      6.929
REMARK INTER + INTRA:         -10.223
REMARK INTER:                  -8.342
REMARK INTRA:                  -1.881
REMARK UNBOUND:                -1.767
REMARK SMILES CCCCCC=CCC=CCCCCCCCC(=O)[O-]
REMARK SMILES IDX 11 1 12 2 13 3 14 4 15 5 16 6 17 7 18 8 19 9 20 10 10 11
REMARK SMILES IDX 9 12 8 13 7 14 6 15 5 16 4 17 3 18 2 19 1 20
REMARK H PARENT
REMARK Flexibility Score: inf
ROOT
ATOM      1  C   UNL     1      57.619  35.694  75.512  1.00  0.00     0.027 C 
ENDROOT
BRANCH   1   2
ATOM      2  C   UNL     1      57.278  34.860  74.263  1.00  0.00     0.004 C 
BRANCH   2   3
ATOM      3  C   UNL     1      58.500  34.447  73.421  1.00  0.00     0.000 C 
BRANCH   3   4
ATOM      4  C   UNL     1      58.491  32.953  73.055  1.00  0.00     0.000 C 
BRANCH   4   5
ATOM      5  C   UNL     1      57.215  32.537  72.307  1.00  0.00     0.000 C 
BRANCH   5   6
ATOM      6  C   UNL     1      56.307  31.621  73.146  1.00  0.00     0.006 C 
BRANCH   6   7
ATOM      7  C   UNL     1      57.048  31.011  74.343  1.00  0.00     0.053 C 
BRANCH   7   8
ATOM      8  C   UNL     1      56.386  29.756  74.823  1.00  0.00     0.041 C 
ATOM      9  O   UNL     1      55.283  29.394  74.334  1.00  0.00    -0.550 OA
ATOM     10  O   UNL     1      57.002  28.970  75.788  1.00  0.00    -0.550 OA
ENDBRANCH   7   8
ENDBRANCH   6   7
ENDBRANCH   5   6
ENDBRANCH   4   5
ENDBRANCH   3   4
ENDBRANCH   2   3
ENDBRANCH   1   2
BRANCH   1  11
ATOM     11  C   UNL     1      58.152  34.858  76.644  1.00  0.00    -0.031 C 
ATOM     12  C   UNL     1      57.619  33.668  76.952  1.00  0.00    -0.027 C 
BRANCH  12  13
ATOM     13  C   UNL     1      58.172  32.845  78.081  1.00  0.00     0.054 C 
BRANCH  13  14
ATOM     14  C   UNL     1      58.826  33.721  79.112  1.00  0.00    -0.027 C 
ATOM     15  C   UNL     1      58.102  34.356  80.045  1.00  0.00    -0.031 C 
BRANCH  15  16
ATOM     16  C   UNL     1      58.742  35.273  81.053  1.00  0.00     0.027 C 
BRANCH  16  17
ATOM     17  C   UNL     1      58.285  36.729  80.884  1.00  0.00     0.004 C 
BRANCH  17  18
ATOM     18  C   UNL     1      58.841  37.365  79.601  1.00  0.00     0.000 C 
BRANCH  18  19
ATOM     19  C   UNL     1      57.707  37.872  78.702  1.00  0.00    -0.003 C 
ATOM     20  C   UNL     1      56.342  37.551  79.304  1.00  0.00     0.004 C 
ENDBRANCH  18  19
ENDBRANCH  17  18
ENDBRANCH  16  17
ENDBRANCH  15  16
ENDBRANCH  13  14
ENDBRANCH  12  13
ENDBRANCH   1  11
TORSDOF 14
ENDMDL
MODEL 3
REMARK VINA RESULT:    -4.538      1.284      2.313
REMARK INTER + INTRA:         -10.019
REMARK INTER:                  -8.315
REMARK INTRA:                  -1.705
REMARK UNBOUND:                -1.767
REMARK SMILES CCCCCC=CCC=CCCCCCCCC(=O)[O-]
REMARK SMILES IDX 11 1 12 2 13 3 14 4 15 5 16 6 17 7 18 8 19 9 20 10 10 11
REMARK SMILES IDX 9 12 8 13 7 14 6 15 5 16 4 17 3 18 2 19 1 20
REMARK H PARENT
REMARK Flexibility Score: inf
ROOT
ATOM      1  C   UNL     1      57.946  33.712  79.534  1.00  0.00     0.027 C 
ENDROOT
BRANCH   1   2
ATOM      2  C   UNL     1      59.089  34.246  80.417  1.00  0.00     0.004 C 
BRANCH   2   3
ATOM      3  C   UNL     1      58.731  35.504  81.230  1.00  0.00     0.000 C 
BRANCH   3   4
ATOM      4  C   UNL     1      58.533  36.747  80.346  1.00  0.00     0.000 C 
BRANCH   4   5
ATOM      5  C   UNL     1      57.063  37.188  80.271  1.00  0.00     0.000 C 
BRANCH   5   6
ATOM      6  C   UNL     1      56.578  37.395  78.826  1.00  0.00     0.006 C 
BRANCH   6   7
ATOM      7  C   UNL     1      57.721  37.797  77.884  1.00  0.00     0.053 C 
BRANCH   7   8
ATOM      8  C   UNL     1      57.223  38.095  76.504  1.00  0.00     0.041 C 
ATOM      9  O   UNL     1      57.622  39.121  75.893  1.00  0.00    -0.550 OA
ATOM     10  O   UNL     1      56.343  37.221  75.878  1.00  0.00    -0.550 OA
ENDBRANCH   7   8
ENDBRANCH   6   7
ENDBRANCH   5   6
ENDBRANCH   4   5
ENDBRANCH   3   4
ENDBRANCH   2   3
ENDBRANCH   1   2
BRANCH   1  11
ATOM     11  C   UNL     1      58.348  33.549  78.093  1.00  0.00    -0.031 C 
ATOM     12  C   UNL     1      57.740  34.230  77.112  1.00  0.00    -0.027 C 
BRANCH  12  13
ATOM     13  C   UNL     1      58.163  34.059  75.680  1.00  0.00     0.054 C 
BRANCH  13  14
ATOM     14  C   UNL     1      57.181  33.204  74.930  1.00  0.00    -0.027 C 
ATOM     15  C   UNL     1      57.510  31.974  74.506  1.00  0.00    -0.031 C 
BRANCH  15  16
ATOM     16  C   UNL     1      56.550  31.128  73.714  1.00  0.00     0.027 C 
BRANCH  16  17
ATOM     17  C   UNL     1      56.109  29.876  74.487  1.00  0.00     0.004 C 
BRANCH  17  18
ATOM     18  C   UNL     1      56.945  29.654  75.757  1.00  0.00     0.000 C 
BRANCH  18  19
ATOM     19  C   UNL     1      57.967  28.531  75.552  1.00  0.00    -0.003 C 
ATOM     20  C   UNL     1      59.388  29.027  75.802  1.00  0.00     0.004 C 
ENDBRANCH  18  19
ENDBRANCH  17  18
ENDBRANCH  16  17
ENDBRANCH  15  16
ENDBRANCH  13  14
ENDBRANCH  12  13
ENDBRANCH   1  11
TORSDOF 14
ENDMDL
MODEL 4
REMARK VINA RESULT:    -4.534      1.876      3.684
REMARK INTER + INTRA:         -10.012
REMARK INTER:                  -7.735
REMARK INTRA:                  -2.277
REMARK UNBOUND:                -1.767
REMARK SMILES CCCCCC=CCC=CCCCCCCCC(=O)[O-]
REMARK SMILES IDX 11 1 12 2 13 3 14 4 15 5 16 6 17 7 18 8 19 9 20 10 10 11
REMARK SMILES IDX 9 12 8 13 7 14 6 15 5 16 4 17 3 18 2 19 1 20
REMARK H PARENT
REMARK Flexibility Score: inf
ROOT
ATOM      1  C   UNL     1      57.269  37.788  78.695  1.00  0.00     0.027 C 
ENDROOT
BRANCH   1   2
ATOM      2  C   UNL     1      57.038  37.575  77.187  1.00  0.00     0.004 C 
BRANCH   2   3
ATOM      3  C   UNL     1      55.988  36.501  76.849  1.00  0.00     0.000 C 
BRANCH   3   4
ATOM      4  C   UNL     1      56.589  35.292  76.112  1.00  0.00     0.000 C 
BRANCH   4   5
ATOM      5  C   UNL     1      58.041  35.535  75.671  1.00  0.00     0.000 C 
BRANCH   5   6
ATOM      6  C   UNL     1      58.459  34.646  74.487  1.00  0.00     0.006 C 
BRANCH   6   7
ATOM      7  C   UNL     1      57.272  33.872  73.898  1.00  0.00     0.053 C 
BRANCH   7   8
ATOM      8  C   UNL     1      56.851  34.430  72.573  1.00  0.00     0.041 C 
ATOM      9  O   UNL     1      57.396  34.027  71.512  1.00  0.00    -0.550 OA
ATOM     10  O   UNL     1      55.833  35.372  72.507  1.00  0.00    -0.550 OA
ENDBRANCH   7   8
ENDBRANCH   6   7
ENDBRANCH   5   6
ENDBRANCH   4   5
ENDBRANCH   3   4
ENDBRANCH   2   3
ENDBRANCH   1   2
BRANCH   1  11
ATOM     11  C   UNL     1      57.394  36.495  79.454  1.00  0.00    -0.031 C 
ATOM     12  C   UNL     1      58.586  35.927  79.684  1.00  0.00    -0.027 C 
BRANCH  12  13
ATOM     13  C   UNL     1      58.690  34.639  80.451  1.00  0.00     0.054 C 
BRANCH  13  14
ATOM     14  C   UNL     1      58.083  33.503  79.677  1.00  0.00    -0.027 C 
ATOM     15  C   UNL     1      58.573  33.133  78.485  1.00  0.00    -0.031 C 
BRANCH  15  16
ATOM     16  C   UNL     1      57.944  32.028  77.680  1.00  0.00     0.027 C 
BRANCH  16  17
ATOM     17  C   UNL     1      58.905  31.461  76.624  1.00  0.00     0.004 C 
BRANCH  17  18
ATOM     18  C   UNL     1      58.377  30.161  75.999  1.00  0.00     0.000 C 
BRANCH  18  19
ATOM     19  C   UNL     1      57.463  30.457  74.804  1.00  0.00    -0.003 C 
ATOM     20  C   UNL     1      56.182  29.630  74.873  1.00  0.00     0.004 C 
ENDBRANCH  18  19
ENDBRANCH  17  18
ENDBRANCH  16  17
ENDBRANCH  15  16
ENDBRANCH  13  14
ENDBRANCH  12  13
ENDBRANCH   1  11
TORSDOF 14
ENDMDL
MODEL 5
REMARK VINA RESULT:    -4.510      2.651      6.577
REMARK INTER + INTRA:          -9.968
REMARK INTER:                  -7.429
REMARK INTRA:                  -2.539
REMARK UNBOUND:                -1.767
REMARK SMILES CCCCCC=CCC=CCCCCCCCC(=O)[O-]
REMARK SMILES IDX 11 1 12 2 13 3 14 4 15 5 16 6 17 7 18 8 19 9 20 10 10 11
REMARK SMILES IDX 9 12 8 13 7 14 6 15 5 16 4 17 3 18 2 19 1 20
REMARK H PARENT
REMARK Flexibility Score: inf
ROOT
ATOM      1  C   UNL     1      56.401  37.279  79.623  1.00  0.00     0.027 C 
ENDROOT
BRANCH   1   2
ATOM      2  C   UNL     1      57.611  37.233  80.574  1.00  0.00     0.004 C 
BRANCH   2   3
ATOM      3  C   UNL     1      58.782  36.366  80.074  1.00  0.00     0.000 C 
BRANCH   3   4
ATOM      4  C   UNL     1      58.754  34.940  80.648  1.00  0.00     0.000 C 
BRANCH   4   5
ATOM      5  C   UNL     1      59.136  33.877  79.606  1.00  0.00     0.000 C 
BRANCH   5   6
ATOM      6  C   UNL     1      57.912  33.277  78.893  1.00  0.00     0.006 C 
BRANCH   6   7
ATOM      7  C   UNL     1      57.987  33.448  77.370  1.00  0.00     0.053 C 
BRANCH   7   8
ATOM      8  C   UNL     1      58.368  32.171  76.688  1.00  0.00     0.041 C 
ATOM      9  O   UNL     1      58.034  31.062  77.184  1.00  0.00    -0.550 OA
ATOM     10  O   UNL     1      59.063  32.204  75.486  1.00  0.00    -0.550 OA
ENDBRANCH   7   8
ENDBRANCH   6   7
ENDBRANCH   5   6
ENDBRANCH   4   5
ENDBRANCH   3   4
ENDBRANCH   2   3
ENDBRANCH   1   2
BRANCH   1  11
ATOM     11  C   UNL     1      56.740  36.832  78.226  1.00  0.00    -0.031 C 
ATOM     12  C   UNL     1      55.788  36.589  77.315  1.00  0.00    -0.027 C 
BRANCH  12  13
ATOM     13  C   UNL     1      56.148  36.152  75.923  1.00  0.00     0.054 C 
BRANCH  13  14
ATOM     14  C   UNL     1      57.066  37.146  75.270  1.00  0.00    -0.027 C 
ATOM     15  C   UNL     1      56.646  38.381  74.957  1.00  0.00    -0.031 C 
BRANCH  15  16
ATOM     16  C   UNL     1      57.543  39.369  74.261  1.00  0.00     0.027 C 
BRANCH  16  17
ATOM     17  C   UNL     1      58.597  39.960  75.208  1.00  0.00     0.004 C 
BRANCH  17  18
ATOM     18  C   UNL     1      57.986  40.426  76.538  1.00  0.00     0.000 C 
BRANCH  18  19
ATOM     19  C   UNL     1      58.730  39.813  77.730  1.00  0.00    -0.003 C 
ATOM     20  C   UNL     1      59.705  38.731  77.273  1.00  0.00     0.004 C 
ENDBRANCH  18  19
ENDBRANCH  17  18
ENDBRANCH  16  17
ENDBRANCH  15  16
ENDBRANCH  13  14
ENDBRANCH  12  13
ENDBRANCH   1  11
TORSDOF 14
ENDMDL
MODEL 6
REMARK VINA RESULT:    -4.488      2.034      5.329
REMARK INTER + INTRA:          -9.929
REMARK INTER:                  -7.672
REMARK INTRA:                  -2.257
REMARK UNBOUND:                -1.767
REMARK SMILES CCCCCC=CCC=CCCCCCCCC(=O)[O-]
REMARK SMILES IDX 11 1 12 2 13 3 14 4 15 5 16 6 17 7 18 8 19 9 20 10 10 11
REMARK SMILES IDX 9 12 8 13 7 14 6 15 5 16 4 17 3 18 2 19 1 20
REMARK H PARENT
REMARK Flexibility Score: inf
ROOT
ATOM      1  C   UNL     1      59.135  35.278  81.119  1.00  0.00     0.027 C 
ENDROOT
BRANCH   1   2
ATOM      2  C   UNL     1      59.167  34.060  80.178  1.00  0.00     0.004 C 
BRANCH   2   3
ATOM      3  C   UNL     1      57.778  33.548  79.752  1.00  0.00     0.000 C 
BRANCH   3   4
ATOM      4  C   UNL     1      57.694  33.240  78.247  1.00  0.00     0.000 C 
BRANCH   4   5
ATOM      5  C   UNL     1      58.912  32.454  77.738  1.00  0.00     0.000 C 
BRANCH   5   6
ATOM      6  C   UNL     1      58.806  32.094  76.246  1.00  0.00     0.006 C 
BRANCH   6   7
ATOM      7  C   UNL     1      58.006  30.805  76.018  1.00  0.00     0.053 C 
BRANCH   7   8
ATOM      8  C   UNL     1      57.158  30.891  74.786  1.00  0.00     0.041 C 
ATOM      9  O   UNL     1      57.363  31.798  73.936  1.00  0.00    -0.550 OA
ATOM     10  O   UNL     1      56.162  29.951  74.560  1.00  0.00    -0.550 OA
ENDBRANCH   7   8
ENDBRANCH   6   7
ENDBRANCH   5   6
ENDBRANCH   4   5
ENDBRANCH   3   4
ENDBRANCH   2   3
ENDBRANCH   1   2
BRANCH   1  11
ATOM     11  C   UNL     1      58.464  36.475  80.502  1.00  0.00    -0.031 C 
ATOM     12  C   UNL     1      58.835  36.950  79.306  1.00  0.00    -0.027 C 
BRANCH  12  13
ATOM     13  C   UNL     1      58.146  38.142  78.703  1.00  0.00     0.054 C 
BRANCH  13  14
ATOM     14  C   UNL     1      57.374  37.750  77.474  1.00  0.00    -0.027 C 
ATOM     15  C   UNL     1      56.517  36.718  77.490  1.00  0.00    -0.031 C 
BRANCH  15  16
ATOM     16  C   UNL     1      55.775  36.288  76.254  1.00  0.00     0.027 C 
BRANCH  16  17
ATOM     17  C   UNL     1      56.508  35.169  75.498  1.00  0.00     0.004 C 
BRANCH  17  18
ATOM     18  C   UNL     1      57.251  35.696  74.261  1.00  0.00     0.000 C 
BRANCH  18  19
ATOM     19  C   UNL     1      58.706  35.215  74.248  1.00  0.00    -0.003 C 
ATOM     20  C   UNL     1      59.604  36.155  75.047  1.00  0.00     0.004 C 
ENDBRANCH  18  19
ENDBRANCH  17  18
ENDBRANCH  16  17
ENDBRANCH  15  16
ENDBRANCH  13  14
ENDBRANCH  12  13
ENDBRANCH   1  11
TORSDOF 14
ENDMDL
MODEL 7
REMARK VINA RESULT:    -4.470      2.109      5.683
REMARK INTER + INTRA:          -9.896
REMARK INTER:                  -8.168
REMARK INTRA:                  -1.728
REMARK UNBOUND:                -1.767
REMARK SMILES CCCCCC=CCC=CCCCCCCCC(=O)[O-]
REMARK SMILES IDX 11 1 12 2 13 3 14 4 15 5 16 6 17 7 18 8 19 9 20 10 10 11
REMARK SMILES IDX 9 12 8 13 7 14 6 15 5 16 4 17 3 18 2 19 1 20
REMARK H PARENT
REMARK Flexibility Score: inf
ROOT
ATOM      1  C   UNL     1      58.800  35.348  81.064  1.00  0.00     0.027 C 
ENDROOT
BRANCH   1   2
ATOM      2  C   UNL     1      58.388  33.951  80.564  1.00  0.00     0.004 C 
BRANCH   2   3
ATOM      3  C   UNL     1      58.883  33.611  79.145  1.00  0.00     0.000 C 
BRANCH   3   4
ATOM      4  C   UNL     1      57.840  32.836  78.322  1.00  0.00     0.000 C 
BRANCH   4   5
ATOM      5  C   UNL     1      58.318  32.546  76.890  1.00  0.00     0.000 C 
BRANCH   5   6
ATOM      6  C   UNL     1      58.958  31.154  76.747  1.00  0.00     0.006 C 
BRANCH   6   7
ATOM      7  C   UNL     1      58.702  30.539  75.365  1.00  0.00     0.053 C 
BRANCH   7   8
ATOM      8  C   UNL     1      57.258  30.192  75.172  1.00  0.00     0.041 C 
ATOM      9  O   UNL     1      56.693  29.376  75.948  1.00  0.00    -0.550 OA
ATOM     10  O   UNL     1      56.527  30.793  74.157  1.00  0.00    -0.550 OA
ENDBRANCH   7   8
ENDBRANCH   6   7
ENDBRANCH   5   6
ENDBRANCH   4   5
ENDBRANCH   3   4
ENDBRANCH   2   3
ENDBRANCH   1   2
BRANCH   1  11
ATOM     11  C   UNL     1      58.499  36.436  80.069  1.00  0.00    -0.031 C 
ATOM     12  C   UNL     1      57.241  36.792  79.776  1.00  0.00    -0.027 C 
BRANCH  12  13
ATOM     13  C   UNL     1      56.961  37.888  78.786  1.00  0.00     0.054 C 
BRANCH  13  14
ATOM     14  C   UNL     1      56.906  37.344  77.386  1.00  0.00    -0.027 C 
ATOM     15  C   UNL     1      56.416  36.121  77.134  1.00  0.00    -0.031 C 
BRANCH  15  16
ATOM     16  C   UNL     1      56.399  35.548  75.743  1.00  0.00     0.027 C 
BRANCH  16  17
ATOM     17  C   UNL     1      57.064  36.484  74.723  1.00  0.00     0.004 C 
BRANCH  17  18
ATOM     18  C   UNL     1      56.452  36.343  73.321  1.00  0.00     0.000 C 
BRANCH  18  19
ATOM     19  C   UNL     1      54.974  36.749  73.323  1.00  0.00    -0.003 C 
ATOM     20  C   UNL     1      54.807  38.218  73.702  1.00  0.00     0.004 C 
ENDBRANCH  18  19
ENDBRANCH  17  18
ENDBRANCH  16  17
ENDBRANCH  15  16
ENDBRANCH  13  14
ENDBRANCH  12  13
ENDBRANCH   1  11
TORSDOF 14
ENDMDL
MODEL 8
REMARK VINA RESULT:    -4.467      1.477      2.642
REMARK INTER + INTRA:          -9.890
REMARK INTER:                  -7.841
REMARK INTRA:                  -2.048
REMARK UNBOUND:                -1.767
REMARK SMILES CCCCCC=CCC=CCCCCCCCC(=O)[O-]
REMARK SMILES IDX 11 1 12 2 13 3 14 4 15 5 16 6 17 7 18 8 19 9 20 10 10 11
REMARK SMILES IDX 9 12 8 13 7 14 6 15 5 16 4 17 3 18 2 19 1 20
REMARK H PARENT
REMARK Flexibility Score: inf
ROOT
ATOM      1  C   UNL     1      57.856  37.171  80.404  1.00  0.00     0.027 C 
ENDROOT
BRANCH   1   2
ATOM      2  C   UNL     1      56.834  37.603  79.334  1.00  0.00     0.004 C 
BRANCH   2   3
ATOM      3  C   UNL     1      57.450  38.323  78.120  1.00  0.00     0.000 C 
BRANCH   3   4
ATOM      4  C   UNL     1      56.968  37.744  76.779  1.00  0.00     0.000 C 
BRANCH   4   5
ATOM      5  C   UNL     1      56.174  36.440  76.951  1.00  0.00     0.000 C 
BRANCH   5   6
ATOM      6  C   UNL     1      56.428  35.435  75.815  1.00  0.00     0.006 C 
BRANCH   6   7
ATOM      7  C   UNL     1      56.963  36.117  74.549  1.00  0.00     0.053 C 
BRANCH   7   8
ATOM      8  C   UNL     1      55.914  36.209  73.484  1.00  0.00     0.041 C 
ATOM      9  O   UNL     1      54.959  37.022  73.602  1.00  0.00    -0.550 OA
ATOM     10  O   UNL     1      56.008  35.420  72.345  1.00  0.00    -0.550 OA
ENDBRANCH   7   8
ENDBRANCH   6   7
ENDBRANCH   5   6
ENDBRANCH   4   5
ENDBRANCH   3   4
ENDBRANCH   2   3
ENDBRANCH   1   2
BRANCH   1  11
ATOM     11  C   UNL     1      58.513  35.856  80.085  1.00  0.00    -0.031 C 
ATOM     12  C   UNL     1      57.809  34.808  79.636  1.00  0.00    -0.027 C 
BRANCH  12  13
ATOM     13  C   UNL     1      58.487  33.505  79.316  1.00  0.00     0.054 C 
BRANCH  13  14
ATOM     14  C   UNL     1      57.990  32.949  78.011  1.00  0.00    -0.027 C 
ATOM     15  C   UNL     1      58.655  31.977  77.371  1.00  0.00    -0.031 C 
BRANCH  15  16
ATOM     16  C   UNL     1      58.191  31.446  76.041  1.00  0.00     0.027 C 
BRANCH  16  17
ATOM     17  C   UNL     1      59.123  31.865  74.893  1.00  0.00     0.004 C 
BRANCH  17  18
ATOM     18  C   UNL     1      58.343  32.281  73.637  1.00  0.00     0.000 C 
BRANCH  18  19
ATOM     19  C   UNL     1      56.838  32.345  73.921  1.00  0.00    -0.003 C 
ATOM     20  C   UNL     1      56.083  31.276  73.135  1.00  0.00     0.004 C 
ENDBRANCH  18  19
ENDBRANCH  17  18
ENDBRANCH  16  17
ENDBRANCH  15  16
ENDBRANCH  13  14
ENDBRANCH  12  13
ENDBRANCH   1  11
TORSDOF 14
ENDMDL
MODEL 9
REMARK VINA RESULT:    -4.453      1.279      2.308
REMARK INTER + INTRA:          -9.864
REMARK INTER:                  -7.879
REMARK INTRA:                  -1.985
REMARK UNBOUND:                -1.767
REMARK SMILES CCCCCC=CCC=CCCCCCCCC(=O)[O-]
REMARK SMILES IDX 11 1 12 2 13 3 14 4 15 5 16 6 17 7 18 8 19 9 20 10 10 11
REMARK SMILES IDX 9 12 8 13 7 14 6 15 5 16 4 17 3 18 2 19 1 20
REMARK H PARENT
REMARK Flexibility Score: inf
ROOT
ATOM      1  C   UNL     1      58.537  34.242  80.720  1.00  0.00     0.027 C 
ENDROOT
BRANCH   1   2
ATOM      2  C   UNL     1      59.098  35.661  80.923  1.00  0.00     0.004 C 
BRANCH   2   3
ATOM      3  C   UNL     1      58.064  36.787  80.740  1.00  0.00     0.000 C 
BRANCH   3   4
ATOM      4  C   UNL     1      58.379  37.694  79.537  1.00  0.00     0.000 C 
BRANCH   4   5
ATOM      5  C   UNL     1      59.518  37.141  78.666  1.00  0.00     0.000 C 
BRANCH   5   6
ATOM      6  C   UNL     1      59.065  36.818  77.231  1.00  0.00     0.006 C 
BRANCH   6   7
ATOM      7  C   UNL     1      57.548  36.968  77.056  1.00  0.00     0.053 C 
BRANCH   7   8
ATOM      8  C   UNL     1      57.081  36.389  75.756  1.00  0.00     0.041 C 
ATOM      9  O   UNL     1      56.140  35.553  75.736  1.00  0.00    -0.550 OA
ATOM     10  O   UNL     1      57.664  36.797  74.564  1.00  0.00    -0.550 OA
ENDBRANCH   7   8
ENDBRANCH   6   7
ENDBRANCH   5   6
ENDBRANCH   4   5
ENDBRANCH   3   4
ENDBRANCH   2   3
ENDBRANCH   1   2
BRANCH   1  11
ATOM     11  C   UNL     1      58.839  33.684  79.355  1.00  0.00    -0.031 C 
ATOM     12  C   UNL     1      57.882  33.534  78.430  1.00  0.00    -0.027 C 
BRANCH  12  13
ATOM     13  C   UNL     1      58.206  32.983  77.069  1.00  0.00     0.054 C 
BRANCH  13  14
ATOM     14  C   UNL     1      58.019  31.492  77.037  1.00  0.00    -0.027 C 
ATOM     15  C   UNL     1      57.708  30.854  75.899  1.00  0.00    -0.031 C 
BRANCH  15  16
ATOM     16  C   UNL     1      57.473  29.368  75.864  1.00  0.00     0.027 C 
BRANCH  16  17
ATOM     17  C   UNL     1      58.607  28.619  75.148  1.00  0.00     0.004 C 
BRANCH  17  18
ATOM     18  C   UNL     1      59.882  28.546  76.003  1.00  0.00     0.000 C 
BRANCH  18  19
ATOM     19  C   UNL     1      61.027  29.326  75.349  1.00  0.00    -0.003 C 
ATOM     20  C   UNL     1      61.524  30.444  76.261  1.00  0.00     0.004 C 
ENDBRANCH  18  19
ENDBRANCH  17  18
ENDBRANCH  16  17
ENDBRANCH  15  16
ENDBRANCH  13  14
ENDBRANCH  12  13
ENDBRANCH   1  11
TORSDOF 14
ENDMDL
