MODEL 1
REMARK VINA RESULT:    -4.154      0.000      0.000
REMARK INTER + INTRA:          -6.085
REMARK INTER:                  -5.612
REMARK INTRA:                  -0.474
REMARK UNBOUND:                -0.474
REMARK SMILES CCCCCCCC(=O)[O-]
REMARK SMILES IDX 5 1 6 2 7 3 8 4 9 5 10 6 4 7 3 8 2 9 1 10
REMARK H PARENT
REMARK Flexibility Score: inf
ROOT
ATOM      1  C   UNL     1     107.617 -83.742  23.378  1.00  0.00     0.000 C 
ENDROOT
BRANCH   1   2
ATOM      2  C   UNL     1     108.397 -82.495  22.938  1.00  0.00     0.006 C 
BRANCH   2   3
ATOM      3  C   UNL     1     109.847 -82.510  23.437  1.00  0.00     0.053 C 
BRANCH   3   4
ATOM      4  C   UNL     1     110.165 -81.298  24.258  1.00  0.00     0.041 C 
ATOM      5  O   UNL     1     110.447 -80.209  23.693  1.00  0.00    -0.550 OA
ATOM      6  O   UNL     1     110.182 -81.379  25.644  1.00  0.00    -0.550 OA
ENDBRANCH   3   4
ENDBRANCH   2   3
ENDBRANCH   1   2
BRANCH   1   7
ATOM      7  C   UNL     1     106.349 -83.355  24.154  1.00  0.00     0.000 C 
BRANCH   7   8
ATOM      8  C   UNL     1     106.266 -81.836  24.418  1.00  0.00    -0.000 C 
BRANCH   8   9
ATOM      9  C   UNL     1     106.575 -81.447  25.873  1.00  0.00    -0.003 C 
ATOM     10  C   UNL     1     107.161 -82.597  26.690  1.00  0.00     0.004 C 
ENDBRANCH   8   9
ENDBRANCH   7   8
ENDBRANCH   1   7
TORSDOF 6
ENDMDL
MODEL 2
REMARK VINA RESULT:    -4.083      6.920      9.269
REMARK INTER + INTRA:          -5.989
REMARK INTER:                  -5.719
REMARK INTRA:                  -0.270
REMARK UNBOUND:                -0.474
REMARK SMILES CCCCCCCC(=O)[O-]
REMARK SMILES IDX 5 1 6 2 7 3 8 4 9 5 10 6 4 7 3 8 2 9 1 10
REMARK H PARENT
REMARK Flexibility Score: inf
ROOT
ATOM      1  C   UNL     1     116.184 -83.028  21.604  1.00  0.00     0.000 C 
ENDROOT
BRANCH   1   2
ATOM      2  C   UNL     1     115.239 -82.814  20.414  1.00  0.00     0.006 C 
BRANCH   2   3
ATOM      3  C   UNL     1     114.054 -83.789  20.430  1.00  0.00     0.053 C 
BRANCH   3   4
ATOM      4  C   UNL     1     112.874 -83.217  21.155  1.00  0.00     0.041 C 
ATOM      5  O   UNL     1     112.245 -82.241  20.669  1.00  0.00    -0.550 OA
ATOM      6  O   UNL     1     112.491 -83.741  22.384  1.00  0.00    -0.550 OA
ENDBRANCH   3   4
ENDBRANCH   2   3
ENDBRANCH   1   2
BRANCH   1   7
ATOM      7  C   UNL     1     117.602 -83.379  21.128  1.00  0.00     0.000 C 
BRANCH   7   8
ATOM      8  C   UNL     1     118.680 -82.978  22.157  1.00  0.00    -0.000 C 
BRANCH   8   9
ATOM      9  C   UNL     1     118.866 -81.458  22.293  1.00  0.00    -0.003 C 
ATOM     10  C   UNL     1     119.226 -80.777  20.975  1.00  0.00     0.004 C 
ENDBRANCH   8   9
ENDBRANCH   7   8
ENDBRANCH   1   7
TORSDOF 6
ENDMDL
MODEL 3
REMARK VINA RESULT:    -4.046      5.925      8.162
REMARK INTER + INTRA:          -5.939
REMARK INTER:                  -5.582
REMARK INTRA:                  -0.357
REMARK UNBOUND:                -0.474
REMARK SMILES CCCCCCCC(=O)[O-]
REMARK SMILES IDX 5 1 6 2 7 3 8 4 9 5 10 6 4 7 3 8 2 9 1 10
REMARK H PARENT
REMARK Flexibility Score: inf
ROOT
ATOM      1  C   UNL     1     116.195 -83.397  21.251  1.00  0.00     0.000 C 
ENDROOT
BRANCH   1   2
ATOM      2  C   UNL     1     115.099 -83.149  20.204  1.00  0.00     0.006 C 
BRANCH   2   3
ATOM      3  C   UNL     1     113.804 -83.906  20.528  1.00  0.00     0.053 C 
BRANCH   3   4
ATOM      4  C   UNL     1     112.849 -83.062  21.315  1.00  0.00     0.041 C 
ATOM      5  O   UNL     1     112.673 -81.854  21.009  1.00  0.00    -0.550 OA
ATOM      6  O   UNL     1     112.179 -83.601  22.406  1.00  0.00    -0.550 OA
ENDBRANCH   3   4
ENDBRANCH   2   3
ENDBRANCH   1   2
BRANCH   1   7
ATOM      7  C   UNL     1     116.935 -82.095  21.593  1.00  0.00     0.000 C 
BRANCH   7   8
ATOM      8  C   UNL     1     115.966 -80.920  21.845  1.00  0.00    -0.000 C 
BRANCH   8   9
ATOM      9  C   UNL     1     116.265 -79.680  20.986  1.00  0.00    -0.003 C 
ATOM     10  C   UNL     1     115.371 -78.488  21.322  1.00  0.00     0.004 C 
ENDBRANCH   8   9
ENDBRANCH   7   8
ENDBRANCH   1   7
TORSDOF 6
ENDMDL
MODEL 4
REMARK VINA RESULT:    -4.036      8.244      9.961
REMARK INTER + INTRA:          -5.926
REMARK INTER:                  -5.719
REMARK INTRA:                  -0.207
REMARK UNBOUND:                -0.474
REMARK SMILES CCCCCCCC(=O)[O-]
REMARK SMILES IDX 5 1 6 2 7 3 8 4 9 5 10 6 4 7 3 8 2 9 1 10
REMARK H PARENT
REMARK Flexibility Score: inf
ROOT
ATOM      1  C   UNL     1     118.161 -83.181  21.245  1.00  0.00     0.000 C 
ENDROOT
BRANCH   1   2
ATOM      2  C   UNL     1     118.824 -82.386  22.378  1.00  0.00     0.006 C 
BRANCH   2   3
ATOM      3  C   UNL     1     119.488 -83.298  23.418  1.00  0.00     0.053 C 
BRANCH   3   4
ATOM      4  C   UNL     1     119.652 -82.609  24.738  1.00  0.00     0.041 C 
ATOM      5  O   UNL     1     119.846 -81.366  24.782  1.00  0.00    -0.550 OA
ATOM      6  O   UNL     1     119.625 -83.344  25.916  1.00  0.00    -0.550 OA
ENDBRANCH   3   4
ENDBRANCH   2   3
ENDBRANCH   1   2
BRANCH   1   7
ATOM      7  C   UNL     1     116.669 -83.413  21.532  1.00  0.00     0.000 C 
BRANCH   7   8
ATOM      8  C   UNL     1     115.834 -82.126  21.360  1.00  0.00    -0.000 C 
BRANCH   8   9
ATOM      9  C   UNL     1     114.467 -82.363  20.698  1.00  0.00    -0.003 C 
ATOM     10  C   UNL     1     114.263 -83.807  20.245  1.00  0.00     0.004 C 
ENDBRANCH   8   9
ENDBRANCH   7   8
ENDBRANCH   1   7
TORSDOF 6
ENDMDL
MODEL 5
REMARK VINA RESULT:    -4.029      8.419      9.517
REMARK INTER + INTRA:          -5.916
REMARK INTER:                  -5.389
REMARK INTRA:                  -0.527
REMARK UNBOUND:                -0.474
REMARK SMILES CCCCCCCC(=O)[O-]
REMARK SMILES IDX 5 1 6 2 7 3 8 4 9 5 10 6 4 7 3 8 2 9 1 10
REMARK H PARENT
REMARK Flexibility Score: inf
ROOT
ATOM      1  C   UNL     1     116.027 -83.459  20.910  1.00  0.00     0.000 C 
ENDROOT
BRANCH   1   2
ATOM      2  C   UNL     1     116.998 -83.027  22.018  1.00  0.00     0.006 C 
BRANCH   2   3
ATOM      3  C   UNL     1     118.447 -82.936  21.519  1.00  0.00     0.053 C 
BRANCH   3   4
ATOM      4  C   UNL     1     119.021 -81.568  21.728  1.00  0.00     0.041 C 
ATOM      5  O   UNL     1     119.373 -80.872  20.739  1.00  0.00    -0.550 OA
ATOM      6  O   UNL     1     119.198 -81.075  23.015  1.00  0.00    -0.550 OA
ENDBRANCH   3   4
ENDBRANCH   2   3
ENDBRANCH   1   2
BRANCH   1   7
ATOM      7  C   UNL     1     114.970 -82.376  20.650  1.00  0.00     0.000 C 
BRANCH   7   8
ATOM      8  C   UNL     1     115.204 -81.112  21.506  1.00  0.00    -0.000 C 
BRANCH   8   9
ATOM      9  C   UNL     1     115.639 -79.886  20.686  1.00  0.00    -0.003 C 
ATOM     10  C   UNL     1     116.390 -78.846  21.514  1.00  0.00     0.004 C 
ENDBRANCH   8   9
ENDBRANCH   7   8
ENDBRANCH   1   7
TORSDOF 6
ENDMDL
MODEL 6
REMARK VINA RESULT:    -4.009      7.239      8.854
REMARK INTER + INTRA:          -5.888
REMARK INTER:                  -5.663
REMARK INTRA:                  -0.225
REMARK UNBOUND:                -0.474
REMARK SMILES CCCCCCCC(=O)[O-]
REMARK SMILES IDX 5 1 6 2 7 3 8 4 9 5 10 6 4 7 3 8 2 9 1 10
REMARK H PARENT
REMARK Flexibility Score: inf
ROOT
ATOM      1  C   UNL     1     115.924 -82.614  21.541  1.00  0.00     0.000 C 
ENDROOT
BRANCH   1   2
ATOM      2  C   UNL     1     117.235 -83.410  21.484  1.00  0.00     0.006 C 
BRANCH   2   3
ATOM      3  C   UNL     1     118.470 -82.499  21.495  1.00  0.00     0.053 C 
BRANCH   3   4
ATOM      4  C   UNL     1     119.159 -82.514  22.825  1.00  0.00     0.041 C 
ATOM      5  O   UNL     1     119.659 -83.583  23.266  1.00  0.00    -0.550 OA
ATOM      6  O   UNL     1     119.221 -81.358  23.592  1.00  0.00    -0.550 OA
ENDBRANCH   3   4
ENDBRANCH   2   3
ENDBRANCH   1   2
BRANCH   1   7
ATOM      7  C   UNL     1     115.060 -82.883  20.299  1.00  0.00     0.000 C 
BRANCH   7   8
ATOM      8  C   UNL     1     113.930 -83.895  20.582  1.00  0.00    -0.000 C 
BRANCH   8   9
ATOM      9  C   UNL     1     112.963 -83.445  21.689  1.00  0.00    -0.003 C 
ATOM     10  C   UNL     1     112.027 -82.322  21.248  1.00  0.00     0.004 C 
ENDBRANCH   8   9
ENDBRANCH   7   8
ENDBRANCH   1   7
TORSDOF 6
ENDMDL
MODEL 7
REMARK VINA RESULT:    -3.979      8.085      9.332
REMARK INTER + INTRA:          -5.848
REMARK INTER:                  -5.463
REMARK INTRA:                  -0.385
REMARK UNBOUND:                -0.474
REMARK SMILES CCCCCCCC(=O)[O-]
REMARK SMILES IDX 5 1 6 2 7 3 8 4 9 5 10 6 4 7 3 8 2 9 1 10
REMARK H PARENT
REMARK Flexibility Score: inf
ROOT
ATOM      1  C   UNL     1     115.057 -81.547  20.704  1.00  0.00     0.000 C 
ENDROOT
BRANCH   1   2
ATOM      2  C   UNL     1     115.471 -80.113  20.347  1.00  0.00     0.006 C 
BRANCH   2   3
ATOM      3  C   UNL     1     116.553 -79.568  21.289  1.00  0.00     0.053 C 
BRANCH   3   4
ATOM      4  C   UNL     1     116.171 -78.238  21.863  1.00  0.00     0.041 C 
ATOM      5  O   UNL     1     115.030 -77.756  21.636  1.00  0.00    -0.550 OA
ATOM      6  O   UNL     1     117.085 -77.517  22.621  1.00  0.00    -0.550 OA
ENDBRANCH   3   4
ENDBRANCH   2   3
ENDBRANCH   1   2
BRANCH   1   7
ATOM      7  C   UNL     1     115.894 -82.088  21.873  1.00  0.00     0.000 C 
BRANCH   7   8
ATOM      8  C   UNL     1     116.698 -83.347  21.482  1.00  0.00    -0.000 C 
BRANCH   8   9
ATOM      9  C   UNL     1     118.214 -83.108  21.399  1.00  0.00    -0.003 C 
ATOM     10  C   UNL     1     118.877 -82.984  22.769  1.00  0.00     0.004 C 
ENDBRANCH   8   9
ENDBRANCH   7   8
ENDBRANCH   1   7
TORSDOF 6
ENDMDL
MODEL 8
REMARK VINA RESULT:    -3.972      3.356      4.693
REMARK INTER + INTRA:          -5.839
REMARK INTER:                  -5.636
REMARK INTRA:                  -0.203
REMARK UNBOUND:                -0.474
REMARK SMILES CCCCCCCC(=O)[O-]
REMARK SMILES IDX 5 1 6 2 7 3 8 4 9 5 10 6 4 7 3 8 2 9 1 10
REMARK H PARENT
REMARK Flexibility Score: inf
ROOT
ATOM      1  C   UNL     1     106.004 -81.483  22.266  1.00  0.00     0.000 C 
ENDROOT
BRANCH   1   2
ATOM      2  C   UNL     1     105.448 -82.101  23.557  1.00  0.00     0.006 C 
BRANCH   2   3
ATOM      3  C   UNL     1     106.468 -83.013  24.251  1.00  0.00     0.053 C 
BRANCH   3   4
ATOM      4  C   UNL     1     107.364 -82.244  25.173  1.00  0.00     0.041 C 
ATOM      5  O   UNL     1     108.574 -82.065  24.875  1.00  0.00    -0.550 OA
ATOM      6  O   UNL     1     106.871 -81.752  26.375  1.00  0.00    -0.550 OA
ENDBRANCH   3   4
ENDBRANCH   2   3
ENDBRANCH   1   2
BRANCH   1   7
ATOM      7  C   UNL     1     104.940 -81.468  21.158  1.00  0.00     0.000 C 
BRANCH   7   8
ATOM      8  C   UNL     1     105.402 -80.680  19.914  1.00  0.00    -0.000 C 
BRANCH   8   9
ATOM      9  C   UNL     1     105.212 -81.446  18.594  1.00  0.00    -0.003 C 
ATOM     10  C   UNL     1     106.101 -82.684  18.487  1.00  0.00     0.004 C 
ENDBRANCH   8   9
ENDBRANCH   7   8
ENDBRANCH   1   7
TORSDOF 6
ENDMDL
MODEL 9
REMARK VINA RESULT:    -3.959      8.590      9.424
REMARK INTER + INTRA:          -5.821
REMARK INTER:                  -5.478
REMARK INTRA:                  -0.343
REMARK UNBOUND:                -0.474
REMARK SMILES CCCCCCCC(=O)[O-]
REMARK SMILES IDX 5 1 6 2 7 3 8 4 9 5 10 6 4 7 3 8 2 9 1 10
REMARK H PARENT
REMARK Flexibility Score: inf
ROOT
ATOM      1  C   UNL     1     115.024 -81.687  20.647  1.00  0.00     0.000 C 
ENDROOT
BRANCH   1   2
ATOM      2  C   UNL     1     115.925 -82.016  21.846  1.00  0.00     0.006 C 
BRANCH   2   3
ATOM      3  C   UNL     1     116.901 -83.160  21.543  1.00  0.00     0.053 C 
BRANCH   3   4
ATOM      4  C   UNL     1     118.319 -82.769  21.824  1.00  0.00     0.041 C 
ATOM      5  O   UNL     1     118.970 -83.355  22.728  1.00  0.00    -0.550 OA
ATOM      6  O   UNL     1     118.912 -81.735  21.109  1.00  0.00    -0.550 OA
ENDBRANCH   3   4
ENDBRANCH   2   3
ENDBRANCH   1   2
BRANCH   1   7
ATOM      7  C   UNL     1     115.217 -80.231  20.195  1.00  0.00     0.000 C 
BRANCH   7   8
ATOM      8  C   UNL     1     116.168 -79.451  21.127  1.00  0.00    -0.000 C 
BRANCH   8   9
ATOM      9  C   UNL     1     115.490 -78.281  21.859  1.00  0.00    -0.003 C 
ATOM     10  C   UNL     1     116.478 -77.390  22.609  1.00  0.00     0.004 C 
ENDBRANCH   8   9
ENDBRANCH   7   8
ENDBRANCH   1   7
TORSDOF 6
ENDMDL
