MODEL 1
REMARK VINA RESULT:    -6.615      0.000      0.000
REMARK INTER + INTRA:         -10.761
REMARK INTER:                  -8.935
REMARK INTRA:                  -1.825
REMARK UNBOUND:                -1.825
REMARK SMILES CC[C@H](CC[C@@H](C)[C@@H]1CC[C@H]2[C@H]3CC(=O)C4=CC(=O)CC[C@]4(C)[C@@H]3CC[C@]21C)C(C)C
REMARK SMILES IDX 4 1 3 2 2 3 1 4 29 5 30 6 31 7 5 8 6 9 7 10 8 11 9 12 27 13
REMARK SMILES IDX 10 14 11 15 26 16 28 17 12 18 25 19 24 20 13 21 22 22 14 23
REMARK SMILES IDX 16 24 21 25 23 26 15 27 17 28 20 29 18 30 19 31
REMARK H PARENT
REMARK Flexibility Score: inf
ROOT
ATOM      1  C   UNL     1      20.125  42.454  20.622  1.00  0.00     0.004 C 
ENDROOT
BRANCH   1   2
ATOM      2  C   UNL     1      18.668  42.210  20.126  1.00  0.00    -0.009 C 
BRANCH   2   3
ATOM      3  C   UNL     1      18.074  40.880  20.679  1.00  0.00     0.000 C 
ATOM      4  C   UNL     1      16.933  41.067  21.684  1.00  0.00     0.004 C 
ENDBRANCH   2   3
BRANCH   2   5
ATOM      5  C   UNL     1      17.751  43.453  20.401  1.00  0.00    -0.014 C 
ATOM      6  C   UNL     1      17.093  43.987  19.115  1.00  0.00     0.007 C 
ATOM      7  C   UNL     1      18.526  44.607  21.069  1.00  0.00     0.007 C 
ENDBRANCH   2   5
ENDBRANCH   1   2
BRANCH   1   8
ATOM      8  C   UNL     1      20.727  41.272  21.417  1.00  0.00     0.004 C 
BRANCH   8   9
ATOM      9  C   UNL     1      21.785  41.682  22.482  1.00  0.00    -0.011 C 
ATOM     10  C   UNL     1      21.898  43.235  22.477  1.00  0.00     0.008 C 
BRANCH   9  11
ATOM     11  C   UNL     1      21.511  41.194  23.969  1.00  0.00    -0.002 C 
ATOM     12  C   UNL     1      21.704  39.651  24.027  1.00  0.00     0.005 C 
ATOM     13  C   UNL     1      20.123  41.389  24.703  1.00  0.00    -0.026 C 
ATOM     14  C   UNL     1      20.328  39.003  24.151  1.00  0.00     0.005 C 
ATOM     15  C   UNL     1      19.316  40.145  24.279  1.00  0.00    -0.001 C 
ATOM     16  C   UNL     1      20.388  41.372  26.251  1.00  0.00     0.007 C 
ATOM     17  C   UNL     1      19.339  42.685  24.376  1.00  0.00     0.012 C 
ATOM     18  C   UNL     1      18.100  39.851  25.199  1.00  0.00     0.004 C 
ATOM     19  C   UNL     1      19.153  41.076  27.126  1.00  0.00     0.005 C 
ATOM     20  C   UNL     1      18.480  39.749  26.712  1.00  0.00     0.003 C 
ATOM     21  C   UNL     1      17.294  38.626  24.720  1.00  0.00     0.085 C 
ATOM     22  C   UNL     1      17.273  39.226  27.634  1.00  0.00    -0.000 C 
ATOM     23  C   UNL     1      16.014  38.548  25.497  1.00  0.00     0.159 C 
ATOM     24  C   UNL     1      15.963  39.189  26.826  1.00  0.00     0.005 C 
ATOM     25  C   UNL     1      17.080  39.980  29.002  1.00  0.00     0.020 C 
ATOM     26  C   UNL     1      17.580  37.750  28.020  1.00  0.00     0.017 C 
ATOM     27  O   UNL     1      15.005  37.970  25.009  1.00  0.00    -0.295 OA
ATOM     28  C   UNL     1      14.850  39.847  27.191  1.00  0.00     0.055 C 
ATOM     29  C   UNL     1      16.156  41.195  28.922  1.00  0.00     0.081 C 
ATOM     30  C   UNL     1      14.855  40.783  28.319  1.00  0.00     0.156 C 
ATOM     31  O   UNL     1      13.777  41.298  28.718  1.00  0.00    -0.295 OA
ENDBRANCH   9  11
ENDBRANCH   8   9
ENDBRANCH   1   8
TORSDOF 6
ENDMDL
MODEL 2
REMARK VINA RESULT:    -6.469      3.283      6.774
REMARK INTER + INTRA:         -10.563
REMARK INTER:                  -9.216
REMARK INTRA:                  -1.347
REMARK UNBOUND:                -1.825
REMARK SMILES CC[C@H](CC[C@@H](C)[C@@H]1CC[C@H]2[C@H]3CC(=O)C4=CC(=O)CC[C@]4(C)[C@@H]3CC[C@]21C)C(C)C
REMARK SMILES IDX 4 1 3 2 2 3 1 4 29 5 30 6 31 7 5 8 6 9 7 10 8 11 9 12 27 13
REMARK SMILES IDX 10 14 11 15 26 16 28 17 12 18 25 19 24 20 13 21 22 22 14 23
REMARK SMILES IDX 16 24 21 25 23 26 15 27 17 28 20 29 18 30 19 31
REMARK H PARENT
REMARK Flexibility Score: inf
ROOT
ATOM      1  C   UNL     1      14.031  44.732  20.899  1.00  0.00     0.004 C 
ENDROOT
BRANCH   1   2
ATOM      2  C   UNL     1      12.587  45.005  20.379  1.00  0.00    -0.009 C 
BRANCH   2   3
ATOM      3  C   UNL     1      12.437  46.436  19.782  1.00  0.00     0.000 C 
ATOM      4  C   UNL     1      11.947  46.469  18.332  1.00  0.00     0.004 C 
ENDBRANCH   2   3
BRANCH   2   5
ATOM      5  C   UNL     1      12.108  43.878  19.397  1.00  0.00    -0.014 C 
ATOM      6  C   UNL     1      10.826  43.182  19.891  1.00  0.00     0.007 C 
ATOM      7  C   UNL     1      13.193  42.805  19.175  1.00  0.00     0.007 C 
ENDBRANCH   2   5
ENDBRANCH   1   2
BRANCH   1   8
ATOM      8  C   UNL     1      15.081  45.759  20.413  1.00  0.00     0.004 C 
BRANCH   8   9
ATOM      9  C   UNL     1      15.689  45.447  19.015  1.00  0.00    -0.011 C 
ATOM     10  C   UNL     1      15.804  46.787  18.230  1.00  0.00     0.008 C 
BRANCH   9  11
ATOM     11  C   UNL     1      17.106  44.730  19.010  1.00  0.00    -0.002 C 
ATOM     12  C   UNL     1      16.916  43.262  18.526  1.00  0.00     0.005 C 
ATOM     13  C   UNL     1      17.989  44.545  20.310  1.00  0.00    -0.026 C 
ATOM     14  C   UNL     1      17.073  42.339  19.731  1.00  0.00     0.005 C 
ATOM     15  C   UNL     1      17.463  43.228  20.916  1.00  0.00    -0.001 C 
ATOM     16  C   UNL     1      19.486  44.386  19.859  1.00  0.00     0.007 C 
ATOM     17  C   UNL     1      17.934  45.687  21.355  1.00  0.00     0.012 C 
ATOM     18  C   UNL     1      18.441  42.580  21.934  1.00  0.00     0.004 C 
ATOM     19  C   UNL     1      20.420  43.738  20.901  1.00  0.00     0.005 C 
ATOM     20  C   UNL     1      19.880  42.366  21.360  1.00  0.00     0.003 C 
ATOM     21  C   UNL     1      17.864  41.288  22.549  1.00  0.00     0.085 C 
ATOM     22  C   UNL     1      20.824  41.496  22.326  1.00  0.00    -0.000 C 
ATOM     23  C   UNL     1      18.739  40.856  23.688  1.00  0.00     0.159 C 
ATOM     24  C   UNL     1      20.147  41.299  23.695  1.00  0.00     0.005 C 
ATOM     25  C   UNL     1      22.301  42.016  22.488  1.00  0.00     0.020 C 
ATOM     26  C   UNL     1      20.956  40.077  21.704  1.00  0.00     0.017 C 
ATOM     27  O   UNL     1      18.269  40.152  24.623  1.00  0.00    -0.295 OA
ATOM     28  C   UNL     1      20.710  41.667  24.859  1.00  0.00     0.055 C 
ATOM     29  C   UNL     1      22.490  43.020  23.625  1.00  0.00     0.081 C 
ATOM     30  C   UNL     1      21.959  42.433  24.891  1.00  0.00     0.156 C 
ATOM     31  O   UNL     1      22.531  42.665  25.989  1.00  0.00    -0.295 OA
ENDBRANCH   9  11
ENDBRANCH   8   9
ENDBRANCH   1   8
TORSDOF 6
ENDMDL
MODEL 3
REMARK VINA RESULT:    -6.071      3.914      7.072
REMARK INTER + INTRA:         -10.025
REMARK INTER:                  -8.845
REMARK INTRA:                  -1.180
REMARK UNBOUND:                -1.825
REMARK SMILES CC[C@H](CC[C@@H](C)[C@@H]1CC[C@H]2[C@H]3CC(=O)C4=CC(=O)CC[C@]4(C)[C@@H]3CC[C@]21C)C(C)C
REMARK SMILES IDX 4 1 3 2 2 3 1 4 29 5 30 6 31 7 5 8 6 9 7 10 8 11 9 12 27 13
REMARK SMILES IDX 10 14 11 15 26 16 28 17 12 18 25 19 24 20 13 21 22 22 14 23
REMARK SMILES IDX 16 24 21 25 23 26 15 27 17 28 20 29 18 30 19 31
REMARK H PARENT
REMARK Flexibility Score: inf
ROOT
ATOM      1  C   UNL     1      20.371  47.321  21.004  1.00  0.00     0.004 C 
ENDROOT
BRANCH   1   2
ATOM      2  C   UNL     1      20.200  48.841  20.701  1.00  0.00    -0.009 C 
BRANCH   2   3
ATOM      3  C   UNL     1      19.208  49.099  19.528  1.00  0.00     0.000 C 
ATOM      4  C   UNL     1      19.617  50.239  18.592  1.00  0.00     0.004 C 
ENDBRANCH   2   3
BRANCH   2   5
ATOM      5  C   UNL     1      19.841  49.648  21.998  1.00  0.00    -0.014 C 
ATOM      6  C   UNL     1      18.344  50.003  22.066  1.00  0.00     0.007 C 
ATOM      7  C   UNL     1      20.660  50.950  22.114  1.00  0.00     0.007 C 
ENDBRANCH   2   5
ENDBRANCH   1   2
BRANCH   1   8
ATOM      8  C   UNL     1      19.619  46.394  20.020  1.00  0.00     0.004 C 
BRANCH   8   9
ATOM      9  C   UNL     1      18.544  45.486  20.682  1.00  0.00    -0.011 C 
ATOM     10  C   UNL     1      17.286  46.357  20.967  1.00  0.00     0.008 C 
BRANCH   9  11
ATOM     11  C   UNL     1      18.100  44.204  19.855  1.00  0.00    -0.002 C 
ATOM     12  C   UNL     1      16.580  43.966  20.089  1.00  0.00     0.005 C 
ATOM     13  C   UNL     1      18.709  42.764  20.095  1.00  0.00    -0.026 C 
ATOM     14  C   UNL     1      16.422  42.749  20.996  1.00  0.00     0.005 C 
ATOM     15  C   UNL     1      17.828  42.186  21.222  1.00  0.00    -0.001 C 
ATOM     16  C   UNL     1      18.525  41.935  18.773  1.00  0.00     0.007 C 
ATOM     17  C   UNL     1      20.207  42.698  20.485  1.00  0.00     0.012 C 
ATOM     18  C   UNL     1      17.910  40.640  21.343  1.00  0.00     0.004 C 
ATOM     19  C   UNL     1      18.614  40.404  18.940  1.00  0.00     0.005 C 
ATOM     20  C   UNL     1      17.611  39.898  19.999  1.00  0.00     0.003 C 
ATOM     21  C   UNL     1      17.050  40.104  22.506  1.00  0.00     0.085 C 
ATOM     22  C   UNL     1      17.474  38.307  20.172  1.00  0.00    -0.000 C 
ATOM     23  C   UNL     1      17.365  38.653  22.718  1.00  0.00     0.159 C 
ATOM     24  C   UNL     1      17.917  37.884  21.585  1.00  0.00     0.005 C 
ATOM     25  C   UNL     1      18.178  37.435  19.067  1.00  0.00     0.020 C 
ATOM     26  C   UNL     1      15.963  37.950  20.073  1.00  0.00     0.017 C 
ATOM     27  O   UNL     1      17.182  38.118  23.845  1.00  0.00    -0.295 OA
ATOM     28  C   UNL     1      18.890  36.986  21.817  1.00  0.00     0.055 C 
ATOM     29  C   UNL     1      19.634  37.089  19.377  1.00  0.00     0.081 C 
ATOM     30  C   UNL     1      19.711  36.455  20.726  1.00  0.00     0.156 C 
ATOM     31  O   UNL     1      20.535  35.528  20.948  1.00  0.00    -0.295 OA
ENDBRANCH   9  11
ENDBRANCH   8   9
ENDBRANCH   1   8
TORSDOF 6
ENDMDL
MODEL 4
REMARK VINA RESULT:    -6.018      4.771      7.109
REMARK INTER + INTRA:          -9.954
REMARK INTER:                  -9.224
REMARK INTRA:                  -0.730
REMARK UNBOUND:                -1.825
REMARK SMILES CC[C@H](CC[C@@H](C)[C@@H]1CC[C@H]2[C@H]3CC(=O)C4=CC(=O)CC[C@]4(C)[C@@H]3CC[C@]21C)C(C)C
REMARK SMILES IDX 4 1 3 2 2 3 1 4 29 5 30 6 31 7 5 8 6 9 7 10 8 11 9 12 27 13
REMARK SMILES IDX 10 14 11 15 26 16 28 17 12 18 25 19 24 20 13 21 22 22 14 23
REMARK SMILES IDX 16 24 21 25 23 26 15 27 17 28 20 29 18 30 19 31
REMARK H PARENT
REMARK Flexibility Score: inf
ROOT
ATOM      1  C   UNL     1      20.337  47.401  20.867  1.00  0.00     0.004 C 
ENDROOT
BRANCH   1   2
ATOM      2  C   UNL     1      20.186  48.923  20.568  1.00  0.00    -0.009 C 
BRANCH   2   3
ATOM      3  C   UNL     1      19.219  49.195  19.377  1.00  0.00     0.000 C 
ATOM      4  C   UNL     1      19.671  50.318  18.439  1.00  0.00     0.004 C 
ENDBRANCH   2   3
BRANCH   2   5
ATOM      5  C   UNL     1      19.807  49.728  21.861  1.00  0.00    -0.014 C 
ATOM      6  C   UNL     1      18.321  50.130  21.881  1.00  0.00     0.007 C 
ATOM      7  C   UNL     1      20.662  51.001  22.021  1.00  0.00     0.007 C 
ENDBRANCH   2   5
ENDBRANCH   1   2
BRANCH   1   8
ATOM      8  C   UNL     1      19.062  46.573  20.583  1.00  0.00     0.004 C 
BRANCH   8   9
ATOM      9  C   UNL     1      19.324  45.073  20.263  1.00  0.00    -0.011 C 
ATOM     10  C   UNL     1      20.777  44.732  20.706  1.00  0.00     0.008 C 
BRANCH   9  11
ATOM     11  C   UNL     1      18.329  44.028  20.927  1.00  0.00    -0.002 C 
ATOM     12  C   UNL     1      19.065  43.323  22.103  1.00  0.00     0.005 C 
ATOM     13  C   UNL     1      17.701  42.807  20.139  1.00  0.00    -0.026 C 
ATOM     14  C   UNL     1      19.392  41.895  21.672  1.00  0.00     0.005 C 
ATOM     15  C   UNL     1      18.765  41.700  20.289  1.00  0.00    -0.001 C 
ATOM     16  C   UNL     1      16.371  42.396  20.867  1.00  0.00     0.007 C 
ATOM     17  C   UNL     1      17.365  43.042  18.646  1.00  0.00     0.012 C 
ATOM     18  C   UNL     1      18.219  40.274  20.006  1.00  0.00     0.004 C 
ATOM     19  C   UNL     1      15.866  40.971  20.557  1.00  0.00     0.005 C 
ATOM     20  C   UNL     1      16.954  39.916  20.853  1.00  0.00     0.003 C 
ATOM     21  C   UNL     1      19.320  39.199  20.125  1.00  0.00     0.085 C 
ATOM     22  C   UNL     1      16.526  38.373  20.730  1.00  0.00    -0.000 C 
ATOM     23  C   UNL     1      18.789  37.896  19.605  1.00  0.00     0.159 C 
ATOM     24  C   UNL     1      17.327  37.686  19.609  1.00  0.00     0.005 C 
ATOM     25  C   UNL     1      14.983  38.101  20.579  1.00  0.00     0.020 C 
ATOM     26  C   UNL     1      16.939  37.661  22.050  1.00  0.00     0.017 C 
ATOM     27  O   UNL     1      19.576  37.020  19.156  1.00  0.00    -0.295 OA
ATOM     28  C   UNL     1      16.755  37.063  18.565  1.00  0.00     0.055 C 
ATOM     29  C   UNL     1      14.488  38.092  19.132  1.00  0.00     0.081 C 
ATOM     30  C   UNL     1      15.308  37.130  18.339  1.00  0.00     0.156 C 
ATOM     31  O   UNL     1      14.778  36.443  17.426  1.00  0.00    -0.295 OA
ENDBRANCH   9  11
ENDBRANCH   8   9
ENDBRANCH   1   8
TORSDOF 6
ENDMDL
MODEL 5
REMARK VINA RESULT:    -5.945      4.778      7.687
REMARK INTER + INTRA:          -9.856
REMARK INTER:                  -8.852
REMARK INTRA:                  -1.003
REMARK UNBOUND:                -1.825
REMARK SMILES CC[C@H](CC[C@@H](C)[C@@H]1CC[C@H]2[C@H]3CC(=O)C4=CC(=O)CC[C@]4(C)[C@@H]3CC[C@]21C)C(C)C
REMARK SMILES IDX 4 1 3 2 2 3 1 4 29 5 30 6 31 7 5 8 6 9 7 10 8 11 9 12 27 13
REMARK SMILES IDX 10 14 11 15 26 16 28 17 12 18 25 19 24 20 13 21 22 22 14 23
REMARK SMILES IDX 16 24 21 25 23 26 15 27 17 28 20 29 18 30 19 31
REMARK H PARENT
REMARK Flexibility Score: inf
ROOT
ATOM      1  C   UNL     1      13.138  45.570  20.097  1.00  0.00     0.004 C 
ENDROOT
BRANCH   1   2
ATOM      2  C   UNL     1      12.336  46.412  19.059  1.00  0.00    -0.009 C 
BRANCH   2   3
ATOM      3  C   UNL     1      12.420  45.812  17.624  1.00  0.00     0.000 C 
ATOM      4  C   UNL     1      13.222  46.658  16.631  1.00  0.00     0.004 C 
ENDBRANCH   2   3
BRANCH   2   5
ATOM      5  C   UNL     1      10.860  46.658  19.536  1.00  0.00    -0.014 C 
ATOM      6  C   UNL     1      10.028  45.362  19.540  1.00  0.00     0.007 C 
ATOM      7  C   UNL     1      10.137  47.703  18.663  1.00  0.00     0.007 C 
ENDBRANCH   2   5
ENDBRANCH   1   2
BRANCH   1   8
ATOM      8  C   UNL     1      13.709  44.249  19.531  1.00  0.00     0.004 C 
BRANCH   8   9
ATOM      9  C   UNL     1      15.251  44.249  19.321  1.00  0.00    -0.011 C 
ATOM     10  C   UNL     1      15.737  45.728  19.327  1.00  0.00     0.008 C 
BRANCH   9  11
ATOM     11  C   UNL     1      16.104  43.427  20.379  1.00  0.00    -0.002 C 
ATOM     12  C   UNL     1      17.562  43.973  20.371  1.00  0.00     0.005 C 
ATOM     13  C   UNL     1      16.327  41.864  20.286  1.00  0.00    -0.026 C 
ATOM     14  C   UNL     1      18.452  42.942  19.682  1.00  0.00     0.005 C 
ATOM     15  C   UNL     1      17.564  41.733  19.373  1.00  0.00    -0.001 C 
ATOM     16  C   UNL     1      16.649  41.334  21.729  1.00  0.00     0.007 C 
ATOM     17  C   UNL     1      15.149  41.025  19.731  1.00  0.00     0.012 C 
ATOM     18  C   UNL     1      18.268  40.352  19.477  1.00  0.00     0.004 C 
ATOM     19  C   UNL     1      17.348  39.960  21.785  1.00  0.00     0.005 C 
ATOM     20  C   UNL     1      18.642  39.958  20.943  1.00  0.00     0.003 C 
ATOM     21  C   UNL     1      19.474  40.244  18.521  1.00  0.00     0.085 C 
ATOM     22  C   UNL     1      19.565  38.645  21.029  1.00  0.00    -0.000 C 
ATOM     23  C   UNL     1      19.949  38.821  18.492  1.00  0.00     0.159 C 
ATOM     24  C   UNL     1      19.646  37.960  19.652  1.00  0.00     0.005 C 
ATOM     25  C   UNL     1      19.188  37.616  22.159  1.00  0.00     0.020 C 
ATOM     26  C   UNL     1      21.012  39.107  21.363  1.00  0.00     0.017 C 
ATOM     27  O   UNL     1      20.568  38.376  17.489  1.00  0.00    -0.295 OA
ATOM     28  C   UNL     1      19.293  36.681  19.441  1.00  0.00     0.055 C 
ATOM     29  C   UNL     1      18.167  36.562  21.729  1.00  0.00     0.081 C 
ATOM     30  C   UNL     1      18.653  35.885  20.491  1.00  0.00     0.156 C 
ATOM     31  O   UNL     1      18.439  34.656  20.312  1.00  0.00    -0.295 OA
ENDBRANCH   9  11
ENDBRANCH   8   9
ENDBRANCH   1   8
TORSDOF 6
ENDMDL
MODEL 6
REMARK VINA RESULT:    -5.912      2.109      3.375
REMARK INTER + INTRA:          -9.811
REMARK INTER:                  -7.742
REMARK INTRA:                  -2.070
REMARK UNBOUND:                -1.825
REMARK SMILES CC[C@H](CC[C@@H](C)[C@@H]1CC[C@H]2[C@H]3CC(=O)C4=CC(=O)CC[C@]4(C)[C@@H]3CC[C@]21C)C(C)C
REMARK SMILES IDX 4 1 3 2 2 3 1 4 29 5 30 6 31 7 5 8 6 9 7 10 8 11 9 12 27 13
REMARK SMILES IDX 10 14 11 15 26 16 28 17 12 18 25 19 24 20 13 21 22 22 14 23
REMARK SMILES IDX 16 24 21 25 23 26 15 27 17 28 20 29 18 30 19 31
REMARK H PARENT
REMARK Flexibility Score: inf
ROOT
ATOM      1  C   UNL     1      19.628  40.997  19.486  1.00  0.00     0.004 C 
ENDROOT
BRANCH   1   2
ATOM      2  C   UNL     1      18.117  40.815  19.146  1.00  0.00    -0.009 C 
BRANCH   2   3
ATOM      3  C   UNL     1      17.529  39.511  19.763  1.00  0.00     0.000 C 
ATOM      4  C   UNL     1      17.375  38.355  18.770  1.00  0.00     0.004 C 
ENDBRANCH   2   3
BRANCH   2   5
ATOM      5  C   UNL     1      17.288  42.096  19.514  1.00  0.00    -0.014 C 
ATOM      6  C   UNL     1      18.190  43.313  19.793  1.00  0.00     0.007 C 
ATOM      7  C   UNL     1      16.381  41.866  20.740  1.00  0.00     0.007 C 
ENDBRANCH   2   5
ENDBRANCH   1   2
BRANCH   1   8
ATOM      8  C   UNL     1      20.165  39.990  20.530  1.00  0.00     0.004 C 
BRANCH   8   9
ATOM      9  C   UNL     1      20.381  40.586  21.951  1.00  0.00    -0.011 C 
ATOM     10  C   UNL     1      21.040  41.987  21.791  1.00  0.00     0.008 C 
BRANCH   9  11
ATOM     11  C   UNL     1      19.083  40.732  22.856  1.00  0.00    -0.002 C 
ATOM     12  C   UNL     1      19.249  41.988  23.759  1.00  0.00     0.005 C 
ATOM     13  C   UNL     1      18.620  39.629  23.891  1.00  0.00    -0.026 C 
ATOM     14  C   UNL     1      19.514  41.517  25.187  1.00  0.00     0.005 C 
ATOM     15  C   UNL     1      19.401  39.990  25.172  1.00  0.00    -0.001 C 
ATOM     16  C   UNL     1      17.076  39.800  24.122  1.00  0.00     0.007 C 
ATOM     17  C   UNL     1      18.874  38.153  23.496  1.00  0.00     0.012 C 
ATOM     18  C   UNL     1      18.807  39.358  26.460  1.00  0.00     0.004 C 
ATOM     19  C   UNL     1      16.528  39.158  25.413  1.00  0.00     0.005 C 
ATOM     20  C   UNL     1      17.287  39.670  26.657  1.00  0.00     0.003 C 
ATOM     21  C   UNL     1      19.637  39.707  27.712  1.00  0.00     0.085 C 
ATOM     22  C   UNL     1      16.727  39.212  28.092  1.00  0.00    -0.000 C 
ATOM     23  C   UNL     1      19.157  38.875  28.865  1.00  0.00     0.159 C 
ATOM     24  C   UNL     1      17.776  38.354  28.823  1.00  0.00     0.005 C 
ATOM     25  C   UNL     1      15.318  38.510  28.085  1.00  0.00     0.020 C 
ATOM     26  C   UNL     1      16.543  40.492  28.956  1.00  0.00     0.017 C 
ATOM     27  O   UNL     1      19.927  38.614  29.828  1.00  0.00    -0.295 OA
ATOM     28  C   UNL     1      17.536  37.107  29.262  1.00  0.00     0.055 C 
ATOM     29  C   UNL     1      15.376  36.994  27.905  1.00  0.00     0.081 C 
ATOM     30  C   UNL     1      16.288  36.412  28.933  1.00  0.00     0.156 C 
ATOM     31  O   UNL     1      16.032  35.293  29.451  1.00  0.00    -0.295 OA
ENDBRANCH   9  11
ENDBRANCH   8   9
ENDBRANCH   1   8
TORSDOF 6
ENDMDL
MODEL 7
REMARK VINA RESULT:    -5.864      3.220      6.416
REMARK INTER + INTRA:          -9.746
REMARK INTER:                  -8.733
REMARK INTRA:                  -1.013
REMARK UNBOUND:                -1.825
REMARK SMILES CC[C@H](CC[C@@H](C)[C@@H]1CC[C@H]2[C@H]3CC(=O)C4=CC(=O)CC[C@]4(C)[C@@H]3CC[C@]21C)C(C)C
REMARK SMILES IDX 4 1 3 2 2 3 1 4 29 5 30 6 31 7 5 8 6 9 7 10 8 11 9 12 27 13
REMARK SMILES IDX 10 14 11 15 26 16 28 17 12 18 25 19 24 20 13 21 22 22 14 23
REMARK SMILES IDX 16 24 21 25 23 26 15 27 17 28 20 29 18 30 19 31
REMARK H PARENT
REMARK Flexibility Score: inf
ROOT
ATOM      1  C   UNL     1      14.225  44.524  18.084  1.00  0.00     0.004 C 
ENDROOT
BRANCH   1   2
ATOM      2  C   UNL     1      13.613  45.923  18.398  1.00  0.00    -0.009 C 
BRANCH   2   3
ATOM      3  C   UNL     1      12.775  46.479  17.208  1.00  0.00     0.000 C 
ATOM      4  C   UNL     1      13.443  47.626  16.446  1.00  0.00     0.004 C 
ENDBRANCH   2   3
BRANCH   2   5
ATOM      5  C   UNL     1      12.822  45.913  19.754  1.00  0.00    -0.014 C 
ATOM      6  C   UNL     1      13.752  46.070  20.971  1.00  0.00     0.007 C 
ATOM      7  C   UNL     1      11.996  44.623  19.932  1.00  0.00     0.007 C 
ENDBRANCH   2   5
ENDBRANCH   1   2
BRANCH   1   8
ATOM      8  C   UNL     1      15.737  44.414  18.390  1.00  0.00     0.004 C 
BRANCH   8   9
ATOM      9  C   UNL     1      16.079  43.598  19.670  1.00  0.00    -0.011 C 
ATOM     10  C   UNL     1      14.981  42.510  19.856  1.00  0.00     0.008 C 
BRANCH   9  11
ATOM     11  C   UNL     1      17.503  42.895  19.695  1.00  0.00    -0.002 C 
ATOM     12  C   UNL     1      17.296  41.354  19.618  1.00  0.00     0.005 C 
ATOM     13  C   UNL     1      18.520  43.040  20.898  1.00  0.00    -0.026 C 
ATOM     14  C   UNL     1      17.598  40.764  20.992  1.00  0.00     0.005 C 
ATOM     15  C   UNL     1      18.090  41.919  21.868  1.00  0.00    -0.001 C 
ATOM     16  C   UNL     1      19.965  42.765  20.346  1.00  0.00     0.007 C 
ATOM     17  C   UNL     1      18.549  44.408  21.624  1.00  0.00     0.012 C 
ATOM     18  C   UNL     1      19.182  41.544  22.906  1.00  0.00     0.004 C 
ATOM     19  C   UNL     1      21.017  42.395  21.412  1.00  0.00     0.005 C 
ATOM     20  C   UNL     1      20.558  41.186  22.255  1.00  0.00     0.003 C 
ATOM     21  C   UNL     1      18.700  40.452  23.883  1.00  0.00     0.085 C 
ATOM     22  C   UNL     1      21.616  40.583  23.303  1.00  0.00    -0.000 C 
ATOM     23  C   UNL     1      19.698  40.316  24.995  1.00  0.00     0.159 C 
ATOM     24  C   UNL     1      21.089  40.740  24.741  1.00  0.00     0.005 C 
ATOM     25  C   UNL     1      23.090  41.120  23.172  1.00  0.00     0.020 C 
ATOM     26  C   UNL     1      21.714  39.052  23.047  1.00  0.00     0.017 C 
ATOM     27  O   UNL     1      19.343  39.873  26.120  1.00  0.00    -0.295 OA
ATOM     28  C   UNL     1      21.761  41.387  25.709  1.00  0.00     0.055 C 
ATOM     29  C   UNL     1      23.373  42.377  23.994  1.00  0.00     0.081 C 
ATOM     30  C   UNL     1      22.989  42.130  25.415  1.00  0.00     0.156 C 
ATOM     31  O   UNL     1      23.667  42.628  26.353  1.00  0.00    -0.295 OA
ENDBRANCH   9  11
ENDBRANCH   8   9
ENDBRANCH   1   8
TORSDOF 6
ENDMDL
MODEL 8
REMARK VINA RESULT:    -5.816      1.687      3.310
REMARK INTER + INTRA:          -9.682
REMARK INTER:                  -7.887
REMARK INTRA:                  -1.795
REMARK UNBOUND:                -1.825
REMARK SMILES CC[C@H](CC[C@@H](C)[C@@H]1CC[C@H]2[C@H]3CC(=O)C4=CC(=O)CC[C@]4(C)[C@@H]3CC[C@]21C)C(C)C
REMARK SMILES IDX 4 1 3 2 2 3 1 4 29 5 30 6 31 7 5 8 6 9 7 10 8 11 9 12 27 13
REMARK SMILES IDX 10 14 11 15 26 16 28 17 12 18 25 19 24 20 13 21 22 22 14 23
REMARK SMILES IDX 16 24 21 25 23 26 15 27 17 28 20 29 18 30 19 31
REMARK H PARENT
REMARK Flexibility Score: inf
ROOT
ATOM      1  C   UNL     1      19.334  40.534  19.721  1.00  0.00     0.004 C 
ENDROOT
BRANCH   1   2
ATOM      2  C   UNL     1      19.079  42.071  19.731  1.00  0.00    -0.009 C 
BRANCH   2   3
ATOM      3  C   UNL     1      17.567  42.418  19.584  1.00  0.00     0.000 C 
ATOM      4  C   UNL     1      17.281  43.651  18.723  1.00  0.00     0.004 C 
ENDBRANCH   2   3
BRANCH   2   5
ATOM      5  C   UNL     1      19.747  42.756  20.975  1.00  0.00    -0.014 C 
ATOM      6  C   UNL     1      20.540  44.018  20.587  1.00  0.00     0.007 C 
ATOM      7  C   UNL     1      20.691  41.796  21.726  1.00  0.00     0.007 C 
ENDBRANCH   2   5
ENDBRANCH   1   2
BRANCH   1   8
ATOM      8  C   UNL     1      18.203  39.711  19.058  1.00  0.00     0.004 C 
BRANCH   8   9
ATOM      9  C   UNL     1      17.379  38.834  20.044  1.00  0.00    -0.011 C 
ATOM     10  C   UNL     1      17.084  37.473  19.348  1.00  0.00     0.008 C 
BRANCH   9  11
ATOM     11  C   UNL     1      18.046  38.551  21.458  1.00  0.00    -0.002 C 
ATOM     12  C   UNL     1      17.816  37.055  21.823  1.00  0.00     0.005 C 
ATOM     13  C   UNL     1      17.612  39.294  22.786  1.00  0.00    -0.026 C 
ATOM     14  C   UNL     1      16.765  36.991  22.927  1.00  0.00     0.005 C 
ATOM     15  C   UNL     1      16.439  38.438  23.308  1.00  0.00    -0.001 C 
ATOM     16  C   UNL     1      18.821  39.240  23.787  1.00  0.00     0.007 C 
ATOM     17  C   UNL     1      17.185  40.776  22.646  1.00  0.00     0.012 C 
ATOM     18  C   UNL     1      16.121  38.671  24.810  1.00  0.00     0.004 C 
ATOM     19  C   UNL     1      18.460  39.477  25.268  1.00  0.00     0.005 C 
ATOM     20  C   UNL     1      17.366  38.494  25.740  1.00  0.00     0.003 C 
ATOM     21  C   UNL     1      14.918  37.830  25.284  1.00  0.00     0.085 C 
ATOM     22  C   UNL     1      16.995  38.513  27.303  1.00  0.00    -0.000 C 
ATOM     23  C   UNL     1      14.517  38.282  26.657  1.00  0.00     0.159 C 
ATOM     24  C   UNL     1      15.531  38.948  27.498  1.00  0.00     0.005 C 
ATOM     25  C   UNL     1      17.965  39.339  28.227  1.00  0.00     0.020 C 
ATOM     26  C   UNL     1      17.080  37.050  27.825  1.00  0.00     0.017 C 
ATOM     27  O   UNL     1      13.335  38.116  27.063  1.00  0.00    -0.295 OA
ATOM     28  C   UNL     1      15.166  39.997  28.254  1.00  0.00     0.055 C 
ATOM     29  C   UNL     1      17.583  40.811  28.378  1.00  0.00     0.081 C 
ATOM     30  C   UNL     1      16.163  40.905  28.828  1.00  0.00     0.156 C 
ATOM     31  O   UNL     1      15.807  41.810  29.628  1.00  0.00    -0.295 OA
ENDBRANCH   9  11
ENDBRANCH   8   9
ENDBRANCH   1   8
TORSDOF 6
ENDMDL
MODEL 9
REMARK VINA RESULT:    -5.816      5.931      8.610
REMARK INTER + INTRA:          -9.681
REMARK INTER:                  -8.223
REMARK INTRA:                  -1.458
REMARK UNBOUND:                -1.825
REMARK SMILES CC[C@H](CC[C@@H](C)[C@@H]1CC[C@H]2[C@H]3CC(=O)C4=CC(=O)CC[C@]4(C)[C@@H]3CC[C@]21C)C(C)C
REMARK SMILES IDX 4 1 3 2 2 3 1 4 29 5 30 6 31 7 5 8 6 9 7 10 8 11 9 12 27 13
REMARK SMILES IDX 10 14 11 15 26 16 28 17 12 18 25 19 24 20 13 21 22 22 14 23
REMARK SMILES IDX 16 24 21 25 23 26 15 27 17 28 20 29 18 30 19 31
REMARK H PARENT
REMARK Flexibility Score: inf
ROOT
ATOM      1  C   UNL     1      18.247  33.696  15.336  1.00  0.00     0.004 C 
ENDROOT
BRANCH   1   2
ATOM      2  C   UNL     1      17.614  32.556  16.190  1.00  0.00    -0.009 C 
BRANCH   2   3
ATOM      3  C   UNL     1      18.063  32.620  17.681  1.00  0.00     0.000 C 
ATOM      4  C   UNL     1      18.154  31.258  18.373  1.00  0.00     0.004 C 
ENDBRANCH   2   3
BRANCH   2   5
ATOM      5  C   UNL     1      16.054  32.510  16.020  1.00  0.00    -0.014 C 
ATOM      6  C   UNL     1      15.604  33.036  14.645  1.00  0.00     0.007 C 
ATOM      7  C   UNL     1      15.329  33.316  17.116  1.00  0.00     0.007 C 
ENDBRANCH   2   5
ENDBRANCH   1   2
BRANCH   1   8
ATOM      8  C   UNL     1      19.276  34.561  16.101  1.00  0.00     0.004 C 
BRANCH   8   9
ATOM      9  C   UNL     1      18.776  35.988  16.466  1.00  0.00    -0.011 C 
ATOM     10  C   UNL     1      17.335  36.153  15.900  1.00  0.00     0.008 C 
BRANCH   9  11
ATOM     11  C   UNL     1      18.763  36.354  18.011  1.00  0.00    -0.002 C 
ATOM     12  C   UNL     1      17.298  36.669  18.433  1.00  0.00     0.005 C 
ATOM     13  C   UNL     1      19.560  37.579  18.619  1.00  0.00    -0.026 C 
ATOM     14  C   UNL     1      17.176  38.176  18.643  1.00  0.00     0.005 C 
ATOM     15  C   UNL     1      18.580  38.759  18.459  1.00  0.00    -0.001 C 
ATOM     16  C   UNL     1      19.820  37.280  20.139  1.00  0.00     0.007 C 
ATOM     17  C   UNL     1      20.926  37.912  17.968  1.00  0.00     0.012 C 
ATOM     18  C   UNL     1      18.917  39.972  19.368  1.00  0.00     0.004 C 
ATOM     19  C   UNL     1      20.150  38.514  21.004  1.00  0.00     0.005 C 
ATOM     20  C   UNL     1      19.053  39.594  20.879  1.00  0.00     0.003 C 
ATOM     21  C   UNL     1      17.941  41.147  19.150  1.00  0.00     0.085 C 
ATOM     22  C   UNL     1      19.177  40.873  21.843  1.00  0.00    -0.000 C 
ATOM     23  C   UNL     1      18.463  42.356  19.867  1.00  0.00     0.159 C 
ATOM     24  C   UNL     1      19.377  42.151  21.009  1.00  0.00     0.005 C 
ATOM     25  C   UNL     1      20.249  40.765  22.990  1.00  0.00     0.020 C 
ATOM     26  C   UNL     1      17.814  41.047  22.573  1.00  0.00     0.017 C 
ATOM     27  O   UNL     1      18.144  43.514  19.483  1.00  0.00    -0.295 OA
ATOM     28  C   UNL     1      20.425  42.978  21.163  1.00  0.00     0.055 C 
ATOM     29  C   UNL     1      21.643  41.247  22.590  1.00  0.00     0.081 C 
ATOM     30  C   UNL     1      21.544  42.632  22.043  1.00  0.00     0.156 C 
ATOM     31  O   UNL     1      22.457  43.471  22.265  1.00  0.00    -0.295 OA
ENDBRANCH   9  11
ENDBRANCH   8   9
ENDBRANCH   1   8
TORSDOF 6
ENDMDL
