MODEL 1
REMARK VINA RESULT:    -3.173      0.000      0.000
REMARK INTER + INTRA:          -5.418
REMARK INTER:                  -4.843
REMARK INTRA:                  -0.575
REMARK UNBOUND:                -0.575
REMARK SMILES O=C([O-])CCCCCCCCC(=O)[O-]
REMARK SMILES IDX 7 1 6 2 5 3 4 4 2 5 1 6 3 7 8 8 9 9 10 10 11 11 12 12 13 13
REMARK SMILES IDX 14 14
REMARK H PARENT
REMARK Flexibility Score: inf
ROOT
ATOM      1  C   UNL     1      12.456  43.627  18.688  1.00  0.00     0.000 C 
ENDROOT
BRANCH   1   2
ATOM      2  C   UNL     1      13.004  44.973  18.173  1.00  0.00     0.000 C 
BRANCH   2   3
ATOM      3  C   UNL     1      14.514  44.992  17.875  1.00  0.00     0.006 C 
BRANCH   3   4
ATOM      4  C   UNL     1      15.366  45.213  19.131  1.00  0.00     0.053 C 
BRANCH   4   5
ATOM      5  C   UNL     1      15.762  43.900  19.730  1.00  0.00     0.041 C 
ATOM      6  O   UNL     1      16.284  43.007  19.011  1.00  0.00    -0.550 OA
ATOM      7  O   UNL     1      15.510  43.643  21.072  1.00  0.00    -0.550 OA
ENDBRANCH   4   5
ENDBRANCH   3   4
ENDBRANCH   2   3
ENDBRANCH   1   2
BRANCH   1   8
ATOM      8  C   UNL     1      12.899  42.393  17.880  1.00  0.00     0.000 C 
BRANCH   8   9
ATOM      9  C   UNL     1      11.875  41.247  17.934  1.00  0.00     0.000 C 
BRANCH   9  10
ATOM     10  C   UNL     1      12.080  40.329  19.148  1.00  0.00     0.006 C 
BRANCH  10  11
ATOM     11  C   UNL     1      13.410  40.591  19.866  1.00  0.00     0.053 C 
BRANCH  11  12
ATOM     12  C   UNL     1      13.176  40.846  21.322  1.00  0.00     0.041 C 
ATOM     13  O   UNL     1      14.108  40.677  22.152  1.00  0.00    -0.550 OA
ATOM     14  O   UNL     1      11.916  41.223  21.768  1.00  0.00    -0.550 OA
ENDBRANCH  11  12
ENDBRANCH  10  11
ENDBRANCH   9  10
ENDBRANCH   8   9
ENDBRANCH   1   8
TORSDOF 9
ENDMDL
MODEL 2
REMARK VINA RESULT:    -2.398      1.375      1.985
REMARK INTER + INTRA:          -4.234
REMARK INTER:                  -4.273
REMARK INTRA:                   0.039
REMARK UNBOUND:                -0.575
REMARK SMILES O=C([O-])CCCCCCCCC(=O)[O-]
REMARK SMILES IDX 7 1 6 2 5 3 4 4 2 5 1 6 3 7 8 8 9 9 10 10 11 11 12 12 13 13
REMARK SMILES IDX 14 14
REMARK H PARENT
REMARK Flexibility Score: inf
ROOT
ATOM      1  C   UNL     1      14.266  43.589  17.875  1.00  0.00     0.000 C 
ENDROOT
BRANCH   1   2
ATOM      2  C   UNL     1      14.992  44.898  18.248  1.00  0.00     0.000 C 
BRANCH   2   3
ATOM      3  C   UNL     1      16.095  44.753  19.311  1.00  0.00     0.006 C 
BRANCH   3   4
ATOM      4  C   UNL     1      16.014  43.426  20.076  1.00  0.00     0.053 C 
BRANCH   4   5
ATOM      5  C   UNL     1      15.157  43.577  21.294  1.00  0.00     0.041 C 
ATOM      6  O   UNL     1      15.633  44.084  22.344  1.00  0.00    -0.550 OA
ATOM      7  O   UNL     1      13.847  43.113  21.285  1.00  0.00    -0.550 OA
ENDBRANCH   4   5
ENDBRANCH   3   4
ENDBRANCH   2   3
ENDBRANCH   1   2
BRANCH   1   8
ATOM      8  C   UNL     1      12.729  43.669  17.895  1.00  0.00     0.000 C 
BRANCH   8   9
ATOM      9  C   UNL     1      12.106  42.868  19.050  1.00  0.00     0.000 C 
BRANCH   9  10
ATOM     10  C   UNL     1      12.059  41.359  18.763  1.00  0.00     0.006 C 
BRANCH  10  11
ATOM     11  C   UNL     1      13.056  40.567  19.620  1.00  0.00     0.053 C 
BRANCH  11  12
ATOM     12  C   UNL     1      12.368  39.976  20.810  1.00  0.00     0.041 C 
ATOM     13  O   UNL     1      11.875  38.819  20.747  1.00  0.00    -0.550 OA
ATOM     14  O   UNL     1      12.227  40.722  21.973  1.00  0.00    -0.550 OA
ENDBRANCH  11  12
ENDBRANCH  10  11
ENDBRANCH   9  10
ENDBRANCH   8   9
ENDBRANCH   1   8
TORSDOF 9
ENDMDL
MODEL 3
REMARK VINA RESULT:    -2.124      2.123      4.930
REMARK INTER + INTRA:          -3.816
REMARK INTER:                  -3.698
REMARK INTRA:                  -0.118
REMARK UNBOUND:                -0.575
REMARK SMILES O=C([O-])CCCCCCCCC(=O)[O-]
REMARK SMILES IDX 7 1 6 2 5 3 4 4 2 5 1 6 3 7 8 8 9 9 10 10 11 11 12 12 13 13
REMARK SMILES IDX 14 14
REMARK H PARENT
REMARK Flexibility Score: inf
ROOT
ATOM      1  C   UNL     1      15.435  43.473  21.647  1.00  0.00     0.000 C 
ENDROOT
BRANCH   1   2
ATOM      2  C   UNL     1      14.099  42.702  21.615  1.00  0.00     0.000 C 
BRANCH   2   3
ATOM      3  C   UNL     1      14.220  41.178  21.793  1.00  0.00     0.006 C 
BRANCH   3   4
ATOM      4  C   UNL     1      12.876  40.506  22.098  1.00  0.00     0.053 C 
BRANCH   4   5
ATOM      5  C   UNL     1      12.325  39.857  20.867  1.00  0.00     0.041 C 
ATOM      6  O   UNL     1      12.225  40.513  19.797  1.00  0.00    -0.550 OA
ATOM      7  O   UNL     1      11.876  38.543  20.915  1.00  0.00    -0.550 OA
ENDBRANCH   4   5
ENDBRANCH   3   4
ENDBRANCH   2   3
ENDBRANCH   1   2
BRANCH   1   8
ATOM      8  C   UNL     1      15.751  44.279  20.375  1.00  0.00     0.000 C 
BRANCH   8   9
ATOM      9  C   UNL     1      15.628  43.440  19.092  1.00  0.00     0.000 C 
BRANCH   9  10
ATOM     10  C   UNL     1      15.204  44.277  17.876  1.00  0.00     0.006 C 
BRANCH  10  11
ATOM     11  C   UNL     1      13.783  44.839  18.016  1.00  0.00     0.053 C 
BRANCH  11  12
ATOM     12  C   UNL     1      12.832  43.758  18.425  1.00  0.00     0.041 C 
ATOM     13  O   UNL     1      11.954  43.984  19.299  1.00  0.00    -0.550 OA
ATOM     14  O   UNL     1      12.946  42.488  17.875  1.00  0.00    -0.550 OA
ENDBRANCH  11  12
ENDBRANCH  10  11
ENDBRANCH   9  10
ENDBRANCH   8   9
ENDBRANCH   1   8
TORSDOF 9
ENDMDL
MODEL 4
REMARK VINA RESULT:    -1.989      0.998      4.544
REMARK INTER + INTRA:          -3.610
REMARK INTER:                  -3.634
REMARK INTRA:                   0.024
REMARK UNBOUND:                -0.575
REMARK SMILES O=C([O-])CCCCCCCCC(=O)[O-]
REMARK SMILES IDX 7 1 6 2 5 3 4 4 2 5 1 6 3 7 8 8 9 9 10 10 11 11 12 12 13 13
REMARK SMILES IDX 14 14
REMARK H PARENT
REMARK Flexibility Score: inf
ROOT
ATOM      1  C   UNL     1      12.723  42.112  19.374  1.00  0.00     0.000 C 
ENDROOT
BRANCH   1   2
ATOM      2  C   UNL     1      11.884  40.862  19.037  1.00  0.00     0.000 C 
BRANCH   2   3
ATOM      3  C   UNL     1      11.875  39.771  20.122  1.00  0.00     0.006 C 
BRANCH   3   4
ATOM      4  C   UNL     1      13.233  39.613  20.819  1.00  0.00     0.053 C 
BRANCH   4   5
ATOM      5  C   UNL     1      13.323  40.529  21.998  1.00  0.00     0.041 C 
ATOM      6  O   UNL     1      14.446  40.925  22.409  1.00  0.00    -0.550 OA
ATOM      7  O   UNL     1      12.169  40.907  22.675  1.00  0.00    -0.550 OA
ENDBRANCH   4   5
ENDBRANCH   3   4
ENDBRANCH   2   3
ENDBRANCH   1   2
BRANCH   1   8
ATOM      8  C   UNL     1      12.024  43.457  19.100  1.00  0.00     0.000 C 
BRANCH   8   9
ATOM      9  C   UNL     1      12.605  44.192  17.881  1.00  0.00     0.000 C 
BRANCH   9  10
ATOM     10  C   UNL     1      13.942  44.884  18.191  1.00  0.00     0.006 C 
BRANCH  10  11
ATOM     11  C   UNL     1      15.135  43.923  18.106  1.00  0.00     0.053 C 
BRANCH  11  12
ATOM     12  C   UNL     1      15.956  43.999  19.355  1.00  0.00     0.041 C 
ATOM     13  O   UNL     1      17.207  44.113  19.284  1.00  0.00    -0.550 OA
ATOM     14  O   UNL     1      15.343  43.894  20.598  1.00  0.00    -0.550 OA
ENDBRANCH  11  12
ENDBRANCH  10  11
ENDBRANCH   9  10
ENDBRANCH   8   9
ENDBRANCH   1   8
TORSDOF 9
ENDMDL
MODEL 5
REMARK VINA RESULT:    -1.747      2.251      3.387
REMARK INTER + INTRA:          -3.241
REMARK INTER:                  -2.629
REMARK INTRA:                  -0.612
REMARK UNBOUND:                -0.575
REMARK SMILES O=C([O-])CCCCCCCCC(=O)[O-]
REMARK SMILES IDX 7 1 6 2 5 3 4 4 2 5 1 6 3 7 8 8 9 9 10 10 11 11 12 12 13 13
REMARK SMILES IDX 14 14
REMARK H PARENT
REMARK Flexibility Score: inf
ROOT
ATOM      1  C   UNL     1      15.757  42.959  20.979  1.00  0.00     0.000 C 
ENDROOT
BRANCH   1   2
ATOM      2  C   UNL     1      15.778  44.261  20.152  1.00  0.00     0.000 C 
BRANCH   2   3
ATOM      3  C   UNL     1      15.758  44.064  18.625  1.00  0.00     0.006 C 
BRANCH   3   4
ATOM      4  C   UNL     1      14.586  43.194  18.153  1.00  0.00     0.053 C 
BRANCH   4   5
ATOM      5  C   UNL     1      13.329  44.003  18.088  1.00  0.00     0.041 C 
ATOM      6  O   UNL     1      12.207  43.438  18.178  1.00  0.00    -0.550 OA
ATOM      7  O   UNL     1      13.394  45.375  17.879  1.00  0.00    -0.550 OA
ENDBRANCH   4   5
ENDBRANCH   3   4
ENDBRANCH   2   3
ENDBRANCH   1   2
BRANCH   1   8
ATOM      8  C   UNL     1      14.449  42.702  21.751  1.00  0.00     0.000 C 
BRANCH   8   9
ATOM      9  C   UNL     1      14.220  41.211  22.052  1.00  0.00     0.000 C 
BRANCH   9  10
ATOM     10  C   UNL     1      12.736  40.872  22.260  1.00  0.00     0.006 C 
BRANCH  10  11
ATOM     11  C   UNL     1      11.875  41.228  21.041  1.00  0.00     0.053 C 
BRANCH  11  12
ATOM     12  C   UNL     1      11.886  40.107  20.049  1.00  0.00     0.041 C 
ATOM     13  O   UNL     1      11.875  38.912  20.444  1.00  0.00    -0.550 OA
ATOM     14  O   UNL     1      11.960  40.383  18.689  1.00  0.00    -0.550 OA
ENDBRANCH  11  12
ENDBRANCH  10  11
ENDBRANCH   9  10
ENDBRANCH   8   9
ENDBRANCH   1   8
TORSDOF 9
ENDMDL
MODEL 6
REMARK VINA RESULT:    -1.391     11.581     12.880
REMARK INTER + INTRA:          -2.698
REMARK INTER:                  -2.389
REMARK INTRA:                  -0.308
REMARK UNBOUND:                -0.575
REMARK SMILES O=C([O-])CCCCCCCCC(=O)[O-]
REMARK SMILES IDX 7 1 6 2 5 3 4 4 2 5 1 6 3 7 8 8 9 9 10 10 11 11 12 12 13 13
REMARK SMILES IDX 14 14
REMARK H PARENT
REMARK Flexibility Score: inf
ROOT
ATOM      1  C   UNL     1      23.447  35.515  19.667  1.00  0.00     0.000 C 
ENDROOT
BRANCH   1   2
ATOM      2  C   UNL     1      23.844  35.552  18.177  1.00  0.00     0.000 C 
BRANCH   2   3
ATOM      3  C   UNL     1      25.198  36.219  17.878  1.00  0.00     0.006 C 
BRANCH   3   4
ATOM      4  C   UNL     1      26.367  35.225  17.893  1.00  0.00     0.053 C 
BRANCH   4   5
ATOM      5  C   UNL     1      27.671  35.955  17.976  1.00  0.00     0.041 C 
ATOM      6  O   UNL     1      28.752  35.313  18.041  1.00  0.00    -0.550 OA
ATOM      7  O   UNL     1      27.689  37.343  18.031  1.00  0.00    -0.550 OA
ENDBRANCH   4   5
ENDBRANCH   3   4
ENDBRANCH   2   3
ENDBRANCH   1   2
BRANCH   1   8
ATOM      8  C   UNL     1      23.353  36.892  20.348  1.00  0.00     0.000 C 
BRANCH   8   9
ATOM      9  C   UNL     1      22.250  36.953  21.418  1.00  0.00     0.000 C 
BRANCH   9  10
ATOM     10  C   UNL     1      22.268  38.269  22.211  1.00  0.00     0.006 C 
BRANCH  10  11
ATOM     11  C   UNL     1      22.560  38.053  23.702  1.00  0.00     0.053 C 
BRANCH  11  12
ATOM     12  C   UNL     1      23.645  38.976  24.160  1.00  0.00     0.041 C 
ATOM     13  O   UNL     1      23.961  39.026  25.378  1.00  0.00    -0.550 OA
ATOM     14  O   UNL     1      24.272  39.818  23.250  1.00  0.00    -0.550 OA
ENDBRANCH  11  12
ENDBRANCH  10  11
ENDBRANCH   9  10
ENDBRANCH   8   9
ENDBRANCH   1   8
TORSDOF 9
ENDMDL
MODEL 7
REMARK VINA RESULT:    -1.275     11.472     13.066
REMARK INTER + INTRA:          -2.521
REMARK INTER:                  -2.244
REMARK INTRA:                  -0.277
REMARK UNBOUND:                -0.575
REMARK SMILES O=C([O-])CCCCCCCCC(=O)[O-]
REMARK SMILES IDX 7 1 6 2 5 3 4 4 2 5 1 6 3 7 8 8 9 9 10 10 11 11 12 12 13 13
REMARK SMILES IDX 14 14
REMARK H PARENT
REMARK Flexibility Score: inf
ROOT
ATOM      1  C   UNL     1      23.492  37.039  20.316  1.00  0.00     0.000 C 
ENDROOT
BRANCH   1   2
ATOM      2  C   UNL     1      22.315  37.289  21.282  1.00  0.00     0.000 C 
BRANCH   2   3
ATOM      3  C   UNL     1      22.492  38.488  22.230  1.00  0.00     0.006 C 
BRANCH   3   4
ATOM      4  C   UNL     1      22.785  38.066  23.675  1.00  0.00     0.053 C 
BRANCH   4   5
ATOM      5  C   UNL     1      23.668  39.072  24.344  1.00  0.00     0.041 C 
ATOM      6  O   UNL     1      24.136  38.842  25.490  1.00  0.00    -0.550 OA
ATOM      7  O   UNL     1      23.935  40.286  23.722  1.00  0.00    -0.550 OA
ENDBRANCH   4   5
ENDBRANCH   3   4
ENDBRANCH   2   3
ENDBRANCH   1   2
BRANCH   1   8
ATOM      8  C   UNL     1      23.502  35.652  19.649  1.00  0.00     0.000 C 
BRANCH   8   9
ATOM      9  C   UNL     1      23.985  35.696  18.190  1.00  0.00     0.000 C 
BRANCH   9  10
ATOM     10  C   UNL     1      25.514  35.595  18.071  1.00  0.00     0.006 C 
BRANCH  10  11
ATOM     11  C   UNL     1      26.181  36.963  17.875  1.00  0.00     0.053 C 
BRANCH  11  12
ATOM     12  C   UNL     1      27.659  36.858  18.082  1.00  0.00     0.041 C 
ATOM     13  O   UNL     1      28.328  37.876  18.400  1.00  0.00    -0.550 OA
ATOM     14  O   UNL     1      28.305  35.646  17.875  1.00  0.00    -0.550 OA
ENDBRANCH  11  12
ENDBRANCH  10  11
ENDBRANCH   9  10
ENDBRANCH   8   9
ENDBRANCH   1   8
TORSDOF 9
ENDMDL
MODEL 8
REMARK VINA RESULT:    -1.031     11.218     12.551
REMARK INTER + INTRA:          -2.148
REMARK INTER:                  -1.797
REMARK INTRA:                  -0.351
REMARK UNBOUND:                -0.575
REMARK SMILES O=C([O-])CCCCCCCCC(=O)[O-]
REMARK SMILES IDX 7 1 6 2 5 3 4 4 2 5 1 6 3 7 8 8 9 9 10 10 11 11 12 12 13 13
REMARK SMILES IDX 14 14
REMARK H PARENT
REMARK Flexibility Score: inf
ROOT
ATOM      1  C   UNL     1      23.634  36.800  20.085  1.00  0.00     0.000 C 
ENDROOT
BRANCH   1   2
ATOM      2  C   UNL     1      23.517  35.622  19.095  1.00  0.00     0.000 C 
BRANCH   2   3
ATOM      3  C   UNL     1      24.453  35.700  17.875  1.00  0.00     0.006 C 
BRANCH   3   4
ATOM      4  C   UNL     1      25.384  36.918  17.917  1.00  0.00     0.053 C 
BRANCH   4   5
ATOM      5  C   UNL     1      26.815  36.480  17.903  1.00  0.00     0.041 C 
ATOM      6  O   UNL     1      27.104  35.256  17.963  1.00  0.00    -0.550 OA
ATOM      7  O   UNL     1      27.832  37.427  17.875  1.00  0.00    -0.550 OA
ENDBRANCH   4   5
ENDBRANCH   3   4
ENDBRANCH   2   3
ENDBRANCH   1   2
BRANCH   1   8
ATOM      8  C   UNL     1      22.480  36.915  21.097  1.00  0.00     0.000 C 
BRANCH   8   9
ATOM      9  C   UNL     1      22.289  38.347  21.622  1.00  0.00     0.000 C 
BRANCH   9  10
ATOM     10  C   UNL     1      22.180  38.405  23.154  1.00  0.00     0.006 C 
BRANCH  10  11
ATOM     11  C   UNL     1      23.419  39.033  23.808  1.00  0.00     0.053 C 
BRANCH  11  12
ATOM     12  C   UNL     1      23.668  38.420  25.150  1.00  0.00     0.041 C 
ATOM     13  O   UNL     1      23.625  39.130  26.188  1.00  0.00    -0.550 OA
ATOM     14  O   UNL     1      23.995  37.073  25.249  1.00  0.00    -0.550 OA
ENDBRANCH  11  12
ENDBRANCH  10  11
ENDBRANCH   9  10
ENDBRANCH   8   9
ENDBRANCH   1   8
TORSDOF 9
ENDMDL
MODEL 9
REMARK VINA RESULT:    -0.630     13.648     14.946
REMARK INTER + INTRA:          -1.536
REMARK INTER:                  -1.302
REMARK INTRA:                  -0.235
REMARK UNBOUND:                -0.575
REMARK SMILES O=C([O-])CCCCCCCCC(=O)[O-]
REMARK SMILES IDX 7 1 6 2 5 3 4 4 2 5 1 6 3 7 8 8 9 9 10 10 11 11 12 12 13 13
REMARK SMILES IDX 14 14
REMARK H PARENT
REMARK Flexibility Score: inf
ROOT
ATOM      1  C   UNL     1      11.979  46.900  32.017  1.00  0.00     0.000 C 
ENDROOT
BRANCH   1   2
ATOM      2  C   UNL     1      12.074  45.378  31.790  1.00  0.00     0.000 C 
BRANCH   2   3
ATOM      3  C   UNL     1      12.096  44.937  30.316  1.00  0.00     0.006 C 
BRANCH   3   4
ATOM      4  C   UNL     1      13.382  45.354  29.590  1.00  0.00     0.053 C 
BRANCH   4   5
ATOM      5  C   UNL     1      13.055  46.152  28.367  1.00  0.00     0.041 C 
ATOM      6  O   UNL     1      12.119  45.790  27.606  1.00  0.00    -0.550 OA
ATOM      7  O   UNL     1      13.816  47.268  28.040  1.00  0.00    -0.550 OA
ENDBRANCH   4   5
ENDBRANCH   3   4
ENDBRANCH   2   3
ENDBRANCH   1   2
BRANCH   1   8
ATOM      8  C   UNL     1      11.882  47.333  33.491  1.00  0.00     0.000 C 
BRANCH   8   9
ATOM      9  C   UNL     1      12.365  48.775  33.721  1.00  0.00     0.000 C 
BRANCH   9  10
ATOM     10  C   UNL     1      11.998  49.305  35.116  1.00  0.00     0.006 C 
BRANCH  10  11
ATOM     11  C   UNL     1      13.009  48.883  36.190  1.00  0.00     0.053 C 
BRANCH  11  12
ATOM     12  C   UNL     1      12.357  48.852  37.537  1.00  0.00     0.041 C 
ATOM     13  O   UNL     1      12.163  47.754  38.121  1.00  0.00    -0.550 OA
ATOM     14  O   UNL     1      11.920  50.033  38.125  1.00  0.00    -0.550 OA
ENDBRANCH  11  12
ENDBRANCH  10  11
ENDBRANCH   9  10
ENDBRANCH   8   9
ENDBRANCH   1   8
TORSDOF 9
ENDMDL
