MODEL 1
REMARK VINA RESULT:    -3.337      0.000      0.000
REMARK INTER + INTRA:          -3.376
REMARK INTER:                  -4.117
REMARK INTRA:                   0.741
REMARK UNBOUND:                 0.741
REMARK SMILES CC1=CC=CC(C)(C)CC1=O
REMARK SMILES IDX 1 1 2 2 3 3 10 4 11 5 9 6 4 8 5 9 6 10 7 11 8 12
REMARK H PARENT
REMARK Flexibility Score: 80.00
ROOT
ATOM      1  C   UNL     1       3.131  14.740  23.666  1.00  0.00     0.048 C 
ATOM      2  C   UNL     1       2.464  15.440  22.506  1.00  0.00    -0.008 C 
ATOM      3  C   UNL     1       1.509  16.352  22.791  1.00  0.00     0.007 C 
ENDROOT
BRANCH   2   4
ATOM      4  C   UNL     1       2.860  15.014  21.140  1.00  0.00     0.159 C 
ATOM      5  O   UNL     1       3.569  13.979  21.008  1.00  0.00    -0.295 OA
BRANCH   4   6
ATOM      6  C   UNL     1       2.473  15.756  19.898  1.00  0.00     0.091 CG0
ATOM      7  G   UNL     1       0.944  15.890  19.720  1.00  0.00     0.000 G0
ENDBRANCH   4   6
ENDBRANCH   2   4
BRANCH   3   8
ATOM      8  C   UNL     1       0.672  17.169  21.881  1.00  0.00    -0.003 C 
ATOM      9  C   UNL     1       0.412  16.986  20.580  1.00  0.00    -0.020 C 
BRANCH   9  10
ATOM     10  C   UNL     1       0.954  15.882  19.704  1.00  0.00    -0.010 CG0
ATOM     11  C   UNL     1       0.711  16.271  18.227  1.00  0.00     0.016 C 
ATOM     12  C   UNL     1       0.192  14.566  19.982  1.00  0.00     0.016 C 
ATOM     13  G   UNL     1       2.478  15.746  19.920  1.00  0.00     0.000 G0
ENDBRANCH   9  10
ENDBRANCH   3   8
TORSDOF 0
ENDMDL
MODEL 2
REMARK VINA RESULT:    -3.324      2.458      4.048
REMARK INTER + INTRA:          -3.360
REMARK INTER:                  -4.121
REMARK INTRA:                   0.761
REMARK UNBOUND:                 0.741
REMARK SMILES CC1=CC=CC(C)(C)CC1=O
REMARK SMILES IDX 1 1 2 2 3 3 10 4 11 5 9 6 4 8 5 9 6 10 7 11 8 12
REMARK H PARENT
REMARK Flexibility Score: 80.00
ROOT
ATOM      1  C   UNL     1       0.628  16.932  21.794  1.00  0.00     0.048 C 
ATOM      2  C   UNL     1       1.405  15.769  22.364  1.00  0.00    -0.008 C 
ATOM      3  C   UNL     1       2.438  16.051  23.185  1.00  0.00     0.007 C 
ENDROOT
BRANCH   2   4
ATOM      4  C   UNL     1       1.014  14.409  21.914  1.00  0.00     0.159 C 
ATOM      5  O   UNL     1       0.213  14.296  20.947  1.00  0.00    -0.295 OA
BRANCH   4   6
ATOM      6  C   UNL     1       1.513  13.152  22.556  1.00  0.00     0.091 CG0
ATOM      7  G   UNL     1       3.052  13.021  22.527  1.00  0.00     0.000 G0
ENDBRANCH   4   6
ENDBRANCH   2   4
BRANCH   3   8
ATOM      8  C   UNL     1       3.388  15.139  23.867  1.00  0.00    -0.003 C 
ATOM      9  C   UNL     1       3.674  13.860  23.593  1.00  0.00    -0.020 C 
BRANCH   9  10
ATOM     10  C   UNL     1       3.053  13.014  22.507  1.00  0.00    -0.010 CG0
ATOM     11  C   UNL     1       3.407  11.534  22.782  1.00  0.00     0.016 C 
ATOM     12  C   UNL     1       3.648  13.399  21.133  1.00  0.00     0.016 C 
ATOM     13  G   UNL     1       1.515  13.156  22.551  1.00  0.00     0.000 G0
ENDBRANCH   9  10
ENDBRANCH   3   8
TORSDOF 0
ENDMDL
MODEL 3
REMARK VINA RESULT:    -3.307      4.993      6.365
REMARK INTER + INTRA:          -3.340
REMARK INTER:                  -4.091
REMARK INTRA:                   0.751
REMARK UNBOUND:                 0.741
REMARK SMILES CC1=CC=CC(C)(C)CC1=O
REMARK SMILES IDX 1 1 2 2 3 3 10 4 11 5 9 6 4 8 5 9 6 10 7 11 8 12
REMARK H PARENT
REMARK Flexibility Score: 80.00
ROOT
ATOM      1  C   UNL     1       1.059   8.296  18.838  1.00  0.00     0.048 C 
ATOM      2  C   UNL     1       1.267   9.484  17.929  1.00  0.00    -0.008 C 
ATOM      3  C   UNL     1       1.769   9.248  16.698  1.00  0.00     0.007 C 
ENDROOT
BRANCH   2   4
ATOM      4  C   UNL     1       0.972  10.826  18.491  1.00  0.00     0.159 C 
ATOM      5  O   UNL     1       0.777  10.935  19.732  1.00  0.00    -0.295 OA
BRANCH   4   6
ATOM      6  C   UNL     1       0.879  12.067  17.659  1.00  0.00     0.091 CG0
ATOM      7  G   UNL     1       2.185  12.390  16.899  1.00  0.00     0.000 G0
ENDBRANCH   4   6
ENDBRANCH   2   4
BRANCH   3   8
ATOM      8  C   UNL     1       2.103  10.197  15.609  1.00  0.00    -0.003 C 
ATOM      9  C   UNL     1       2.297  11.521  15.672  1.00  0.00    -0.020 C 
BRANCH   9  10
ATOM     10  C   UNL     1       2.191  12.385  16.906  1.00  0.00    -0.010 CG0
ATOM     11  C   UNL     1       2.125  13.864  16.459  1.00  0.00     0.016 C 
ATOM     12  C   UNL     1       3.450  12.208  17.785  1.00  0.00     0.016 C 
ATOM     13  G   UNL     1       0.885  12.053  17.663  1.00  0.00     0.000 G0
ENDBRANCH   9  10
ENDBRANCH   3   8
TORSDOF 0
ENDMDL
MODEL 4
REMARK VINA RESULT:    -3.191      1.202      1.719
REMARK INTER + INTRA:          -3.196
REMARK INTER:                  -3.948
REMARK INTRA:                   0.752
REMARK UNBOUND:                 0.741
REMARK SMILES CC1=CC=CC(C)(C)CC1=O
REMARK SMILES IDX 1 1 2 2 3 3 10 4 11 5 9 6 4 8 5 9 6 10 7 11 8 12
REMARK H PARENT
REMARK Flexibility Score: 80.00
ROOT
ATOM      1  C   UNL     1       4.346  12.920  23.385  1.00  0.00     0.048 C 
ATOM      2  C   UNL     1       3.568  14.078  22.806  1.00  0.00    -0.008 C 
ATOM      3  C   UNL     1       3.169  15.049  23.655  1.00  0.00     0.007 C 
ENDROOT
BRANCH   2   4
ATOM      4  C   UNL     1       3.240  14.017  21.359  1.00  0.00     0.159 C 
ATOM      5  O   UNL     1       3.462  12.947  20.731  1.00  0.00    -0.295 OA
BRANCH   4   6
ATOM      6  C   UNL     1       2.666  15.169  20.594  1.00  0.00     0.091 CG0
ATOM      7  G   UNL     1       1.321  15.671  21.164  1.00  0.00     0.000 G0
ENDBRANCH   4   6
ENDBRANCH   2   4
BRANCH   3   8
ATOM      8  C   UNL     1       2.382  16.277  23.393  1.00  0.00    -0.003 C 
ATOM      9  C   UNL     1       1.587  16.565  22.354  1.00  0.00    -0.020 C 
BRANCH   9  10
ATOM     10  C   UNL     1       1.324  15.686  21.155  1.00  0.00    -0.010 CG0
ATOM     11  C   UNL     1       0.654  16.547  20.060  1.00  0.00     0.016 C 
ATOM     12  C   UNL     1       0.345  14.552  21.536  1.00  0.00     0.016 C 
ATOM     13  G   UNL     1       2.663  15.154  20.596  1.00  0.00     0.000 G0
ENDBRANCH   9  10
ENDBRANCH   3   8
TORSDOF 0
ENDMDL
MODEL 5
REMARK VINA RESULT:    -3.091      5.003      6.620
REMARK INTER + INTRA:          -3.073
REMARK INTER:                  -3.827
REMARK INTRA:                   0.754
REMARK UNBOUND:                 0.741
REMARK SMILES CC1=CC=CC(C)(C)CC1=O
REMARK SMILES IDX 1 1 2 2 3 3 10 4 11 5 9 6 4 8 5 9 6 10 7 11 8 12
REMARK H PARENT
REMARK Flexibility Score: 80.00
ROOT
ATOM      1  C   UNL     1       1.937  10.801  15.168  1.00  0.00     0.048 C 
ATOM      2  C   UNL     1       1.926  10.479  16.644  1.00  0.00    -0.008 C 
ATOM      3  C   UNL     1       1.675   9.202  17.003  1.00  0.00     0.007 C 
ENDROOT
BRANCH   2   4
ATOM      4  C   UNL     1       2.119  11.611  17.585  1.00  0.00     0.159 C 
ATOM      5  O   UNL     1       2.090  12.788  17.133  1.00  0.00    -0.295 OA
BRANCH   4   6
ATOM      6  C   UNL     1       2.362  11.433  19.052  1.00  0.00     0.091 CG0
ATOM      7  G   UNL     1       1.220  10.681  19.771  1.00  0.00     0.000 G0
ENDBRANCH   4   6
ENDBRANCH   2   4
BRANCH   3   8
ATOM      8  C   UNL     1       1.574   8.595  18.351  1.00  0.00    -0.003 C 
ATOM      9  C   UNL     1       1.375   9.193  19.533  1.00  0.00    -0.020 C 
BRANCH   9  10
ATOM     10  C   UNL     1       1.232  10.676  19.776  1.00  0.00    -0.010 CG0
ATOM     11  C   UNL     1       1.386  10.937  21.292  1.00  0.00     0.016 C 
ATOM     12  C   UNL     1      -0.177  11.147  19.351  1.00  0.00     0.016 C 
ATOM     13  G   UNL     1       2.360  11.435  19.041  1.00  0.00     0.000 G0
ENDBRANCH   9  10
ENDBRANCH   3   8
TORSDOF 0
ENDMDL
MODEL 6
REMARK VINA RESULT:    -3.080      5.542      6.504
REMARK INTER + INTRA:          -3.060
REMARK INTER:                  -3.811
REMARK INTRA:                   0.751
REMARK UNBOUND:                 0.741
REMARK SMILES CC1=CC=CC(C)(C)CC1=O
REMARK SMILES IDX 1 1 2 2 3 3 10 4 11 5 9 6 4 8 5 9 6 10 7 11 8 12
REMARK H PARENT
REMARK Flexibility Score: 80.00
ROOT
ATOM      1  C   UNL     1       1.352   8.289  18.453  1.00  0.00     0.048 C 
ATOM      2  C   UNL     1       1.796   9.647  17.963  1.00  0.00    -0.008 C 
ATOM      3  C   UNL     1       0.970  10.692  18.184  1.00  0.00     0.007 C 
ENDROOT
BRANCH   2   4
ATOM      4  C   UNL     1       3.074   9.711  17.210  1.00  0.00     0.159 C 
ATOM      5  O   UNL     1       3.619   8.632  16.846  1.00  0.00    -0.295 OA
BRANCH   4   6
ATOM      6  C   UNL     1       3.767  10.992  16.866  1.00  0.00     0.091 CG0
ATOM      7  G   UNL     1       2.896  11.948  16.022  1.00  0.00     0.000 G0
ENDBRANCH   4   6
ENDBRANCH   2   4
BRANCH   3   8
ATOM      8  C   UNL     1       1.116  12.117  17.804  1.00  0.00    -0.003 C 
ATOM      9  C   UNL     1       1.920  12.668  16.885  1.00  0.00    -0.020 C 
BRANCH   9  10
ATOM     10  C   UNL     1       2.916  11.942  16.014  1.00  0.00    -0.010 CG0
ATOM     11  C   UNL     1       3.868  12.988  15.389  1.00  0.00     0.016 C 
ATOM     12  C   UNL     1       2.181  11.218  14.863  1.00  0.00     0.016 C 
ATOM     13  G   UNL     1       3.761  10.980  16.879  1.00  0.00     0.000 G0
ENDBRANCH   9  10
ENDBRANCH   3   8
TORSDOF 0
ENDMDL
MODEL 7
REMARK VINA RESULT:    -3.052      1.610      2.565
REMARK INTER + INTRA:          -3.025
REMARK INTER:                  -3.780
REMARK INTRA:                   0.756
REMARK UNBOUND:                 0.741
REMARK SMILES CC1=CC=CC(C)(C)CC1=O
REMARK SMILES IDX 1 1 2 2 3 3 10 4 11 5 9 6 4 8 5 9 6 10 7 11 8 12
REMARK H PARENT
REMARK Flexibility Score: 80.00
ROOT
ATOM      1  C   UNL     1       2.804  15.653  23.512  1.00  0.00     0.048 C 
ATOM      2  C   UNL     1       2.378  15.249  22.121  1.00  0.00    -0.008 C 
ATOM      3  C   UNL     1       3.209  14.447  21.421  1.00  0.00     0.007 C 
ENDROOT
BRANCH   2   4
ATOM      4  C   UNL     1       1.111  15.828  21.606  1.00  0.00     0.159 C 
ATOM      5  O   UNL     1       0.548  16.741  22.269  1.00  0.00    -0.295 OA
BRANCH   4   6
ATOM      6  C   UNL     1       0.452  15.377  20.340  1.00  0.00     0.091 CG0
ATOM      7  G   UNL     1       1.354  15.529  19.095  1.00  0.00     0.000 G0
ENDBRANCH   4   6
ENDBRANCH   2   4
BRANCH   3   8
ATOM      8  C   UNL     1       3.079  13.913  20.044  1.00  0.00    -0.003 C 
ATOM      9  C   UNL     1       2.312  14.350  19.038  1.00  0.00    -0.020 C 
BRANCH   9  10
ATOM     10  C   UNL     1       1.348  15.511  19.083  1.00  0.00    -0.010 CG0
ATOM     11  C   UNL     1       0.435  15.433  17.838  1.00  0.00     0.016 C 
ATOM     12  C   UNL     1       2.126  16.845  19.022  1.00  0.00     0.016 C 
ATOM     13  G   UNL     1       0.456  15.399  20.340  1.00  0.00     0.000 G0
ENDBRANCH   9  10
ENDBRANCH   3   8
TORSDOF 0
ENDMDL
MODEL 8
REMARK VINA RESULT:    -3.017      2.075      3.846
REMARK INTER + INTRA:          -2.982
REMARK INTER:                  -3.733
REMARK INTRA:                   0.751
REMARK UNBOUND:                 0.741
REMARK SMILES CC1=CC=CC(C)(C)CC1=O
REMARK SMILES IDX 1 1 2 2 3 3 10 4 11 5 9 6 4 8 5 9 6 10 7 11 8 12
REMARK H PARENT
REMARK Flexibility Score: 80.00
ROOT
ATOM      1  C   UNL     1       2.202  16.905  19.727  1.00  0.00     0.048 C 
ATOM      2  C   UNL     1       2.309  15.926  20.872  1.00  0.00    -0.008 C 
ATOM      3  C   UNL     1       2.839  16.374  22.030  1.00  0.00     0.007 C 
ENDROOT
BRANCH   2   4
ATOM      4  C   UNL     1       1.889  14.527  20.607  1.00  0.00     0.159 C 
ATOM      5  O   UNL     1       1.679  14.171  19.415  1.00  0.00    -0.295 OA
BRANCH   4   6
ATOM      6  C   UNL     1       1.686  13.507  21.685  1.00  0.00     0.091 CG0
ATOM      7  G   UNL     1       2.963  13.229  22.509  1.00  0.00     0.000 G0
ENDBRANCH   4   6
ENDBRANCH   2   4
BRANCH   3   8
ATOM      8  C   UNL     1       3.093  15.654  23.301  1.00  0.00    -0.003 C 
ATOM      9  C   UNL     1       3.160  14.336  23.527  1.00  0.00    -0.020 C 
BRANCH   9  10
ATOM     10  C   UNL     1       2.956  13.241  22.507  1.00  0.00    -0.010 CG0
ATOM     11  C   UNL     1       2.744  11.908  23.263  1.00  0.00     0.016 C 
ATOM     12  C   UNL     1       4.220  13.095  21.629  1.00  0.00     0.016 C 
ATOM     13  G   UNL     1       1.685  13.530  21.678  1.00  0.00     0.000 G0
ENDBRANCH   9  10
ENDBRANCH   3   8
TORSDOF 0
ENDMDL
MODEL 9
REMARK VINA RESULT:    -3.013      5.103      6.673
REMARK INTER + INTRA:          -2.977
REMARK INTER:                  -3.734
REMARK INTRA:                   0.758
REMARK UNBOUND:                 0.741
REMARK SMILES CC1=CC=CC(C)(C)CC1=O
REMARK SMILES IDX 1 1 2 2 3 3 10 4 11 5 9 6 4 8 5 9 6 10 7 11 8 12
REMARK H PARENT
REMARK Flexibility Score: 80.00
ROOT
ATOM      1  C   UNL     1       1.753   9.511  16.363  1.00  0.00     0.048 C 
ATOM      2  C   UNL     1       1.457   9.518  17.844  1.00  0.00    -0.008 C 
ATOM      3  C   UNL     1       0.846   8.432  18.364  1.00  0.00     0.007 C 
ENDROOT
BRANCH   2   4
ATOM      4  C   UNL     1       1.795  10.753  18.596  1.00  0.00     0.159 C 
ATOM      5  O   UNL     1       2.126  11.785  17.952  1.00  0.00    -0.295 OA
BRANCH   4   6
ATOM      6  C   UNL     1       1.778  10.840  20.091  1.00  0.00     0.091 CG0
ATOM      7  G   UNL     1       0.395  10.524  20.704  1.00  0.00     0.000 G0
ENDBRANCH   4   6
ENDBRANCH   2   4
BRANCH   3   8
ATOM      8  C   UNL     1       0.409   8.161  19.755  1.00  0.00    -0.003 C 
ATOM      9  C   UNL     1       0.200   9.023  20.758  1.00  0.00    -0.020 C 
BRANCH   9  10
ATOM     10  C   UNL     1       0.393  10.520  20.708  1.00  0.00    -0.010 CG0
ATOM     11  C   UNL     1       0.383  11.058  22.158  1.00  0.00     0.016 C 
ATOM     12  C   UNL     1      -0.780  11.179  19.947  1.00  0.00     0.016 C 
ATOM     13  G   UNL     1       1.768  10.848  20.084  1.00  0.00     0.000 G0
ENDBRANCH   9  10
ENDBRANCH   3   8
TORSDOF 0
ENDMDL
