MODEL 1
REMARK VINA RESULT:    -3.046      0.000      0.000
REMARK INTER + INTRA:          -8.393
REMARK INTER:                  -5.717
REMARK INTRA:                  -2.676
REMARK UNBOUND:                -2.676
REMARK SMILES CCCCCCCCC=CCCCCCCCC(=O)[O-]
REMARK SMILES IDX 10 1 9 2 11 3 12 4 13 5 14 6 15 7 16 8 17 9 18 10 19 11
REMARK SMILES IDX 20 12 8 13 7 14 6 15 5 16 4 17 3 18 2 19 1 20
REMARK H PARENT
REMARK Flexibility Score: inf
ROOT
ATOM      1  C   UNL     1      40.941 -36.375  -2.470  1.00  0.00    -0.031 C 
ATOM      2  C   UNL     1      42.181 -36.713  -2.084  1.00  0.00    -0.031 C 
ENDROOT
BRANCH   1   3
ATOM      3  C   UNL     1      39.914 -35.899  -1.482  1.00  0.00     0.027 C 
BRANCH   3   4
ATOM      4  C   UNL     1      38.496 -36.035  -2.052  1.00  0.00     0.004 C 
BRANCH   4   5
ATOM      5  C   UNL     1      38.466 -37.032  -3.220  1.00  0.00     0.000 C 
BRANCH   5   6
ATOM      6  C   UNL     1      37.786 -38.365  -2.852  1.00  0.00     0.000 C 
BRANCH   6   7
ATOM      7  C   UNL     1      37.558 -39.327  -4.032  1.00  0.00     0.000 C 
BRANCH   7   8
ATOM      8  C   UNL     1      36.521 -40.421  -3.724  1.00  0.00     0.006 C 
BRANCH   8   9
ATOM      9  C   UNL     1      35.774 -40.159  -2.408  1.00  0.00     0.053 C 
BRANCH   9  10
ATOM     10  C   UNL     1      34.297 -40.024  -2.624  1.00  0.00     0.041 C 
ATOM     11  O   UNL     1      33.792 -40.311  -3.742  1.00  0.00    -0.550 OA
ATOM     12  O   UNL     1      33.477 -39.604  -1.585  1.00  0.00    -0.550 OA
ENDBRANCH   9  10
ENDBRANCH   8   9
ENDBRANCH   7   8
ENDBRANCH   6   7
ENDBRANCH   5   6
ENDBRANCH   4   5
ENDBRANCH   3   4
ENDBRANCH   1   3
BRANCH   2  13
ATOM     13  C   UNL     1      43.235 -37.122  -3.077  1.00  0.00     0.027 C 
BRANCH  13  14
ATOM     14  C   UNL     1      42.621 -37.454  -4.443  1.00  0.00     0.004 C 
BRANCH  14  15
ATOM     15  C   UNL     1      42.564 -38.971  -4.701  1.00  0.00     0.000 C 
BRANCH  15  16
ATOM     16  C   UNL     1      41.192 -39.581  -4.363  1.00  0.00     0.000 C 
BRANCH  16  17
ATOM     17  C   UNL     1      41.304 -40.994  -3.765  1.00  0.00    -0.000 C 
BRANCH  17  18
ATOM     18  C   UNL     1      40.478 -41.156  -2.479  1.00  0.00    -0.000 C 
BRANCH  18  19
ATOM     19  C   UNL     1      40.698 -40.007  -1.483  1.00  0.00    -0.003 C 
ATOM     20  C   UNL     1      42.022 -40.171  -0.743  1.00  0.00     0.004 C 
ENDBRANCH  18  19
ENDBRANCH  17  18
ENDBRANCH  16  17
ENDBRANCH  15  16
ENDBRANCH  14  15
ENDBRANCH  13  14
ENDBRANCH   2  13
TORSDOF 15
ENDMDL
MODEL 2
REMARK VINA RESULT:    -2.982      4.215      5.188
REMARK INTER + INTRA:          -8.272
REMARK INTER:                  -6.359
REMARK INTRA:                  -1.913
REMARK UNBOUND:                -2.676
REMARK SMILES CCCCCCCCC=CCCCCCCCC(=O)[O-]
REMARK SMILES IDX 10 1 9 2 11 3 12 4 13 5 14 6 15 7 16 8 17 9 18 10 19 11
REMARK SMILES IDX 20 12 8 13 7 14 6 15 5 16 4 17 3 18 2 19 1 20
REMARK H PARENT
REMARK Flexibility Score: inf
ROOT
ATOM      1  C   UNL     1      40.792 -36.115   0.370  1.00  0.00    -0.031 C 
ATOM      2  C   UNL     1      41.676 -36.784  -0.385  1.00  0.00    -0.031 C 
ENDROOT
BRANCH   1   3
ATOM      3  C   UNL     1      39.819 -36.835   1.262  1.00  0.00     0.027 C 
BRANCH   3   4
ATOM      4  C   UNL     1      38.473 -36.100   1.316  1.00  0.00     0.004 C 
BRANCH   4   5
ATOM      5  C   UNL     1      37.362 -36.940   0.671  1.00  0.00     0.000 C 
BRANCH   5   6
ATOM      6  C   UNL     1      36.301 -37.409   1.685  1.00  0.00     0.000 C 
BRANCH   6   7
ATOM      7  C   UNL     1      35.759 -36.309   2.617  1.00  0.00     0.000 C 
BRANCH   7   8
ATOM      8  C   UNL     1      35.922 -36.651   4.108  1.00  0.00     0.006 C 
BRANCH   8   9
ATOM      9  C   UNL     1      34.675 -36.287   4.927  1.00  0.00     0.053 C 
BRANCH   9  10
ATOM     10  C   UNL     1      33.600 -37.322   4.793  1.00  0.00     0.041 C 
ATOM     11  O   UNL     1      32.387 -36.982   4.816  1.00  0.00    -0.550 OA
ATOM     12  O   UNL     1      33.938 -38.658   4.623  1.00  0.00    -0.550 OA
ENDBRANCH   9  10
ENDBRANCH   8   9
ENDBRANCH   7   8
ENDBRANCH   6   7
ENDBRANCH   5   6
ENDBRANCH   4   5
ENDBRANCH   3   4
ENDBRANCH   1   3
BRANCH   2  13
ATOM     13  C   UNL     1      42.699 -36.070  -1.226  1.00  0.00     0.027 C 
BRANCH  13  14
ATOM     14  C   UNL     1      42.205 -35.875  -2.665  1.00  0.00     0.004 C 
BRANCH  14  15
ATOM     15  C   UNL     1      42.716 -36.982  -3.608  1.00  0.00     0.000 C 
BRANCH  15  16
ATOM     16  C   UNL     1      41.573 -37.768  -4.276  1.00  0.00     0.000 C 
BRANCH  16  17
ATOM     17  C   UNL     1      41.037 -38.901  -3.384  1.00  0.00    -0.000 C 
BRANCH  17  18
ATOM     18  C   UNL     1      39.632 -38.603  -2.835  1.00  0.00    -0.000 C 
BRANCH  18  19
ATOM     19  C   UNL     1      38.922 -37.475  -3.602  1.00  0.00    -0.003 C 
ATOM     20  C   UNL     1      38.486 -36.361  -2.655  1.00  0.00     0.004 C 
ENDBRANCH  18  19
ENDBRANCH  17  18
ENDBRANCH  16  17
ENDBRANCH  15  16
ENDBRANCH  14  15
ENDBRANCH  13  14
ENDBRANCH   2  13
TORSDOF 15
ENDMDL
MODEL 3
REMARK VINA RESULT:    -2.974     12.610     14.366
REMARK INTER + INTRA:          -8.258
REMARK INTER:                  -5.484
REMARK INTRA:                  -2.774
REMARK UNBOUND:                -2.676
REMARK SMILES CCCCCCCCC=CCCCCCCCC(=O)[O-]
REMARK SMILES IDX 10 1 9 2 11 3 12 4 13 5 14 6 15 7 16 8 17 9 18 10 19 11
REMARK SMILES IDX 20 12 8 13 7 14 6 15 5 16 4 17 3 18 2 19 1 20
REMARK H PARENT
REMARK Flexibility Score: inf
ROOT
ATOM      1  C   UNL     1      34.363 -37.009  11.527  1.00  0.00    -0.031 C 
ATOM      2  C   UNL     1      34.084 -37.765  12.600  1.00  0.00    -0.031 C 
ENDROOT
BRANCH   1   3
ATOM      3  C   UNL     1      33.313 -36.683  10.502  1.00  0.00     0.027 C 
BRANCH   3   4
ATOM      4  C   UNL     1      31.944 -37.236  10.920  1.00  0.00     0.004 C 
BRANCH   4   5
ATOM      5  C   UNL     1      31.310 -38.051   9.785  1.00  0.00     0.000 C 
BRANCH   5   6
ATOM      6  C   UNL     1      30.959 -37.193   8.554  1.00  0.00     0.000 C 
BRANCH   6   7
ATOM      7  C   UNL     1      31.764 -37.518   7.282  1.00  0.00     0.000 C 
BRANCH   7   8
ATOM      8  C   UNL     1      32.268 -36.260   6.553  1.00  0.00     0.006 C 
BRANCH   8   9
ATOM      9  C   UNL     1      33.694 -35.876   6.975  1.00  0.00     0.053 C 
BRANCH   9  10
ATOM     10  C   UNL     1      34.704 -36.262   5.939  1.00  0.00     0.041 C 
ATOM     11  O   UNL     1      35.915 -35.944   6.084  1.00  0.00    -0.550 OA
ATOM     12  O   UNL     1      34.313 -36.991   4.823  1.00  0.00    -0.550 OA
ENDBRANCH   9  10
ENDBRANCH   8   9
ENDBRANCH   7   8
ENDBRANCH   6   7
ENDBRANCH   5   6
ENDBRANCH   4   5
ENDBRANCH   3   4
ENDBRANCH   1   3
BRANCH   2  13
ATOM     13  C   UNL     1      35.111 -38.037  13.666  1.00  0.00     0.027 C 
BRANCH  13  14
ATOM     14  C   UNL     1      35.434 -39.533  13.766  1.00  0.00     0.004 C 
BRANCH  14  15
ATOM     15  C   UNL     1      34.432 -40.397  12.976  1.00  0.00     0.000 C 
BRANCH  15  16
ATOM     16  C   UNL     1      35.123 -41.418  12.055  1.00  0.00     0.000 C 
BRANCH  16  17
ATOM     17  C   UNL     1      35.401 -40.853  10.651  1.00  0.00    -0.000 C 
BRANCH  17  18
ATOM     18  C   UNL     1      34.122 -40.369   9.948  1.00  0.00    -0.000 C 
BRANCH  18  19
ATOM     19  C   UNL     1      34.387 -39.851   8.525  1.00  0.00    -0.003 C 
ATOM     20  C   UNL     1      35.538 -38.850   8.512  1.00  0.00     0.004 C 
ENDBRANCH  18  19
ENDBRANCH  17  18
ENDBRANCH  16  17
ENDBRANCH  15  16
ENDBRANCH  14  15
ENDBRANCH  13  14
ENDBRANCH   2  13
TORSDOF 15
ENDMDL
MODEL 4
REMARK VINA RESULT:    -2.944     10.902     12.939
REMARK INTER + INTRA:          -8.201
REMARK INTER:                  -6.350
REMARK INTRA:                  -1.851
REMARK UNBOUND:                -2.676
REMARK SMILES CCCCCCCCC=CCCCCCCCC(=O)[O-]
REMARK SMILES IDX 10 1 9 2 11 3 12 4 13 5 14 6 15 7 16 8 17 9 18 10 19 11
REMARK SMILES IDX 20 12 8 13 7 14 6 15 5 16 4 17 3 18 2 19 1 20
REMARK H PARENT
REMARK Flexibility Score: inf
ROOT
ATOM      1  C   UNL     1      35.881 -36.639   5.126  1.00  0.00    -0.031 C 
ATOM      2  C   UNL     1      35.488 -35.976   4.027  1.00  0.00    -0.031 C 
ENDROOT
BRANCH   1   3
ATOM      3  C   UNL     1      35.705 -36.055   6.499  1.00  0.00     0.027 C 
BRANCH   3   4
ATOM      4  C   UNL     1      34.244 -36.154   6.957  1.00  0.00     0.004 C 
BRANCH   4   5
ATOM      5  C   UNL     1      34.075 -37.239   8.029  1.00  0.00     0.000 C 
BRANCH   5   6
ATOM      6  C   UNL     1      33.980 -36.664   9.455  1.00  0.00     0.000 C 
BRANCH   6   7
ATOM      7  C   UNL     1      32.655 -36.952  10.186  1.00  0.00     0.000 C 
BRANCH   7   8
ATOM      8  C   UNL     1      32.838 -37.165  11.699  1.00  0.00     0.006 C 
BRANCH   8   9
ATOM      9  C   UNL     1      34.306 -37.035  12.131  1.00  0.00     0.053 C 
BRANCH   9  10
ATOM     10  C   UNL     1      34.723 -38.158  13.030  1.00  0.00     0.041 C 
ATOM     11  O   UNL     1      34.867 -37.960  14.267  1.00  0.00    -0.550 OA
ATOM     12  O   UNL     1      34.931 -39.428  12.508  1.00  0.00    -0.550 OA
ENDBRANCH   9  10
ENDBRANCH   8   9
ENDBRANCH   7   8
ENDBRANCH   6   7
ENDBRANCH   5   6
ENDBRANCH   4   5
ENDBRANCH   3   4
ENDBRANCH   1   3
BRANCH   2  13
ATOM     13  C   UNL     1      35.596 -36.583   2.655  1.00  0.00     0.027 C 
BRANCH  13  14
ATOM     14  C   UNL     1      34.618 -37.753   2.481  1.00  0.00     0.004 C 
BRANCH  14  15
ATOM     15  C   UNL     1      33.160 -37.335   2.752  1.00  0.00     0.000 C 
BRANCH  15  16
ATOM     16  C   UNL     1      32.334 -38.454   3.409  1.00  0.00     0.000 C 
BRANCH  16  17
ATOM     17  C   UNL     1      32.533 -38.518   4.934  1.00  0.00    -0.000 C 
BRANCH  17  18
ATOM     18  C   UNL     1      31.210 -38.390   5.706  1.00  0.00    -0.000 C 
BRANCH  18  19
ATOM     19  C   UNL     1      30.833 -36.928   5.999  1.00  0.00    -0.003 C 
ATOM     20  C   UNL     1      30.237 -36.787   7.396  1.00  0.00     0.004 C 
ENDBRANCH  18  19
ENDBRANCH  17  18
ENDBRANCH  16  17
ENDBRANCH  15  16
ENDBRANCH  14  15
ENDBRANCH  13  14
ENDBRANCH   2  13
TORSDOF 15
ENDMDL
MODEL 5
REMARK VINA RESULT:    -2.936     11.488     13.290
REMARK INTER + INTRA:          -8.185
REMARK INTER:                  -6.049
REMARK INTRA:                  -2.137
REMARK UNBOUND:                -2.676
REMARK SMILES CCCCCCCCC=CCCCCCCCC(=O)[O-]
REMARK SMILES IDX 10 1 9 2 11 3 12 4 13 5 14 6 15 7 16 8 17 9 18 10 19 11
REMARK SMILES IDX 20 12 8 13 7 14 6 15 5 16 4 17 3 18 2 19 1 20
REMARK H PARENT
REMARK Flexibility Score: inf
ROOT
ATOM      1  C   UNL     1      36.123 -38.313   7.253  1.00  0.00    -0.031 C 
ATOM      2  C   UNL     1      35.497 -38.245   6.068  1.00  0.00    -0.031 C 
ENDROOT
BRANCH   1   3
ATOM      3  C   UNL     1      35.458 -38.915   8.458  1.00  0.00     0.027 C 
BRANCH   3   4
ATOM      4  C   UNL     1      34.031 -38.376   8.627  1.00  0.00     0.004 C 
BRANCH   4   5
ATOM      5  C   UNL     1      34.039 -37.002   9.310  1.00  0.00     0.000 C 
BRANCH   5   6
ATOM      6  C   UNL     1      32.779 -36.747  10.158  1.00  0.00     0.000 C 
BRANCH   6   7
ATOM      7  C   UNL     1      32.907 -37.126  11.646  1.00  0.00     0.000 C 
BRANCH   7   8
ATOM      8  C   UNL     1      34.368 -37.200  12.123  1.00  0.00     0.006 C 
BRANCH   8   9
ATOM      9  C   UNL     1      34.780 -38.626  12.514  1.00  0.00     0.053 C 
BRANCH   9  10
ATOM     10  C   UNL     1      34.375 -38.957  13.918  1.00  0.00     0.041 C 
ATOM     11  O   UNL     1      34.848 -38.302  14.885  1.00  0.00    -0.550 OA
ATOM     12  O   UNL     1      33.459 -39.974  14.158  1.00  0.00    -0.550 OA
ENDBRANCH   9  10
ENDBRANCH   8   9
ENDBRANCH   7   8
ENDBRANCH   6   7
ENDBRANCH   5   6
ENDBRANCH   4   5
ENDBRANCH   3   4
ENDBRANCH   1   3
BRANCH   2  13
ATOM     13  C   UNL     1      36.182 -37.709   4.840  1.00  0.00     0.027 C 
BRANCH  13  14
ATOM     14  C   UNL     1      35.394 -36.548   4.219  1.00  0.00     0.004 C 
BRANCH  14  15
ATOM     15  C   UNL     1      35.083 -36.790   2.729  1.00  0.00     0.000 C 
BRANCH  15  16
ATOM     16  C   UNL     1      33.821 -37.645   2.517  1.00  0.00     0.000 C 
BRANCH  16  17
ATOM     17  C   UNL     1      32.658 -37.219   3.429  1.00  0.00    -0.000 C 
BRANCH  17  18
ATOM     18  C   UNL     1      32.047 -38.403   4.197  1.00  0.00    -0.000 C 
BRANCH  18  19
ATOM     19  C   UNL     1      31.782 -38.078   5.676  1.00  0.00    -0.003 C 
ATOM     20  C   UNL     1      32.067 -36.609   5.973  1.00  0.00     0.004 C 
ENDBRANCH  18  19
ENDBRANCH  17  18
ENDBRANCH  16  17
ENDBRANCH  15  16
ENDBRANCH  14  15
ENDBRANCH  13  14
ENDBRANCH   2  13
TORSDOF 15
ENDMDL
MODEL 6
REMARK VINA RESULT:    -2.913      9.613     11.635
REMARK INTER + INTRA:          -8.144
REMARK INTER:                  -5.576
REMARK INTRA:                  -2.568
REMARK UNBOUND:                -2.676
REMARK SMILES CCCCCCCCC=CCCCCCCCC(=O)[O-]
REMARK SMILES IDX 10 1 9 2 11 3 12 4 13 5 14 6 15 7 16 8 17 9 18 10 19 11
REMARK SMILES IDX 20 12 8 13 7 14 6 15 5 16 4 17 3 18 2 19 1 20
REMARK H PARENT
REMARK Flexibility Score: inf
ROOT
ATOM      1  C   UNL     1      34.829 -36.371   6.103  1.00  0.00    -0.031 C 
ATOM      2  C   UNL     1      33.800 -37.222   5.968  1.00  0.00    -0.031 C 
ENDROOT
BRANCH   1   3
ATOM      3  C   UNL     1      36.239 -36.864   6.264  1.00  0.00     0.027 C 
BRANCH   3   4
ATOM      4  C   UNL     1      36.316 -38.385   6.073  1.00  0.00     0.004 C 
BRANCH   4   5
ATOM      5  C   UNL     1      37.233 -39.025   7.124  1.00  0.00     0.000 C 
BRANCH   5   6
ATOM      6  C   UNL     1      36.471 -39.921   8.119  1.00  0.00     0.000 C 
BRANCH   6   7
ATOM      7  C   UNL     1      35.084 -39.396   8.537  1.00  0.00     0.000 C 
BRANCH   7   8
ATOM      8  C   UNL     1      35.112 -38.609   9.858  1.00  0.00     0.006 C 
BRANCH   8   9
ATOM      9  C   UNL     1      34.177 -37.391   9.829  1.00  0.00     0.053 C 
BRANCH   9  10
ATOM     10  C   UNL     1      33.651 -37.062  11.193  1.00  0.00     0.041 C 
ATOM     11  O   UNL     1      34.448 -36.817  12.138  1.00  0.00    -0.550 OA
ATOM     12  O   UNL     1      32.281 -37.004  11.415  1.00  0.00    -0.550 OA
ENDBRANCH   9  10
ENDBRANCH   8   9
ENDBRANCH   7   8
ENDBRANCH   6   7
ENDBRANCH   5   6
ENDBRANCH   4   5
ENDBRANCH   3   4
ENDBRANCH   1   3
BRANCH   2  13
ATOM     13  C   UNL     1      32.395 -36.734   5.736  1.00  0.00     0.027 C 
BRANCH  13  14
ATOM     14  C   UNL     1      31.787 -37.358   4.472  1.00  0.00     0.004 C 
BRANCH  14  15
ATOM     15  C   UNL     1      32.736 -38.379   3.816  1.00  0.00     0.000 C 
BRANCH  15  16
ATOM     16  C   UNL     1      33.254 -37.912   2.444  1.00  0.00     0.000 C 
BRANCH  16  17
ATOM     17  C   UNL     1      34.790 -37.864   2.378  1.00  0.00    -0.000 C 
BRANCH  17  18
ATOM     18  C   UNL     1      35.341 -36.436   2.526  1.00  0.00    -0.000 C 
BRANCH  18  19
ATOM     19  C   UNL     1      36.856 -36.355   2.274  1.00  0.00    -0.003 C 
ATOM     20  C   UNL     1      37.547 -37.654   2.678  1.00  0.00     0.004 C 
ENDBRANCH  18  19
ENDBRANCH  17  18
ENDBRANCH  16  17
ENDBRANCH  15  16
ENDBRANCH  14  15
ENDBRANCH  13  14
ENDBRANCH   2  13
TORSDOF 15
ENDMDL
MODEL 7
REMARK VINA RESULT:    -2.885      2.889      6.438
REMARK INTER + INTRA:          -8.091
REMARK INTER:                  -6.470
REMARK INTRA:                  -1.622
REMARK UNBOUND:                -2.676
REMARK SMILES CCCCCCCCC=CCCCCCCCC(=O)[O-]
REMARK SMILES IDX 10 1 9 2 11 3 12 4 13 5 14 6 15 7 16 8 17 9 18 10 19 11
REMARK SMILES IDX 20 12 8 13 7 14 6 15 5 16 4 17 3 18 2 19 1 20
REMARK H PARENT
REMARK Flexibility Score: inf
ROOT
ATOM      1  C   UNL     1      38.653 -37.375  -2.433  1.00  0.00    -0.031 C 
ATOM      2  C   UNL     1      38.638 -37.964  -3.638  1.00  0.00    -0.031 C 
ENDROOT
BRANCH   1   3
ATOM      3  C   UNL     1      39.480 -36.148  -2.169  1.00  0.00     0.027 C 
BRANCH   3   4
ATOM      4  C   UNL     1      40.880 -36.524  -1.667  1.00  0.00     0.004 C 
BRANCH   4   5
ATOM      5  C   UNL     1      41.968 -35.912  -2.561  1.00  0.00     0.000 C 
BRANCH   5   6
ATOM      6  C   UNL     1      42.799 -36.974  -3.305  1.00  0.00     0.000 C 
BRANCH   6   7
ATOM      7  C   UNL     1      42.216 -37.428  -4.657  1.00  0.00     0.000 C 
BRANCH   7   8
ATOM      8  C   UNL     1      42.115 -38.958  -4.783  1.00  0.00     0.006 C 
BRANCH   8   9
ATOM      9  C   UNL     1      41.911 -39.641  -3.423  1.00  0.00     0.053 C 
BRANCH   9  10
ATOM     10  C   UNL     1      40.971 -40.804  -3.520  1.00  0.00     0.041 C 
ATOM     11  O   UNL     1      40.619 -41.242  -4.648  1.00  0.00    -0.550 OA
ATOM     12  O   UNL     1      40.502 -41.418  -2.366  1.00  0.00    -0.550 OA
ENDBRANCH   9  10
ENDBRANCH   8   9
ENDBRANCH   7   8
ENDBRANCH   6   7
ENDBRANCH   5   6
ENDBRANCH   4   5
ENDBRANCH   3   4
ENDBRANCH   1   3
BRANCH   2  13
ATOM     13  C   UNL     1      37.758 -39.151  -3.928  1.00  0.00     0.027 C 
BRANCH  13  14
ATOM     14  C   UNL     1      36.833 -39.465  -2.745  1.00  0.00     0.004 C 
BRANCH  14  15
ATOM     15  C   UNL     1      35.446 -39.952  -3.207  1.00  0.00     0.000 C 
BRANCH  15  16
ATOM     16  C   UNL     1      35.447 -41.433  -3.627  1.00  0.00     0.000 C 
BRANCH  16  17
ATOM     17  C   UNL     1      34.174 -41.829  -4.396  1.00  0.00    -0.000 C 
BRANCH  17  18
ATOM     18  C   UNL     1      33.122 -42.491  -3.491  1.00  0.00    -0.000 C 
BRANCH  18  19
ATOM     19  C   UNL     1      32.380 -43.643  -4.187  1.00  0.00    -0.003 C 
ATOM     20  C   UNL     1      30.895 -43.329  -4.332  1.00  0.00     0.004 C 
ENDBRANCH  18  19
ENDBRANCH  17  18
ENDBRANCH  16  17
ENDBRANCH  15  16
ENDBRANCH  14  15
ENDBRANCH  13  14
ENDBRANCH   2  13
TORSDOF 15
ENDMDL
MODEL 8
REMARK VINA RESULT:    -2.859      3.502      6.097
REMARK INTER + INTRA:          -8.041
REMARK INTER:                  -5.406
REMARK INTRA:                  -2.635
REMARK UNBOUND:                -2.676
REMARK SMILES CCCCCCCCC=CCCCCCCCC(=O)[O-]
REMARK SMILES IDX 10 1 9 2 11 3 12 4 13 5 14 6 15 7 16 8 17 9 18 10 19 11
REMARK SMILES IDX 20 12 8 13 7 14 6 15 5 16 4 17 3 18 2 19 1 20
REMARK H PARENT
REMARK Flexibility Score: inf
ROOT
ATOM      1  C   UNL     1      38.765 -39.742  -0.338  1.00  0.00    -0.031 C 
ATOM      2  C   UNL     1      37.990 -40.003  -1.401  1.00  0.00    -0.031 C 
ENDROOT
BRANCH   1   3
ATOM      3  C   UNL     1      38.603 -38.479   0.461  1.00  0.00     0.027 C 
BRANCH   3   4
ATOM      4  C   UNL     1      37.747 -37.455  -0.295  1.00  0.00     0.004 C 
BRANCH   4   5
ATOM      5  C   UNL     1      38.482 -36.113  -0.425  1.00  0.00     0.000 C 
BRANCH   5   6
ATOM      6  C   UNL     1      39.333 -36.018  -1.706  1.00  0.00     0.000 C 
BRANCH   6   7
ATOM      7  C   UNL     1      38.760 -36.763  -2.926  1.00  0.00     0.000 C 
BRANCH   7   8
ATOM      8  C   UNL     1      39.803 -37.644  -3.636  1.00  0.00     0.006 C 
BRANCH   8   9
ATOM      9  C   UNL     1      41.018 -37.941  -2.744  1.00  0.00     0.053 C 
BRANCH   9  10
ATOM     10  C   UNL     1      42.308 -37.658  -3.450  1.00  0.00     0.041 C 
ATOM     11  O   UNL     1      42.582 -36.487  -3.825  1.00  0.00    -0.550 OA
ATOM     12  O   UNL     1      43.218 -38.684  -3.674  1.00  0.00    -0.550 OA
ENDBRANCH   9  10
ENDBRANCH   8   9
ENDBRANCH   7   8
ENDBRANCH   6   7
ENDBRANCH   5   6
ENDBRANCH   4   5
ENDBRANCH   3   4
ENDBRANCH   1   3
BRANCH   2  13
ATOM     13  C   UNL     1      38.099 -41.297  -2.162  1.00  0.00     0.027 C 
BRANCH  13  14
ATOM     14  C   UNL     1      38.274 -41.049  -3.666  1.00  0.00     0.004 C 
BRANCH  14  15
ATOM     15  C   UNL     1      37.023 -40.411  -4.299  1.00  0.00     0.000 C 
BRANCH  15  16
ATOM     16  C   UNL     1      36.029 -41.456  -4.836  1.00  0.00     0.000 C 
BRANCH  16  17
ATOM     17  C   UNL     1      34.619 -41.290  -4.242  1.00  0.00    -0.000 C 
BRANCH  17  18
ATOM     18  C   UNL     1      34.550 -40.164  -3.197  1.00  0.00    -0.000 C 
BRANCH  18  19
ATOM     19  C   UNL     1      34.336 -40.691  -1.769  1.00  0.00    -0.003 C 
ATOM     20  C   UNL     1      33.522 -39.704  -0.938  1.00  0.00     0.004 C 
ENDBRANCH  18  19
ENDBRANCH  17  18
ENDBRANCH  16  17
ENDBRANCH  15  16
ENDBRANCH  14  15
ENDBRANCH  13  14
ENDBRANCH   2  13
TORSDOF 15
ENDMDL
MODEL 9
REMARK VINA RESULT:    -2.807     11.332     13.456
REMARK INTER + INTRA:          -7.944
REMARK INTER:                  -5.305
REMARK INTRA:                  -2.638
REMARK UNBOUND:                -2.676
REMARK SMILES CCCCCCCCC=CCCCCCCCC(=O)[O-]
REMARK SMILES IDX 10 1 9 2 11 3 12 4 13 5 14 6 15 7 16 8 17 9 18 10 19 11
REMARK SMILES IDX 20 12 8 13 7 14 6 15 5 16 4 17 3 18 2 19 1 20
REMARK H PARENT
REMARK Flexibility Score: inf
ROOT
ATOM      1  C   UNL     1      35.099 -39.936  10.403  1.00  0.00    -0.031 C 
ATOM      2  C   UNL     1      34.625 -40.295  11.606  1.00  0.00    -0.031 C 
ENDROOT
BRANCH   1   3
ATOM      3  C   UNL     1      35.770 -40.929   9.496  1.00  0.00     0.027 C 
BRANCH   3   4
ATOM      4  C   UNL     1      36.038 -40.319   8.114  1.00  0.00     0.004 C 
BRANCH   4   5
ATOM      5  C   UNL     1      35.872 -38.793   8.145  1.00  0.00     0.000 C 
BRANCH   5   6
ATOM      6  C   UNL     1      35.409 -38.214   6.794  1.00  0.00     0.000 C 
BRANCH   6   7
ATOM      7  C   UNL     1      35.164 -36.693   6.787  1.00  0.00     0.000 C 
BRANCH   7   8
ATOM      8  C   UNL     1      34.117 -36.258   5.747  1.00  0.00     0.006 C 
BRANCH   8   9
ATOM      9  C   UNL     1      34.301 -36.976   4.402  1.00  0.00     0.053 C 
BRANCH   9  10
ATOM     10  C   UNL     1      32.987 -37.269   3.744  1.00  0.00     0.041 C 
ATOM     11  O   UNL     1      32.943 -37.561   2.519  1.00  0.00    -0.550 OA
ATOM     12  O   UNL     1      31.814 -37.240   4.488  1.00  0.00    -0.550 OA
ENDBRANCH   9  10
ENDBRANCH   8   9
ENDBRANCH   7   8
ENDBRANCH   6   7
ENDBRANCH   5   6
ENDBRANCH   4   5
ENDBRANCH   3   4
ENDBRANCH   1   3
BRANCH   2  13
ATOM     13  C   UNL     1      33.890 -39.323  12.489  1.00  0.00     0.027 C 
BRANCH  13  14
ATOM     14  C   UNL     1      34.399 -37.889  12.291  1.00  0.00     0.004 C 
BRANCH  14  15
ATOM     15  C   UNL     1      33.345 -36.986  11.622  1.00  0.00     0.000 C 
BRANCH  15  16
ATOM     16  C   UNL     1      33.701 -36.636  10.166  1.00  0.00     0.000 C 
BRANCH  16  17
ATOM     17  C   UNL     1      32.495 -36.101   9.376  1.00  0.00    -0.000 C 
BRANCH  17  18
ATOM     18  C   UNL     1      31.445 -37.189   9.096  1.00  0.00    -0.000 C 
BRANCH  18  19
ATOM     19  C   UNL     1      31.914 -38.211   8.048  1.00  0.00    -0.003 C 
ATOM     20  C   UNL     1      32.008 -39.609   8.651  1.00  0.00     0.004 C 
ENDBRANCH  18  19
ENDBRANCH  17  18
ENDBRANCH  16  17
ENDBRANCH  15  16
ENDBRANCH  14  15
ENDBRANCH  13  14
ENDBRANCH   2  13
TORSDOF 15
ENDMDL
