MODEL 1
REMARK VINA RESULT:    -2.503      0.000      0.000
REMARK INTER + INTRA:          -6.350
REMARK INTER:                  -4.552
REMARK INTRA:                  -1.797
REMARK UNBOUND:                -1.797
REMARK SMILES CCCCCCCCCCCCCC[C@H](C)C(=O)[O-]
REMARK SMILES IDX 9 1 10 2 11 3 12 4 13 5 14 6 15 7 16 8 17 9 18 10 19 11 8 12
REMARK SMILES IDX 7 13 6 14 5 15 4 16 3 17 2 18 1 19
REMARK H PARENT
REMARK Flexibility Score: inf
ROOT
ATOM      1  C   UNL     1       3.385   8.979   4.813  1.00  0.00     0.000 C 
ENDROOT
BRANCH   1   2
ATOM      2  C   UNL     1       3.907   9.865   3.672  1.00  0.00     0.000 C 
BRANCH   2   3
ATOM      3  C   UNL     1       3.796   9.183   2.296  1.00  0.00     0.000 C 
BRANCH   3   4
ATOM      4  C   UNL     1       2.548   8.281   2.196  1.00  0.00     0.000 C 
BRANCH   4   5
ATOM      5  C   UNL     1       2.877   6.813   1.876  1.00  0.00     0.001 C 
BRANCH   5   6
ATOM      6  C   UNL     1       3.641   6.109   3.011  1.00  0.00     0.009 C 
BRANCH   6   7
ATOM      7  C   UNL     1       5.101   5.795   2.623  1.00  0.00     0.032 C 
ATOM      8  C   UNL     1       5.420   4.316   2.873  1.00  0.00     0.014 C 
BRANCH   7   9
ATOM      9  C   UNL     1       6.071   6.664   3.376  1.00  0.00     0.044 C 
ATOM     10  O   UNL     1       6.150   6.596   4.632  1.00  0.00    -0.550 OA
ATOM     11  O   UNL     1       6.890   7.549   2.687  1.00  0.00    -0.550 OA
ENDBRANCH   7   9
ENDBRANCH   6   7
ENDBRANCH   5   6
ENDBRANCH   4   5
ENDBRANCH   3   4
ENDBRANCH   2   3
ENDBRANCH   1   2
BRANCH   1  12
ATOM     12  C   UNL     1       2.205   9.623   5.565  1.00  0.00     0.000 C 
BRANCH  12  13
ATOM     13  C   UNL     1       1.051  10.014   4.630  1.00  0.00    -0.000 C 
BRANCH  13  14
ATOM     14  C   UNL     1      -0.164   9.081   4.765  1.00  0.00    -0.000 C 
BRANCH  14  15
ATOM     15  C   UNL     1      -0.936   8.926   3.437  1.00  0.00    -0.000 C 
BRANCH  15  16
ATOM     16  C   UNL     1      -1.018   7.471   2.935  1.00  0.00    -0.000 C 
BRANCH  16  17
ATOM     17  C   UNL     1      -0.152   6.466   3.716  1.00  0.00    -0.000 C 
BRANCH  17  18
ATOM     18  C   UNL     1      -0.476   4.986   3.442  1.00  0.00    -0.003 C 
ATOM     19  C   UNL     1      -0.752   4.189   4.716  1.00  0.00     0.004 C 
ENDBRANCH  17  18
ENDBRANCH  16  17
ENDBRANCH  15  16
ENDBRANCH  14  15
ENDBRANCH  13  14
ENDBRANCH  12  13
ENDBRANCH   1  12
TORSDOF 14
ENDMDL
MODEL 2
REMARK VINA RESULT:    -1.604      2.974      6.659
REMARK INTER + INTRA:          -4.713
REMARK INTER:                  -3.841
REMARK INTRA:                  -0.872
REMARK UNBOUND:                -1.797
REMARK SMILES CCCCCCCCCCCCCC[C@H](C)C(=O)[O-]
REMARK SMILES IDX 9 1 10 2 11 3 12 4 13 5 14 6 15 7 16 8 17 9 18 10 19 11 8 12
REMARK SMILES IDX 7 13 6 14 5 15 4 16 3 17 2 18 1 19
REMARK H PARENT
REMARK Flexibility Score: inf
ROOT
ATOM      1  C   UNL     1       4.237   8.724   5.053  1.00  0.00     0.000 C 
ENDROOT
BRANCH   1   2
ATOM      2  C   UNL     1       3.040   9.673   5.212  1.00  0.00     0.000 C 
BRANCH   2   3
ATOM      3  C   UNL     1       1.719   8.921   5.458  1.00  0.00     0.000 C 
BRANCH   3   4
ATOM      4  C   UNL     1       0.631   9.310   4.436  1.00  0.00     0.000 C 
BRANCH   4   5
ATOM      5  C   UNL     1       0.831   8.667   3.053  1.00  0.00     0.001 C 
BRANCH   5   6
ATOM      6  C   UNL     1      -0.146   7.509   2.783  1.00  0.00     0.009 C 
BRANCH   6   7
ATOM      7  C   UNL     1       0.501   6.131   3.033  1.00  0.00     0.032 C 
ATOM      8  C   UNL     1       0.040   5.554   4.376  1.00  0.00     0.014 C 
BRANCH   7   9
ATOM      9  C   UNL     1       2.004   6.214   2.998  1.00  0.00     0.044 C 
ATOM     10  O   UNL     1       2.690   5.822   3.980  1.00  0.00    -0.550 OA
ATOM     11  O   UNL     1       2.645   6.723   1.876  1.00  0.00    -0.550 OA
ENDBRANCH   7   9
ENDBRANCH   6   7
ENDBRANCH   5   6
ENDBRANCH   4   5
ENDBRANCH   3   4
ENDBRANCH   2   3
ENDBRANCH   1   2
BRANCH   1  12
ATOM     12  C   UNL     1       4.791   8.711   3.616  1.00  0.00     0.000 C 
BRANCH  12  13
ATOM     13  C   UNL     1       5.132  10.117   3.101  1.00  0.00    -0.000 C 
BRANCH  13  14
ATOM     14  C   UNL     1       6.132  10.095   1.933  1.00  0.00    -0.000 C 
BRANCH  14  15
ATOM     15  C   UNL     1       7.176   8.965   2.075  1.00  0.00    -0.000 C 
BRANCH  15  16
ATOM     16  C   UNL     1       8.631   9.469   2.126  1.00  0.00    -0.000 C 
BRANCH  16  17
ATOM     17  C   UNL     1       9.700   8.391   1.875  1.00  0.00    -0.000 C 
BRANCH  17  18
ATOM     18  C   UNL     1      11.045   8.638   2.583  1.00  0.00    -0.003 C 
ATOM     19  C   UNL     1      12.217   7.935   1.899  1.00  0.00     0.004 C 
ENDBRANCH  17  18
ENDBRANCH  16  17
ENDBRANCH  15  16
ENDBRANCH  14  15
ENDBRANCH  13  14
ENDBRANCH  12  13
ENDBRANCH   1  12
TORSDOF 14
ENDMDL
MODEL 3
REMARK VINA RESULT:    -1.318      1.579      3.835
REMARK INTER + INTRA:          -4.193
REMARK INTER:                  -2.815
REMARK INTRA:                  -1.378
REMARK UNBOUND:                -1.797
REMARK SMILES CCCCCCCCCCCCCC[C@H](C)C(=O)[O-]
REMARK SMILES IDX 9 1 10 2 11 3 12 4 13 5 14 6 15 7 16 8 17 9 18 10 19 11 8 12
REMARK SMILES IDX 7 13 6 14 5 15 4 16 3 17 2 18 1 19
REMARK H PARENT
REMARK Flexibility Score: inf
ROOT
ATOM      1  C   UNL     1       2.410   5.773   3.597  1.00  0.00     0.000 C 
ENDROOT
BRANCH   1   2
ATOM      2  C   UNL     1       3.651   4.872   3.487  1.00  0.00     0.000 C 
BRANCH   2   3
ATOM      3  C   UNL     1       4.563   5.265   2.311  1.00  0.00     0.000 C 
BRANCH   3   4
ATOM      4  C   UNL     1       6.037   5.407   2.742  1.00  0.00     0.000 C 
BRANCH   4   5
ATOM      5  C   UNL     1       6.802   6.492   1.965  1.00  0.00     0.001 C 
BRANCH   5   6
ATOM      6  C   UNL     1       6.483   7.916   2.452  1.00  0.00     0.009 C 
BRANCH   6   7
ATOM      7  C   UNL     1       5.001   8.076   2.850  1.00  0.00     0.032 C 
ATOM      8  C   UNL     1       4.296   9.067   1.917  1.00  0.00     0.014 C 
BRANCH   7   9
ATOM      9  C   UNL     1       4.859   8.527   4.279  1.00  0.00     0.044 C 
ATOM     10  O   UNL     1       5.149   7.749   5.227  1.00  0.00    -0.550 OA
ATOM     11  O   UNL     1       4.407   9.810   4.560  1.00  0.00    -0.550 OA
ENDBRANCH   7   9
ENDBRANCH   6   7
ENDBRANCH   5   6
ENDBRANCH   4   5
ENDBRANCH   3   4
ENDBRANCH   2   3
ENDBRANCH   1   2
BRANCH   1  12
ATOM     12  C   UNL     1       1.225   5.059   4.273  1.00  0.00     0.000 C 
BRANCH  12  13
ATOM     13  C   UNL     1      -0.134   5.530   3.733  1.00  0.00    -0.000 C 
BRANCH  13  14
ATOM     14  C   UNL     1      -0.062   5.996   2.269  1.00  0.00    -0.000 C 
BRANCH  14  15
ATOM     15  C   UNL     1      -0.767   7.351   2.049  1.00  0.00    -0.000 C 
BRANCH  15  16
ATOM     16  C   UNL     1       0.205   8.535   1.883  1.00  0.00    -0.000 C 
BRANCH  16  17
ATOM     17  C   UNL     1      -0.032   9.710   2.849  1.00  0.00    -0.000 C 
BRANCH  17  18
ATOM     18  C   UNL     1      -0.222   9.306   4.322  1.00  0.00    -0.003 C 
ATOM     19  C   UNL     1       1.052   8.750   4.957  1.00  0.00     0.004 C 
ENDBRANCH  17  18
ENDBRANCH  16  17
ENDBRANCH  15  16
ENDBRANCH  14  15
ENDBRANCH  13  14
ENDBRANCH  12  13
ENDBRANCH   1  12
TORSDOF 14
ENDMDL
MODEL 4
REMARK VINA RESULT:    -1.202      2.469      4.644
REMARK INTER + INTRA:          -3.982
REMARK INTER:                  -2.964
REMARK INTRA:                  -1.019
REMARK UNBOUND:                -1.797
REMARK SMILES CCCCCCCCCCCCCC[C@H](C)C(=O)[O-]
REMARK SMILES IDX 9 1 10 2 11 3 12 4 13 5 14 6 15 7 16 8 17 9 18 10 19 11 8 12
REMARK SMILES IDX 7 13 6 14 5 15 4 16 3 17 2 18 1 19
REMARK H PARENT
REMARK Flexibility Score: inf
ROOT
ATOM      1  C   UNL     1       6.050   6.484   3.653  1.00  0.00     0.000 C 
ENDROOT
BRANCH   1   2
ATOM      2  C   UNL     1       6.360   7.832   2.984  1.00  0.00     0.000 C 
BRANCH   2   3
ATOM      3  C   UNL     1       5.282   8.247   1.966  1.00  0.00     0.000 C 
BRANCH   3   4
ATOM      4  C   UNL     1       5.007   9.765   1.999  1.00  0.00     0.000 C 
BRANCH   4   5
ATOM      5  C   UNL     1       3.614  10.125   2.542  1.00  0.00     0.001 C 
BRANCH   5   6
ATOM      6  C   UNL     1       3.190   9.247   3.732  1.00  0.00     0.009 C 
BRANCH   6   7
ATOM      7  C   UNL     1       2.040   9.881   4.542  1.00  0.00     0.032 C 
ATOM      8  C   UNL     1       1.971   9.274   5.948  1.00  0.00     0.014 C 
BRANCH   7   9
ATOM      9  C   UNL     1       0.716   9.713   3.844  1.00  0.00     0.044 C 
ATOM     10  O   UNL     1      -0.335   9.505   4.507  1.00  0.00    -0.550 OA
ATOM     11  O   UNL     1       0.648   9.787   2.459  1.00  0.00    -0.550 OA
ENDBRANCH   7   9
ENDBRANCH   6   7
ENDBRANCH   5   6
ENDBRANCH   4   5
ENDBRANCH   3   4
ENDBRANCH   2   3
ENDBRANCH   1   2
BRANCH   1  12
ATOM     12  C   UNL     1       5.869   5.348   2.629  1.00  0.00     0.000 C 
BRANCH  12  13
ATOM     13  C   UNL     1       4.451   4.757   2.647  1.00  0.00    -0.000 C 
BRANCH  13  14
ATOM     14  C   UNL     1       3.549   5.412   3.706  1.00  0.00    -0.000 C 
BRANCH  14  15
ATOM     15  C   UNL     1       2.545   6.409   3.088  1.00  0.00    -0.000 C 
BRANCH  15  16
ATOM     16  C   UNL     1       1.358   5.732   2.377  1.00  0.00    -0.000 C 
BRANCH  16  17
ATOM     17  C   UNL     1      -0.019   6.349   2.684  1.00  0.00    -0.000 C 
BRANCH  17  18
ATOM     18  C   UNL     1      -0.687   5.828   3.969  1.00  0.00    -0.003 C 
ATOM     19  C   UNL     1      -0.110   4.496   4.444  1.00  0.00     0.004 C 
ENDBRANCH  17  18
ENDBRANCH  16  17
ENDBRANCH  15  16
ENDBRANCH  14  15
ENDBRANCH  13  14
ENDBRANCH  12  13
ENDBRANCH   1  12
TORSDOF 14
ENDMDL
MODEL 5
REMARK VINA RESULT:    -0.694      3.192      7.187
REMARK INTER + INTRA:          -3.059
REMARK INTER:                  -3.874
REMARK INTRA:                   0.815
REMARK UNBOUND:                -1.797
REMARK SMILES CCCCCCCCCCCCCC[C@H](C)C(=O)[O-]
REMARK SMILES IDX 9 1 10 2 11 3 12 4 13 5 14 6 15 7 16 8 17 9 18 10 19 11 8 12
REMARK SMILES IDX 7 13 6 14 5 15 4 16 3 17 2 18 1 19
REMARK H PARENT
REMARK Flexibility Score: inf
ROOT
ATOM      1  C   UNL     1       3.720   7.218   3.579  1.00  0.00     0.000 C 
ENDROOT
BRANCH   1   2
ATOM      2  C   UNL     1       3.695   8.026   2.272  1.00  0.00     0.000 C 
BRANCH   2   3
ATOM      3  C   UNL     1       2.275   8.478   1.885  1.00  0.00     0.000 C 
BRANCH   3   4
ATOM      4  C   UNL     1       1.666   9.436   2.930  1.00  0.00     0.000 C 
BRANCH   4   5
ATOM      5  C   UNL     1       0.160   9.679   2.735  1.00  0.00     0.001 C 
BRANCH   5   6
ATOM      6  C   UNL     1      -0.663   8.379   2.749  1.00  0.00     0.009 C 
BRANCH   6   7
ATOM      7  C   UNL     1      -0.426   7.553   4.031  1.00  0.00     0.032 C 
ATOM      8  C   UNL     1       0.683   8.183   4.880  1.00  0.00     0.014 C 
BRANCH   7   9
ATOM      9  C   UNL     1      -0.078   6.124   3.709  1.00  0.00     0.044 C 
ATOM     10  O   UNL     1      -0.277   5.661   2.554  1.00  0.00    -0.550 OA
ATOM     11  O   UNL     1       0.468   5.306   4.690  1.00  0.00    -0.550 OA
ENDBRANCH   7   9
ENDBRANCH   6   7
ENDBRANCH   5   6
ENDBRANCH   4   5
ENDBRANCH   3   4
ENDBRANCH   2   3
ENDBRANCH   1   2
BRANCH   1  12
ATOM     12  C   UNL     1       5.131   7.131   4.189  1.00  0.00     0.000 C 
BRANCH  12  13
ATOM     13  C   UNL     1       6.038   6.142   3.441  1.00  0.00    -0.000 C 
BRANCH  13  14
ATOM     14  C   UNL     1       6.408   6.627   2.030  1.00  0.00    -0.000 C 
BRANCH  14  15
ATOM     15  C   UNL     1       7.922   6.886   1.876  1.00  0.00    -0.000 C 
BRANCH  15  16
ATOM     16  C   UNL     1       8.392   8.209   2.510  1.00  0.00    -0.000 C 
BRANCH  16  17
ATOM     17  C   UNL     1       9.653   8.822   1.875  1.00  0.00    -0.000 C 
BRANCH  17  18
ATOM     18  C   UNL     1      10.956   8.571   2.656  1.00  0.00    -0.003 C 
ATOM     19  C   UNL     1      11.805   7.451   2.056  1.00  0.00     0.004 C 
ENDBRANCH  17  18
ENDBRANCH  16  17
ENDBRANCH  15  16
ENDBRANCH  14  15
ENDBRANCH  13  14
ENDBRANCH  12  13
ENDBRANCH   1  12
TORSDOF 14
ENDMDL
MODEL 6
REMARK VINA RESULT:    -0.099      2.476      4.590
REMARK INTER + INTRA:          -1.978
REMARK INTER:                  -0.946
REMARK INTRA:                  -1.032
REMARK UNBOUND:                -1.797
REMARK SMILES CCCCCCCCCCCCCC[C@H](C)C(=O)[O-]
REMARK SMILES IDX 9 1 10 2 11 3 12 4 13 5 14 6 15 7 16 8 17 9 18 10 19 11 8 12
REMARK SMILES IDX 7 13 6 14 5 15 4 16 3 17 2 18 1 19
REMARK H PARENT
REMARK Flexibility Score: inf
ROOT
ATOM      1  C   UNL     1       4.311   4.808   3.889  1.00  0.00     0.000 C 
ENDROOT
BRANCH   1   2
ATOM      2  C   UNL     1       4.701   4.696   2.407  1.00  0.00     0.000 C 
BRANCH   2   3
ATOM      3  C   UNL     1       5.721   5.769   1.983  1.00  0.00     0.000 C 
BRANCH   3   4
ATOM      4  C   UNL     1       5.333   7.172   2.494  1.00  0.00     0.000 C 
BRANCH   4   5
ATOM      5  C   UNL     1       6.535   8.006   2.970  1.00  0.00     0.001 C 
BRANCH   5   6
ATOM      6  C   UNL     1       7.622   8.159   1.891  1.00  0.00     0.009 C 
BRANCH   6   7
ATOM      7  C   UNL     1       8.949   8.689   2.473  1.00  0.00     0.032 C 
ATOM      8  C   UNL     1       9.208  10.125   2.002  1.00  0.00     0.014 C 
BRANCH   7   9
ATOM      9  C   UNL     1      10.108   7.807   2.094  1.00  0.00     0.044 C 
ATOM     10  O   UNL     1       9.953   6.563   1.971  1.00  0.00    -0.550 OA
ATOM     11  O   UNL     1      11.361   8.365   1.875  1.00  0.00    -0.550 OA
ENDBRANCH   7   9
ENDBRANCH   6   7
ENDBRANCH   5   6
ENDBRANCH   4   5
ENDBRANCH   3   4
ENDBRANCH   2   3
ENDBRANCH   1   2
BRANCH   1  12
ATOM     12  C   UNL     1       2.831   5.187   4.080  1.00  0.00     0.000 C 
BRANCH  12  13
ATOM     13  C   UNL     1       2.332   6.177   3.018  1.00  0.00    -0.000 C 
BRANCH  13  14
ATOM     14  C   UNL     1       0.904   6.676   3.295  1.00  0.00    -0.000 C 
BRANCH  14  15
ATOM     15  C   UNL     1       0.485   7.818   2.344  1.00  0.00    -0.000 C 
BRANCH  15  16
ATOM     16  C   UNL     1       1.009   9.203   2.771  1.00  0.00    -0.000 C 
BRANCH  16  17
ATOM     17  C   UNL     1       0.809   9.541   4.259  1.00  0.00    -0.000 C 
BRANCH  17  18
ATOM     18  C   UNL     1       2.102   9.880   5.022  1.00  0.00    -0.003 C 
ATOM     19  C   UNL     1       3.323   9.989   4.110  1.00  0.00     0.004 C 
ENDBRANCH  17  18
ENDBRANCH  16  17
ENDBRANCH  15  16
ENDBRANCH  14  15
ENDBRANCH  13  14
ENDBRANCH  12  13
ENDBRANCH   1  12
TORSDOF 14
ENDMDL
