MODEL 1
REMARK VINA RESULT:    72.544      0.000      0.000
REMARK INTER + INTRA:         106.635
REMARK INTER:                 104.350
REMARK INTRA:                   2.285
REMARK UNBOUND:                 2.285
REMARK SMILES O=c1c(O[C@@H]2O[C@H](CO)[C@H](O)[C@H](O)[C@@H]2O)c(-c2ccc(O)cc2)oc2cc(O)cc(O)c12
REMARK SMILES IDX 4 1 3 2 16 3 24 4 2 5 25 6 1 7 32 8 26 9 30 10 27 11 29 12
REMARK SMILES IDX 17 13 18 14 19 15 20 16 23 17 22 18 21 19 31 21 28 23 5 25
REMARK SMILES IDX 14 26 6 27 12 28 7 29 10 30 15 31 13 33 8 35 9 36 11 38
REMARK H PARENT 21 20 31 22 28 24 15 32 13 34 9 37 11 39
REMARK Flexibility Score: inf
ROOT
ATOM      1  O   UNL     1     -40.516  28.984 -22.068  1.00  0.00    -0.454 OA
ENDROOT
BRANCH   1   2
ATOM      2  C   UNL     1     -39.474  29.558 -22.824  1.00  0.00     0.214 A 
ATOM      3  C   UNL     1     -38.235  28.887 -22.862  1.00  0.00     0.180 A 
ATOM      4  O   UNL     1     -37.202  29.424 -23.502  1.00  0.00    -0.452 OA
ATOM      5  C   UNL     1     -39.594  30.779 -23.528  1.00  0.00     0.239 A 
ATOM      6  C   UNL     1     -37.265  30.577 -24.153  1.00  0.00     0.146 A 
ATOM      7  O   UNL     1     -40.695  31.391 -23.561  1.00  0.00    -0.285 OA
ATOM      8  C   UNL     1     -38.473  31.311 -24.201  1.00  0.00     0.111 A 
ATOM      9  C   UNL     1     -36.121  31.058 -24.794  1.00  0.00     0.094 A 
ATOM     10  C   UNL     1     -38.504  32.536 -24.910  1.00  0.00     0.134 A 
ATOM     11  C   UNL     1     -36.157  32.267 -25.492  1.00  0.00     0.123 A 
ATOM     12  C   UNL     1     -37.346  33.001 -25.550  1.00  0.00     0.093 A 
BRANCH   3  13
ATOM     13  C   UNL     1     -38.028  27.590 -22.178  1.00  0.00     0.021 A 
ATOM     14  C   UNL     1     -38.883  26.496 -22.406  1.00  0.00     0.016 A 
ATOM     15  C   UNL     1     -38.660  25.277 -21.759  1.00  0.00     0.047 A 
ATOM     16  C   UNL     1     -37.570  25.131 -20.890  1.00  0.00     0.115 A 
ATOM     17  C   UNL     1     -36.927  27.428 -21.322  1.00  0.00     0.016 A 
ATOM     18  C   UNL     1     -36.706  26.207 -20.676  1.00  0.00     0.047 A 
BRANCH  16  19
ATOM     19  O   UNL     1     -37.339  23.920 -20.240  1.00  0.00    -0.508 OA
ATOM     20  H   UNL     1     -36.621  23.829 -19.532  1.00  0.00     0.293 HD
ENDBRANCH  16  19
ENDBRANCH   3  13
BRANCH  10  21
ATOM     21  O   UNL     1     -39.673  33.297 -24.982  1.00  0.00    -0.507 OA
ATOM     22  H   UNL     1     -40.450  33.142 -24.351  1.00  0.00     0.293 HD
ENDBRANCH  10  21
BRANCH  11  23
ATOM     23  O   UNL     1     -35.005  32.729 -26.125  1.00  0.00    -0.508 OA
ATOM     24  H   UNL     1     -34.831  33.719 -26.251  1.00  0.00     0.293 HD
ENDBRANCH  11  23
ENDBRANCH   1   2
BRANCH   1  25
ATOM     25  C   UNL     1     -41.740  29.602 -21.667  1.00  0.00     0.339 C 
ATOM     26  C   UNL     1     -41.554  30.272 -20.282  1.00  0.00     0.214 C 
ATOM     27  O   UNL     1     -42.113  30.575 -22.624  1.00  0.00    -0.332 OA
ATOM     28  C   UNL     1     -42.470  31.516 -20.133  1.00  0.00     0.180 C 
ATOM     29  C   UNL     1     -43.461  30.987 -22.426  1.00  0.00     0.179 C 
ATOM     30  C   UNL     1     -43.771  31.310 -20.922  1.00  0.00     0.177 C 
BRANCH  26  31
ATOM     31  O   UNL     1     -40.209  30.627 -20.085  1.00  0.00    -0.384 OA
ATOM     32  H   UNL     1     -39.672  30.084 -20.720  1.00  0.00     0.211 HD
ENDBRANCH  26  31
BRANCH  28  33
ATOM     33  O   UNL     1     -41.821  32.671 -20.606  1.00  0.00    -0.387 OA
ATOM     34  H   UNL     1     -41.044  32.835 -20.009  1.00  0.00     0.211 HD
ENDBRANCH  28  33
BRANCH  29  35
ATOM     35  C   UNL     1     -43.731  32.178 -23.360  1.00  0.00     0.191 C 
BRANCH  35  36
ATOM     36  O   UNL     1     -42.692  33.111 -23.246  1.00  0.00    -0.394 OA
ATOM     37  H   UNL     1     -41.916  32.719 -23.725  1.00  0.00     0.210 HD
ENDBRANCH  35  36
ENDBRANCH  29  35
BRANCH  30  38
ATOM     38  O   UNL     1     -44.599  32.435 -20.770  1.00  0.00    -0.387 OA
ATOM     39  H   UNL     1     -45.357  32.157 -20.193  1.00  0.00     0.211 HD
ENDBRANCH  30  38
ENDBRANCH   1  25
TORSDOF 11
ENDMDL
MODEL 2
REMARK VINA RESULT:    72.732      1.244      2.057
REMARK INTER + INTRA:         106.906
REMARK INTER:                 104.761
REMARK INTRA:                   2.145
REMARK UNBOUND:                 2.285
REMARK SMILES O=c1c(O[C@@H]2O[C@H](CO)[C@H](O)[C@H](O)[C@@H]2O)c(-c2ccc(O)cc2)oc2cc(O)cc(O)c12
REMARK SMILES IDX 4 1 3 2 16 3 24 4 2 5 25 6 1 7 32 8 26 9 30 10 27 11 29 12
REMARK SMILES IDX 17 13 18 14 19 15 20 16 23 17 22 18 21 19 31 21 28 23 5 25
REMARK SMILES IDX 14 26 6 27 12 28 7 29 10 30 15 31 13 33 8 35 9 36 11 38
REMARK H PARENT 21 20 31 22 28 24 15 32 13 34 9 37 11 39
REMARK Flexibility Score: inf
ROOT
ATOM      1  O   UNL     1     -40.352  29.403 -22.173  1.00  0.00    -0.454 OA
ENDROOT
BRANCH   1   2
ATOM      2  C   UNL     1     -39.210  29.780 -22.908  1.00  0.00     0.214 A 
ATOM      3  C   UNL     1     -38.101  28.908 -22.905  1.00  0.00     0.180 A 
ATOM      4  O   UNL     1     -36.977  29.252 -23.523  1.00  0.00    -0.452 OA
ATOM      5  C   UNL     1     -39.103  30.992 -23.628  1.00  0.00     0.239 A 
ATOM      6  C   UNL     1     -36.828  30.388 -24.189  1.00  0.00     0.146 A 
ATOM      7  O   UNL     1     -40.083  31.780 -23.699  1.00  0.00    -0.285 OA
ATOM      8  C   UNL     1     -37.892  31.315 -24.278  1.00  0.00     0.111 A 
ATOM      9  C   UNL     1     -35.603  30.659 -24.805  1.00  0.00     0.094 A 
ATOM     10  C   UNL     1     -37.698  32.516 -25.002  1.00  0.00     0.134 A 
ATOM     11  C   UNL     1     -35.417  31.844 -25.518  1.00  0.00     0.123 A 
ATOM     12  C   UNL     1     -36.462  32.768 -25.616  1.00  0.00     0.093 A 
BRANCH   3  13
ATOM     13  C   UNL     1     -38.134  27.605 -22.200  1.00  0.00     0.021 A 
ATOM     14  C   UNL     1     -39.198  26.702 -22.378  1.00  0.00     0.016 A 
ATOM     15  C   UNL     1     -39.201  25.473 -21.712  1.00  0.00     0.047 A 
ATOM     16  C   UNL     1     -38.133  25.124 -20.875  1.00  0.00     0.115 A 
ATOM     17  C   UNL     1     -37.059  27.239 -21.375  1.00  0.00     0.016 A 
ATOM     18  C   UNL     1     -37.064  26.008 -20.711  1.00  0.00     0.047 A 
BRANCH  16  19
ATOM     19  O   UNL     1     -38.125  23.901 -20.207  1.00  0.00    -0.508 OA
ATOM     20  H   UNL     1     -38.347  23.036 -20.684  1.00  0.00     0.293 HD
ENDBRANCH  16  19
ENDBRANCH   3  13
BRANCH  10  21
ATOM     21  O   UNL     1     -38.718  33.463 -25.115  1.00  0.00    -0.507 OA
ATOM     22  H   UNL     1     -39.151  33.678 -26.005  1.00  0.00     0.293 HD
ENDBRANCH  10  21
BRANCH  11  23
ATOM     23  O   UNL     1     -34.188  32.094 -26.125  1.00  0.00    -0.508 OA
ATOM     24  H   UNL     1     -33.738  31.404 -26.714  1.00  0.00     0.293 HD
ENDBRANCH  11  23
ENDBRANCH   1   2
BRANCH   1  25
ATOM     25  C   UNL     1     -41.414  30.246 -21.727  1.00  0.00     0.339 C 
ATOM     26  C   UNL     1     -42.110  30.895 -22.950  1.00  0.00     0.214 C 
ATOM     27  O   UNL     1     -42.350  29.480 -20.994  1.00  0.00    -0.332 OA
ATOM     28  C   UNL     1     -43.612  31.163 -22.666  1.00  0.00     0.180 C 
ATOM     29  C   UNL     1     -43.247  30.325 -20.281  1.00  0.00     0.179 C 
ATOM     30  C   UNL     1     -43.817  31.481 -21.177  1.00  0.00     0.177 C 
BRANCH  26  31
ATOM     31  O   UNL     1     -41.965  30.080 -24.087  1.00  0.00    -0.384 OA
ATOM     32  H   UNL     1     -41.796  30.686 -24.855  1.00  0.00     0.211 HD
ENDBRANCH  26  31
BRANCH  28  33
ATOM     33  O   UNL     1     -44.391  30.044 -23.011  1.00  0.00    -0.387 OA
ATOM     34  H   UNL     1     -44.906  30.285 -23.825  1.00  0.00     0.211 HD
ENDBRANCH  28  33
BRANCH  29  35
ATOM     35  C   UNL     1     -44.349  29.439 -19.678  1.00  0.00     0.191 C 
BRANCH  35  36
ATOM     36  O   UNL     1     -43.802  28.211 -19.281  1.00  0.00    -0.394 OA
ATOM     37  H   UNL     1     -42.955  28.110 -19.788  1.00  0.00     0.210 HD
ENDBRANCH  35  36
ENDBRANCH  29  35
BRANCH  30  38
ATOM     38  O   UNL     1     -45.177  31.735 -20.932  1.00  0.00    -0.387 OA
ATOM     39  H   UNL     1     -45.250  32.003 -19.979  1.00  0.00     0.211 HD
ENDBRANCH  30  38
ENDBRANCH   1  25
TORSDOF 11
ENDMDL
MODEL 3
REMARK VINA RESULT:    73.069      2.333      6.462
REMARK INTER + INTRA:         107.392
REMARK INTER:                 108.388
REMARK INTRA:                  -0.996
REMARK UNBOUND:                 2.285
REMARK SMILES O=c1c(O[C@@H]2O[C@H](CO)[C@H](O)[C@H](O)[C@@H]2O)c(-c2ccc(O)cc2)oc2cc(O)cc(O)c12
REMARK SMILES IDX 4 1 3 2 16 3 24 4 2 5 25 6 1 7 32 8 26 9 30 10 27 11 29 12
REMARK SMILES IDX 17 13 18 14 19 15 20 16 23 17 22 18 21 19 31 21 28 23 5 25
REMARK SMILES IDX 14 26 6 27 12 28 7 29 10 30 15 31 13 33 8 35 9 36 11 38
REMARK H PARENT 21 20 31 22 28 24 15 32 13 34 9 37 11 39
REMARK Flexibility Score: inf
ROOT
ATOM      1  O   UNL     1     -38.687  29.585 -22.550  1.00  0.00    -0.454 OA
ENDROOT
BRANCH   1   2
ATOM      2  C   UNL     1     -39.870  30.122 -22.003  1.00  0.00     0.214 A 
ATOM      3  C   UNL     1     -39.819  30.641 -20.692  1.00  0.00     0.180 A 
ATOM      4  O   UNL     1     -40.924  31.091 -20.108  1.00  0.00    -0.452 OA
ATOM      5  C   UNL     1     -41.110  30.148 -22.683  1.00  0.00     0.239 A 
ATOM      6  C   UNL     1     -42.109  31.111 -20.701  1.00  0.00     0.146 A 
ATOM      7  O   UNL     1     -41.194  29.738 -23.871  1.00  0.00    -0.285 OA
ATOM      8  C   UNL     1     -42.257  30.642 -22.027  1.00  0.00     0.111 A 
ATOM      9  C   UNL     1     -43.212  31.604 -19.999  1.00  0.00     0.094 A 
ATOM     10  C   UNL     1     -43.538  30.683 -22.630  1.00  0.00     0.134 A 
ATOM     11  C   UNL     1     -44.472  31.643 -20.599  1.00  0.00     0.123 A 
ATOM     12  C   UNL     1     -44.633  31.185 -21.911  1.00  0.00     0.093 A 
BRANCH   3  13
ATOM     13  C   UNL     1     -38.559  30.679 -19.916  1.00  0.00     0.021 A 
ATOM     14  C   UNL     1     -37.985  29.506 -19.391  1.00  0.00     0.016 A 
ATOM     15  C   UNL     1     -36.788  29.565 -18.672  1.00  0.00     0.047 A 
ATOM     16  C   UNL     1     -36.140  30.794 -18.484  1.00  0.00     0.115 A 
ATOM     17  C   UNL     1     -37.892  31.902 -19.740  1.00  0.00     0.016 A 
ATOM     18  C   UNL     1     -36.695  31.958 -19.021  1.00  0.00     0.047 A 
BRANCH  16  19
ATOM     19  O   UNL     1     -34.946  30.864 -17.770  1.00  0.00    -0.508 OA
ATOM     20  H   UNL     1     -34.935  30.883 -16.757  1.00  0.00     0.293 HD
ENDBRANCH  16  19
ENDBRANCH   3  13
BRANCH  10  21
ATOM     21  O   UNL     1     -43.734  30.228 -23.936  1.00  0.00    -0.507 OA
ATOM     22  H   UNL     1     -43.790  30.866 -24.720  1.00  0.00     0.293 HD
ENDBRANCH  10  21
BRANCH  11  23
ATOM     23  O   UNL     1     -45.559  32.138 -19.881  1.00  0.00    -0.508 OA
ATOM     24  H   UNL     1     -46.310  31.533 -19.574  1.00  0.00     0.293 HD
ENDBRANCH  11  23
ENDBRANCH   1   2
BRANCH   1  25
ATOM     25  C   UNL     1     -37.627  30.297 -23.190  1.00  0.00     0.339 C 
ATOM     26  C   UNL     1     -36.558  29.294 -23.693  1.00  0.00     0.214 C 
ATOM     27  O   UNL     1     -38.145  31.034 -24.281  1.00  0.00    -0.332 OA
ATOM     28  C   UNL     1     -35.844  29.826 -24.964  1.00  0.00     0.180 C 
ATOM     29  C   UNL     1     -37.193  31.984 -24.747  1.00  0.00     0.179 C 
ATOM     30  C   UNL     1     -35.763  31.359 -24.921  1.00  0.00     0.177 C 
BRANCH  26  31
ATOM     31  O   UNL     1     -37.142  28.041 -23.947  1.00  0.00    -0.384 OA
ATOM     32  H   UNL     1     -36.534  27.562 -24.569  1.00  0.00     0.211 HD
ENDBRANCH  26  31
BRANCH  28  33
ATOM     33  O   UNL     1     -36.536  29.432 -26.125  1.00  0.00    -0.387 OA
ATOM     34  H   UNL     1     -37.409  29.905 -26.120  1.00  0.00     0.211 HD
ENDBRANCH  28  33
BRANCH  29  35
ATOM     35  C   UNL     1     -37.738  32.599 -26.046  1.00  0.00     0.191 C 
BRANCH  35  36
ATOM     36  O   UNL     1     -38.475  33.753 -25.748  1.00  0.00    -0.394 OA
ATOM     37  H   UNL     1     -38.576  34.244 -26.604  1.00  0.00     0.210 HD
ENDBRANCH  35  36
ENDBRANCH  29  35
BRANCH  30  38
ATOM     38  O   UNL     1     -35.104  31.829 -26.069  1.00  0.00    -0.387 OA
ATOM     39  H   UNL     1     -35.578  32.654 -26.354  1.00  0.00     0.211 HD
ENDBRANCH  30  38
ENDBRANCH   1  25
TORSDOF 11
ENDMDL
MODEL 4
REMARK VINA RESULT:    73.299      2.565      7.181
REMARK INTER + INTRA:         107.723
REMARK INTER:                 107.729
REMARK INTRA:                  -0.007
REMARK UNBOUND:                 2.285
REMARK SMILES O=c1c(O[C@@H]2O[C@H](CO)[C@H](O)[C@H](O)[C@@H]2O)c(-c2ccc(O)cc2)oc2cc(O)cc(O)c12
REMARK SMILES IDX 4 1 3 2 16 3 24 4 2 5 25 6 1 7 32 8 26 9 30 10 27 11 29 12
REMARK SMILES IDX 17 13 18 14 19 15 20 16 23 17 22 18 21 19 31 21 28 23 5 25
REMARK SMILES IDX 14 26 6 27 12 28 7 29 10 30 15 31 13 33 8 35 9 36 11 38
REMARK H PARENT 21 20 31 22 28 24 15 32 13 34 9 37 11 39
REMARK Flexibility Score: inf
ROOT
ATOM      1  O   UNL     1     -38.769  30.170 -22.568  1.00  0.00    -0.454 OA
ENDROOT
BRANCH   1   2
ATOM      2  C   UNL     1     -38.850  29.854 -21.197  1.00  0.00     0.214 A 
ATOM      3  C   UNL     1     -40.103  29.973 -20.561  1.00  0.00     0.180 A 
ATOM      4  O   UNL     1     -40.214  29.755 -19.255  1.00  0.00    -0.452 OA
ATOM      5  C   UNL     1     -37.742  29.448 -20.418  1.00  0.00     0.239 A 
ATOM      6  C   UNL     1     -39.197  29.397 -18.485  1.00  0.00     0.146 A 
ATOM      7  O   UNL     1     -36.613  29.283 -20.951  1.00  0.00    -0.285 OA
ATOM      8  C   UNL     1     -37.906  29.220 -19.034  1.00  0.00     0.111 A 
ATOM      9  C   UNL     1     -39.417  29.192 -17.120  1.00  0.00     0.094 A 
ATOM     10  C   UNL     1     -36.844  28.831 -18.181  1.00  0.00     0.134 A 
ATOM     11  C   UNL     1     -38.367  28.809 -16.284  1.00  0.00     0.123 A 
ATOM     12  C   UNL     1     -37.086  28.628 -16.814  1.00  0.00     0.093 A 
BRANCH   3  13
ATOM     13  C   UNL     1     -41.322  30.365 -21.305  1.00  0.00     0.021 A 
ATOM     14  C   UNL     1     -41.573  29.888 -22.605  1.00  0.00     0.016 A 
ATOM     15  C   UNL     1     -42.737  30.262 -23.282  1.00  0.00     0.047 A 
ATOM     16  C   UNL     1     -43.673  31.101 -22.663  1.00  0.00     0.115 A 
ATOM     17  C   UNL     1     -42.275  31.189 -20.685  1.00  0.00     0.016 A 
ATOM     18  C   UNL     1     -43.439  31.561 -21.365  1.00  0.00     0.047 A 
BRANCH  16  19
ATOM     19  O   UNL     1     -44.837  31.480 -23.329  1.00  0.00    -0.508 OA
ATOM     20  H   UNL     1     -45.379  30.814 -23.866  1.00  0.00     0.293 HD
ENDBRANCH  16  19
ENDBRANCH   3  13
BRANCH  10  21
ATOM     21  O   UNL     1     -35.552  28.648 -18.678  1.00  0.00    -0.507 OA
ATOM     22  H   UNL     1     -35.324  28.824 -19.648  1.00  0.00     0.293 HD
ENDBRANCH  10  21
BRANCH  11  23
ATOM     23  O   UNL     1     -38.608  28.611 -14.926  1.00  0.00    -0.508 OA
ATOM     24  H   UNL     1     -38.391  29.325 -14.240  1.00  0.00     0.293 HD
ENDBRANCH  11  23
ENDBRANCH   1   2
BRANCH   1  25
ATOM     25  C   UNL     1     -37.781  30.970 -23.217  1.00  0.00     0.339 C 
ATOM     26  C   UNL     1     -36.612  30.070 -23.691  1.00  0.00     0.214 C 
ATOM     27  O   UNL     1     -38.361  31.627 -24.328  1.00  0.00    -0.332 OA
ATOM     28  C   UNL     1     -35.944  30.643 -24.969  1.00  0.00     0.180 C 
ATOM     29  C   UNL     1     -37.505  32.658 -24.809  1.00  0.00     0.179 C 
ATOM     30  C   UNL     1     -36.018  32.177 -24.959  1.00  0.00     0.177 C 
BRANCH  26  31
ATOM     31  O   UNL     1     -37.064  28.759 -23.920  1.00  0.00    -0.384 OA
ATOM     32  H   UNL     1     -37.167  28.659 -24.902  1.00  0.00     0.211 HD
ENDBRANCH  26  31
BRANCH  28  33
ATOM     33  O   UNL     1     -36.583  30.156 -26.125  1.00  0.00    -0.387 OA
ATOM     34  H   UNL     1     -35.970  29.495 -26.541  1.00  0.00     0.211 HD
ENDBRANCH  28  33
BRANCH  29  35
ATOM     35  C   UNL     1     -38.098  33.187 -26.125  1.00  0.00     0.191 C 
BRANCH  35  36
ATOM     36  O   UNL     1     -39.020  34.205 -25.851  1.00  0.00    -0.394 OA
ATOM     37  H   UNL     1     -39.796  33.765 -25.416  1.00  0.00     0.210 HD
ENDBRANCH  35  36
ENDBRANCH  29  35
BRANCH  30  38
ATOM     38  O   UNL     1     -35.400  32.686 -26.114  1.00  0.00    -0.387 OA
ATOM     39  H   UNL     1     -36.121  32.851 -26.776  1.00  0.00     0.211 HD
ENDBRANCH  30  38
ENDBRANCH   1  25
TORSDOF 11
ENDMDL
MODEL 5
REMARK VINA RESULT:    75.498      1.565      6.744
REMARK INTER + INTRA:         110.885
REMARK INTER:                 110.287
REMARK INTRA:                   0.598
REMARK UNBOUND:                 2.285
REMARK SMILES O=c1c(O[C@@H]2O[C@H](CO)[C@H](O)[C@H](O)[C@@H]2O)c(-c2ccc(O)cc2)oc2cc(O)cc(O)c12
REMARK SMILES IDX 4 1 3 2 16 3 24 4 2 5 25 6 1 7 32 8 26 9 30 10 27 11 29 12
REMARK SMILES IDX 17 13 18 14 19 15 20 16 23 17 22 18 21 19 31 21 28 23 5 25
REMARK SMILES IDX 14 26 6 27 12 28 7 29 10 30 15 31 13 33 8 35 9 36 11 38
REMARK H PARENT 21 20 31 22 28 24 15 32 13 34 9 37 11 39
REMARK Flexibility Score: inf
ROOT
ATOM      1  O   UNL     1     -38.943  29.419 -21.931  1.00  0.00    -0.454 OA
ENDROOT
BRANCH   1   2
ATOM      2  C   UNL     1     -40.135  30.132 -22.173  1.00  0.00     0.214 A 
ATOM      3  C   UNL     1     -40.112  31.150 -23.149  1.00  0.00     0.180 A 
ATOM      4  O   UNL     1     -41.190  31.897 -23.362  1.00  0.00    -0.452 OA
ATOM      5  C   UNL     1     -41.345  29.900 -21.478  1.00  0.00     0.239 A 
ATOM      6  C   UNL     1     -42.335  31.729 -22.716  1.00  0.00     0.146 A 
ATOM      7  O   UNL     1     -41.426  28.971 -20.632  1.00  0.00    -0.285 OA
ATOM      8  C   UNL     1     -42.469  30.713 -21.742  1.00  0.00     0.111 A 
ATOM      9  C   UNL     1     -43.412  32.569 -23.012  1.00  0.00     0.094 A 
ATOM     10  C   UNL     1     -43.709  30.559 -21.075  1.00  0.00     0.134 A 
ATOM     11  C   UNL     1     -44.633  32.413 -22.353  1.00  0.00     0.123 A 
ATOM     12  C   UNL     1     -44.779  31.410 -21.389  1.00  0.00     0.093 A 
BRANCH   3  13
ATOM     13  C   UNL     1     -38.897  31.444 -23.944  1.00  0.00     0.021 A 
ATOM     14  C   UNL     1     -38.855  32.523 -24.845  1.00  0.00     0.016 A 
ATOM     15  C   UNL     1     -37.693  32.789 -25.575  1.00  0.00     0.047 A 
ATOM     16  C   UNL     1     -36.554  31.991 -25.401  1.00  0.00     0.115 A 
ATOM     17  C   UNL     1     -37.746  30.662 -23.760  1.00  0.00     0.016 A 
ATOM     18  C   UNL     1     -36.584  30.931 -24.491  1.00  0.00     0.047 A 
BRANCH  16  19
ATOM     19  O   UNL     1     -35.391  32.247 -26.123  1.00  0.00    -0.508 OA
ATOM     20  H   UNL     1     -34.546  32.571 -25.668  1.00  0.00     0.293 HD
ENDBRANCH  16  19
ENDBRANCH   3  13
BRANCH  10  21
ATOM     21  O   UNL     1     -43.887  29.572 -20.103  1.00  0.00    -0.507 OA
ATOM     22  H   UNL     1     -44.778  29.433 -19.642  1.00  0.00     0.293 HD
ENDBRANCH  10  21
BRANCH  11  23
ATOM     23  O   UNL     1     -45.693  33.261 -22.663  1.00  0.00    -0.508 OA
ATOM     24  H   UNL     1     -45.613  33.967 -23.384  1.00  0.00     0.293 HD
ENDBRANCH  11  23
ENDBRANCH   1   2
BRANCH   1  25
ATOM     25  C   UNL     1     -38.589  28.127 -22.425  1.00  0.00     0.339 C 
ATOM     26  C   UNL     1     -37.334  27.611 -21.678  1.00  0.00     0.214 C 
ATOM     27  O   UNL     1     -39.668  27.234 -22.226  1.00  0.00    -0.332 OA
ATOM     28  C   UNL     1     -37.338  26.062 -21.576  1.00  0.00     0.180 C 
ATOM     29  C   UNL     1     -39.477  26.036 -22.972  1.00  0.00     0.179 C 
ATOM     30  C   UNL     1     -38.028  25.456 -22.807  1.00  0.00     0.177 C 
BRANCH  26  31
ATOM     31  O   UNL     1     -37.254  28.186 -20.398  1.00  0.00    -0.384 OA
ATOM     32  H   UNL     1     -36.726  29.021 -20.491  1.00  0.00     0.211 HD
ENDBRANCH  26  31
BRANCH  28  33
ATOM     33  O   UNL     1     -38.013  25.642 -20.414  1.00  0.00    -0.387 OA
ATOM     34  H   UNL     1     -37.365  25.118 -19.874  1.00  0.00     0.211 HD
ENDBRANCH  28  33
BRANCH  29  35
ATOM     35  C   UNL     1     -40.571  25.041 -22.553  1.00  0.00     0.191 C 
BRANCH  35  36
ATOM     36  O   UNL     1     -41.764  25.731 -22.301  1.00  0.00    -0.394 OA
ATOM     37  H   UNL     1     -42.291  25.687 -23.141  1.00  0.00     0.210 HD
ENDBRANCH  35  36
ENDBRANCH  29  35
BRANCH  30  38
ATOM     38  O   UNL     1     -38.016  24.054 -22.712  1.00  0.00    -0.387 OA
ATOM     39  H   UNL     1     -37.711  23.710 -23.592  1.00  0.00     0.211 HD
ENDBRANCH  30  38
ENDBRANCH   1  25
TORSDOF 11
ENDMDL
