MODEL 1
REMARK VINA RESULT:    -4.323      0.000      0.000
REMARK INTER + INTRA:          -6.956
REMARK INTER:                  -6.345
REMARK INTRA:                  -0.611
REMARK UNBOUND:                -0.611
REMARK SMILES O=C([O-])CCCCCCCC(=O)[O-]
REMARK SMILES IDX 7 1 6 2 5 3 4 4 2 5 1 6 3 7 8 8 9 9 10 10 11 11 12 12 13 13
REMARK H PARENT
REMARK Flexibility Score: inf
ROOT
ATOM      1  C   UNL     1     -45.013  26.501 -15.265  1.00  0.00     0.000 C 
ENDROOT
BRANCH   1   2
ATOM      2  C   UNL     1     -45.807  26.511 -13.948  1.00  0.00     0.000 C 
BRANCH   2   3
ATOM      3  C   UNL     1     -47.127  25.724 -14.046  1.00  0.00     0.006 C 
BRANCH   3   4
ATOM      4  C   UNL     1     -47.953  26.130 -15.272  1.00  0.00     0.053 C 
BRANCH   4   5
ATOM      5  C   UNL     1     -48.426  24.938 -16.048  1.00  0.00     0.041 C 
ATOM      6  O   UNL     1     -49.185  24.092 -15.506  1.00  0.00    -0.550 OA
ATOM      7  O   UNL     1     -48.052  24.779 -17.376  1.00  0.00    -0.550 OA
ENDBRANCH   4   5
ENDBRANCH   3   4
ENDBRANCH   2   3
ENDBRANCH   1   2
BRANCH   1   8
ATOM      8  C   UNL     1     -44.638  27.917 -15.738  1.00  0.00     0.000 C 
BRANCH   8   9
ATOM      9  C   UNL     1     -44.502  28.016 -17.269  1.00  0.00     0.006 C 
BRANCH   9  10
ATOM     10  C   UNL     1     -45.531  27.187 -18.054  1.00  0.00     0.053 C 
BRANCH  10  11
ATOM     11  C   UNL     1     -44.876  26.243 -19.015  1.00  0.00     0.041 C 
ATOM     12  O   UNL     1     -45.195  25.025 -19.024  1.00  0.00    -0.550 OA
ATOM     13  O   UNL     1     -43.891  26.703 -19.878  1.00  0.00    -0.550 OA
ENDBRANCH  10  11
ENDBRANCH   9  10
ENDBRANCH   8   9
ENDBRANCH   1   8
TORSDOF 8
ENDMDL
MODEL 2
REMARK VINA RESULT:    -4.262      0.517      4.518
REMARK INTER + INTRA:          -6.867
REMARK INTER:                  -6.267
REMARK INTRA:                  -0.600
REMARK UNBOUND:                -0.611
REMARK SMILES O=C([O-])CCCCCCCC(=O)[O-]
REMARK SMILES IDX 7 1 6 2 5 3 4 4 2 5 1 6 3 7 8 8 9 9 10 10 11 11 12 12 13 13
REMARK H PARENT
REMARK Flexibility Score: inf
ROOT
ATOM      1  C   UNL     1     -44.992  26.510 -14.862  1.00  0.00     0.000 C 
ENDROOT
BRANCH   1   2
ATOM      2  C   UNL     1     -44.684  27.876 -15.497  1.00  0.00     0.000 C 
BRANCH   2   3
ATOM      3  C   UNL     1     -45.012  27.920 -17.000  1.00  0.00     0.006 C 
BRANCH   3   4
ATOM      4  C   UNL     1     -45.600  26.595 -17.502  1.00  0.00     0.053 C 
BRANCH   4   5
ATOM      5  C   UNL     1     -44.783  26.006 -18.611  1.00  0.00     0.041 C 
ATOM      6  O   UNL     1     -45.155  24.943 -19.175  1.00  0.00    -0.550 OA
ATOM      7  O   UNL     1     -43.628  26.647 -19.041  1.00  0.00    -0.550 OA
ENDBRANCH   4   5
ENDBRANCH   3   4
ENDBRANCH   2   3
ENDBRANCH   1   2
BRANCH   1   8
ATOM      8  C   UNL     1     -46.089  26.592 -13.787  1.00  0.00     0.000 C 
BRANCH   8   9
ATOM      9  C   UNL     1     -47.207  25.553 -13.997  1.00  0.00     0.006 C 
BRANCH   9  10
ATOM     10  C   UNL     1     -48.225  25.926 -15.087  1.00  0.00     0.053 C 
BRANCH  10  11
ATOM     11  C   UNL     1     -48.726  24.721 -15.822  1.00  0.00     0.041 C 
ATOM     12  O   UNL     1     -48.250  24.423 -16.949  1.00  0.00    -0.550 OA
ATOM     13  O   UNL     1     -49.740  23.946 -15.276  1.00  0.00    -0.550 OA
ENDBRANCH  10  11
ENDBRANCH   9  10
ENDBRANCH   8   9
ENDBRANCH   1   8
TORSDOF 8
ENDMDL
MODEL 3
REMARK VINA RESULT:    -4.152      2.807      6.329
REMARK INTER + INTRA:          -6.705
REMARK INTER:                  -6.109
REMARK INTRA:                  -0.596
REMARK UNBOUND:                -0.611
REMARK SMILES O=C([O-])CCCCCCCC(=O)[O-]
REMARK SMILES IDX 7 1 6 2 5 3 4 4 2 5 1 6 3 7 8 8 9 9 10 10 11 11 12 12 13 13
REMARK H PARENT
REMARK Flexibility Score: inf
ROOT
ATOM      1  C   UNL     1     -49.641  26.751 -15.540  1.00  0.00     0.000 C 
ENDROOT
BRANCH   1   2
ATOM      2  C   UNL     1     -48.819  25.470 -15.325  1.00  0.00     0.000 C 
BRANCH   2   3
ATOM      3  C   UNL     1     -48.304  24.867 -16.645  1.00  0.00     0.006 C 
BRANCH   3   4
ATOM      4  C   UNL     1     -48.204  25.916 -17.760  1.00  0.00     0.053 C 
BRANCH   4   5
ATOM      5  C   UNL     1     -46.783  26.298 -18.042  1.00  0.00     0.041 C 
ATOM      6  O   UNL     1     -46.379  27.463 -17.787  1.00  0.00    -0.550 OA
ATOM      7  O   UNL     1     -45.899  25.358 -18.557  1.00  0.00    -0.550 OA
ENDBRANCH   4   5
ENDBRANCH   3   4
ENDBRANCH   2   3
ENDBRANCH   1   2
BRANCH   1   8
ATOM      8  C   UNL     1     -50.994  26.715 -14.808  1.00  0.00     0.000 C 
BRANCH   8   9
ATOM      9  C   UNL     1     -51.972  25.692 -15.415  1.00  0.00     0.006 C 
BRANCH   9  10
ATOM     10  C   UNL     1     -52.665  24.785 -14.386  1.00  0.00     0.053 C 
BRANCH  10  11
ATOM     11  C   UNL     1     -51.885  23.533 -14.127  1.00  0.00     0.041 C 
ATOM     12  O   UNL     1     -51.781  23.083 -12.956  1.00  0.00    -0.550 OA
ATOM     13  O   UNL     1     -51.249  22.881 -15.175  1.00  0.00    -0.550 OA
ENDBRANCH  10  11
ENDBRANCH   9  10
ENDBRANCH   8   9
ENDBRANCH   1   8
TORSDOF 8
ENDMDL
MODEL 4
REMARK VINA RESULT:    -4.084      1.678      4.426
REMARK INTER + INTRA:          -6.605
REMARK INTER:                  -5.770
REMARK INTRA:                  -0.835
REMARK UNBOUND:                -0.611
REMARK SMILES O=C([O-])CCCCCCCC(=O)[O-]
REMARK SMILES IDX 7 1 6 2 5 3 4 4 2 5 1 6 3 7 8 8 9 9 10 10 11 11 12 12 13 13
REMARK H PARENT
REMARK Flexibility Score: inf
ROOT
ATOM      1  C   UNL     1     -45.685  27.380 -14.175  1.00  0.00     0.000 C 
ENDROOT
BRANCH   1   2
ATOM      2  C   UNL     1     -44.744  26.966 -15.318  1.00  0.00     0.000 C 
BRANCH   2   3
ATOM      3  C   UNL     1     -45.141  27.590 -16.668  1.00  0.00     0.006 C 
BRANCH   3   4
ATOM      4  C   UNL     1     -45.415  26.526 -17.739  1.00  0.00     0.053 C 
BRANCH   4   5
ATOM      5  C   UNL     1     -46.882  26.360 -17.999  1.00  0.00     0.041 C 
ATOM      6  O   UNL     1     -47.415  25.223 -17.905  1.00  0.00    -0.550 OA
ATOM      7  O   UNL     1     -47.662  27.465 -18.315  1.00  0.00    -0.550 OA
ENDBRANCH   4   5
ENDBRANCH   3   4
ENDBRANCH   2   3
ENDBRANCH   1   2
BRANCH   1   8
ATOM      8  C   UNL     1     -46.355  26.172 -13.495  1.00  0.00     0.000 C 
BRANCH   8   9
ATOM      9  C   UNL     1     -47.561  25.636 -14.290  1.00  0.00     0.006 C 
BRANCH   9  10
ATOM     10  C   UNL     1     -48.542  26.720 -14.765  1.00  0.00     0.053 C 
BRANCH  10  11
ATOM     11  C   UNL     1     -49.748  26.131 -15.430  1.00  0.00     0.041 C 
ATOM     12  O   UNL     1     -50.345  26.768 -16.337  1.00  0.00    -0.550 OA
ATOM     13  O   UNL     1     -50.230  24.893 -15.024  1.00  0.00    -0.550 OA
ENDBRANCH  10  11
ENDBRANCH   9  10
ENDBRANCH   8   9
ENDBRANCH   1   8
TORSDOF 8
ENDMDL
MODEL 5
REMARK VINA RESULT:    -4.064      2.635      5.996
REMARK INTER + INTRA:          -6.575
REMARK INTER:                  -6.127
REMARK INTRA:                  -0.449
REMARK UNBOUND:                -0.611
REMARK SMILES O=C([O-])CCCCCCCC(=O)[O-]
REMARK SMILES IDX 7 1 6 2 5 3 4 4 2 5 1 6 3 7 8 8 9 9 10 10 11 11 12 12 13 13
REMARK H PARENT
REMARK Flexibility Score: inf
ROOT
ATOM      1  C   UNL     1     -50.224  27.954 -16.962  1.00  0.00     0.000 C 
ENDROOT
BRANCH   1   2
ATOM      2  C   UNL     1     -49.423  27.008 -17.871  1.00  0.00     0.000 C 
BRANCH   2   3
ATOM      3  C   UNL     1     -47.902  27.181 -17.715  1.00  0.00     0.006 C 
BRANCH   3   4
ATOM      4  C   UNL     1     -47.155  25.845 -17.810  1.00  0.00     0.053 C 
BRANCH   4   5
ATOM      5  C   UNL     1     -45.827  25.994 -18.489  1.00  0.00     0.041 C 
ATOM      6  O   UNL     1     -45.266  24.992 -19.006  1.00  0.00    -0.550 OA
ATOM      7  O   UNL     1     -45.227  27.243 -18.577  1.00  0.00    -0.550 OA
ENDBRANCH   4   5
ENDBRANCH   3   4
ENDBRANCH   2   3
ENDBRANCH   1   2
BRANCH   1   8
ATOM      8  C   UNL     1     -51.557  27.340 -16.498  1.00  0.00     0.000 C 
BRANCH   8   9
ATOM      9  C   UNL     1     -51.465  26.708 -15.097  1.00  0.00     0.006 C 
BRANCH   9  10
ATOM     10  C   UNL     1     -51.950  25.251 -15.023  1.00  0.00     0.053 C 
BRANCH  10  11
ATOM     11  C   UNL     1     -50.811  24.279 -15.039  1.00  0.00     0.041 C 
ATOM     12  O   UNL     1     -51.034  23.041 -15.010  1.00  0.00    -0.550 OA
ATOM     13  O   UNL     1     -49.502  24.743 -15.056  1.00  0.00    -0.550 OA
ENDBRANCH  10  11
ENDBRANCH   9  10
ENDBRANCH   8   9
ENDBRANCH   1   8
TORSDOF 8
ENDMDL
MODEL 6
REMARK VINA RESULT:    -4.005      2.162      5.097
REMARK INTER + INTRA:          -6.488
REMARK INTER:                  -5.836
REMARK INTRA:                  -0.653
REMARK UNBOUND:                -0.611
REMARK SMILES O=C([O-])CCCCCCCC(=O)[O-]
REMARK SMILES IDX 7 1 6 2 5 3 4 4 2 5 1 6 3 7 8 8 9 9 10 10 11 11 12 12 13 13
REMARK H PARENT
REMARK Flexibility Score: inf
ROOT
ATOM      1  C   UNL     1     -48.012  24.945 -17.232  1.00  0.00     0.000 C 
ENDROOT
BRANCH   1   2
ATOM      2  C   UNL     1     -48.399  26.375 -17.644  1.00  0.00     0.000 C 
BRANCH   2   3
ATOM      3  C   UNL     1     -47.188  27.323 -17.706  1.00  0.00     0.006 C 
BRANCH   3   4
ATOM      4  C   UNL     1     -45.872  26.601 -17.390  1.00  0.00     0.053 C 
BRANCH   4   5
ATOM      5  C   UNL     1     -45.072  26.329 -18.628  1.00  0.00     0.041 C 
ATOM      6  O   UNL     1     -45.024  25.165 -19.105  1.00  0.00    -0.550 OA
ATOM      7  O   UNL     1     -44.408  27.366 -19.270  1.00  0.00    -0.550 OA
ENDBRANCH   4   5
ENDBRANCH   3   4
ENDBRANCH   2   3
ENDBRANCH   1   2
BRANCH   1   8
ATOM      8  C   UNL     1     -48.712  24.493 -15.939  1.00  0.00     0.000 C 
BRANCH   8   9
ATOM      9  C   UNL     1     -48.611  25.537 -14.811  1.00  0.00     0.006 C 
BRANCH   9  10
ATOM     10  C   UNL     1     -47.285  25.506 -14.033  1.00  0.00     0.053 C 
BRANCH  10  11
ATOM     11  C   UNL     1     -46.859  26.874 -13.597  1.00  0.00     0.041 C 
ATOM     12  O   UNL     1     -47.711  27.699 -13.177  1.00  0.00    -0.550 OA
ATOM     13  O   UNL     1     -45.523  27.245 -13.683  1.00  0.00    -0.550 OA
ENDBRANCH  10  11
ENDBRANCH   9  10
ENDBRANCH   8   9
ENDBRANCH   1   8
TORSDOF 8
ENDMDL
MODEL 7
REMARK VINA RESULT:    -3.983      3.189      4.578
REMARK INTER + INTRA:          -6.457
REMARK INTER:                  -6.013
REMARK INTRA:                  -0.444
REMARK UNBOUND:                -0.611
REMARK SMILES O=C([O-])CCCCCCCC(=O)[O-]
REMARK SMILES IDX 7 1 6 2 5 3 4 4 2 5 1 6 3 7 8 8 9 9 10 10 11 11 12 12 13 13
REMARK H PARENT
REMARK Flexibility Score: inf
ROOT
ATOM      1  C   UNL     1     -51.330  27.991 -16.388  1.00  0.00     0.000 C 
ENDROOT
BRANCH   1   2
ATOM      2  C   UNL     1     -52.102  26.689 -16.117  1.00  0.00     0.000 C 
BRANCH   2   3
ATOM      3  C   UNL     1     -51.502  25.875 -14.956  1.00  0.00     0.006 C 
BRANCH   3   4
ATOM      4  C   UNL     1     -52.468  24.799 -14.444  1.00  0.00     0.053 C 
BRANCH   4   5
ATOM      5  C   UNL     1     -51.764  23.510 -14.147  1.00  0.00     0.041 C 
ATOM      6  O   UNL     1     -51.681  23.094 -12.962  1.00  0.00    -0.550 OA
ATOM      7  O   UNL     1     -51.227  22.756 -15.182  1.00  0.00    -0.550 OA
ENDBRANCH   4   5
ENDBRANCH   3   4
ENDBRANCH   2   3
ENDBRANCH   1   2
BRANCH   1   8
ATOM      8  C   UNL     1     -49.912  27.972 -15.791  1.00  0.00     0.000 C 
BRANCH   8   9
ATOM      9  C   UNL     1     -48.819  28.232 -16.845  1.00  0.00     0.006 C 
BRANCH   9  10
ATOM     10  C   UNL     1     -48.677  27.123 -17.899  1.00  0.00     0.053 C 
BRANCH  10  11
ATOM     11  C   UNL     1     -47.718  26.057 -17.466  1.00  0.00     0.041 C 
ATOM     12  O   UNL     1     -48.082  24.852 -17.432  1.00  0.00    -0.550 OA
ATOM     13  O   UNL     1     -46.431  26.399 -17.071  1.00  0.00    -0.550 OA
ENDBRANCH  10  11
ENDBRANCH   9  10
ENDBRANCH   8   9
ENDBRANCH   1   8
TORSDOF 8
ENDMDL
MODEL 8
REMARK VINA RESULT:    -3.972      1.468      2.233
REMARK INTER + INTRA:          -6.440
REMARK INTER:                  -5.759
REMARK INTRA:                  -0.681
REMARK UNBOUND:                -0.611
REMARK SMILES O=C([O-])CCCCCCCC(=O)[O-]
REMARK SMILES IDX 7 1 6 2 5 3 4 4 2 5 1 6 3 7 8 8 9 9 10 10 11 11 12 12 13 13
REMARK H PARENT
REMARK Flexibility Score: inf
ROOT
ATOM      1  C   UNL     1     -46.692  26.173 -13.460  1.00  0.00     0.000 C 
ENDROOT
BRANCH   1   2
ATOM      2  C   UNL     1     -47.650  25.703 -14.567  1.00  0.00     0.000 C 
BRANCH   2   3
ATOM      3  C   UNL     1     -48.603  26.816 -15.039  1.00  0.00     0.006 C 
BRANCH   3   4
ATOM      4  C   UNL     1     -49.309  26.455 -16.352  1.00  0.00     0.053 C 
BRANCH   4   5
ATOM      5  C   UNL     1     -48.364  26.462 -17.515  1.00  0.00     0.041 C 
ATOM      6  O   UNL     1     -47.844  25.386 -17.913  1.00  0.00    -0.550 OA
ATOM      7  O   UNL     1     -48.083  27.650 -18.177  1.00  0.00    -0.550 OA
ENDBRANCH   4   5
ENDBRANCH   3   4
ENDBRANCH   2   3
ENDBRANCH   1   2
BRANCH   1   8
ATOM      8  C   UNL     1     -45.712  27.255 -13.947  1.00  0.00     0.000 C 
BRANCH   8   9
ATOM      9  C   UNL     1     -44.990  26.860 -15.250  1.00  0.00     0.006 C 
BRANCH   9  10
ATOM     10  C   UNL     1     -45.045  27.927 -16.355  1.00  0.00     0.053 C 
BRANCH  10  11
ATOM     11  C   UNL     1     -44.595  27.388 -17.678  1.00  0.00     0.041 C 
ATOM     12  O   UNL     1     -44.626  26.149 -17.900  1.00  0.00    -0.550 OA
ATOM     13  O   UNL     1     -44.113  28.251 -18.653  1.00  0.00    -0.550 OA
ENDBRANCH  10  11
ENDBRANCH   9  10
ENDBRANCH   8   9
ENDBRANCH   1   8
TORSDOF 8
ENDMDL
MODEL 9
REMARK VINA RESULT:    -3.946      3.355      6.882
REMARK INTER + INTRA:          -6.403
REMARK INTER:                  -5.750
REMARK INTRA:                  -0.653
REMARK UNBOUND:                -0.611
REMARK SMILES O=C([O-])CCCCCCCC(=O)[O-]
REMARK SMILES IDX 7 1 6 2 5 3 4 4 2 5 1 6 3 7 8 8 9 9 10 10 11 11 12 12 13 13
REMARK H PARENT
REMARK Flexibility Score: inf
ROOT
ATOM      1  C   UNL     1     -51.202  27.453 -15.923  1.00  0.00     0.000 C 
ENDROOT
BRANCH   1   2
ATOM      2  C   UNL     1     -49.714  27.721 -16.203  1.00  0.00     0.000 C 
BRANCH   2   3
ATOM      3  C   UNL     1     -48.788  27.092 -15.147  1.00  0.00     0.006 C 
BRANCH   3   4
ATOM      4  C   UNL     1     -47.633  26.309 -15.784  1.00  0.00     0.053 C 
BRANCH   4   5
ATOM      5  C   UNL     1     -48.122  25.131 -16.570  1.00  0.00     0.041 C 
ATOM      6  O   UNL     1     -48.779  24.220 -16.001  1.00  0.00    -0.550 OA
ATOM      7  O   UNL     1     -47.878  25.055 -17.935  1.00  0.00    -0.550 OA
ENDBRANCH   4   5
ENDBRANCH   3   4
ENDBRANCH   2   3
ENDBRANCH   1   2
BRANCH   1   8
ATOM      8  C   UNL     1     -51.415  26.471 -14.757  1.00  0.00     0.000 C 
BRANCH   8   9
ATOM      9  C   UNL     1     -52.162  25.194 -15.184  1.00  0.00     0.006 C 
BRANCH   9  10
ATOM     10  C   UNL     1     -51.855  23.960 -14.321  1.00  0.00     0.053 C 
BRANCH  10  11
ATOM     11  C   UNL     1     -52.863  23.775 -13.228  1.00  0.00     0.041 C 
ATOM     12  O   UNL     1     -54.022  24.250 -13.349  1.00  0.00    -0.550 OA
ATOM     13  O   UNL     1     -52.511  23.104 -12.065  1.00  0.00    -0.550 OA
ENDBRANCH  10  11
ENDBRANCH   9  10
ENDBRANCH   8   9
ENDBRANCH   1   8
TORSDOF 8
ENDMDL
