MODEL 1
REMARK VINA RESULT:    -3.723      0.000      0.000
REMARK INTER + INTRA:          -3.832
REMARK INTER:                  -3.832
REMARK INTRA:                   0.000
REMARK UNBOUND:                 0.000
REMARK SMILES Cc1ccccc1O
REMARK SMILES IDX 1 1 2 2 3 3 4 4 5 5 6 6 7 7 8 8
REMARK H PARENT 8 9
REMARK Flexibility Score: inf
ROOT
ATOM      1  C   UNL     1     160.234 177.883 184.641  1.00  0.00     0.048 C 
ATOM      2  C   UNL     1     161.130 177.846 185.846  1.00  0.00    -0.009 A 
ATOM      3  C   UNL     1     160.587 177.656 187.128  1.00  0.00     0.007 A 
ATOM      4  C   UNL     1     161.420 177.622 188.249  1.00  0.00     0.001 A 
ATOM      5  C   UNL     1     162.801 177.776 188.101  1.00  0.00     0.004 A 
ATOM      6  C   UNL     1     163.351 177.965 186.831  1.00  0.00     0.046 A 
ATOM      7  C   UNL     1     162.522 178.001 185.699  1.00  0.00     0.118 A 
ENDROOT
BRANCH   7   8
ATOM      8  O   UNL     1     163.076 178.190 184.433  1.00  0.00    -0.508 OA
ATOM      9  H   UNL     1     163.163 179.113 184.025  1.00  0.00     0.293 HD
ENDBRANCH   7   8
TORSDOF 1
ENDMDL
MODEL 2
REMARK VINA RESULT:    -3.644      1.098      2.227
REMARK INTER + INTRA:          -3.751
REMARK INTER:                  -3.751
REMARK INTRA:                   0.000
REMARK UNBOUND:                 0.000
REMARK SMILES Cc1ccccc1O
REMARK SMILES IDX 1 1 2 2 3 3 4 4 5 5 6 6 7 7 8 8
REMARK H PARENT 8 9
REMARK Flexibility Score: inf
ROOT
ATOM      1  C   UNL     1     163.396 177.880 184.594  1.00  0.00     0.048 C 
ATOM      2  C   UNL     1     162.623 177.839 185.881  1.00  0.00    -0.009 A 
ATOM      3  C   UNL     1     163.283 177.592 187.097  1.00  0.00     0.007 A 
ATOM      4  C   UNL     1     162.564 177.554 188.295  1.00  0.00     0.001 A 
ATOM      5  C   UNL     1     161.183 177.762 188.290  1.00  0.00     0.004 A 
ATOM      6  C   UNL     1     160.517 178.008 187.087  1.00  0.00     0.046 A 
ATOM      7  C   UNL     1     161.231 178.048 185.879  1.00  0.00     0.118 A 
ENDROOT
BRANCH   7   8
ATOM      8  O   UNL     1     160.561 178.294 184.680  1.00  0.00    -0.508 OA
ATOM      9  H   UNL     1     160.389 179.236 184.352  1.00  0.00     0.293 HD
ENDBRANCH   7   8
TORSDOF 1
ENDMDL
MODEL 3
REMARK VINA RESULT:    -3.634      2.043      2.408
REMARK INTER + INTRA:          -3.741
REMARK INTER:                  -3.741
REMARK INTRA:                   0.000
REMARK UNBOUND:                 0.000
REMARK SMILES Cc1ccccc1O
REMARK SMILES IDX 1 1 2 2 3 3 4 4 5 5 6 6 7 7 8 8
REMARK H PARENT 8 9
REMARK Flexibility Score: inf
ROOT
ATOM      1  C   UNL     1     160.223 177.497 184.082  1.00  0.00     0.048 C 
ATOM      2  C   UNL     1     160.566 177.208 185.516  1.00  0.00    -0.009 A 
ATOM      3  C   UNL     1     160.886 178.257 186.394  1.00  0.00     0.007 A 
ATOM      4  C   UNL     1     161.206 177.989 187.728  1.00  0.00     0.001 A 
ATOM      5  C   UNL     1     161.209 176.673 188.196  1.00  0.00     0.004 A 
ATOM      6  C   UNL     1     160.893 175.622 187.331  1.00  0.00     0.046 A 
ATOM      7  C   UNL     1     160.571 175.883 185.991  1.00  0.00     0.118 A 
ENDROOT
BRANCH   7   8
ATOM      8  O   UNL     1     160.256 174.830 185.131  1.00  0.00    -0.508 OA
ATOM      9  H   UNL     1     159.485 174.890 184.478  1.00  0.00     0.293 HD
ENDBRANCH   7   8
TORSDOF 1
ENDMDL
MODEL 4
REMARK VINA RESULT:    -3.614     11.149     12.297
REMARK INTER + INTRA:          -3.720
REMARK INTER:                  -3.720
REMARK INTRA:                   0.000
REMARK UNBOUND:                 0.000
REMARK SMILES Cc1ccccc1O
REMARK SMILES IDX 1 1 2 2 3 3 4 4 5 5 6 6 7 7 8 8
REMARK H PARENT 8 9
REMARK Flexibility Score: inf
ROOT
ATOM      1  C   UNL     1     173.945 180.124 183.862  1.00  0.00     0.048 C 
ATOM      2  C   UNL     1     174.050 179.989 185.355  1.00  0.00    -0.009 A 
ATOM      3  C   UNL     1     175.296 180.113 185.991  1.00  0.00     0.007 A 
ATOM      4  C   UNL     1     175.395 179.987 187.380  1.00  0.00     0.001 A 
ATOM      5  C   UNL     1     174.252 179.738 188.143  1.00  0.00     0.004 A 
ATOM      6  C   UNL     1     173.008 179.613 187.520  1.00  0.00     0.046 A 
ATOM      7  C   UNL     1     172.900 179.737 186.127  1.00  0.00     0.118 A 
ENDROOT
BRANCH   7   8
ATOM      8  O   UNL     1     171.655 179.612 185.509  1.00  0.00    -0.508 OA
ATOM      9  H   UNL     1     171.559 179.625 184.501  1.00  0.00     0.293 HD
ENDBRANCH   7   8
TORSDOF 1
ENDMDL
MODEL 5
REMARK VINA RESULT:    -3.596     10.647     12.118
REMARK INTER + INTRA:          -3.701
REMARK INTER:                  -3.701
REMARK INTRA:                   0.000
REMARK UNBOUND:                 0.000
REMARK SMILES Cc1ccccc1O
REMARK SMILES IDX 1 1 2 2 3 3 4 4 5 5 6 6 7 7 8 8
REMARK H PARENT 8 9
REMARK Flexibility Score: inf
ROOT
ATOM      1  C   UNL     1     171.494 179.785 187.489  1.00  0.00     0.048 C 
ATOM      2  C   UNL     1     172.942 179.689 187.098  1.00  0.00    -0.009 A 
ATOM      3  C   UNL     1     173.925 179.447 188.073  1.00  0.00     0.007 A 
ATOM      4  C   UNL     1     175.271 179.357 187.711  1.00  0.00     0.001 A 
ATOM      5  C   UNL     1     175.648 179.508 186.374  1.00  0.00     0.004 A 
ATOM      6  C   UNL     1     174.679 179.749 185.397  1.00  0.00     0.046 A 
ATOM      7  C   UNL     1     173.325 179.841 185.752  1.00  0.00     0.118 A 
ENDROOT
BRANCH   7   8
ATOM      8  O   UNL     1     172.361 180.082 184.773  1.00  0.00    -0.508 OA
ATOM      9  H   UNL     1     172.606 180.474 183.872  1.00  0.00     0.293 HD
ENDBRANCH   7   8
TORSDOF 1
ENDMDL
MODEL 6
REMARK VINA RESULT:    -3.579      2.238      2.943
REMARK INTER + INTRA:          -3.684
REMARK INTER:                  -3.684
REMARK INTRA:                   0.000
REMARK UNBOUND:                 0.000
REMARK SMILES Cc1ccccc1O
REMARK SMILES IDX 1 1 2 2 3 3 4 4 5 5 6 6 7 7 8 8
REMARK H PARENT 8 9
REMARK Flexibility Score: inf
ROOT
ATOM      1  C   UNL     1     160.222 174.223 187.457  1.00  0.00     0.048 C 
ATOM      2  C   UNL     1     160.605 175.624 187.072  1.00  0.00    -0.009 A 
ATOM      3  C   UNL     1     160.946 176.563 188.060  1.00  0.00     0.007 A 
ATOM      4  C   UNL     1     161.302 177.866 187.702  1.00  0.00     0.001 A 
ATOM      5  C   UNL     1     161.321 178.243 186.357  1.00  0.00     0.004 A 
ATOM      6  C   UNL     1     160.983 177.317 185.367  1.00  0.00     0.046 A 
ATOM      7  C   UNL     1     160.624 176.006 185.717  1.00  0.00     0.118 A 
ENDROOT
BRANCH   7   8
ATOM      8  O   UNL     1     160.287 175.086 184.725  1.00  0.00    -0.508 OA
ATOM      9  H   UNL     1     160.391 175.304 183.741  1.00  0.00     0.293 HD
ENDBRANCH   7   8
TORSDOF 1
ENDMDL
MODEL 7
REMARK VINA RESULT:    -3.576     13.627     14.200
REMARK INTER + INTRA:          -3.680
REMARK INTER:                  -3.680
REMARK INTRA:                   0.000
REMARK UNBOUND:                 0.000
REMARK SMILES Cc1ccccc1O
REMARK SMILES IDX 1 1 2 2 3 3 4 4 5 5 6 6 7 7 8 8
REMARK H PARENT 8 9
REMARK Flexibility Score: inf
ROOT
ATOM      1  C   UNL     1     175.926 177.751 183.378  1.00  0.00     0.048 C 
ATOM      2  C   UNL     1     175.839 178.158 184.822  1.00  0.00    -0.009 A 
ATOM      3  C   UNL     1     175.109 179.300 185.193  1.00  0.00     0.007 A 
ATOM      4  C   UNL     1     175.028 179.680 186.536  1.00  0.00     0.001 A 
ATOM      5  C   UNL     1     175.673 178.923 187.518  1.00  0.00     0.004 A 
ATOM      6  C   UNL     1     176.402 177.787 187.159  1.00  0.00     0.046 A 
ATOM      7  C   UNL     1     176.489 177.398 185.813  1.00  0.00     0.118 A 
ENDROOT
BRANCH   7   8
ATOM      8  O   UNL     1     177.217 176.263 185.460  1.00  0.00    -0.508 OA
ATOM      9  H   UNL     1     176.792 175.343 185.444  1.00  0.00     0.293 HD
ENDBRANCH   7   8
TORSDOF 1
ENDMDL
MODEL 8
REMARK VINA RESULT:    -3.559      1.823      2.255
REMARK INTER + INTRA:          -3.663
REMARK INTER:                  -3.663
REMARK INTRA:                   0.000
REMARK UNBOUND:                 0.000
REMARK SMILES Cc1ccccc1O
REMARK SMILES IDX 1 1 2 2 3 3 4 4 5 5 6 6 7 7 8 8
REMARK H PARENT 8 9
REMARK Flexibility Score: inf
ROOT
ATOM      1  C   UNL     1     160.637 175.848 183.755  1.00  0.00     0.048 C 
ATOM      2  C   UNL     1     160.746 176.405 185.146  1.00  0.00    -0.009 A 
ATOM      3  C   UNL     1     161.103 175.569 186.218  1.00  0.00     0.007 A 
ATOM      4  C   UNL     1     161.204 176.086 187.513  1.00  0.00     0.001 A 
ATOM      5  C   UNL     1     160.952 177.440 187.747  1.00  0.00     0.004 A 
ATOM      6  C   UNL     1     160.596 178.280 186.689  1.00  0.00     0.046 A 
ATOM      7  C   UNL     1     160.492 177.768 185.386  1.00  0.00     0.118 A 
ENDROOT
BRANCH   7   8
ATOM      8  O   UNL     1     160.136 178.610 184.332  1.00  0.00    -0.508 OA
ATOM      9  H   UNL     1     159.294 179.173 184.363  1.00  0.00     0.293 HD
ENDBRANCH   7   8
TORSDOF 1
ENDMDL
MODEL 9
REMARK VINA RESULT:    -3.371      1.533      2.181
REMARK INTER + INTRA:          -3.470
REMARK INTER:                  -3.470
REMARK INTRA:                   0.000
REMARK UNBOUND:                 0.000
REMARK SMILES Cc1ccccc1O
REMARK SMILES IDX 1 1 2 2 3 3 4 4 5 5 6 6 7 7 8 8
REMARK H PARENT 8 9
REMARK Flexibility Score: inf
ROOT
ATOM      1  C   UNL     1     163.699 177.875 183.408  1.00  0.00     0.048 C 
ATOM      2  C   UNL     1     163.138 177.875 184.802  1.00  0.00    -0.009 A 
ATOM      3  C   UNL     1     161.874 177.316 185.057  1.00  0.00     0.007 A 
ATOM      4  C   UNL     1     161.351 177.316 186.353  1.00  0.00     0.001 A 
ATOM      5  C   UNL     1     162.085 177.873 187.404  1.00  0.00     0.004 A 
ATOM      6  C   UNL     1     163.342 178.431 187.161  1.00  0.00     0.046 A 
ATOM      7  C   UNL     1     163.874 178.436 185.862  1.00  0.00     0.118 A 
ENDROOT
BRANCH   7   8
ATOM      8  O   UNL     1     165.130 178.995 185.625  1.00  0.00    -0.508 OA
ATOM      9  H   UNL     1     165.918 178.807 186.233  1.00  0.00     0.293 HD
ENDBRANCH   7   8
TORSDOF 1
ENDMDL
