MODEL 1
REMARK VINA RESULT:    -3.730      0.000      0.000
REMARK INTER + INTRA:          -5.324
REMARK INTER:                  -5.257
REMARK INTRA:                  -0.067
REMARK UNBOUND:                -0.067
REMARK SMILES CC1=CCC(=C(C)C)C(=O)CC(C)=CCC1
REMARK SMILES IDX 12 1 14 2 13 3 15 4 16 5 2 6 1 7 3 8 11 10 9 11 10 12 5 13
REMARK SMILES IDX 6 14 7 15 8 16 4 17
REMARK H PARENT
REMARK Flexibility Score: 60.00
ROOT
ATOM      1  C   UNL     1      -0.532   4.774  63.826  1.00  0.00    -0.070 C 
ATOM      2  C   UNL     1       0.137   5.182  62.717  1.00  0.00    -0.027 C 
ATOM      3  C   UNL     1      -2.011   4.495  63.703  1.00  0.00     0.039 C 
ENDROOT
BRANCH   2   4
ATOM      4  C   UNL     1       1.628   5.382  62.596  1.00  0.00     0.032 C 
BRANCH   4   5
ATOM      5  C   UNL     1       2.129   6.827  62.429  1.00  0.00     0.034 C 
BRANCH   5   6
ATOM      6  C   UNL     1       1.443   7.892  63.274  1.00  0.00    -0.077 C 
ATOM      7  C   UNL     1       0.524   8.860  62.564  1.00  0.00     0.039 C 
ATOM      8  C   UNL     1       1.703   8.145  64.586  1.00  0.00    -0.023 CG0
ATOM      9  G   UNL     1       2.335   7.229  65.613  1.00  0.00     0.000 G0
ENDBRANCH   5   6
ENDBRANCH   4   5
ENDBRANCH   2   4
BRANCH   1  10
ATOM     10  C   UNL     1       0.127   4.597  65.176  1.00  0.00     0.111 C 
BRANCH  10  11
ATOM     11  C   UNL     1       0.181   5.811  66.088  1.00  0.00     0.163 C 
ATOM     12  O   UNL     1      -0.939   6.272  66.443  1.00  0.00    -0.294 OA
BRANCH  11  13
ATOM     13  C   UNL     1       1.415   6.514  66.591  1.00  0.00    -0.002 C 
ATOM     14  C   UNL     1       1.737   6.443  67.923  1.00  0.00    -0.069 C 
ATOM     15  C   UNL     1       0.783   5.863  68.945  1.00  0.00     0.039 C 
ATOM     16  C   UNL     1       3.049   6.975  68.461  1.00  0.00     0.039 C 
BRANCH  13  17
ATOM     17  C   UNL     1       2.352   7.234  65.618  1.00  0.00     0.066 CG0
ATOM     18  G   UNL     1       1.698   8.134  64.590  1.00  0.00     0.000 G0
ENDBRANCH  13  17
ENDBRANCH  11  13
ENDBRANCH  10  11
ENDBRANCH   1  10
TORSDOF 0
ENDMDL
MODEL 2
REMARK VINA RESULT:    -3.711      1.887      3.171
REMARK INTER + INTRA:          -5.296
REMARK INTER:                  -4.812
REMARK INTRA:                  -0.485
REMARK UNBOUND:                -0.067
REMARK SMILES CC1=CCC(=C(C)C)C(=O)CC(C)=CCC1
REMARK SMILES IDX 12 1 14 2 13 3 15 4 16 5 2 6 1 7 3 8 11 10 9 11 10 12 5 13
REMARK SMILES IDX 6 14 7 15 8 16 4 17
REMARK H PARENT
REMARK Flexibility Score: 60.00
ROOT
ATOM      1  C   UNL     1       0.238   5.064  63.285  1.00  0.00    -0.070 C 
ATOM      2  C   UNL     1       0.697   5.098  62.008  1.00  0.00    -0.027 C 
ATOM      3  C   UNL     1      -1.256   5.035  63.504  1.00  0.00     0.039 C 
ENDROOT
BRANCH   2   4
ATOM      4  C   UNL     1       2.139   4.996  61.574  1.00  0.00     0.032 C 
BRANCH   4   5
ATOM      5  C   UNL     1       3.001   6.265  61.704  1.00  0.00     0.034 C 
BRANCH   5   6
ATOM      6  C   UNL     1       4.262   6.153  62.552  1.00  0.00    -0.077 C 
ATOM      7  C   UNL     1       5.391   5.306  62.012  1.00  0.00     0.039 C 
ATOM      8  C   UNL     1       4.401   6.623  63.821  1.00  0.00    -0.023 CG0
ATOM      9  G   UNL     1       3.599   7.702  64.518  1.00  0.00     0.000 G0
ENDBRANCH   5   6
ENDBRANCH   4   5
ENDBRANCH   2   4
BRANCH   1  10
ATOM     10  C   UNL     1       1.146   5.063  64.495  1.00  0.00     0.111 C 
BRANCH  10  11
ATOM     11  C   UNL     1       1.415   6.402  65.163  1.00  0.00     0.163 C 
ATOM     12  O   UNL     1       1.022   6.499  66.358  1.00  0.00    -0.294 OA
BRANCH  11  13
ATOM     13  C   UNL     1       2.081   7.604  64.548  1.00  0.00    -0.002 C 
ATOM     14  C   UNL     1       1.310   8.628  64.058  1.00  0.00    -0.069 C 
ATOM     15  C   UNL     1      -0.192   8.498  63.918  1.00  0.00     0.039 C 
ATOM     16  C   UNL     1       1.913   9.936  63.591  1.00  0.00     0.039 C 
BRANCH  13  17
ATOM     17  C   UNL     1       3.607   7.731  64.541  1.00  0.00     0.066 CG0
ATOM     18  G   UNL     1       4.374   6.634  63.832  1.00  0.00     0.000 G0
ENDBRANCH  13  17
ENDBRANCH  11  13
ENDBRANCH  10  11
ENDBRANCH   1  10
TORSDOF 0
ENDMDL
MODEL 3
REMARK VINA RESULT:    -3.565      1.868      2.715
REMARK INTER + INTRA:          -5.091
REMARK INTER:                  -4.491
REMARK INTRA:                  -0.600
REMARK UNBOUND:                -0.067
REMARK SMILES CC1=CCC(=C(C)C)C(=O)CC(C)=CCC1
REMARK SMILES IDX 12 1 14 2 13 3 15 4 16 5 2 6 1 7 3 8 11 10 9 11 10 12 5 13
REMARK SMILES IDX 6 14 7 15 8 16 4 17
REMARK H PARENT
REMARK Flexibility Score: 60.00
ROOT
ATOM      1  C   UNL     1       0.154   5.347  63.792  1.00  0.00    -0.070 C 
ATOM      2  C   UNL     1       0.684   4.754  62.692  1.00  0.00    -0.027 C 
ATOM      3  C   UNL     1       0.021   4.523  65.050  1.00  0.00     0.039 C 
ENDROOT
BRANCH   2   4
ATOM      4  C   UNL     1       1.024   5.434  61.387  1.00  0.00     0.032 C 
BRANCH   4   5
ATOM      5  C   UNL     1       2.368   6.179  61.316  1.00  0.00     0.034 C 
BRANCH   5   6
ATOM      6  C   UNL     1       3.469   5.699  62.252  1.00  0.00    -0.077 C 
ATOM      7  C   UNL     1       4.228   4.454  61.854  1.00  0.00     0.039 C 
ATOM      8  C   UNL     1       3.726   6.203  63.490  1.00  0.00    -0.023 CG0
ATOM      9  G   UNL     1       3.351   7.559  64.049  1.00  0.00     0.000 G0
ENDBRANCH   5   6
ENDBRANCH   4   5
ENDBRANCH   2   4
BRANCH   1  10
ATOM     10  C   UNL     1      -0.320   6.784  63.816  1.00  0.00     0.111 C 
BRANCH  10  11
ATOM     11  C   UNL     1       0.731   7.857  64.046  1.00  0.00     0.163 C 
ATOM     12  O   UNL     1       0.474   8.984  63.537  1.00  0.00    -0.294 OA
BRANCH  11  13
ATOM     13  C   UNL     1       2.028   7.711  64.797  1.00  0.00    -0.002 C 
ATOM     14  C   UNL     1       2.010   7.621  66.166  1.00  0.00    -0.069 C 
ATOM     15  C   UNL     1       0.751   7.877  66.966  1.00  0.00     0.039 C 
ATOM     16  C   UNL     1       3.255   7.297  66.966  1.00  0.00     0.039 C 
BRANCH  13  17
ATOM     17  C   UNL     1       3.354   7.580  64.042  1.00  0.00     0.066 CG0
ATOM     18  G   UNL     1       3.692   6.206  63.503  1.00  0.00     0.000 G0
ENDBRANCH  13  17
ENDBRANCH  11  13
ENDBRANCH  10  11
ENDBRANCH   1  10
TORSDOF 0
ENDMDL
MODEL 4
REMARK VINA RESULT:    -3.465     11.993     14.207
REMARK INTER + INTRA:          -4.949
REMARK INTER:                  -4.648
REMARK INTRA:                  -0.301
REMARK UNBOUND:                -0.067
REMARK SMILES CC1=CCC(=C(C)C)C(=O)CC(C)=CCC1
REMARK SMILES IDX 12 1 14 2 13 3 15 4 16 5 2 6 1 7 3 8 11 10 9 11 10 12 5 13
REMARK SMILES IDX 6 14 7 15 8 16 4 17
REMARK H PARENT
REMARK Flexibility Score: 60.00
ROOT
ATOM      1  C   UNL     1       4.412  15.681  72.647  1.00  0.00    -0.070 C 
ATOM      2  C   UNL     1       3.472  14.933  72.015  1.00  0.00    -0.027 C 
ATOM      3  C   UNL     1       5.585  16.182  71.839  1.00  0.00     0.039 C 
ENDROOT
BRANCH   2   4
ATOM      4  C   UNL     1       2.167  14.454  72.605  1.00  0.00     0.032 C 
BRANCH   4   5
ATOM      5  C   UNL     1       0.951  15.385  72.462  1.00  0.00     0.034 C 
BRANCH   5   6
ATOM      6  C   UNL     1       0.631  16.282  73.651  1.00  0.00    -0.077 C 
ATOM      7  C   UNL     1      -0.222  15.699  74.754  1.00  0.00     0.039 C 
ATOM      8  C   UNL     1       0.917  17.610  73.735  1.00  0.00    -0.023 CG0
ATOM      9  G   UNL     1       1.953  18.400  72.962  1.00  0.00     0.000 G0
ENDBRANCH   5   6
ENDBRANCH   4   5
ENDBRANCH   2   4
BRANCH   1  10
ATOM     10  C   UNL     1       4.349  16.026  74.119  1.00  0.00     0.111 C 
BRANCH  10  11
ATOM     11  C   UNL     1       3.867  17.419  74.486  1.00  0.00     0.163 C 
ATOM     12  O   UNL     1       3.885  17.691  75.719  1.00  0.00    -0.294 OA
BRANCH  11  13
ATOM     13  C   UNL     1       3.368  18.484  73.545  1.00  0.00    -0.002 C 
ATOM     14  C   UNL     1       4.211  19.497  73.162  1.00  0.00    -0.069 C 
ATOM     15  C   UNL     1       5.559  19.703  73.819  1.00  0.00     0.039 C 
ATOM     16  C   UNL     1       3.833  20.494  72.088  1.00  0.00     0.039 C 
BRANCH  13  17
ATOM     17  C   UNL     1       1.960  18.400  72.950  1.00  0.00     0.066 CG0
ATOM     18  G   UNL     1       0.944  17.590  73.728  1.00  0.00     0.000 G0
ENDBRANCH  13  17
ENDBRANCH  11  13
ENDBRANCH  10  11
ENDBRANCH   1  10
TORSDOF 0
ENDMDL
MODEL 5
REMARK VINA RESULT:    -3.459      2.174      2.946
REMARK INTER + INTRA:          -4.942
REMARK INTER:                  -4.768
REMARK INTRA:                  -0.174
REMARK UNBOUND:                -0.067
REMARK SMILES CC1=CCC(=C(C)C)C(=O)CC(C)=CCC1
REMARK SMILES IDX 12 1 14 2 13 3 15 4 16 5 2 6 1 7 3 8 11 10 9 11 10 12 5 13
REMARK SMILES IDX 6 14 7 15 8 16 4 17
REMARK H PARENT
REMARK Flexibility Score: 60.00
ROOT
ATOM      1  C   UNL     1      -2.744   5.354  64.286  1.00  0.00    -0.070 C 
ATOM      2  C   UNL     1      -1.855   4.688  63.508  1.00  0.00    -0.027 C 
ATOM      3  C   UNL     1      -4.144   4.799  64.404  1.00  0.00     0.039 C 
ENDROOT
BRANCH   2   4
ATOM      4  C   UNL     1      -0.384   4.997  63.366  1.00  0.00     0.032 C 
BRANCH   4   5
ATOM      5  C   UNL     1       0.526   4.628  64.550  1.00  0.00     0.034 C 
BRANCH   5   6
ATOM      6  C   UNL     1       1.410   5.736  65.107  1.00  0.00    -0.077 C 
ATOM      7  C   UNL     1       2.514   6.260  64.219  1.00  0.00     0.039 C 
ATOM      8  C   UNL     1       1.390   6.189  66.390  1.00  0.00    -0.023 CG0
ATOM      9  G   UNL     1       0.276   6.076  67.410  1.00  0.00     0.000 G0
ENDBRANCH   5   6
ENDBRANCH   4   5
ENDBRANCH   2   4
BRANCH   1  10
ATOM     10  C   UNL     1      -2.408   6.628  65.031  1.00  0.00     0.111 C 
BRANCH  10  11
ATOM     11  C   UNL     1      -2.146   6.512  66.523  1.00  0.00     0.163 C 
ATOM     12  O   UNL     1      -3.066   5.967  67.193  1.00  0.00    -0.294 OA
BRANCH  11  13
ATOM     13  C   UNL     1      -0.926   6.984  67.270  1.00  0.00    -0.002 C 
ATOM     14  C   UNL     1      -0.933   8.222  67.862  1.00  0.00    -0.069 C 
ATOM     15  C   UNL     1      -2.043   9.219  67.612  1.00  0.00     0.039 C 
ATOM     16  C   UNL     1       0.186   8.683  68.772  1.00  0.00     0.039 C 
BRANCH  13  17
ATOM     17  C   UNL     1       0.285   6.063  67.443  1.00  0.00     0.066 CG0
ATOM     18  G   UNL     1       1.373   6.172  66.395  1.00  0.00     0.000 G0
ENDBRANCH  13  17
ENDBRANCH  11  13
ENDBRANCH  10  11
ENDBRANCH   1  10
TORSDOF 0
ENDMDL
MODEL 6
REMARK VINA RESULT:    -3.415     11.306     13.461
REMARK INTER + INTRA:          -4.879
REMARK INTER:                  -4.448
REMARK INTRA:                  -0.431
REMARK UNBOUND:                -0.067
REMARK SMILES CC1=CCC(=C(C)C)C(=O)CC(C)=CCC1
REMARK SMILES IDX 12 1 14 2 13 3 15 4 16 5 2 6 1 7 3 8 11 10 9 11 10 12 5 13
REMARK SMILES IDX 6 14 7 15 8 16 4 17
REMARK H PARENT
REMARK Flexibility Score: 60.00
ROOT
ATOM      1  C   UNL     1       1.951  15.223  71.969  1.00  0.00    -0.070 C 
ATOM      2  C   UNL     1       0.892  14.374  71.955  1.00  0.00    -0.027 C 
ATOM      3  C   UNL     1       1.956  16.371  70.989  1.00  0.00     0.039 C 
ENDROOT
BRANCH   2   4
ATOM      4  C   UNL     1       0.632  13.254  72.933  1.00  0.00     0.032 C 
BRANCH   4   5
ATOM      5  C   UNL     1       0.035  13.641  74.298  1.00  0.00     0.034 C 
BRANCH   5   6
ATOM      6  C   UNL     1      -0.802  14.912  74.344  1.00  0.00    -0.077 C 
ATOM      7  C   UNL     1      -2.237  14.819  73.879  1.00  0.00     0.039 C 
ATOM      8  C   UNL     1      -0.329  16.157  74.622  1.00  0.00    -0.023 CG0
ATOM      9  G   UNL     1       0.938  16.539  75.359  1.00  0.00     0.000 G0
ENDBRANCH   5   6
ENDBRANCH   4   5
ENDBRANCH   2   4
BRANCH   1  10
ATOM     10  C   UNL     1       3.128  15.069  72.908  1.00  0.00     0.111 C 
BRANCH  10  11
ATOM     11  C   UNL     1       3.198  16.016  74.095  1.00  0.00     0.163 C 
ATOM     12  O   UNL     1       4.258  15.950  74.778  1.00  0.00    -0.294 OA
BRANCH  11  13
ATOM     13  C   UNL     1       2.145  16.997  74.536  1.00  0.00    -0.002 C 
ATOM     14  C   UNL     1       2.223  18.304  74.121  1.00  0.00    -0.069 C 
ATOM     15  C   UNL     1       3.445  18.844  73.411  1.00  0.00     0.039 C 
ATOM     16  C   UNL     1       1.109  19.296  74.381  1.00  0.00     0.039 C 
BRANCH  13  17
ATOM     17  C   UNL     1       0.949  16.533  75.371  1.00  0.00     0.066 CG0
ATOM     18  G   UNL     1      -0.307  16.166  74.609  1.00  0.00     0.000 G0
ENDBRANCH  13  17
ENDBRANCH  11  13
ENDBRANCH  10  11
ENDBRANCH   1  10
TORSDOF 0
ENDMDL
MODEL 7
REMARK VINA RESULT:    -3.380     12.692     14.347
REMARK INTER + INTRA:          -4.831
REMARK INTER:                  -4.468
REMARK INTRA:                  -0.363
REMARK UNBOUND:                -0.067
REMARK SMILES CC1=CCC(=C(C)C)C(=O)CC(C)=CCC1
REMARK SMILES IDX 12 1 14 2 13 3 15 4 16 5 2 6 1 7 3 8 11 10 9 11 10 12 5 13
REMARK SMILES IDX 6 14 7 15 8 16 4 17
REMARK H PARENT
REMARK Flexibility Score: 60.00
ROOT
ATOM      1  C   UNL     1       1.771  19.348  73.200  1.00  0.00    -0.070 C 
ATOM      2  C   UNL     1       0.576  18.883  72.758  1.00  0.00    -0.027 C 
ATOM      3  C   UNL     1       2.577  20.231  72.278  1.00  0.00     0.039 C 
ENDROOT
BRANCH   2   4
ATOM      4  C   UNL     1      -0.434  18.104  73.566  1.00  0.00     0.032 C 
BRANCH   4   5
ATOM      5  C   UNL     1      -0.634  16.623  73.197  1.00  0.00     0.034 C 
BRANCH   5   6
ATOM      6  C   UNL     1      -0.000  15.594  74.123  1.00  0.00    -0.077 C 
ATOM      7  C   UNL     1      -0.900  14.915  75.129  1.00  0.00     0.039 C 
ATOM      8  C   UNL     1       1.333  15.345  74.228  1.00  0.00    -0.023 CG0
ATOM      9  G   UNL     1       2.427  15.640  73.223  1.00  0.00     0.000 G0
ENDBRANCH   5   6
ENDBRANCH   4   5
ENDBRANCH   2   4
BRANCH   1  10
ATOM     10  C   UNL     1       2.340  19.017  74.563  1.00  0.00     0.111 C 
BRANCH  10  11
ATOM     11  C   UNL     1       3.129  17.725  74.692  1.00  0.00     0.163 C 
ATOM     12  O   UNL     1       3.572  17.473  75.847  1.00  0.00    -0.294 OA
BRANCH  11  13
ATOM     13  C   UNL     1       3.440  16.738  73.597  1.00  0.00    -0.002 C 
ATOM     14  C   UNL     1       4.657  16.790  72.965  1.00  0.00    -0.069 C 
ATOM     15  C   UNL     1       5.619  17.938  73.182  1.00  0.00     0.039 C 
ATOM     16  C   UNL     1       5.100  15.724  71.985  1.00  0.00     0.039 C 
BRANCH  13  17
ATOM     17  C   UNL     1       2.444  15.631  73.241  1.00  0.00     0.066 CG0
ATOM     18  G   UNL     1       1.347  15.358  74.249  1.00  0.00     0.000 G0
ENDBRANCH  13  17
ENDBRANCH  11  13
ENDBRANCH  10  11
ENDBRANCH   1  10
TORSDOF 0
ENDMDL
MODEL 8
REMARK VINA RESULT:    -3.296      2.221      3.794
REMARK INTER + INTRA:          -4.712
REMARK INTER:                  -4.355
REMARK INTRA:                  -0.357
REMARK UNBOUND:                -0.067
REMARK SMILES CC1=CCC(=C(C)C)C(=O)CC(C)=CCC1
REMARK SMILES IDX 12 1 14 2 13 3 15 4 16 5 2 6 1 7 3 8 11 10 9 11 10 12 5 13
REMARK SMILES IDX 6 14 7 15 8 16 4 17
REMARK H PARENT
REMARK Flexibility Score: 60.00
ROOT
ATOM      1  C   UNL     1       0.755   5.865  63.663  1.00  0.00    -0.070 C 
ATOM      2  C   UNL     1      -0.009   4.775  63.395  1.00  0.00    -0.027 C 
ATOM      3  C   UNL     1       2.253   5.688  63.722  1.00  0.00     0.039 C 
ENDROOT
BRANCH   2   4
ATOM      4  C   UNL     1      -1.500   4.765  63.162  1.00  0.00     0.032 C 
BRANCH   4   5
ATOM      5  C   UNL     1      -2.385   4.250  64.311  1.00  0.00     0.034 C 
BRANCH   5   6
ATOM      6  C   UNL     1      -3.165   5.296  65.097  1.00  0.00    -0.077 C 
ATOM      7  C   UNL     1      -4.575   5.600  64.645  1.00  0.00     0.039 C 
ATOM      8  C   UNL     1      -2.651   6.091  66.075  1.00  0.00    -0.023 CG0
ATOM      9  G   UNL     1      -1.411   5.866  66.915  1.00  0.00     0.000 G0
ENDBRANCH   5   6
ENDBRANCH   4   5
ENDBRANCH   2   4
BRANCH   1  10
ATOM     10  C   UNL     1       0.180   7.242  63.916  1.00  0.00     0.111 C 
BRANCH  10  11
ATOM     11  C   UNL     1      -0.168   7.597  65.351  1.00  0.00     0.163 C 
ATOM     12  O   UNL     1      -0.495   8.801  65.547  1.00  0.00    -0.294 OA
BRANCH  11  13
ATOM     13  C   UNL     1      -0.150   6.678  66.544  1.00  0.00    -0.002 C 
ATOM     14  C   UNL     1       0.967   6.623  67.339  1.00  0.00    -0.069 C 
ATOM     15  C   UNL     1       2.263   7.295  66.940  1.00  0.00     0.039 C 
ATOM     16  C   UNL     1       0.987   5.858  68.645  1.00  0.00     0.039 C 
BRANCH  13  17
ATOM     17  C   UNL     1      -1.394   5.868  66.921  1.00  0.00     0.066 CG0
ATOM     18  G   UNL     1      -2.630   6.094  66.076  1.00  0.00     0.000 G0
ENDBRANCH  13  17
ENDBRANCH  11  13
ENDBRANCH  10  11
ENDBRANCH   1  10
TORSDOF 0
ENDMDL
MODEL 9
REMARK VINA RESULT:    -3.238      2.204      4.775
REMARK INTER + INTRA:          -4.630
REMARK INTER:                  -4.044
REMARK INTRA:                  -0.586
REMARK UNBOUND:                -0.067
REMARK SMILES CC1=CCC(=C(C)C)C(=O)CC(C)=CCC1
REMARK SMILES IDX 12 1 14 2 13 3 15 4 16 5 2 6 1 7 3 8 11 10 9 11 10 12 5 13
REMARK SMILES IDX 6 14 7 15 8 16 4 17
REMARK H PARENT
REMARK Flexibility Score: 60.00
ROOT
ATOM      1  C   UNL     1      -1.869   7.607  67.175  1.00  0.00    -0.070 C 
ATOM      2  C   UNL     1      -0.850   8.101  67.923  1.00  0.00    -0.027 C 
ATOM      3  C   UNL     1      -2.267   8.359  65.928  1.00  0.00     0.039 C 
ENDROOT
BRANCH   2   4
ATOM      4  C   UNL     1      -0.216   7.435  69.121  1.00  0.00     0.032 C 
BRANCH   4   5
ATOM      5  C   UNL     1       0.752   6.272  68.843  1.00  0.00     0.034 C 
BRANCH   5   6
ATOM      6  C   UNL     1       1.574   6.354  67.563  1.00  0.00    -0.077 C 
ATOM      7  C   UNL     1       2.746   7.308  67.548  1.00  0.00     0.039 C 
ATOM      8  C   UNL     1       1.254   5.759  66.382  1.00  0.00    -0.023 CG0
ATOM      9  G   UNL     1       0.342   4.574  66.143  1.00  0.00     0.000 G0
ENDBRANCH   5   6
ENDBRANCH   4   5
ENDBRANCH   2   4
BRANCH   1  10
ATOM     10  C   UNL     1      -2.631   6.349  67.534  1.00  0.00     0.111 C 
BRANCH  10  11
ATOM     11  C   UNL     1      -2.105   5.036  66.979  1.00  0.00     0.163 C 
ATOM     12  O   UNL     1      -2.544   3.996  67.543  1.00  0.00    -0.294 OA
BRANCH  11  13
ATOM     13  C   UNL     1      -1.123   4.856  65.852  1.00  0.00    -0.002 C 
ATOM     14  C   UNL     1      -1.543   5.026  64.556  1.00  0.00    -0.069 C 
ATOM     15  C   UNL     1      -3.007   5.177  64.205  1.00  0.00     0.039 C 
ATOM     16  C   UNL     1      -0.574   5.033  63.392  1.00  0.00     0.039 C 
BRANCH  13  17
ATOM     17  C   UNL     1       0.352   4.568  66.143  1.00  0.00     0.066 CG0
ATOM     18  G   UNL     1       1.243   5.771  66.375  1.00  0.00     0.000 G0
ENDBRANCH  13  17
ENDBRANCH  11  13
ENDBRANCH  10  11
ENDBRANCH   1  10
TORSDOF 0
ENDMDL
