MODEL 1
REMARK VINA RESULT:    -7.352      0.000      0.000
REMARK INTER + INTRA:         -14.611
REMARK INTER:                 -12.079
REMARK INTRA:                  -2.532
REMARK UNBOUND:                -2.532
REMARK SMILES C[C@H]1O[C@H](OC[C@H]2O[C@H](Oc3c(-c4ccc(O)c(O)c4)oc4cc(O)cc(O)c4c3=O)[C@@H](O)[C@@H](O)[C@@H]2O)[C@@H](O)[C@H](O)[C@H]1O
REMARK SMILES IDX 7 1 36 2 34 3 32 4 9 5 8 6 6 7 5 8 4 9 1 10 2 11 42 12 3 13
REMARK SMILES IDX 40 14 38 15 43 16 41 18 39 20 37 22 35 24 10 26 11 27 12 28
REMARK SMILES IDX 30 29 21 30 29 31 31 32 22 33 27 34 23 35 26 36 24 37 13 38
REMARK SMILES IDX 20 39 14 40 18 41 15 42 16 43 19 44 17 46 28 48 25 50 33 52
REMARK H PARENT 43 17 41 19 39 21 37 23 35 25 19 45 17 47 28 49 25 51 33 53
REMARK Flexibility Score: inf
ROOT
ATOM      1  C   UNL     1     -11.943  34.643  -2.176  1.00  0.00     0.180 C 
ATOM      2  C   UNL     1     -10.587  34.167  -2.748  1.00  0.00     0.177 C 
ATOM      3  C   UNL     1     -10.327  35.019  -4.058  1.00  0.00     0.180 C 
ATOM      4  C   UNL     1     -10.502  36.525  -3.797  1.00  0.00     0.214 C 
ATOM      5  C   UNL     1     -11.724  36.850  -2.919  1.00  0.00     0.339 C 
ATOM      6  O   UNL     1     -11.796  36.007  -1.797  1.00  0.00    -0.332 OA
ENDROOT
BRANCH   1   7
ATOM      7  C   UNL     1     -12.666  33.907  -1.020  1.00  0.00     0.198 C 
BRANCH   7   8
ATOM      8  O   UNL     1     -12.107  33.890   0.301  1.00  0.00    -0.347 OA
BRANCH   8   9
ATOM      9  C   UNL     1     -13.154  34.343   1.175  1.00  0.00     0.281 C 
ATOM     10  C   UNL     1     -14.500  37.784   1.290  1.00  0.00     0.041 C 
ATOM     11  C   UNL     1     -14.566  36.391   0.658  1.00  0.00     0.150 C 
ATOM     12  C   UNL     1     -15.851  35.597   1.156  1.00  0.00     0.174 C 
ATOM     13  O   UNL     1     -13.314  35.785   1.040  1.00  0.00    -0.344 OA
ATOM     14  C   UNL     1     -15.304  34.515   2.132  1.00  0.00     0.179 C 
ATOM     15  C   UNL     1     -14.473  33.620   1.161  1.00  0.00     0.202 C 
BRANCH  12  16
ATOM     16  O   UNL     1     -16.813  36.448   1.730  1.00  0.00    -0.388 OA
ATOM     17  H   UNL     1     -17.372  36.619   0.957  1.00  0.00     0.211 HD
ENDBRANCH  12  16
BRANCH  14  18
ATOM     18  O   UNL     1     -16.305  33.697   2.729  1.00  0.00    -0.387 OA
ATOM     19  H   UNL     1     -16.003  33.457   3.660  1.00  0.00     0.211 HD
ENDBRANCH  14  18
BRANCH  15  20
ATOM     20  O   UNL     1     -14.348  32.286   1.639  1.00  0.00    -0.385 OA
ATOM     21  H   UNL     1     -14.609  32.278   2.604  1.00  0.00     0.211 HD
ENDBRANCH  15  20
ENDBRANCH   8   9
ENDBRANCH   7   8
ENDBRANCH   1   7
BRANCH   2  22
ATOM     22  O   UNL     1     -10.656  32.775  -2.997  1.00  0.00    -0.387 OA
ATOM     23  H   UNL     1      -9.869  32.339  -2.598  1.00  0.00     0.211 HD
ENDBRANCH   2  22
BRANCH   3  24
ATOM     24  O   UNL     1      -9.032  34.848  -4.547  1.00  0.00    -0.387 OA
ATOM     25  H   UNL     1      -8.683  35.717  -4.877  1.00  0.00     0.211 HD
ENDBRANCH   3  24
BRANCH   5  26
ATOM     26  O   UNL     1     -12.941  36.756  -3.645  1.00  0.00    -0.454 OA
BRANCH  26  27
ATOM     27  C   UNL     1     -14.034  37.579  -3.388  1.00  0.00     0.214 A 
ATOM     28  C   UNL     1     -13.949  38.964  -3.590  1.00  0.00     0.180 A 
ATOM     29  C   UNL     1     -15.231  37.037  -2.877  1.00  0.00     0.239 A 
ATOM     30  O   UNL     1     -14.952  39.752  -3.177  1.00  0.00    -0.452 OA
ATOM     31  C   UNL     1     -16.279  37.890  -2.476  1.00  0.00     0.111 A 
ATOM     32  O   UNL     1     -15.334  35.788  -2.765  1.00  0.00    -0.285 OA
ATOM     33  C   UNL     1     -16.076  39.273  -2.629  1.00  0.00     0.146 A 
ATOM     34  C   UNL     1     -17.493  37.417  -1.924  1.00  0.00     0.134 A 
ATOM     35  C   UNL     1     -17.070  40.169  -2.205  1.00  0.00     0.094 A 
ATOM     36  C   UNL     1     -18.477  38.334  -1.529  1.00  0.00     0.093 A 
ATOM     37  C   UNL     1     -18.254  39.709  -1.665  1.00  0.00     0.123 A 
BRANCH  28  38
ATOM     38  C   UNL     1     -12.764  39.616  -4.226  1.00  0.00     0.025 A 
ATOM     39  C   UNL     1     -12.049  40.544  -3.461  1.00  0.00     0.062 A 
ATOM     40  C   UNL     1     -12.375  39.401  -5.575  1.00  0.00     0.016 A 
ATOM     41  C   UNL     1     -11.005  41.292  -4.012  1.00  0.00     0.158 A 
ATOM     42  C   UNL     1     -11.278  40.083  -6.108  1.00  0.00     0.051 A 
ATOM     43  C   UNL     1     -10.623  41.051  -5.355  1.00  0.00     0.157 A 
BRANCH  41  44
ATOM     44  O   UNL     1     -10.384  42.285  -3.257  1.00  0.00    -0.504 OA
ATOM     45  H   UNL     1     -10.370  43.260  -3.527  1.00  0.00     0.293 HD
ENDBRANCH  41  44
BRANCH  43  46
ATOM     46  O   UNL     1      -9.525  41.729  -5.871  1.00  0.00    -0.504 OA
ATOM     47  H   UNL     1      -9.463  42.738  -5.832  1.00  0.00     0.293 HD
ENDBRANCH  43  46
ENDBRANCH  28  38
BRANCH  34  48
ATOM     48  O   UNL     1     -17.741  36.051  -1.765  1.00  0.00    -0.507 OA
ATOM     49  H   UNL     1     -17.485  35.384  -2.482  1.00  0.00     0.293 HD
ENDBRANCH  34  48
BRANCH  37  50
ATOM     50  O   UNL     1     -19.228  40.609  -1.237  1.00  0.00    -0.508 OA
ATOM     51  H   UNL     1     -19.038  41.591  -1.080  1.00  0.00     0.293 HD
ENDBRANCH  37  50
ENDBRANCH  26  27
ENDBRANCH   5  26
BRANCH   4  52
ATOM     52  O   UNL     1      -9.330  37.055  -3.224  1.00  0.00    -0.384 OA
ATOM     53  H   UNL     1      -8.708  36.312  -2.971  1.00  0.00     0.211 HD
ENDBRANCH   4  52
TORSDOF 16
ENDMDL
MODEL 2
REMARK VINA RESULT:    -7.206      1.909      6.077
REMARK INTER + INTRA:         -14.372
REMARK INTER:                 -12.146
REMARK INTRA:                  -2.226
REMARK UNBOUND:                -2.532
REMARK SMILES C[C@H]1O[C@H](OC[C@H]2O[C@H](Oc3c(-c4ccc(O)c(O)c4)oc4cc(O)cc(O)c4c3=O)[C@@H](O)[C@@H](O)[C@@H]2O)[C@@H](O)[C@H](O)[C@H]1O
REMARK SMILES IDX 7 1 36 2 34 3 32 4 9 5 8 6 6 7 5 8 4 9 1 10 2 11 42 12 3 13
REMARK SMILES IDX 40 14 38 15 43 16 41 18 39 20 37 22 35 24 10 26 11 27 12 28
REMARK SMILES IDX 30 29 21 30 29 31 31 32 22 33 27 34 23 35 26 36 24 37 13 38
REMARK SMILES IDX 20 39 14 40 18 41 15 42 16 43 19 44 17 46 28 48 25 50 33 52
REMARK H PARENT 43 17 41 19 39 21 37 23 35 25 19 45 17 47 28 49 25 51 33 53
REMARK Flexibility Score: inf
ROOT
ATOM      1  C   UNL     1     -14.233  37.625   1.268  1.00  0.00     0.180 C 
ATOM      2  C   UNL     1     -13.489  36.456   1.954  1.00  0.00     0.177 C 
ATOM      3  C   UNL     1     -12.447  35.903   0.898  1.00  0.00     0.180 C 
ATOM      4  C   UNL     1     -11.596  37.035   0.297  1.00  0.00     0.214 C 
ATOM      5  C   UNL     1     -12.414  38.294  -0.042  1.00  0.00     0.339 C 
ATOM      6  O   UNL     1     -13.279  38.649   1.007  1.00  0.00    -0.332 OA
ENDROOT
BRANCH   1   7
ATOM      7  C   UNL     1     -15.488  38.294   1.885  1.00  0.00     0.198 C 
BRANCH   7   8
ATOM      8  O   UNL     1     -16.800  37.980   1.399  1.00  0.00    -0.347 OA
BRANCH   8   9
ATOM      9  C   UNL     1     -16.906  38.619   0.116  1.00  0.00     0.281 C 
ATOM     10  C   UNL     1     -16.140  37.028  -3.132  1.00  0.00     0.041 C 
ATOM     11  C   UNL     1     -17.178  37.303  -2.040  1.00  0.00     0.150 C 
ATOM     12  C   UNL     1     -18.250  38.374  -2.525  1.00  0.00     0.174 C 
ATOM     13  O   UNL     1     -16.383  37.733  -0.917  1.00  0.00    -0.344 OA
ATOM     14  C   UNL     1     -17.906  39.674  -1.743  1.00  0.00     0.179 C 
ATOM     15  C   UNL     1     -18.218  39.239  -0.277  1.00  0.00     0.202 C 
BRANCH  12  16
ATOM     16  O   UNL     1     -18.247  38.533  -3.923  1.00  0.00    -0.388 OA
ATOM     17  H   UNL     1     -17.762  39.369  -3.999  1.00  0.00     0.211 HD
ENDBRANCH  12  16
BRANCH  14  18
ATOM     18  O   UNL     1     -18.735  40.788  -2.054  1.00  0.00    -0.387 OA
ATOM     19  H   UNL     1     -18.973  41.254  -1.193  1.00  0.00     0.211 HD
ENDBRANCH  14  18
BRANCH  15  20
ATOM     20  O   UNL     1     -18.547  40.350   0.550  1.00  0.00    -0.385 OA
ATOM     21  H   UNL     1     -18.919  39.997   1.407  1.00  0.00     0.211 HD
ENDBRANCH  15  20
ENDBRANCH   8   9
ENDBRANCH   7   8
ENDBRANCH   1   7
BRANCH   2  22
ATOM     22  O   UNL     1     -14.436  35.484   2.360  1.00  0.00    -0.387 OA
ATOM     23  H   UNL     1     -14.666  35.636   3.304  1.00  0.00     0.211 HD
ENDBRANCH   2  22
BRANCH   3  24
ATOM     24  O   UNL     1     -11.555  34.993   1.466  1.00  0.00    -0.387 OA
ATOM     25  H   UNL     1     -11.927  34.652   2.321  1.00  0.00     0.211 HD
ENDBRANCH   3  24
BRANCH   5  26
ATOM     26  O   UNL     1     -13.175  38.131  -1.231  1.00  0.00    -0.454 OA
BRANCH  26  27
ATOM     27  C   UNL     1     -12.889  38.821  -2.406  1.00  0.00     0.214 A 
ATOM     28  C   UNL     1     -12.092  38.238  -3.402  1.00  0.00     0.180 A 
ATOM     29  C   UNL     1     -13.359  40.137  -2.593  1.00  0.00     0.239 A 
ATOM     30  O   UNL     1     -11.692  38.982  -4.443  1.00  0.00    -0.452 OA
ATOM     31  C   UNL     1     -12.943  40.885  -3.711  1.00  0.00     0.111 A 
ATOM     32  O   UNL     1     -14.134  40.634  -1.734  1.00  0.00    -0.285 OA
ATOM     33  C   UNL     1     -12.069  40.255  -4.616  1.00  0.00     0.146 A 
ATOM     34  C   UNL     1     -13.348  42.221  -3.944  1.00  0.00     0.134 A 
ATOM     35  C   UNL     1     -11.589  40.970  -5.725  1.00  0.00     0.094 A 
ATOM     36  C   UNL     1     -12.869  42.903  -5.070  1.00  0.00     0.093 A 
ATOM     37  C   UNL     1     -11.982  42.273  -5.952  1.00  0.00     0.123 A 
BRANCH  28  38
ATOM     38  C   UNL     1     -11.637  36.816  -3.343  1.00  0.00     0.025 A 
ATOM     39  C   UNL     1     -12.602  35.840  -3.068  1.00  0.00     0.062 A 
ATOM     40  C   UNL     1     -10.282  36.415  -3.476  1.00  0.00     0.016 A 
ATOM     41  C   UNL     1     -12.248  34.503  -2.872  1.00  0.00     0.158 A 
ATOM     42  C   UNL     1      -9.932  35.067  -3.366  1.00  0.00     0.051 A 
ATOM     43  C   UNL     1     -10.893  34.121  -3.024  1.00  0.00     0.157 A 
BRANCH  41  44
ATOM     44  O   UNL     1     -13.217  33.574  -2.492  1.00  0.00    -0.504 OA
ATOM     45  H   UNL     1     -14.196  33.807  -2.384  1.00  0.00     0.293 HD
ENDBRANCH  41  44
BRANCH  43  46
ATOM     46  O   UNL     1     -10.559  32.776  -2.921  1.00  0.00    -0.504 OA
ATOM     47  H   UNL     1     -10.339  32.355  -2.027  1.00  0.00     0.293 HD
ENDBRANCH  43  46
ENDBRANCH  28  38
BRANCH  34  48
ATOM     48  O   UNL     1     -14.222  42.880  -3.077  1.00  0.00    -0.507 OA
ATOM     49  H   UNL     1     -15.161  42.538  -2.915  1.00  0.00     0.293 HD
ENDBRANCH  34  48
BRANCH  37  50
ATOM     50  O   UNL     1     -11.488  42.975  -7.049  1.00  0.00    -0.508 OA
ATOM     51  H   UNL     1     -10.654  42.696  -7.551  1.00  0.00     0.293 HD
ENDBRANCH  37  50
ENDBRANCH  26  27
ENDBRANCH   5  26
BRANCH   4  52
ATOM     52  O   UNL     1     -10.537  37.357   1.168  1.00  0.00    -0.384 OA
ATOM     53  H   UNL     1      -9.711  36.858   0.899  1.00  0.00     0.211 HD
ENDBRANCH   4  52
TORSDOF 16
ENDMDL
MODEL 3
REMARK VINA RESULT:    -7.017      1.766      6.725
REMARK INTER + INTRA:         -14.061
REMARK INTER:                 -11.751
REMARK INTRA:                  -2.309
REMARK UNBOUND:                -2.532
REMARK SMILES C[C@H]1O[C@H](OC[C@H]2O[C@H](Oc3c(-c4ccc(O)c(O)c4)oc4cc(O)cc(O)c4c3=O)[C@@H](O)[C@@H](O)[C@@H]2O)[C@@H](O)[C@H](O)[C@H]1O
REMARK SMILES IDX 7 1 36 2 34 3 32 4 9 5 8 6 6 7 5 8 4 9 1 10 2 11 42 12 3 13
REMARK SMILES IDX 40 14 38 15 43 16 41 18 39 20 37 22 35 24 10 26 11 27 12 28
REMARK SMILES IDX 30 29 21 30 29 31 31 32 22 33 27 34 23 35 26 36 24 37 13 38
REMARK SMILES IDX 20 39 14 40 18 41 15 42 16 43 19 44 17 46 28 48 25 50 33 52
REMARK H PARENT 43 17 41 19 39 21 37 23 35 25 19 45 17 47 28 49 25 51 33 53
REMARK Flexibility Score: inf
ROOT
ATOM      1  C   UNL     1     -14.265  34.666   0.299  1.00  0.00     0.180 C 
ATOM      2  C   UNL     1     -15.220  33.863   1.212  1.00  0.00     0.177 C 
ATOM      3  C   UNL     1     -15.970  34.920   2.122  1.00  0.00     0.180 C 
ATOM      4  C   UNL     1     -16.575  36.059   1.284  1.00  0.00     0.214 C 
ATOM      5  C   UNL     1     -15.636  36.558   0.170  1.00  0.00     0.339 C 
ATOM      6  O   UNL     1     -15.065  35.490  -0.543  1.00  0.00    -0.332 OA
ENDROOT
BRANCH   1   7
ATOM      7  C   UNL     1     -13.189  33.989  -0.588  1.00  0.00     0.198 C 
BRANCH   7   8
ATOM      8  O   UNL     1     -13.559  33.297  -1.788  1.00  0.00    -0.347 OA
BRANCH   8   9
ATOM      9  C   UNL     1     -12.823  33.930  -2.847  1.00  0.00     0.281 C 
ATOM     10  C   UNL     1     -13.558  37.264  -4.264  1.00  0.00     0.041 C 
ATOM     11  C   UNL     1     -12.829  36.446  -3.194  1.00  0.00     0.150 C 
ATOM     12  C   UNL     1     -11.267  36.382  -3.487  1.00  0.00     0.174 C 
ATOM     13  O   UNL     1     -13.490  35.165  -3.237  1.00  0.00    -0.344 OA
ATOM     14  C   UNL     1     -11.007  34.928  -3.977  1.00  0.00     0.179 C 
ATOM     15  C   UNL     1     -11.338  34.110  -2.690  1.00  0.00     0.202 C 
BRANCH  12  16
ATOM     16  O   UNL     1     -10.856  37.372  -4.398  1.00  0.00    -0.388 OA
ATOM     17  H   UNL     1     -10.259  36.852  -4.958  1.00  0.00     0.211 HD
ENDBRANCH  12  16
BRANCH  14  18
ATOM     18  O   UNL     1      -9.655  34.656  -4.331  1.00  0.00    -0.387 OA
ATOM     19  H   UNL     1      -9.091  34.726  -3.500  1.00  0.00     0.211 HD
ENDBRANCH  14  18
BRANCH  15  20
ATOM     20  O   UNL     1     -10.655  32.861  -2.662  1.00  0.00    -0.385 OA
ATOM     21  H   UNL     1     -11.057  32.305  -1.936  1.00  0.00     0.211 HD
ENDBRANCH  15  20
ENDBRANCH   8   9
ENDBRANCH   7   8
ENDBRANCH   1   7
BRANCH   2  22
ATOM     22  O   UNL     1     -14.464  32.926   1.957  1.00  0.00    -0.387 OA
ATOM     23  H   UNL     1     -14.993  32.631   2.732  1.00  0.00     0.211 HD
ENDBRANCH   2  22
BRANCH   3  24
ATOM     24  O   UNL     1     -17.023  34.346   2.834  1.00  0.00    -0.387 OA
ATOM     25  H   UNL     1     -17.596  35.062   3.215  1.00  0.00     0.211 HD
ENDBRANCH   3  24
BRANCH   5  26
ATOM     26  O   UNL     1     -14.596  37.380   0.679  1.00  0.00    -0.454 OA
BRANCH  26  27
ATOM     27  C   UNL     1     -13.885  38.272  -0.120  1.00  0.00     0.214 A 
ATOM     28  C   UNL     1     -14.540  39.031  -1.101  1.00  0.00     0.180 A 
ATOM     29  C   UNL     1     -12.487  38.392   0.015  1.00  0.00     0.239 A 
ATOM     30  O   UNL     1     -13.813  39.751  -1.968  1.00  0.00    -0.452 OA
ATOM     31  C   UNL     1     -11.754  39.179  -0.895  1.00  0.00     0.111 A 
ATOM     32  O   UNL     1     -11.910  37.767   0.943  1.00  0.00    -0.285 OA
ATOM     33  C   UNL     1     -12.478  39.835  -1.906  1.00  0.00     0.146 A 
ATOM     34  C   UNL     1     -10.346  39.316  -0.839  1.00  0.00     0.134 A 
ATOM     35  C   UNL     1     -11.792  40.597  -2.865  1.00  0.00     0.094 A 
ATOM     36  C   UNL     1      -9.690  40.101  -1.798  1.00  0.00     0.093 A 
ATOM     37  C   UNL     1     -10.419  40.731  -2.812  1.00  0.00     0.123 A 
BRANCH  28  38
ATOM     38  C   UNL     1     -16.026  39.052  -1.248  1.00  0.00     0.025 A 
ATOM     39  C   UNL     1     -16.564  38.566  -2.445  1.00  0.00     0.062 A 
ATOM     40  C   UNL     1     -16.907  39.599  -0.278  1.00  0.00     0.016 A 
ATOM     41  C   UNL     1     -17.931  38.661  -2.720  1.00  0.00     0.158 A 
ATOM     42  C   UNL     1     -18.285  39.619  -0.510  1.00  0.00     0.051 A 
ATOM     43  C   UNL     1     -18.794  39.197  -1.734  1.00  0.00     0.157 A 
BRANCH  41  44
ATOM     44  O   UNL     1     -18.420  38.268  -3.965  1.00  0.00    -0.504 OA
ATOM     45  H   UNL     1     -18.742  38.923  -4.666  1.00  0.00     0.293 HD
ENDBRANCH  41  44
BRANCH  43  46
ATOM     46  O   UNL     1     -20.163  39.203  -1.972  1.00  0.00    -0.504 OA
ATOM     47  H   UNL     1     -20.776  38.524  -1.538  1.00  0.00     0.293 HD
ENDBRANCH  43  46
ENDBRANCH  28  38
BRANCH  34  48
ATOM     48  O   UNL     1      -9.589  38.691   0.154  1.00  0.00    -0.507 OA
ATOM     49  H   UNL     1      -8.880  39.195   0.671  1.00  0.00     0.293 HD
ENDBRANCH  34  48
BRANCH  37  50
ATOM     50  O   UNL     1      -9.749  41.480  -3.778  1.00  0.00    -0.508 OA
ATOM     51  H   UNL     1     -10.162  42.284  -4.234  1.00  0.00     0.293 HD
ENDBRANCH  37  50
ENDBRANCH  26  27
ENDBRANCH   5  26
BRANCH   4  52
ATOM     52  O   UNL     1     -17.810  35.656   0.741  1.00  0.00    -0.384 OA
ATOM     53  H   UNL     1     -17.661  35.173  -0.124  1.00  0.00     0.211 HD
ENDBRANCH   4  52
TORSDOF 16
ENDMDL
MODEL 4
REMARK VINA RESULT:    -6.971      2.053      6.699
REMARK INTER + INTRA:         -13.986
REMARK INTER:                 -11.445
REMARK INTRA:                  -2.540
REMARK UNBOUND:                -2.532
REMARK SMILES C[C@H]1O[C@H](OC[C@H]2O[C@H](Oc3c(-c4ccc(O)c(O)c4)oc4cc(O)cc(O)c4c3=O)[C@@H](O)[C@@H](O)[C@@H]2O)[C@@H](O)[C@H](O)[C@H]1O
REMARK SMILES IDX 7 1 36 2 34 3 32 4 9 5 8 6 6 7 5 8 4 9 1 10 2 11 42 12 3 13
REMARK SMILES IDX 40 14 38 15 43 16 41 18 39 20 37 22 35 24 10 26 11 27 12 28
REMARK SMILES IDX 30 29 21 30 29 31 31 32 22 33 27 34 23 35 26 36 24 37 13 38
REMARK SMILES IDX 20 39 14 40 18 41 15 42 16 43 19 44 17 46 28 48 25 50 33 52
REMARK H PARENT 43 17 41 19 39 21 37 23 35 25 19 45 17 47 28 49 25 51 33 53
REMARK Flexibility Score: inf
ROOT
ATOM      1  C   UNL     1     -16.928  38.991   0.583  1.00  0.00     0.180 C 
ATOM      2  C   UNL     1     -18.245  39.571   0.019  1.00  0.00     0.177 C 
ATOM      3  C   UNL     1     -17.965  39.934  -1.497  1.00  0.00     0.180 C 
ATOM      4  C   UNL     1     -17.323  38.757  -2.251  1.00  0.00     0.214 C 
ATOM      5  C   UNL     1     -16.233  38.037  -1.436  1.00  0.00     0.339 C 
ATOM      6  O   UNL     1     -16.652  37.784  -0.119  1.00  0.00    -0.332 OA
ENDROOT
BRANCH   1   7
ATOM      7  C   UNL     1     -16.714  38.718   2.094  1.00  0.00     0.198 C 
BRANCH   7   8
ATOM      8  O   UNL     1     -15.398  38.736   2.663  1.00  0.00    -0.347 OA
BRANCH   8   9
ATOM      9  C   UNL     1     -15.132  37.387   3.080  1.00  0.00     0.281 C 
ATOM     10  C   UNL     1     -17.604  34.638   3.125  1.00  0.00     0.041 C 
ATOM     11  C   UNL     1     -16.559  35.425   2.328  1.00  0.00     0.150 C 
ATOM     12  C   UNL     1     -15.231  34.572   2.127  1.00  0.00     0.174 C 
ATOM     13  O   UNL     1     -16.375  36.627   3.102  1.00  0.00    -0.344 OA
ATOM     14  C   UNL     1     -14.184  35.226   3.073  1.00  0.00     0.179 C 
ATOM     15  C   UNL     1     -14.015  36.632   2.416  1.00  0.00     0.202 C 
BRANCH  12  16
ATOM     16  O   UNL     1     -15.438  33.201   2.367  1.00  0.00    -0.388 OA
ATOM     17  H   UNL     1     -14.676  33.011   2.937  1.00  0.00     0.211 HD
ENDBRANCH  12  16
BRANCH  14  18
ATOM     18  O   UNL     1     -12.910  34.590   3.076  1.00  0.00    -0.387 OA
ATOM     19  H   UNL     1     -13.043  33.615   2.862  1.00  0.00     0.211 HD
ENDBRANCH  14  18
BRANCH  15  20
ATOM     20  O   UNL     1     -12.744  37.206   2.703  1.00  0.00    -0.385 OA
ATOM     21  H   UNL     1     -12.245  36.571   3.291  1.00  0.00     0.211 HD
ENDBRANCH  15  20
ENDBRANCH   8   9
ENDBRANCH   7   8
ENDBRANCH   1   7
BRANCH   2  22
ATOM     22  O   UNL     1     -18.625  40.692   0.796  1.00  0.00    -0.387 OA
ATOM     23  H   UNL     1     -18.859  40.389   1.702  1.00  0.00     0.211 HD
ENDBRANCH   2  22
BRANCH   3  24
ATOM     24  O   UNL     1     -19.135  40.257  -2.185  1.00  0.00    -0.387 OA
ATOM     25  H   UNL     1     -19.114  41.215  -2.445  1.00  0.00     0.211 HD
ENDBRANCH   3  24
BRANCH   5  26
ATOM     26  O   UNL     1     -15.020  38.775  -1.400  1.00  0.00    -0.454 OA
BRANCH  26  27
ATOM     27  C   UNL     1     -14.141  38.827  -2.479  1.00  0.00     0.214 A 
ATOM     28  C   UNL     1     -13.344  37.719  -2.805  1.00  0.00     0.180 A 
ATOM     29  C   UNL     1     -14.005  40.010  -3.232  1.00  0.00     0.239 A 
ATOM     30  O   UNL     1     -12.388  37.849  -3.735  1.00  0.00    -0.452 OA
ATOM     31  C   UNL     1     -13.007  40.107  -4.223  1.00  0.00     0.111 A 
ATOM     32  O   UNL     1     -14.770  40.979  -2.988  1.00  0.00    -0.285 OA
ATOM     33  C   UNL     1     -12.190  38.980  -4.424  1.00  0.00     0.146 A 
ATOM     34  C   UNL     1     -12.792  41.275  -4.993  1.00  0.00     0.134 A 
ATOM     35  C   UNL     1     -11.153  39.039  -5.369  1.00  0.00     0.094 A 
ATOM     36  C   UNL     1     -11.763  41.297  -5.943  1.00  0.00     0.093 A 
ATOM     37  C   UNL     1     -10.942  40.177  -6.119  1.00  0.00     0.123 A 
BRANCH  28  38
ATOM     38  C   UNL     1     -13.493  36.392  -2.135  1.00  0.00     0.025 A 
ATOM     39  C   UNL     1     -12.660  36.123  -1.043  1.00  0.00     0.062 A 
ATOM     40  C   UNL     1     -14.373  35.375  -2.588  1.00  0.00     0.016 A 
ATOM     41  C   UNL     1     -12.642  34.865  -0.435  1.00  0.00     0.158 A 
ATOM     42  C   UNL     1     -14.423  34.143  -1.930  1.00  0.00     0.051 A 
ATOM     43  C   UNL     1     -13.538  33.868  -0.892  1.00  0.00     0.157 A 
BRANCH  41  44
ATOM     44  O   UNL     1     -11.724  34.594   0.579  1.00  0.00    -0.504 OA
ATOM     45  H   UNL     1     -11.847  34.902   1.535  1.00  0.00     0.293 HD
ENDBRANCH  41  44
BRANCH  43  46
ATOM     46  O   UNL     1     -13.585  32.650  -0.224  1.00  0.00    -0.504 OA
ATOM     47  H   UNL     1     -14.192  31.903  -0.535  1.00  0.00     0.293 HD
ENDBRANCH  43  46
ENDBRANCH  28  38
BRANCH  34  48
ATOM     48  O   UNL     1     -13.588  42.412  -4.833  1.00  0.00    -0.507 OA
ATOM     49  H   UNL     1     -13.295  43.313  -5.189  1.00  0.00     0.293 HD
ENDBRANCH  34  48
BRANCH  37  50
ATOM     50  O   UNL     1      -9.901  40.226  -7.044  1.00  0.00    -0.508 OA
ATOM     51  H   UNL     1      -9.851  39.613  -7.849  1.00  0.00     0.293 HD
ENDBRANCH  37  50
ENDBRANCH  26  27
ENDBRANCH   5  26
BRANCH   4  52
ATOM     52  O   UNL     1     -18.316  37.844  -2.657  1.00  0.00    -0.384 OA
ATOM     53  H   UNL     1     -19.200  38.108  -2.267  1.00  0.00     0.211 HD
ENDBRANCH   4  52
TORSDOF 16
ENDMDL
MODEL 5
REMARK VINA RESULT:    -6.915      2.016      6.282
REMARK INTER + INTRA:         -13.895
REMARK INTER:                 -11.400
REMARK INTRA:                  -2.494
REMARK UNBOUND:                -2.532
REMARK SMILES C[C@H]1O[C@H](OC[C@H]2O[C@H](Oc3c(-c4ccc(O)c(O)c4)oc4cc(O)cc(O)c4c3=O)[C@@H](O)[C@@H](O)[C@@H]2O)[C@@H](O)[C@H](O)[C@H]1O
REMARK SMILES IDX 7 1 36 2 34 3 32 4 9 5 8 6 6 7 5 8 4 9 1 10 2 11 42 12 3 13
REMARK SMILES IDX 40 14 38 15 43 16 41 18 39 20 37 22 35 24 10 26 11 27 12 28
REMARK SMILES IDX 30 29 21 30 29 31 31 32 22 33 27 34 23 35 26 36 24 37 13 38
REMARK SMILES IDX 20 39 14 40 18 41 15 42 16 43 19 44 17 46 28 48 25 50 33 52
REMARK H PARENT 43 17 41 19 39 21 37 23 35 25 19 45 17 47 28 49 25 51 33 53
REMARK Flexibility Score: inf
ROOT
ATOM      1  C   UNL     1     -13.975  37.388  -0.168  1.00  0.00     0.180 C 
ATOM      2  C   UNL     1     -12.615  37.168   0.534  1.00  0.00     0.177 C 
ATOM      3  C   UNL     1     -11.513  37.797  -0.413  1.00  0.00     0.180 C 
ATOM      4  C   UNL     1     -11.876  39.233  -0.829  1.00  0.00     0.214 C 
ATOM      5  C   UNL     1     -13.363  39.401  -1.191  1.00  0.00     0.339 C 
ATOM      6  O   UNL     1     -14.200  38.792  -0.241  1.00  0.00    -0.332 OA
ENDROOT
BRANCH   1   7
ATOM      7  C   UNL     1     -15.287  36.725   0.325  1.00  0.00     0.198 C 
BRANCH   7   8
ATOM      8  O   UNL     1     -16.066  35.902  -0.554  1.00  0.00    -0.347 OA
BRANCH   8   9
ATOM      9  C   UNL     1     -17.093  36.756  -1.083  1.00  0.00     0.281 C 
ATOM     10  C   UNL     1     -18.260  39.905   0.463  1.00  0.00     0.041 C 
ATOM     11  C   UNL     1     -17.263  39.216  -0.474  1.00  0.00     0.150 C 
ATOM     12  C   UNL     1     -17.591  39.542  -1.996  1.00  0.00     0.174 C 
ATOM     13  O   UNL     1     -17.383  37.821  -0.131  1.00  0.00    -0.344 OA
ATOM     14  C   UNL     1     -18.185  38.225  -2.573  1.00  0.00     0.179 C 
ATOM     15  C   UNL     1     -16.952  37.271  -2.489  1.00  0.00     0.202 C 
BRANCH  12  16
ATOM     16  O   UNL     1     -18.438  40.657  -2.131  1.00  0.00    -0.388 OA
ATOM     17  H   UNL     1     -19.132  40.277  -2.693  1.00  0.00     0.211 HD
ENDBRANCH  12  16
BRANCH  14  18
ATOM     18  O   UNL     1     -18.583  38.303  -3.937  1.00  0.00    -0.387 OA
ATOM     19  H   UNL     1     -19.513  38.688  -3.973  1.00  0.00     0.211 HD
ENDBRANCH  14  18
BRANCH  15  20
ATOM     20  O   UNL     1     -17.024  36.221  -3.446  1.00  0.00    -0.385 OA
ATOM     21  H   UNL     1     -16.221  36.287  -4.037  1.00  0.00     0.211 HD
ENDBRANCH  15  20
ENDBRANCH   8   9
ENDBRANCH   7   8
ENDBRANCH   1   7
BRANCH   2  22
ATOM     22  O   UNL     1     -12.431  35.782   0.755  1.00  0.00    -0.387 OA
ATOM     23  H   UNL     1     -11.606  35.647   1.273  1.00  0.00     0.211 HD
ENDBRANCH   2  22
BRANCH   3  24
ATOM     24  O   UNL     1     -10.265  37.866   0.207  1.00  0.00    -0.387 OA
ATOM     25  H   UNL     1     -10.318  38.464   0.997  1.00  0.00     0.211 HD
ENDBRANCH   3  24
BRANCH   5  26
ATOM     26  O   UNL     1     -13.662  38.871  -2.475  1.00  0.00    -0.454 OA
BRANCH  26  27
ATOM     27  C   UNL     1     -12.863  39.111  -3.590  1.00  0.00     0.214 A 
ATOM     28  C   UNL     1     -12.065  38.092  -4.130  1.00  0.00     0.180 A 
ATOM     29  C   UNL     1     -12.812  40.396  -4.167  1.00  0.00     0.239 A 
ATOM     30  O   UNL     1     -11.181  38.391  -5.094  1.00  0.00    -0.452 OA
ATOM     31  C   UNL     1     -11.891  40.673  -5.197  1.00  0.00     0.111 A 
ATOM     32  O   UNL     1     -13.582  41.291  -3.730  1.00  0.00    -0.285 OA
ATOM     33  C   UNL     1     -11.062  39.617  -5.618  1.00  0.00     0.146 A 
ATOM     34  C   UNL     1     -11.761  41.948  -5.797  1.00  0.00     0.134 A 
ATOM     35  C   UNL     1     -10.098  39.850  -6.611  1.00  0.00     0.094 A 
ATOM     36  C   UNL     1     -10.803  42.145  -6.801  1.00  0.00     0.093 A 
ATOM     37  C   UNL     1      -9.969  41.093  -7.197  1.00  0.00     0.123 A 
BRANCH  28  38
ATOM     38  C   UNL     1     -12.132  36.677  -3.657  1.00  0.00     0.025 A 
ATOM     39  C   UNL     1     -13.400  36.131  -3.429  1.00  0.00     0.062 A 
ATOM     40  C   UNL     1     -10.988  35.890  -3.360  1.00  0.00     0.016 A 
ATOM     41  C   UNL     1     -13.555  34.860  -2.869  1.00  0.00     0.158 A 
ATOM     42  C   UNL     1     -11.136  34.586  -2.880  1.00  0.00     0.051 A 
ATOM     43  C   UNL     1     -12.402  34.085  -2.594  1.00  0.00     0.157 A 
BRANCH  41  44
ATOM     44  O   UNL     1     -14.828  34.389  -2.553  1.00  0.00    -0.504 OA
ATOM     45  H   UNL     1     -15.048  33.930  -1.677  1.00  0.00     0.293 HD
ENDBRANCH  41  44
BRANCH  43  46
ATOM     46  O   UNL     1     -12.562  32.787  -2.126  1.00  0.00    -0.504 OA
ATOM     47  H   UNL     1     -13.228  32.153  -2.549  1.00  0.00     0.293 HD
ENDBRANCH  43  46
ENDBRANCH  28  38
BRANCH  34  48
ATOM     48  O   UNL     1     -12.571  43.020  -5.417  1.00  0.00    -0.507 OA
ATOM     49  H   UNL     1     -12.748  43.226  -4.442  1.00  0.00     0.293 HD
ENDBRANCH  34  48
BRANCH  37  50
ATOM     50  O   UNL     1      -8.999  41.313  -8.172  1.00  0.00    -0.508 OA
ATOM     51  H   UNL     1      -8.041  41.000  -8.076  1.00  0.00     0.293 HD
ENDBRANCH  37  50
ENDBRANCH  26  27
ENDBRANCH   5  26
BRANCH   4  52
ATOM     52  O   UNL     1     -11.513  40.137   0.188  1.00  0.00    -0.384 OA
ATOM     53  H   UNL     1     -11.630  41.078  -0.135  1.00  0.00     0.211 HD
ENDBRANCH   4  52
TORSDOF 16
ENDMDL
MODEL 6
REMARK VINA RESULT:    -6.859      1.699      4.976
REMARK INTER + INTRA:         -13.802
REMARK INTER:                 -11.641
REMARK INTRA:                  -2.161
REMARK UNBOUND:                -2.532
REMARK SMILES C[C@H]1O[C@H](OC[C@H]2O[C@H](Oc3c(-c4ccc(O)c(O)c4)oc4cc(O)cc(O)c4c3=O)[C@@H](O)[C@@H](O)[C@@H]2O)[C@@H](O)[C@H](O)[C@H]1O
REMARK SMILES IDX 7 1 36 2 34 3 32 4 9 5 8 6 6 7 5 8 4 9 1 10 2 11 42 12 3 13
REMARK SMILES IDX 40 14 38 15 43 16 41 18 39 20 37 22 35 24 10 26 11 27 12 28
REMARK SMILES IDX 30 29 21 30 29 31 31 32 22 33 27 34 23 35 26 36 24 37 13 38
REMARK SMILES IDX 20 39 14 40 18 41 15 42 16 43 19 44 17 46 28 48 25 50 33 52
REMARK H PARENT 43 17 41 19 39 21 37 23 35 25 19 45 17 47 28 49 25 51 33 53
REMARK Flexibility Score: inf
ROOT
ATOM      1  C   UNL     1     -12.514  34.664  -0.663  1.00  0.00     0.180 C 
ATOM      2  C   UNL     1     -11.855  33.788  -1.754  1.00  0.00     0.177 C 
ATOM      3  C   UNL     1     -11.506  34.755  -2.958  1.00  0.00     0.180 C 
ATOM      4  C   UNL     1     -10.735  35.998  -2.480  1.00  0.00     0.214 C 
ATOM      5  C   UNL     1     -11.294  36.593  -1.175  1.00  0.00     0.339 C 
ATOM      6  O   UNL     1     -11.538  35.598  -0.214  1.00  0.00    -0.332 OA
ENDROOT
BRANCH   1   7
ATOM      7  C   UNL     1     -13.203  34.062   0.589  1.00  0.00     0.198 C 
BRANCH   7   8
ATOM      8  O   UNL     1     -13.140  34.735   1.854  1.00  0.00    -0.347 OA
BRANCH   8   9
ATOM      9  C   UNL     1     -14.426  35.351   2.034  1.00  0.00     0.281 C 
ATOM     10  C   UNL     1     -15.542  38.481   0.414  1.00  0.00     0.041 C 
ATOM     11  C   UNL     1     -15.415  36.957   0.333  1.00  0.00     0.150 C 
ATOM     12  C   UNL     1     -16.828  36.254   0.532  1.00  0.00     0.174 C 
ATOM     13  O   UNL     1     -14.451  36.641   1.356  1.00  0.00    -0.344 OA
ATOM     14  C   UNL     1     -16.769  35.622   1.953  1.00  0.00     0.179 C 
ATOM     15  C   UNL     1     -15.662  34.539   1.759  1.00  0.00     0.202 C 
BRANCH  12  16
ATOM     16  O   UNL     1     -17.898  37.150   0.352  1.00  0.00    -0.388 OA
ATOM     17  H   UNL     1     -18.630  36.612   0.691  1.00  0.00     0.211 HD
ENDBRANCH  12  16
BRANCH  14  18
ATOM     18  O   UNL     1     -17.962  34.959   2.356  1.00  0.00    -0.387 OA
ATOM     19  H   UNL     1     -17.712  34.219   2.992  1.00  0.00     0.211 HD
ENDBRANCH  14  18
BRANCH  15  20
ATOM     20  O   UNL     1     -15.802  33.462   2.678  1.00  0.00    -0.385 OA
ATOM     21  H   UNL     1     -16.565  33.674   3.287  1.00  0.00     0.211 HD
ENDBRANCH  15  20
ENDBRANCH   8   9
ENDBRANCH   7   8
ENDBRANCH   1   7
BRANCH   2  22
ATOM     22  O   UNL     1     -12.752  32.753  -2.116  1.00  0.00    -0.387 OA
ATOM     23  H   UNL     1     -13.587  33.153  -2.446  1.00  0.00     0.211 HD
ENDBRANCH   2  22
BRANCH   3  24
ATOM     24  O   UNL     1     -10.704  34.133  -3.916  1.00  0.00    -0.387 OA
ATOM     25  H   UNL     1     -10.591  34.735  -4.697  1.00  0.00     0.211 HD
ENDBRANCH   3  24
BRANCH   5  26
ATOM     26  O   UNL     1     -12.492  37.325  -1.395  1.00  0.00    -0.454 OA
BRANCH  26  27
ATOM     27  C   UNL     1     -12.585  38.348  -2.334  1.00  0.00     0.214 A 
ATOM     28  C   UNL     1     -13.627  38.365  -3.273  1.00  0.00     0.180 A 
ATOM     29  C   UNL     1     -11.605  39.361  -2.385  1.00  0.00     0.239 A 
ATOM     30  O   UNL     1     -13.600  39.262  -4.269  1.00  0.00    -0.452 OA
ATOM     31  C   UNL     1     -11.619  40.306  -3.430  1.00  0.00     0.111 A 
ATOM     32  O   UNL     1     -10.712  39.388  -1.499  1.00  0.00    -0.285 OA
ATOM     33  C   UNL     1     -12.648  40.196  -4.383  1.00  0.00     0.146 A 
ATOM     34  C   UNL     1     -10.648  41.328  -3.563  1.00  0.00     0.134 A 
ATOM     35  C   UNL     1     -12.682  41.085  -5.468  1.00  0.00     0.094 A 
ATOM     36  C   UNL     1     -10.720  42.214  -4.645  1.00  0.00     0.093 A 
ATOM     37  C   UNL     1     -11.736  42.081  -5.599  1.00  0.00     0.123 A 
BRANCH  28  38
ATOM     38  C   UNL     1     -14.766  37.399  -3.231  1.00  0.00     0.025 A 
ATOM     39  C   UNL     1     -16.057  37.917  -3.385  1.00  0.00     0.062 A 
ATOM     40  C   UNL     1     -14.615  36.011  -2.974  1.00  0.00     0.016 A 
ATOM     41  C   UNL     1     -17.187  37.108  -3.237  1.00  0.00     0.158 A 
ATOM     42  C   UNL     1     -15.737  35.181  -2.910  1.00  0.00     0.051 A 
ATOM     43  C   UNL     1     -17.015  35.724  -2.995  1.00  0.00     0.157 A 
BRANCH  41  44
ATOM     44  O   UNL     1     -18.461  37.674  -3.288  1.00  0.00    -0.504 OA
ATOM     45  H   UNL     1     -18.679  38.584  -2.903  1.00  0.00     0.293 HD
ENDBRANCH  41  44
BRANCH  43  46
ATOM     46  O   UNL     1     -18.137  34.906  -2.943  1.00  0.00    -0.504 OA
ATOM     47  H   UNL     1     -18.448  34.495  -2.071  1.00  0.00     0.293 HD
ENDBRANCH  43  46
ENDBRANCH  28  38
BRANCH  34  48
ATOM     48  O   UNL     1      -9.616  41.479  -2.634  1.00  0.00    -0.507 OA
ATOM     49  H   UNL     1      -8.745  40.971  -2.726  1.00  0.00     0.293 HD
ENDBRANCH  34  48
BRANCH  37  50
ATOM     50  O   UNL     1     -11.775  42.949  -6.688  1.00  0.00    -0.508 OA
ATOM     51  H   UNL     1     -11.440  43.904  -6.644  1.00  0.00     0.293 HD
ENDBRANCH  37  50
ENDBRANCH  26  27
ENDBRANCH   5  26
BRANCH   4  52
ATOM     52  O   UNL     1      -9.369  35.691  -2.334  1.00  0.00    -0.384 OA
ATOM     53  H   UNL     1      -8.964  35.500  -3.230  1.00  0.00     0.211 HD
ENDBRANCH   4  52
TORSDOF 16
ENDMDL
MODEL 7
REMARK VINA RESULT:    -6.681      1.983      7.260
REMARK INTER + INTRA:         -13.509
REMARK INTER:                 -11.100
REMARK INTRA:                  -2.409
REMARK UNBOUND:                -2.532
REMARK SMILES C[C@H]1O[C@H](OC[C@H]2O[C@H](Oc3c(-c4ccc(O)c(O)c4)oc4cc(O)cc(O)c4c3=O)[C@@H](O)[C@@H](O)[C@@H]2O)[C@@H](O)[C@H](O)[C@H]1O
REMARK SMILES IDX 7 1 36 2 34 3 32 4 9 5 8 6 6 7 5 8 4 9 1 10 2 11 42 12 3 13
REMARK SMILES IDX 40 14 38 15 43 16 41 18 39 20 37 22 35 24 10 26 11 27 12 28
REMARK SMILES IDX 30 29 21 30 29 31 31 32 22 33 27 34 23 35 26 36 24 37 13 38
REMARK SMILES IDX 20 39 14 40 18 41 15 42 16 43 19 44 17 46 28 48 25 50 33 52
REMARK H PARENT 43 17 41 19 39 21 37 23 35 25 19 45 17 47 28 49 25 51 33 53
REMARK Flexibility Score: inf
ROOT
ATOM      1  C   UNL     1     -16.037  37.193   0.856  1.00  0.00     0.180 C 
ATOM      2  C   UNL     1     -17.209  36.916   1.825  1.00  0.00     0.177 C 
ATOM      3  C   UNL     1     -17.578  35.385   1.660  1.00  0.00     0.180 C 
ATOM      4  C   UNL     1     -16.333  34.488   1.771  1.00  0.00     0.214 C 
ATOM      5  C   UNL     1     -15.110  35.052   1.024  1.00  0.00     0.339 C 
ATOM      6  O   UNL     1     -14.925  36.419   1.291  1.00  0.00    -0.332 OA
ENDROOT
BRANCH   1   7
ATOM      7  C   UNL     1     -15.525  38.624   0.551  1.00  0.00     0.198 C 
BRANCH   7   8
ATOM      8  O   UNL     1     -14.175  39.001   0.857  1.00  0.00    -0.347 OA
BRANCH   8   9
ATOM      9  C   UNL     1     -13.462  38.946  -0.389  1.00  0.00     0.281 C 
ATOM     10  C   UNL     1     -13.895  41.301  -3.206  1.00  0.00     0.041 C 
ATOM     11  C   UNL     1     -13.184  40.977  -1.888  1.00  0.00     0.150 C 
ATOM     12  C   UNL     1     -11.674  40.548  -2.144  1.00  0.00     0.174 C 
ATOM     13  O   UNL     1     -14.000  39.942  -1.307  1.00  0.00    -0.344 OA
ATOM     14  C   UNL     1     -11.641  39.013  -1.889  1.00  0.00     0.179 C 
ATOM     15  C   UNL     1     -11.958  38.951  -0.363  1.00  0.00     0.202 C 
BRANCH  12  16
ATOM     16  O   UNL     1     -11.223  40.922  -3.423  1.00  0.00    -0.388 OA
ATOM     17  H   UNL     1     -11.778  40.349  -3.975  1.00  0.00     0.211 HD
ENDBRANCH  12  16
BRANCH  14  18
ATOM     18  O   UNL     1     -10.370  38.406  -2.096  1.00  0.00    -0.387 OA
ATOM     19  H   UNL     1      -9.835  38.497  -1.248  1.00  0.00     0.211 HD
ENDBRANCH  14  18
BRANCH  15  20
ATOM     20  O   UNL     1     -11.436  37.773   0.243  1.00  0.00    -0.385 OA
ATOM     21  H   UNL     1     -10.489  37.666  -0.056  1.00  0.00     0.211 HD
ENDBRANCH  15  20
ENDBRANCH   8   9
ENDBRANCH   7   8
ENDBRANCH   1   7
BRANCH   2  22
ATOM     22  O   UNL     1     -18.283  37.782   1.508  1.00  0.00    -0.387 OA
ATOM     23  H   UNL     1     -18.984  37.269   1.048  1.00  0.00     0.211 HD
ENDBRANCH   2  22
BRANCH   3  24
ATOM     24  O   UNL     1     -18.470  34.950   2.640  1.00  0.00    -0.387 OA
ATOM     25  H   UNL     1     -19.016  34.201   2.284  1.00  0.00     0.211 HD
ENDBRANCH   3  24
BRANCH   5  26
ATOM     26  O   UNL     1     -15.213  34.867  -0.381  1.00  0.00    -0.454 OA
BRANCH  26  27
ATOM     27  C   UNL     1     -14.180  35.187  -1.258  1.00  0.00     0.214 A 
ATOM     28  C   UNL     1     -14.444  35.868  -2.455  1.00  0.00     0.180 A 
ATOM     29  C   UNL     1     -12.857  34.790  -0.976  1.00  0.00     0.239 A 
ATOM     30  O   UNL     1     -13.463  36.014  -3.358  1.00  0.00    -0.452 OA
ATOM     31  C   UNL     1     -11.842  34.981  -1.934  1.00  0.00     0.111 A 
ATOM     32  O   UNL     1     -12.608  34.245   0.131  1.00  0.00    -0.285 OA
ATOM     33  C   UNL     1     -12.210  35.590  -3.148  1.00  0.00     0.146 A 
ATOM     34  C   UNL     1     -10.500  34.577  -1.732  1.00  0.00     0.134 A 
ATOM     35  C   UNL     1     -11.247  35.765  -4.154  1.00  0.00     0.094 A 
ATOM     36  C   UNL     1      -9.556  34.783  -2.747  1.00  0.00     0.093 A 
ATOM     37  C   UNL     1      -9.939  35.370  -3.958  1.00  0.00     0.123 A 
BRANCH  28  38
ATOM     38  C   UNL     1     -15.791  36.421  -2.790  1.00  0.00     0.025 A 
ATOM     39  C   UNL     1     -15.931  37.813  -2.810  1.00  0.00     0.062 A 
ATOM     40  C   UNL     1     -16.939  35.617  -3.015  1.00  0.00     0.016 A 
ATOM     41  C   UNL     1     -17.178  38.416  -2.991  1.00  0.00     0.158 A 
ATOM     42  C   UNL     1     -18.175  36.214  -3.281  1.00  0.00     0.051 A 
ATOM     43  C   UNL     1     -18.309  37.597  -3.228  1.00  0.00     0.157 A 
BRANCH  41  44
ATOM     44  O   UNL     1     -17.303  39.801  -2.897  1.00  0.00    -0.504 OA
ATOM     45  H   UNL     1     -16.785  40.361  -2.231  1.00  0.00     0.293 HD
ENDBRANCH  41  44
BRANCH  43  46
ATOM     46  O   UNL     1     -19.530  38.202  -3.501  1.00  0.00    -0.504 OA
ATOM     47  H   UNL     1     -20.394  37.675  -3.485  1.00  0.00     0.293 HD
ENDBRANCH  43  46
ENDBRANCH  28  38
BRANCH  34  48
ATOM     48  O   UNL     1     -10.090  33.978  -0.539  1.00  0.00    -0.507 OA
ATOM     49  H   UNL     1     -10.580  33.181  -0.155  1.00  0.00     0.293 HD
ENDBRANCH  34  48
BRANCH  37  50
ATOM     50  O   UNL     1      -8.996  35.538  -4.970  1.00  0.00    -0.508 OA
ATOM     51  H   UNL     1      -8.830  34.843  -5.688  1.00  0.00     0.293 HD
ENDBRANCH  37  50
ENDBRANCH  26  27
ENDBRANCH   5  26
BRANCH   4  52
ATOM     52  O   UNL     1     -16.020  34.262   3.125  1.00  0.00    -0.384 OA
ATOM     53  H   UNL     1     -15.912  33.280   3.291  1.00  0.00     0.211 HD
ENDBRANCH   4  52
TORSDOF 16
ENDMDL
MODEL 8
REMARK VINA RESULT:    -6.613      1.939      5.561
REMARK INTER + INTRA:         -13.397
REMARK INTER:                 -11.447
REMARK INTRA:                  -1.950
REMARK UNBOUND:                -2.532
REMARK SMILES C[C@H]1O[C@H](OC[C@H]2O[C@H](Oc3c(-c4ccc(O)c(O)c4)oc4cc(O)cc(O)c4c3=O)[C@@H](O)[C@@H](O)[C@@H]2O)[C@@H](O)[C@H](O)[C@H]1O
REMARK SMILES IDX 7 1 36 2 34 3 32 4 9 5 8 6 6 7 5 8 4 9 1 10 2 11 42 12 3 13
REMARK SMILES IDX 40 14 38 15 43 16 41 18 39 20 37 22 35 24 10 26 11 27 12 28
REMARK SMILES IDX 30 29 21 30 29 31 31 32 22 33 27 34 23 35 26 36 24 37 13 38
REMARK SMILES IDX 20 39 14 40 18 41 15 42 16 43 19 44 17 46 28 48 25 50 33 52
REMARK H PARENT 43 17 41 19 39 21 37 23 35 25 19 45 17 47 28 49 25 51 33 53
REMARK Flexibility Score: inf
ROOT
ATOM      1  C   UNL     1     -13.128  35.236   0.697  1.00  0.00     0.180 C 
ATOM      2  C   UNL     1     -13.083  33.806   0.110  1.00  0.00     0.177 C 
ATOM      3  C   UNL     1     -13.211  33.960  -1.461  1.00  0.00     0.180 C 
ATOM      4  C   UNL     1     -12.210  34.989  -2.012  1.00  0.00     0.214 C 
ATOM      5  C   UNL     1     -12.097  36.253  -1.140  1.00  0.00     0.339 C 
ATOM      6  O   UNL     1     -11.981  35.933   0.223  1.00  0.00    -0.332 OA
ENDROOT
BRANCH   1   7
ATOM      7  C   UNL     1     -13.254  35.511   2.218  1.00  0.00     0.198 C 
BRANCH   7   8
ATOM      8  O   UNL     1     -13.871  36.714   2.695  1.00  0.00    -0.347 OA
BRANCH   8   9
ATOM      9  C   UNL     1     -14.983  36.958   1.820  1.00  0.00     0.281 C 
ATOM     10  C   UNL     1     -18.444  35.784   2.381  1.00  0.00     0.041 C 
ATOM     11  C   UNL     1     -17.392  36.871   2.622  1.00  0.00     0.150 C 
ATOM     12  C   UNL     1     -17.700  38.167   1.753  1.00  0.00     0.174 C 
ATOM     13  O   UNL     1     -16.149  36.221   2.290  1.00  0.00    -0.344 OA
ATOM     14  C   UNL     1     -16.625  38.165   0.628  1.00  0.00     0.179 C 
ATOM     15  C   UNL     1     -15.318  38.378   1.454  1.00  0.00     0.202 C 
BRANCH  12  16
ATOM     16  O   UNL     1     -19.024  38.187   1.277  1.00  0.00    -0.388 OA
ATOM     17  H   UNL     1     -19.339  37.334   1.614  1.00  0.00     0.211 HD
ENDBRANCH  12  16
BRANCH  14  18
ATOM     18  O   UNL     1     -16.736  39.240  -0.299  1.00  0.00    -0.387 OA
ATOM     19  H   UNL     1     -16.165  39.026  -1.100  1.00  0.00     0.211 HD
ENDBRANCH  14  18
BRANCH  15  20
ATOM     20  O   UNL     1     -14.289  38.981   0.677  1.00  0.00    -0.385 OA
ATOM     21  H   UNL     1     -13.410  38.670   1.036  1.00  0.00     0.211 HD
ENDBRANCH  15  20
ENDBRANCH   8   9
ENDBRANCH   7   8
ENDBRANCH   1   7
BRANCH   2  22
ATOM     22  O   UNL     1     -14.130  33.041   0.680  1.00  0.00    -0.387 OA
ATOM     23  H   UNL     1     -14.361  32.307   0.068  1.00  0.00     0.211 HD
ENDBRANCH   2  22
BRANCH   3  24
ATOM     24  O   UNL     1     -12.959  32.761  -2.129  1.00  0.00    -0.387 OA
ATOM     25  H   UNL     1     -13.210  32.854  -3.085  1.00  0.00     0.211 HD
ENDBRANCH   3  24
BRANCH   5  26
ATOM     26  O   UNL     1     -13.206  37.122  -1.316  1.00  0.00    -0.454 OA
BRANCH  26  27
ATOM     27  C   UNL     1     -13.174  38.214  -2.180  1.00  0.00     0.214 A 
ATOM     28  C   UNL     1     -14.181  38.395  -3.139  1.00  0.00     0.180 A 
ATOM     29  C   UNL     1     -12.103  39.129  -2.134  1.00  0.00     0.239 A 
ATOM     30  O   UNL     1     -14.040  39.353  -4.067  1.00  0.00    -0.452 OA
ATOM     31  C   UNL     1     -11.996  40.143  -3.107  1.00  0.00     0.111 A 
ATOM     32  O   UNL     1     -11.239  39.009  -1.227  1.00  0.00    -0.285 OA
ATOM     33  C   UNL     1     -13.002  40.198  -4.089  1.00  0.00     0.146 A 
ATOM     34  C   UNL     1     -10.930  41.074  -3.142  1.00  0.00     0.134 A 
ATOM     35  C   UNL     1     -12.920  41.162  -5.108  1.00  0.00     0.094 A 
ATOM     36  C   UNL     1     -10.887  42.037  -4.158  1.00  0.00     0.093 A 
ATOM     37  C   UNL     1     -11.881  42.069  -5.143  1.00  0.00     0.123 A 
BRANCH  28  38
ATOM     38  C   UNL     1     -15.406  37.543  -3.196  1.00  0.00     0.025 A 
ATOM     39  C   UNL     1     -16.601  38.153  -3.595  1.00  0.00     0.062 A 
ATOM     40  C   UNL     1     -15.437  36.179  -2.800  1.00  0.00     0.016 A 
ATOM     41  C   UNL     1     -17.816  37.466  -3.558  1.00  0.00     0.158 A 
ATOM     42  C   UNL     1     -16.635  35.461  -2.842  1.00  0.00     0.051 A 
ATOM     43  C   UNL     1     -17.824  36.102  -3.175  1.00  0.00     0.157 A 
BRANCH  41  44
ATOM     44  O   UNL     1     -19.004  38.132  -3.858  1.00  0.00    -0.504 OA
ATOM     45  H   UNL     1     -19.338  38.272  -4.803  1.00  0.00     0.293 HD
ENDBRANCH  41  44
BRANCH  43  46
ATOM     46  O   UNL     1     -19.019  35.396  -3.229  1.00  0.00    -0.504 OA
ATOM     47  H   UNL     1     -19.794  35.716  -3.796  1.00  0.00     0.293 HD
ENDBRANCH  43  46
ENDBRANCH  28  38
BRANCH  34  48
ATOM     48  O   UNL     1      -9.918  41.060  -2.180  1.00  0.00    -0.507 OA
ATOM     49  H   UNL     1      -9.209  41.782  -2.151  1.00  0.00     0.293 HD
ENDBRANCH  34  48
BRANCH  37  50
ATOM     50  O   UNL     1     -11.806  43.011  -6.166  1.00  0.00    -0.508 OA
ATOM     51  H   UNL     1     -12.553  43.664  -6.370  1.00  0.00     0.293 HD
ENDBRANCH  37  50
ENDBRANCH  26  27
ENDBRANCH   5  26
BRANCH   4  52
ATOM     52  O   UNL     1     -10.945  34.392  -2.178  1.00  0.00    -0.384 OA
ATOM     53  H   UNL     1     -10.646  34.486  -3.129  1.00  0.00     0.211 HD
ENDBRANCH   4  52
TORSDOF 16
ENDMDL
MODEL 9
REMARK VINA RESULT:    -6.305      2.166      6.638
REMARK INTER + INTRA:         -12.891
REMARK INTER:                 -10.714
REMARK INTRA:                  -2.177
REMARK UNBOUND:                -2.532
REMARK SMILES C[C@H]1O[C@H](OC[C@H]2O[C@H](Oc3c(-c4ccc(O)c(O)c4)oc4cc(O)cc(O)c4c3=O)[C@@H](O)[C@@H](O)[C@@H]2O)[C@@H](O)[C@H](O)[C@H]1O
REMARK SMILES IDX 7 1 36 2 34 3 32 4 9 5 8 6 6 7 5 8 4 9 1 10 2 11 42 12 3 13
REMARK SMILES IDX 40 14 38 15 43 16 41 18 39 20 37 22 35 24 10 26 11 27 12 28
REMARK SMILES IDX 30 29 21 30 29 31 31 32 22 33 27 34 23 35 26 36 24 37 13 38
REMARK SMILES IDX 20 39 14 40 18 41 15 42 16 43 19 44 17 46 28 48 25 50 33 52
REMARK H PARENT 43 17 41 19 39 21 37 23 35 25 19 45 17 47 28 49 25 51 33 53
REMARK Flexibility Score: inf
ROOT
ATOM      1  C   UNL     1     -14.551  35.317   1.225  1.00  0.00     0.180 C 
ATOM      2  C   UNL     1     -15.877  34.600   1.571  1.00  0.00     0.177 C 
ATOM      3  C   UNL     1     -17.018  35.694   1.481  1.00  0.00     0.180 C 
ATOM      4  C   UNL     1     -16.953  36.473   0.156  1.00  0.00     0.214 C 
ATOM      5  C   UNL     1     -15.517  36.847  -0.258  1.00  0.00     0.339 C 
ATOM      6  O   UNL     1     -14.639  35.758  -0.126  1.00  0.00    -0.332 OA
ENDROOT
BRANCH   1   7
ATOM      7  C   UNL     1     -13.166  34.648   1.414  1.00  0.00     0.198 C 
BRANCH   7   8
ATOM      8  O   UNL     1     -12.016  35.431   1.764  1.00  0.00    -0.347 OA
BRANCH   8   9
ATOM      9  C   UNL     1     -11.128  35.347   0.638  1.00  0.00     0.281 C 
ATOM     10  C   UNL     1     -11.641  33.209  -2.334  1.00  0.00     0.041 C 
ATOM     11  C   UNL     1     -11.900  34.554  -1.648  1.00  0.00     0.150 C 
ATOM     12  C   UNL     1     -11.033  35.710  -2.312  1.00  0.00     0.174 C 
ATOM     13  O   UNL     1     -11.580  34.297  -0.266  1.00  0.00    -0.344 OA
ATOM     14  C   UNL     1      -9.922  36.030  -1.272  1.00  0.00     0.179 C 
ATOM     15  C   UNL     1     -10.764  36.610  -0.093  1.00  0.00     0.202 C 
BRANCH  12  16
ATOM     16  O   UNL     1     -10.541  35.346  -3.579  1.00  0.00    -0.388 OA
ATOM     17  H   UNL     1      -9.590  35.473  -3.436  1.00  0.00     0.211 HD
ENDBRANCH  12  16
BRANCH  14  18
ATOM     18  O   UNL     1      -8.998  37.033  -1.683  1.00  0.00    -0.387 OA
ATOM     19  H   UNL     1      -8.111  36.844  -1.245  1.00  0.00     0.211 HD
ENDBRANCH  14  18
BRANCH  15  20
ATOM     20  O   UNL     1     -10.002  37.492   0.723  1.00  0.00    -0.385 OA
ATOM     21  H   UNL     1      -9.052  37.186   0.706  1.00  0.00     0.211 HD
ENDBRANCH  15  20
ENDBRANCH   8   9
ENDBRANCH   7   8
ENDBRANCH   1   7
BRANCH   2  22
ATOM     22  O   UNL     1     -15.764  34.020   2.857  1.00  0.00    -0.387 OA
ATOM     23  H   UNL     1     -15.090  33.304   2.829  1.00  0.00     0.211 HD
ENDBRANCH   2  22
BRANCH   3  24
ATOM     24  O   UNL     1     -18.293  35.132   1.550  1.00  0.00    -0.387 OA
ATOM     25  H   UNL     1     -18.677  35.065   0.637  1.00  0.00     0.211 HD
ENDBRANCH   3  24
BRANCH   5  26
ATOM     26  O   UNL     1     -15.014  37.939   0.498  1.00  0.00    -0.454 OA
BRANCH  26  27
ATOM     27  C   UNL     1     -14.245  38.952  -0.069  1.00  0.00     0.214 A 
ATOM     28  C   UNL     1     -14.620  39.538  -1.287  1.00  0.00     0.180 A 
ATOM     29  C   UNL     1     -13.052  39.374   0.552  1.00  0.00     0.239 A 
ATOM     30  O   UNL     1     -13.778  40.387  -1.894  1.00  0.00    -0.452 OA
ATOM     31  C   UNL     1     -12.200  40.289  -0.099  1.00  0.00     0.111 A 
ATOM     32  O   UNL     1     -12.753  38.902   1.680  1.00  0.00    -0.285 OA
ATOM     33  C   UNL     1     -12.607  40.759  -1.361  1.00  0.00     0.146 A 
ATOM     34  C   UNL     1     -10.972  40.728   0.449  1.00  0.00     0.134 A 
ATOM     35  C   UNL     1     -11.776  41.638  -2.072  1.00  0.00     0.094 A 
ATOM     36  C   UNL     1     -10.173  41.623  -0.275  1.00  0.00     0.093 A 
ATOM     37  C   UNL     1     -10.577  42.066  -1.539  1.00  0.00     0.123 A 
BRANCH  28  38
ATOM     38  C   UNL     1     -15.917  39.235  -1.964  1.00  0.00     0.025 A 
ATOM     39  C   UNL     1     -17.076  39.802  -1.423  1.00  0.00     0.062 A 
ATOM     40  C   UNL     1     -16.042  38.353  -3.069  1.00  0.00     0.016 A 
ATOM     41  C   UNL     1     -18.343  39.476  -1.913  1.00  0.00     0.158 A 
ATOM     42  C   UNL     1     -17.298  38.088  -3.620  1.00  0.00     0.051 A 
ATOM     43  C   UNL     1     -18.445  38.606  -3.026  1.00  0.00     0.157 A 
BRANCH  41  44
ATOM     44  O   UNL     1     -19.483  39.972  -1.284  1.00  0.00    -0.504 OA
ATOM     45  H   UNL     1     -19.977  39.472  -0.555  1.00  0.00     0.293 HD
ENDBRANCH  41  44
BRANCH  43  46
ATOM     46  O   UNL     1     -19.699  38.357  -3.570  1.00  0.00    -0.504 OA
ATOM     47  H   UNL     1     -20.522  38.281  -2.985  1.00  0.00     0.293 HD
ENDBRANCH  43  46
ENDBRANCH  28  38
BRANCH  34  48
ATOM     48  O   UNL     1     -10.535  40.295   1.703  1.00  0.00    -0.507 OA
ATOM     49  H   UNL     1     -10.489  40.928   2.492  1.00  0.00     0.293 HD
ENDBRANCH  34  48
BRANCH  37  50
ATOM     50  O   UNL     1      -9.756  42.930  -2.261  1.00  0.00    -0.508 OA
ATOM     51  H   UNL     1      -9.452  43.828  -1.904  1.00  0.00     0.293 HD
ENDBRANCH  37  50
ENDBRANCH  26  27
ENDBRANCH   5  26
BRANCH   4  52
ATOM     52  O   UNL     1     -17.582  35.738  -0.867  1.00  0.00    -0.384 OA
ATOM     53  H   UNL     1     -18.577  35.818  -0.782  1.00  0.00     0.211 HD
ENDBRANCH   4  52
TORSDOF 16
ENDMDL
