MODEL 1
REMARK VINA RESULT:    -5.518      0.000      0.000
REMARK INTER + INTRA:          -5.679
REMARK INTER:                  -5.679
REMARK INTRA:                   0.000
REMARK UNBOUND:                 0.000
REMARK SMILES Cc1cccc(O)c1C
REMARK SMILES IDX 1 1 2 2 8 3 6 4 5 5 4 6 3 7 9 8 7 9
REMARK H PARENT 7 10
REMARK Flexibility Score: inf
ROOT
ATOM      1  C   UNL     1     -36.649  73.023 -18.679  1.00  0.00     0.045 C 
ATOM      2  C   UNL     1     -35.895  71.723 -18.774  1.00  0.00    -0.045 A 
ATOM      3  C   UNL     1     -36.564  70.472 -18.730  1.00  0.00    -0.006 A 
ATOM      4  C   UNL     1     -35.811  69.283 -18.846  1.00  0.00     0.118 A 
ATOM      5  C   UNL     1     -34.416  69.342 -18.960  1.00  0.00     0.046 A 
ATOM      6  C   UNL     1     -33.763  70.572 -18.971  1.00  0.00     0.004 A 
ATOM      7  C   UNL     1     -34.494  71.755 -18.879  1.00  0.00     0.004 A 
ATOM      8  C   UNL     1     -38.068  70.407 -18.618  1.00  0.00     0.048 C 
ENDROOT
BRANCH   4   9
ATOM      9  O   UNL     1     -36.448  68.041 -18.848  1.00  0.00    -0.508 OA
ATOM     10  H   UNL     1     -36.261  67.345 -18.135  1.00  0.00     0.293 HD
ENDBRANCH   4   9
TORSDOF 1
ENDMDL
MODEL 2
REMARK VINA RESULT:    -5.476      1.338      2.606
REMARK INTER + INTRA:          -5.636
REMARK INTER:                  -5.636
REMARK INTRA:                   0.000
REMARK UNBOUND:                 0.000
REMARK SMILES Cc1cccc(O)c1C
REMARK SMILES IDX 1 1 2 2 8 3 6 4 5 5 4 6 3 7 9 8 7 9
REMARK H PARENT 7 10
REMARK Flexibility Score: inf
ROOT
ATOM      1  C   UNL     1     -37.048  73.024 -18.689  1.00  0.00     0.045 C 
ATOM      2  C   UNL     1     -36.564  71.597 -18.705  1.00  0.00    -0.045 A 
ATOM      3  C   UNL     1     -35.182  71.284 -18.779  1.00  0.00    -0.006 A 
ATOM      4  C   UNL     1     -34.780  69.930 -18.768  1.00  0.00     0.118 A 
ATOM      5  C   UNL     1     -35.741  68.912 -18.729  1.00  0.00     0.046 A 
ATOM      6  C   UNL     1     -37.097  69.226 -18.689  1.00  0.00     0.004 A 
ATOM      7  C   UNL     1     -37.508  70.558 -18.678  1.00  0.00     0.004 A 
ATOM      8  C   UNL     1     -34.144  72.380 -18.809  1.00  0.00     0.048 C 
ENDROOT
BRANCH   4   9
ATOM      9  O   UNL     1     -33.426  69.596 -18.796  1.00  0.00    -0.508 OA
ATOM     10  H   UNL     1     -32.817  69.770 -18.004  1.00  0.00     0.293 HD
ENDBRANCH   4   9
TORSDOF 1
ENDMDL
MODEL 3
REMARK VINA RESULT:    -5.358      1.307      2.207
REMARK INTER + INTRA:          -5.515
REMARK INTER:                  -5.515
REMARK INTRA:                   0.000
REMARK UNBOUND:                 0.000
REMARK SMILES Cc1cccc(O)c1C
REMARK SMILES IDX 1 1 2 2 8 3 6 4 5 5 4 6 3 7 9 8 7 9
REMARK H PARENT 7 10
REMARK Flexibility Score: inf
ROOT
ATOM      1  C   UNL     1     -34.060  72.697 -18.648  1.00  0.00     0.045 C 
ATOM      2  C   UNL     1     -34.982  71.506 -18.686  1.00  0.00    -0.045 A 
ATOM      3  C   UNL     1     -36.393  71.660 -18.657  1.00  0.00    -0.006 A 
ATOM      4  C   UNL     1     -37.213  70.512 -18.717  1.00  0.00     0.118 A 
ATOM      5  C   UNL     1     -36.635  69.236 -18.760  1.00  0.00     0.046 A 
ATOM      6  C   UNL     1     -35.250  69.091 -18.756  1.00  0.00     0.004 A 
ATOM      7  C   UNL     1     -34.427  70.217 -18.719  1.00  0.00     0.004 A 
ATOM      8  C   UNL     1     -37.018  73.034 -18.621  1.00  0.00     0.048 C 
ENDROOT
BRANCH   4   9
ATOM      9  O   UNL     1     -38.603  70.637 -18.733  1.00  0.00    -0.508 OA
ATOM     10  H   UNL     1     -39.056  71.507 -18.987  1.00  0.00     0.293 HD
ENDBRANCH   4   9
TORSDOF 1
ENDMDL
MODEL 4
REMARK VINA RESULT:    -5.340      1.819      2.851
REMARK INTER + INTRA:          -5.497
REMARK INTER:                  -5.497
REMARK INTRA:                   0.000
REMARK UNBOUND:                 0.000
REMARK SMILES Cc1cccc(O)c1C
REMARK SMILES IDX 1 1 2 2 8 3 6 4 5 5 4 6 3 7 9 8 7 9
REMARK H PARENT 7 10
REMARK Flexibility Score: inf
ROOT
ATOM      1  C   UNL     1     -39.022  70.738 -19.003  1.00  0.00     0.045 C 
ATOM      2  C   UNL     1     -37.531  70.551 -18.904  1.00  0.00    -0.045 A 
ATOM      3  C   UNL     1     -36.638  71.650 -19.002  1.00  0.00    -0.006 A 
ATOM      4  C   UNL     1     -35.249  71.423 -18.879  1.00  0.00     0.118 A 
ATOM      5  C   UNL     1     -34.762  70.120 -18.707  1.00  0.00     0.046 A 
ATOM      6  C   UNL     1     -35.642  69.043 -18.643  1.00  0.00     0.004 A 
ATOM      7  C   UNL     1     -37.017  69.254 -18.741  1.00  0.00     0.004 A 
ATOM      8  C   UNL     1     -37.161  73.055 -19.176  1.00  0.00     0.048 C 
ENDROOT
BRANCH   4   9
ATOM      9  O   UNL     1     -34.352  72.490 -18.929  1.00  0.00    -0.508 OA
ATOM     10  H   UNL     1     -34.219  73.112 -18.139  1.00  0.00     0.293 HD
ENDBRANCH   4   9
TORSDOF 1
ENDMDL
MODEL 5
REMARK VINA RESULT:    -4.978      1.324      2.777
REMARK INTER + INTRA:          -5.124
REMARK INTER:                  -5.124
REMARK INTRA:                   0.000
REMARK UNBOUND:                 0.000
REMARK SMILES Cc1cccc(O)c1C
REMARK SMILES IDX 1 1 2 2 8 3 6 4 5 5 4 6 3 7 9 8 7 9
REMARK H PARENT 7 10
REMARK Flexibility Score: inf
ROOT
ATOM      1  C   UNL     1     -33.663  69.632 -18.956  1.00  0.00     0.045 C 
ATOM      2  C   UNL     1     -34.863  70.535 -18.837  1.00  0.00    -0.045 A 
ATOM      3  C   UNL     1     -36.177  70.011 -18.732  1.00  0.00    -0.006 A 
ATOM      4  C   UNL     1     -37.267  70.900 -18.600  1.00  0.00     0.118 A 
ATOM      5  C   UNL     1     -37.049  72.284 -18.615  1.00  0.00     0.046 A 
ATOM      6  C   UNL     1     -35.760  72.793 -18.750  1.00  0.00     0.004 A 
ATOM      7  C   UNL     1     -34.673  71.927 -18.860  1.00  0.00     0.004 A 
ATOM      8  C   UNL     1     -36.412  68.520 -18.703  1.00  0.00     0.048 C 
ENDROOT
BRANCH   4   9
ATOM      9  O   UNL     1     -38.564  70.410 -18.452  1.00  0.00    -0.508 OA
ATOM     10  H   UNL     1     -38.822  69.481 -18.766  1.00  0.00     0.293 HD
ENDBRANCH   4   9
TORSDOF 1
ENDMDL
MODEL 6
REMARK VINA RESULT:    -4.860      1.304      2.364
REMARK INTER + INTRA:          -5.002
REMARK INTER:                  -5.002
REMARK INTRA:                   0.000
REMARK UNBOUND:                 0.000
REMARK SMILES Cc1cccc(O)c1C
REMARK SMILES IDX 1 1 2 2 8 3 6 4 5 5 4 6 3 7 9 8 7 9
REMARK H PARENT 7 10
REMARK Flexibility Score: inf
ROOT
ATOM      1  C   UNL     1     -38.530  70.567 -18.893  1.00  0.00     0.045 C 
ATOM      2  C   UNL     1     -37.081  70.973 -18.832  1.00  0.00    -0.045 A 
ATOM      3  C   UNL     1     -36.042  70.008 -18.768  1.00  0.00    -0.006 A 
ATOM      4  C   UNL     1     -34.698  70.442 -18.735  1.00  0.00     0.118 A 
ATOM      5  C   UNL     1     -34.402  71.811 -18.723  1.00  0.00     0.046 A 
ATOM      6  C   UNL     1     -35.427  72.754 -18.754  1.00  0.00     0.004 A 
ATOM      7  C   UNL     1     -36.758  72.340 -18.808  1.00  0.00     0.004 A 
ATOM      8  C   UNL     1     -36.359  68.532 -18.792  1.00  0.00     0.048 C 
ENDROOT
BRANCH   4   9
ATOM      9  O   UNL     1     -33.657  69.514 -18.715  1.00  0.00    -0.508 OA
ATOM     10  H   UNL     1     -32.783  69.704 -18.239  1.00  0.00     0.293 HD
ENDBRANCH   4   9
TORSDOF 1
ENDMDL
MODEL 7
REMARK VINA RESULT:    -4.667      9.264     10.124
REMARK INTER + INTRA:          -4.804
REMARK INTER:                  -4.804
REMARK INTRA:                   0.000
REMARK UNBOUND:                 0.000
REMARK SMILES Cc1cccc(O)c1C
REMARK SMILES IDX 1 1 2 2 8 3 6 4 5 5 4 6 3 7 9 8 7 9
REMARK H PARENT 7 10
REMARK Flexibility Score: inf
ROOT
ATOM      1  C   UNL     1     -41.661  71.831  -9.589  1.00  0.00     0.045 C 
ATOM      2  C   UNL     1     -40.300  72.477  -9.579  1.00  0.00    -0.045 A 
ATOM      3  C   UNL     1     -39.186  71.866 -10.210  1.00  0.00    -0.006 A 
ATOM      4  C   UNL     1     -37.936  72.525 -10.192  1.00  0.00     0.118 A 
ATOM      5  C   UNL     1     -37.796  73.746  -9.520  1.00  0.00     0.046 A 
ATOM      6  C   UNL     1     -38.886  74.325  -8.875  1.00  0.00     0.004 A 
ATOM      7  C   UNL     1     -40.131  73.697  -8.903  1.00  0.00     0.004 A 
ATOM      8  C   UNL     1     -39.338  70.556 -10.945  1.00  0.00     0.048 C 
ENDROOT
BRANCH   4   9
ATOM      9  O   UNL     1     -36.835  71.967 -10.841  1.00  0.00    -0.508 OA
ATOM     10  H   UNL     1     -36.816  71.842 -11.846  1.00  0.00     0.293 HD
ENDBRANCH   4   9
TORSDOF 1
ENDMDL
MODEL 8
REMARK VINA RESULT:    -4.533      9.294      9.935
REMARK INTER + INTRA:          -4.666
REMARK INTER:                  -4.666
REMARK INTRA:                   0.000
REMARK UNBOUND:                 0.000
REMARK SMILES Cc1cccc(O)c1C
REMARK SMILES IDX 1 1 2 2 8 3 6 4 5 5 4 6 3 7 9 8 7 9
REMARK H PARENT 7 10
REMARK Flexibility Score: inf
ROOT
ATOM      1  C   UNL     1     -38.989  74.747  -8.920  1.00  0.00     0.045 C 
ATOM      2  C   UNL     1     -39.367  73.405  -9.490  1.00  0.00    -0.045 A 
ATOM      3  C   UNL     1     -40.229  73.293 -10.612  1.00  0.00    -0.006 A 
ATOM      4  C   UNL     1     -40.534  72.011 -11.122  1.00  0.00     0.118 A 
ATOM      5  C   UNL     1     -40.023  70.866 -10.497  1.00  0.00     0.046 A 
ATOM      6  C   UNL     1     -39.204  70.982  -9.377  1.00  0.00     0.004 A 
ATOM      7  C   UNL     1     -38.877  72.242  -8.875  1.00  0.00     0.004 A 
ATOM      8  C   UNL     1     -40.771  74.526 -11.294  1.00  0.00     0.048 C 
ENDROOT
BRANCH   4   9
ATOM      9  O   UNL     1     -41.344  71.875 -12.250  1.00  0.00    -0.508 OA
ATOM     10  H   UNL     1     -42.078  71.178 -12.297  1.00  0.00     0.293 HD
ENDBRANCH   4   9
TORSDOF 1
ENDMDL
