MODEL 1
REMARK VINA RESULT:    -5.089      0.000      0.000
REMARK INTER + INTRA:          -6.516
REMARK INTER:                  -6.279
REMARK INTRA:                  -0.236
REMARK UNBOUND:                -0.236
REMARK SMILES O=c1c(O)c(-c2cc(O)c(O)c(O)c2)oc2cc(O)cc(O)c12
REMARK SMILES IDX 5 1 3 2 2 3 1 4 23 5 21 6 20 7 18 8 17 9 16 10 15 11 6 12
REMARK SMILES IDX 7 13 8 14 14 15 10 16 12 17 9 18 11 20 13 22 4 24 22 26
REMARK SMILES IDX 19 28
REMARK H PARENT 9 19 11 21 13 23 4 25 22 27 19 29
REMARK Flexibility Score: inf
ROOT
ATOM      1  C   UNL     1     196.950 205.734 144.709  1.00  0.00     0.180 A 
ATOM      2  C   UNL     1     197.421 207.052 144.860  1.00  0.00     0.208 A 
ATOM      3  C   UNL     1     196.490 208.090 145.031  1.00  0.00     0.238 A 
ATOM      4  O   UNL     1     196.900 209.276 145.156  1.00  0.00    -0.285 OA
ATOM      5  C   UNL     1     195.113 207.791 145.068  1.00  0.00     0.111 A 
ATOM      6  C   UNL     1     194.112 208.777 145.242  1.00  0.00     0.134 A 
ATOM      7  C   UNL     1     192.762 208.398 145.277  1.00  0.00     0.093 A 
ATOM      8  C   UNL     1     192.395 207.054 145.144  1.00  0.00     0.123 A 
ATOM      9  C   UNL     1     193.379 206.079 144.973  1.00  0.00     0.094 A 
ATOM     10  C   UNL     1     194.729 206.436 144.933  1.00  0.00     0.146 A 
ATOM     11  O   UNL     1     195.644 205.489 144.764  1.00  0.00    -0.452 OA
ENDROOT
BRANCH   1  12
ATOM     12  C   UNL     1     197.868 204.590 144.506  1.00  0.00     0.029 A 
ATOM     13  C   UNL     1     197.919 203.568 145.465  1.00  0.00     0.062 A 
ATOM     14  C   UNL     1     198.759 202.462 145.295  1.00  0.00     0.162 A 
ATOM     15  C   UNL     1     198.645 204.474 143.343  1.00  0.00     0.062 A 
ATOM     16  C   UNL     1     199.559 202.363 144.131  1.00  0.00     0.200 A 
ATOM     17  C   UNL     1     199.489 203.376 143.156  1.00  0.00     0.162 A 
BRANCH  14  18
ATOM     18  O   UNL     1     198.764 201.492 146.300  1.00  0.00    -0.504 OA
ATOM     19  H   UNL     1     197.935 201.158 146.771  1.00  0.00     0.293 HD
ENDBRANCH  14  18
BRANCH  16  20
ATOM     20  O   UNL     1     200.422 201.286 143.909  1.00  0.00    -0.502 OA
ATOM     21  H   UNL     1     201.356 201.220 144.286  1.00  0.00     0.293 HD
ENDBRANCH  16  20
BRANCH  17  22
ATOM     22  O   UNL     1     200.249 203.306 141.989  1.00  0.00    -0.504 OA
ATOM     23  H   UNL     1     200.280 202.474 141.412  1.00  0.00     0.293 HD
ENDBRANCH  17  22
ENDBRANCH   1  12
BRANCH   2  24
ATOM     24  O   UNL     1     198.794 207.316 144.869  1.00  0.00    -0.502 OA
ATOM     25  H   UNL     1     199.485 206.589 145.009  1.00  0.00     0.293 HD
ENDBRANCH   2  24
BRANCH   6  26
ATOM     26  O   UNL     1     194.446 210.125 145.377  1.00  0.00    -0.507 OA
ATOM     27  H   UNL     1     193.898 210.857 144.940  1.00  0.00     0.293 HD
ENDBRANCH   6  26
BRANCH   8  28
ATOM     28  O   UNL     1     191.054 206.677 145.181  1.00  0.00    -0.508 OA
ATOM     29  H   UNL     1     190.759 205.741 144.930  1.00  0.00     0.293 HD
ENDBRANCH   8  28
TORSDOF 7
ENDMDL
MODEL 2
REMARK VINA RESULT:    -4.678      2.450      4.377
REMARK INTER + INTRA:          -6.009
REMARK INTER:                  -5.642
REMARK INTRA:                  -0.367
REMARK UNBOUND:                -0.236
REMARK SMILES O=c1c(O)c(-c2cc(O)c(O)c(O)c2)oc2cc(O)cc(O)c12
REMARK SMILES IDX 5 1 3 2 2 3 1 4 23 5 21 6 20 7 18 8 17 9 16 10 15 11 6 12
REMARK SMILES IDX 7 13 8 14 14 15 10 16 12 17 9 18 11 20 13 22 4 24 22 26
REMARK SMILES IDX 19 28
REMARK H PARENT 9 19 11 21 13 23 4 25 22 27 19 29
REMARK Flexibility Score: inf
ROOT
ATOM      1  C   UNL     1     196.800 205.363 144.140  1.00  0.00     0.180 A 
ATOM      2  C   UNL     1     196.540 203.980 144.098  1.00  0.00     0.208 A 
ATOM      3  C   UNL     1     195.250 203.523 144.414  1.00  0.00     0.238 A 
ATOM      4  O   UNL     1     195.008 202.286 144.390  1.00  0.00    -0.285 OA
ATOM      5  C   UNL     1     194.243 204.452 144.745  1.00  0.00     0.111 A 
ATOM      6  C   UNL     1     192.918 204.074 145.071  1.00  0.00     0.134 A 
ATOM      7  C   UNL     1     191.970 205.060 145.381  1.00  0.00     0.093 A 
ATOM      8  C   UNL     1     192.321 206.415 145.369  1.00  0.00     0.123 A 
ATOM      9  C   UNL     1     193.626 206.792 145.049  1.00  0.00     0.094 A 
ATOM     10  C   UNL     1     194.586 205.824 144.739  1.00  0.00     0.146 A 
ATOM     11  O   UNL     1     195.821 206.211 144.443  1.00  0.00    -0.452 OA
ENDROOT
BRANCH   1  12
ATOM     12  C   UNL     1     198.138 205.921 143.838  1.00  0.00     0.029 A 
ATOM     13  C   UNL     1     198.435 206.334 142.532  1.00  0.00     0.062 A 
ATOM     14  C   UNL     1     199.681 206.885 142.215  1.00  0.00     0.162 A 
ATOM     15  C   UNL     1     199.098 206.102 144.846  1.00  0.00     0.062 A 
ATOM     16  C   UNL     1     200.655 207.043 143.231  1.00  0.00     0.200 A 
ATOM     17  C   UNL     1     200.348 206.652 144.548  1.00  0.00     0.162 A 
BRANCH  14  18
ATOM     18  O   UNL     1     199.906 207.260 140.889  1.00  0.00    -0.504 OA
ATOM     19  H   UNL     1     199.814 208.204 140.543  1.00  0.00     0.293 HD
ENDBRANCH  14  18
BRANCH  16  20
ATOM     20  O   UNL     1     201.920 207.581 142.975  1.00  0.00    -0.502 OA
ATOM     21  H   UNL     1     202.650 207.667 143.667  1.00  0.00     0.293 HD
ENDBRANCH  16  20
BRANCH  17  22
ATOM     22  O   UNL     1     201.274 206.807 145.579  1.00  0.00    -0.504 OA
ATOM     23  H   UNL     1     201.053 206.590 146.544  1.00  0.00     0.293 HD
ENDBRANCH  17  22
ENDBRANCH   1  12
BRANCH   2  24
ATOM     24  O   UNL     1     197.542 203.084 143.719  1.00  0.00    -0.502 OA
ATOM     25  H   UNL     1     198.474 203.387 143.462  1.00  0.00     0.293 HD
ENDBRANCH   2  24
BRANCH   6  26
ATOM     26  O   UNL     1     192.538 202.731 145.091  1.00  0.00    -0.507 OA
ATOM     27  H   UNL     1     193.062 202.037 145.611  1.00  0.00     0.293 HD
ENDBRANCH   6  26
BRANCH   8  28
ATOM     28  O   UNL     1     191.379 207.394 145.676  1.00  0.00    -0.508 OA
ATOM     29  H   UNL     1     191.570 208.379 145.529  1.00  0.00     0.293 HD
ENDBRANCH   8  28
TORSDOF 7
ENDMDL
MODEL 3
REMARK VINA RESULT:    -4.661      2.362      3.963
REMARK INTER + INTRA:          -5.987
REMARK INTER:                  -5.676
REMARK INTRA:                  -0.311
REMARK UNBOUND:                -0.236
REMARK SMILES O=c1c(O)c(-c2cc(O)c(O)c(O)c2)oc2cc(O)cc(O)c12
REMARK SMILES IDX 5 1 3 2 2 3 1 4 23 5 21 6 20 7 18 8 17 9 16 10 15 11 6 12
REMARK SMILES IDX 7 13 8 14 14 15 10 16 12 17 9 18 11 20 13 22 4 24 22 26
REMARK SMILES IDX 19 28
REMARK H PARENT 9 19 11 21 13 23 4 25 22 27 19 29
REMARK Flexibility Score: inf
ROOT
ATOM      1  C   UNL     1     196.707 205.125 144.194  1.00  0.00     0.180 A 
ATOM      2  C   UNL     1     196.381 203.755 144.186  1.00  0.00     0.208 A 
ATOM      3  C   UNL     1     195.070 203.368 144.507  1.00  0.00     0.238 A 
ATOM      4  O   UNL     1     194.769 202.144 144.515  1.00  0.00    -0.285 OA
ATOM      5  C   UNL     1     194.107 204.353 144.809  1.00  0.00     0.111 A 
ATOM      6  C   UNL     1     192.764 204.048 145.139  1.00  0.00     0.134 A 
ATOM      7  C   UNL     1     191.864 205.086 145.418  1.00  0.00     0.093 A 
ATOM      8  C   UNL     1     192.279 206.422 145.373  1.00  0.00     0.123 A 
ATOM      9  C   UNL     1     193.602 206.727 145.049  1.00  0.00     0.094 A 
ATOM     10  C   UNL     1     194.515 205.707 144.770  1.00  0.00     0.146 A 
ATOM     11  O   UNL     1     195.769 206.026 144.469  1.00  0.00    -0.452 OA
ENDROOT
BRANCH   1  12
ATOM     12  C   UNL     1     198.072 205.610 143.883  1.00  0.00     0.029 A 
ATOM     13  C   UNL     1     198.932 205.966 144.931  1.00  0.00     0.062 A 
ATOM     14  C   UNL     1     200.235 206.408 144.675  1.00  0.00     0.162 A 
ATOM     15  C   UNL     1     198.545 205.663 142.563  1.00  0.00     0.062 A 
ATOM     16  C   UNL     1     200.699 206.483 143.340  1.00  0.00     0.200 A 
ATOM     17  C   UNL     1     199.844 206.100 142.289  1.00  0.00     0.162 A 
BRANCH  14  18
ATOM     18  O   UNL     1     201.027 206.757 145.770  1.00  0.00    -0.504 OA
ATOM     19  H   UNL     1     202.003 206.515 145.865  1.00  0.00     0.293 HD
ENDBRANCH  14  18
BRANCH  16  20
ATOM     20  O   UNL     1     201.987 206.922 143.021  1.00  0.00    -0.502 OA
ATOM     21  H   UNL     1     202.196 207.827 142.623  1.00  0.00     0.293 HD
ENDBRANCH  16  20
BRANCH  17  22
ATOM     22  O   UNL     1     200.269 206.144 140.962  1.00  0.00    -0.504 OA
ATOM     23  H   UNL     1     199.969 206.868 140.320  1.00  0.00     0.293 HD
ENDBRANCH  17  22
ENDBRANCH   1  12
BRANCH   2  24
ATOM     24  O   UNL     1     197.341 202.802 143.835  1.00  0.00    -0.502 OA
ATOM     25  H   UNL     1     198.156 202.616 144.407  1.00  0.00     0.293 HD
ENDBRANCH   2  24
BRANCH   6  26
ATOM     26  O   UNL     1     192.321 202.726 145.191  1.00  0.00    -0.507 OA
ATOM     27  H   UNL     1     191.990 202.308 146.054  1.00  0.00     0.293 HD
ENDBRANCH   6  26
BRANCH   8  28
ATOM     28  O   UNL     1     191.384 207.453 145.650  1.00  0.00    -0.508 OA
ATOM     29  H   UNL     1     191.233 208.213 144.997  1.00  0.00     0.293 HD
ENDBRANCH   8  28
TORSDOF 7
ENDMDL
MODEL 4
REMARK VINA RESULT:    -4.624      3.088      7.672
REMARK INTER + INTRA:          -5.942
REMARK INTER:                  -5.626
REMARK INTRA:                  -0.317
REMARK UNBOUND:                -0.236
REMARK SMILES O=c1c(O)c(-c2cc(O)c(O)c(O)c2)oc2cc(O)cc(O)c12
REMARK SMILES IDX 5 1 3 2 2 3 1 4 23 5 21 6 20 7 18 8 17 9 16 10 15 11 6 12
REMARK SMILES IDX 7 13 8 14 14 15 10 16 12 17 9 18 11 20 13 22 4 24 22 26
REMARK SMILES IDX 19 28
REMARK H PARENT 9 19 11 21 13 23 4 25 22 27 19 29
REMARK Flexibility Score: inf
ROOT
ATOM      1  C   UNL     1     200.151 206.258 144.033  1.00  0.00     0.180 A 
ATOM      2  C   UNL     1     201.281 207.003 144.420  1.00  0.00     0.208 A 
ATOM      3  C   UNL     1     202.544 206.389 144.378  1.00  0.00     0.238 A 
ATOM      4  O   UNL     1     203.563 207.042 144.733  1.00  0.00    -0.285 OA
ATOM      5  C   UNL     1     202.657 205.057 143.932  1.00  0.00     0.111 A 
ATOM      6  C   UNL     1     203.891 204.368 143.856  1.00  0.00     0.134 A 
ATOM      7  C   UNL     1     203.922 203.044 143.393  1.00  0.00     0.093 A 
ATOM      8  C   UNL     1     202.743 202.397 143.004  1.00  0.00     0.123 A 
ATOM      9  C   UNL     1     201.524 203.073 143.079  1.00  0.00     0.094 A 
ATOM     10  C   UNL     1     201.472 204.391 143.539  1.00  0.00     0.146 A 
ATOM     11  O   UNL     1     200.298 205.008 143.604  1.00  0.00    -0.452 OA
ENDROOT
BRANCH   1  12
ATOM     12  C   UNL     1     198.785 206.829 144.067  1.00  0.00     0.029 A 
ATOM     13  C   UNL     1     197.937 206.527 145.141  1.00  0.00     0.062 A 
ATOM     14  C   UNL     1     196.648 207.066 145.216  1.00  0.00     0.162 A 
ATOM     15  C   UNL     1     198.339 207.717 143.075  1.00  0.00     0.062 A 
ATOM     16  C   UNL     1     196.195 207.941 144.200  1.00  0.00     0.200 A 
ATOM     17  C   UNL     1     197.055 208.266 143.134  1.00  0.00     0.162 A 
BRANCH  14  18
ATOM     18  O   UNL     1     195.858 206.707 146.311  1.00  0.00    -0.504 OA
ATOM     19  H   UNL     1     196.141 206.815 147.274  1.00  0.00     0.293 HD
ENDBRANCH  14  18
BRANCH  16  20
ATOM     20  O   UNL     1     194.916 208.505 144.217  1.00  0.00    -0.502 OA
ATOM     21  H   UNL     1     194.234 208.342 144.942  1.00  0.00     0.293 HD
ENDBRANCH  16  20
BRANCH  17  22
ATOM     22  O   UNL     1     196.652 209.138 142.123  1.00  0.00    -0.504 OA
ATOM     23  H   UNL     1     195.797 209.677 142.182  1.00  0.00     0.293 HD
ENDBRANCH  17  22
ENDBRANCH   1  12
BRANCH   2  24
ATOM     24  O   UNL     1     201.149 208.338 144.811  1.00  0.00    -0.502 OA
ATOM     25  H   UNL     1     200.557 208.993 144.314  1.00  0.00     0.293 HD
ENDBRANCH   2  24
BRANCH   6  26
ATOM     26  O   UNL     1     205.083 204.986 144.236  1.00  0.00    -0.507 OA
ATOM     27  H   UNL     1     205.983 204.537 144.105  1.00  0.00     0.293 HD
ENDBRANCH   6  26
BRANCH   8  28
ATOM     28  O   UNL     1     202.773 201.083 142.544  1.00  0.00    -0.508 OA
ATOM     29  H   UNL     1     203.602 200.508 142.636  1.00  0.00     0.293 HD
ENDBRANCH   8  28
TORSDOF 7
ENDMDL
MODEL 5
REMARK VINA RESULT:    -4.528      2.759      3.479
REMARK INTER + INTRA:          -5.823
REMARK INTER:                  -5.458
REMARK INTRA:                  -0.365
REMARK UNBOUND:                -0.236
REMARK SMILES O=c1c(O)c(-c2cc(O)c(O)c(O)c2)oc2cc(O)cc(O)c12
REMARK SMILES IDX 5 1 3 2 2 3 1 4 23 5 21 6 20 7 18 8 17 9 16 10 15 11 6 12
REMARK SMILES IDX 7 13 8 14 14 15 10 16 12 17 9 18 11 20 13 22 4 24 22 26
REMARK SMILES IDX 19 28
REMARK H PARENT 9 19 11 21 13 23 4 25 22 27 19 29
REMARK Flexibility Score: inf
ROOT
ATOM      1  C   UNL     1     196.476 206.771 144.300  1.00  0.00     0.180 A 
ATOM      2  C   UNL     1     195.726 207.910 144.648  1.00  0.00     0.208 A 
ATOM      3  C   UNL     1     194.378 207.750 145.008  1.00  0.00     0.238 A 
ATOM      4  O   UNL     1     193.692 208.764 145.311  1.00  0.00    -0.285 OA
ATOM      5  C   UNL     1     193.812 206.459 145.034  1.00  0.00     0.111 A 
ATOM      6  C   UNL     1     192.464 206.211 145.390  1.00  0.00     0.134 A 
ATOM      7  C   UNL     1     191.979 204.895 145.401  1.00  0.00     0.093 A 
ATOM      8  C   UNL     1     192.814 203.824 145.064  1.00  0.00     0.123 A 
ATOM      9  C   UNL     1     194.143 204.064 144.712  1.00  0.00     0.094 A 
ATOM     10  C   UNL     1     194.646 205.368 144.693  1.00  0.00     0.146 A 
ATOM     11  O   UNL     1     195.913 205.567 144.350  1.00  0.00    -0.452 OA
ENDROOT
BRANCH   1  12
ATOM     12  C   UNL     1     197.897 206.861 143.892  1.00  0.00     0.029 A 
ATOM     13  C   UNL     1     198.902 206.745 144.862  1.00  0.00     0.062 A 
ATOM     14  C   UNL     1     200.255 206.803 144.509  1.00  0.00     0.162 A 
ATOM     15  C   UNL     1     198.262 206.999 142.544  1.00  0.00     0.062 A 
ATOM     16  C   UNL     1     200.618 206.967 143.150  1.00  0.00     0.200 A 
ATOM     17  C   UNL     1     199.608 207.058 142.173  1.00  0.00     0.162 A 
BRANCH  14  18
ATOM     18  O   UNL     1     201.198 206.693 145.533  1.00  0.00    -0.504 OA
ATOM     19  H   UNL     1     201.404 205.835 146.025  1.00  0.00     0.293 HD
ENDBRANCH  14  18
BRANCH  16  20
ATOM     20  O   UNL     1     201.951 207.039 142.737  1.00  0.00    -0.502 OA
ATOM     21  H   UNL     1     202.509 206.238 142.482  1.00  0.00     0.293 HD
ENDBRANCH  16  20
BRANCH  17  22
ATOM     22  O   UNL     1     199.925 207.203 140.822  1.00  0.00    -0.504 OA
ATOM     23  H   UNL     1     199.667 206.512 140.127  1.00  0.00     0.293 HD
ENDBRANCH  17  22
ENDBRANCH   1  12
BRANCH   2  24
ATOM     24  O   UNL     1     196.323 209.173 144.662  1.00  0.00    -0.502 OA
ATOM     25  H   UNL     1     196.308 209.790 143.859  1.00  0.00     0.293 HD
ENDBRANCH   2  24
BRANCH   6  26
ATOM     26  O   UNL     1     191.608 207.258 145.731  1.00  0.00    -0.507 OA
ATOM     27  H   UNL     1     191.911 208.026 146.319  1.00  0.00     0.293 HD
ENDBRANCH   6  26
BRANCH   8  28
ATOM     28  O   UNL     1     192.332 202.517 145.075  1.00  0.00    -0.508 OA
ATOM     29  H   UNL     1     191.340 202.319 145.139  1.00  0.00     0.293 HD
ENDBRANCH   8  28
TORSDOF 7
ENDMDL
MODEL 6
REMARK VINA RESULT:    -4.527      2.711      7.815
REMARK INTER + INTRA:          -5.822
REMARK INTER:                  -5.464
REMARK INTRA:                  -0.358
REMARK UNBOUND:                -0.236
REMARK SMILES O=c1c(O)c(-c2cc(O)c(O)c(O)c2)oc2cc(O)cc(O)c12
REMARK SMILES IDX 5 1 3 2 2 3 1 4 23 5 21 6 20 7 18 8 17 9 16 10 15 11 6 12
REMARK SMILES IDX 7 13 8 14 14 15 10 16 12 17 9 18 11 20 13 22 4 24 22 26
REMARK SMILES IDX 19 28
REMARK H PARENT 9 19 11 21 13 23 4 25 22 27 19 29
REMARK Flexibility Score: inf
ROOT
ATOM      1  C   UNL     1     198.802 206.318 143.964  1.00  0.00     0.180 A 
ATOM      2  C   UNL     1     198.745 205.191 143.121  1.00  0.00     0.208 A 
ATOM      3  C   UNL     1     199.943 204.558 142.754  1.00  0.00     0.238 A 
ATOM      4  O   UNL     1     199.906 203.555 141.991  1.00  0.00    -0.285 OA
ATOM      5  C   UNL     1     201.169 205.046 143.250  1.00  0.00     0.111 A 
ATOM      6  C   UNL     1     202.420 204.463 142.932  1.00  0.00     0.134 A 
ATOM      7  C   UNL     1     203.596 205.003 143.474  1.00  0.00     0.093 A 
ATOM      8  C   UNL     1     203.546 206.112 144.326  1.00  0.00     0.123 A 
ATOM      9  C   UNL     1     202.315 206.689 144.641  1.00  0.00     0.094 A 
ATOM     10  C   UNL     1     201.132 206.168 144.110  1.00  0.00     0.146 A 
ATOM     11  O   UNL     1     199.975 206.741 144.424  1.00  0.00    -0.452 OA
ENDROOT
BRANCH   1  12
ATOM     12  C   UNL     1     197.583 207.050 144.380  1.00  0.00     0.029 A 
ATOM     13  C   UNL     1     197.117 208.116 143.597  1.00  0.00     0.062 A 
ATOM     14  C   UNL     1     195.958 208.816 143.949  1.00  0.00     0.162 A 
ATOM     15  C   UNL     1     196.848 206.662 145.511  1.00  0.00     0.062 A 
ATOM     16  C   UNL     1     195.234 208.435 145.105  1.00  0.00     0.200 A 
ATOM     17  C   UNL     1     195.688 207.348 145.876  1.00  0.00     0.162 A 
BRANCH  14  18
ATOM     18  O   UNL     1     195.565 209.873 143.126  1.00  0.00    -0.504 OA
ATOM     19  H   UNL     1     194.687 209.908 142.627  1.00  0.00     0.293 HD
ENDBRANCH  14  18
BRANCH  16  20
ATOM     20  O   UNL     1     194.073 209.099 145.510  1.00  0.00    -0.502 OA
ATOM     21  H   UNL     1     193.190 208.643 145.686  1.00  0.00     0.293 HD
ENDBRANCH  16  20
BRANCH  17  22
ATOM     22  O   UNL     1     194.993 206.932 147.012  1.00  0.00    -0.504 OA
ATOM     23  H   UNL     1     195.378 206.263 147.668  1.00  0.00     0.293 HD
ENDBRANCH  17  22
ENDBRANCH   1  12
BRANCH   2  24
ATOM     24  O   UNL     1     197.513 204.697 142.683  1.00  0.00    -0.502 OA
ATOM     25  H   UNL     1     197.035 203.937 143.151  1.00  0.00     0.293 HD
ENDBRANCH   2  24
BRANCH   6  26
ATOM     26  O   UNL     1     202.502 203.357 142.086  1.00  0.00    -0.507 OA
ATOM     27  H   UNL     1     201.680 202.961 141.643  1.00  0.00     0.293 HD
ENDBRANCH   6  26
BRANCH   8  28
ATOM     28  O   UNL     1     204.713 206.647 144.864  1.00  0.00    -0.508 OA
ATOM     29  H   UNL     1     204.854 206.712 145.866  1.00  0.00     0.293 HD
ENDBRANCH   8  28
TORSDOF 7
ENDMDL
MODEL 7
REMARK VINA RESULT:    -4.499      3.591      6.139
REMARK INTER + INTRA:          -5.787
REMARK INTER:                  -5.448
REMARK INTRA:                  -0.339
REMARK UNBOUND:                -0.236
REMARK SMILES O=c1c(O)c(-c2cc(O)c(O)c(O)c2)oc2cc(O)cc(O)c12
REMARK SMILES IDX 5 1 3 2 2 3 1 4 23 5 21 6 20 7 18 8 17 9 16 10 15 11 6 12
REMARK SMILES IDX 7 13 8 14 14 15 10 16 12 17 9 18 11 20 13 22 4 24 22 26
REMARK SMILES IDX 19 28
REMARK H PARENT 9 19 11 21 13 23 4 25 22 27 19 29
REMARK Flexibility Score: inf
ROOT
ATOM      1  C   UNL     1     200.259 205.644 143.997  1.00  0.00     0.180 A 
ATOM      2  C   UNL     1     199.049 206.236 144.407  1.00  0.00     0.208 A 
ATOM      3  C   UNL     1     197.934 205.412 144.634  1.00  0.00     0.238 A 
ATOM      4  O   UNL     1     196.842 205.931 144.990  1.00  0.00    -0.285 OA
ATOM      5  C   UNL     1     198.054 204.017 144.470  1.00  0.00     0.111 A 
ATOM      6  C   UNL     1     196.982 203.117 144.683  1.00  0.00     0.134 A 
ATOM      7  C   UNL     1     197.184 201.741 144.508  1.00  0.00     0.093 A 
ATOM      8  C   UNL     1     198.436 201.246 144.124  1.00  0.00     0.123 A 
ATOM      9  C   UNL     1     199.495 202.130 143.912  1.00  0.00     0.094 A 
ATOM     10  C   UNL     1     199.314 203.506 144.080  1.00  0.00     0.146 A 
ATOM     11  O   UNL     1     200.338 204.323 143.867  1.00  0.00    -0.452 OA
ENDROOT
BRANCH   1  12
ATOM     12  C   UNL     1     201.472 206.447 143.720  1.00  0.00     0.029 A 
ATOM     13  C   UNL     1     202.518 206.463 144.653  1.00  0.00     0.062 A 
ATOM     14  C   UNL     1     203.687 207.193 144.414  1.00  0.00     0.162 A 
ATOM     15  C   UNL     1     201.624 207.148 142.513  1.00  0.00     0.062 A 
ATOM     16  C   UNL     1     203.825 207.918 143.205  1.00  0.00     0.200 A 
ATOM     17  C   UNL     1     202.786 207.882 142.257  1.00  0.00     0.162 A 
BRANCH  14  18
ATOM     18  O   UNL     1     204.678 207.170 145.398  1.00  0.00    -0.504 OA
ATOM     19  H   UNL     1     204.860 207.929 146.039  1.00  0.00     0.293 HD
ENDBRANCH  14  18
BRANCH  16  20
ATOM     20  O   UNL     1     204.966 208.671 142.913  1.00  0.00    -0.502 OA
ATOM     21  H   UNL     1     204.962 209.668 142.756  1.00  0.00     0.293 HD
ENDBRANCH  16  20
BRANCH  17  22
ATOM     22  O   UNL     1     202.891 208.568 141.047  1.00  0.00    -0.504 OA
ATOM     23  H   UNL     1     203.580 209.295 140.894  1.00  0.00     0.293 HD
ENDBRANCH  17  22
ENDBRANCH   1  12
BRANCH   2  24
ATOM     24  O   UNL     1     198.969 207.616 144.610  1.00  0.00    -0.502 OA
ATOM     25  H   UNL     1     198.402 208.219 144.026  1.00  0.00     0.293 HD
ENDBRANCH   2  24
BRANCH   6  26
ATOM     26  O   UNL     1     195.722 203.580 145.067  1.00  0.00    -0.507 OA
ATOM     27  H   UNL     1     195.458 204.553 144.966  1.00  0.00     0.293 HD
ENDBRANCH   6  26
BRANCH   8  28
ATOM     28  O   UNL     1     198.636 199.879 143.950  1.00  0.00    -0.508 OA
ATOM     29  H   UNL     1     199.566 199.476 143.943  1.00  0.00     0.293 HD
ENDBRANCH   8  28
TORSDOF 7
ENDMDL
MODEL 8
REMARK VINA RESULT:    -4.497      2.721      3.759
REMARK INTER + INTRA:          -5.785
REMARK INTER:                  -5.433
REMARK INTRA:                  -0.353
REMARK UNBOUND:                -0.236
REMARK SMILES O=c1c(O)c(-c2cc(O)c(O)c(O)c2)oc2cc(O)cc(O)c12
REMARK SMILES IDX 5 1 3 2 2 3 1 4 23 5 21 6 20 7 18 8 17 9 16 10 15 11 6 12
REMARK SMILES IDX 7 13 8 14 14 15 10 16 12 17 9 18 11 20 13 22 4 24 22 26
REMARK SMILES IDX 19 28
REMARK H PARENT 9 19 11 21 13 23 4 25 22 27 19 29
REMARK Flexibility Score: inf
ROOT
ATOM      1  C   UNL     1     196.492 206.664 144.333  1.00  0.00     0.180 A 
ATOM      2  C   UNL     1     195.774 207.824 144.680  1.00  0.00     0.208 A 
ATOM      3  C   UNL     1     194.417 207.705 145.024  1.00  0.00     0.238 A 
ATOM      4  O   UNL     1     193.761 208.738 145.326  1.00  0.00    -0.285 OA
ATOM      5  C   UNL     1     193.812 206.432 145.037  1.00  0.00     0.111 A 
ATOM      6  C   UNL     1     192.453 206.225 145.377  1.00  0.00     0.134 A 
ATOM      7  C   UNL     1     191.926 204.925 145.376  1.00  0.00     0.093 A 
ATOM      8  C   UNL     1     192.731 203.830 145.042  1.00  0.00     0.123 A 
ATOM      9  C   UNL     1     194.071 204.030 144.705  1.00  0.00     0.094 A 
ATOM     10  C   UNL     1     194.614 205.317 144.699  1.00  0.00     0.146 A 
ATOM     11  O   UNL     1     195.891 205.478 144.371  1.00  0.00    -0.452 OA
ENDROOT
BRANCH   1  12
ATOM     12  C   UNL     1     197.919 206.711 143.941  1.00  0.00     0.029 A 
ATOM     13  C   UNL     1     198.259 206.835 142.586  1.00  0.00     0.062 A 
ATOM     14  C   UNL     1     199.597 206.904 142.182  1.00  0.00     0.162 A 
ATOM     15  C   UNL     1     198.942 206.694 144.902  1.00  0.00     0.062 A 
ATOM     16  C   UNL     1     200.625 206.862 143.154  1.00  0.00     0.200 A 
ATOM     17  C   UNL     1     200.283 206.764 144.516  1.00  0.00     0.162 A 
BRANCH  14  18
ATOM     18  O   UNL     1     199.855 207.014 140.814  1.00  0.00    -0.504 OA
ATOM     19  H   UNL     1     199.145 207.170 140.113  1.00  0.00     0.293 HD
ENDBRANCH  14  18
BRANCH  16  20
ATOM     20  O   UNL     1     201.979 206.921 142.811  1.00  0.00    -0.502 OA
ATOM     21  H   UNL     1     202.711 207.211 143.442  1.00  0.00     0.293 HD
ENDBRANCH  16  20
BRANCH  17  22
ATOM     22  O   UNL     1     201.266 206.737 145.505  1.00  0.00    -0.504 OA
ATOM     23  H   UNL     1     202.063 207.363 145.494  1.00  0.00     0.293 HD
ENDBRANCH  17  22
ENDBRANCH   1  12
BRANCH   2  24
ATOM     24  O   UNL     1     196.410 209.068 144.707  1.00  0.00    -0.502 OA
ATOM     25  H   UNL     1     196.816 209.489 143.879  1.00  0.00     0.293 HD
ENDBRANCH   2  24
BRANCH   6  26
ATOM     26  O   UNL     1     191.626 207.297 145.715  1.00  0.00    -0.507 OA
ATOM     27  H   UNL     1     192.003 208.201 145.975  1.00  0.00     0.293 HD
ENDBRANCH   6  26
BRANCH   8  28
ATOM     28  O   UNL     1     192.208 202.539 145.041  1.00  0.00    -0.508 OA
ATOM     29  H   UNL     1     192.662 201.783 144.542  1.00  0.00     0.293 HD
ENDBRANCH   8  28
TORSDOF 7
ENDMDL
MODEL 9
REMARK VINA RESULT:    -4.388      5.272      8.799
REMARK INTER + INTRA:          -5.651
REMARK INTER:                  -5.307
REMARK INTRA:                  -0.343
REMARK UNBOUND:                -0.236
REMARK SMILES O=c1c(O)c(-c2cc(O)c(O)c(O)c2)oc2cc(O)cc(O)c12
REMARK SMILES IDX 5 1 3 2 2 3 1 4 23 5 21 6 20 7 18 8 17 9 16 10 15 11 6 12
REMARK SMILES IDX 7 13 8 14 14 15 10 16 12 17 9 18 11 20 13 22 4 24 22 26
REMARK SMILES IDX 19 28
REMARK H PARENT 9 19 11 21 13 23 4 25 22 27 19 29
REMARK Flexibility Score: inf
ROOT
ATOM      1  C   UNL     1     196.483 200.051 144.823  1.00  0.00     0.180 A 
ATOM      2  C   UNL     1     197.210 201.212 145.145  1.00  0.00     0.208 A 
ATOM      3  C   UNL     1     198.552 201.306 144.743  1.00  0.00     0.238 A 
ATOM      4  O   UNL     1     199.217 202.336 145.035  1.00  0.00    -0.285 OA
ATOM      5  C   UNL     1     199.135 200.251 144.011  1.00  0.00     0.111 A 
ATOM      6  C   UNL     1     200.478 200.269 143.564  1.00  0.00     0.134 A 
ATOM      7  C   UNL     1     200.982 199.184 142.832  1.00  0.00     0.093 A 
ATOM      8  C   UNL     1     200.169 198.083 142.538  1.00  0.00     0.123 A 
ATOM      9  C   UNL     1     198.844 198.062 142.977  1.00  0.00     0.094 A 
ATOM     10  C   UNL     1     198.324 199.132 143.709  1.00  0.00     0.146 A 
ATOM     11  O   UNL     1     197.062 199.083 144.118  1.00  0.00    -0.452 OA
ENDROOT
BRANCH   1  12
ATOM     12  C   UNL     1     195.070 199.870 145.228  1.00  0.00     0.029 A 
ATOM     13  C   UNL     1     194.050 200.414 144.435  1.00  0.00     0.062 A 
ATOM     14  C   UNL     1     192.703 200.244 144.775  1.00  0.00     0.162 A 
ATOM     15  C   UNL     1     194.725 199.114 146.359  1.00  0.00     0.062 A 
ATOM     16  C   UNL     1     192.362 199.500 145.931  1.00  0.00     0.200 A 
ATOM     17  C   UNL     1     193.386 198.933 146.714  1.00  0.00     0.162 A 
BRANCH  14  18
ATOM     18  O   UNL     1     191.746 200.826 143.943  1.00  0.00    -0.504 OA
ATOM     19  H   UNL     1     191.872 200.979 142.952  1.00  0.00     0.293 HD
ENDBRANCH  14  18
BRANCH  16  20
ATOM     20  O   UNL     1     191.036 199.303 146.327  1.00  0.00    -0.502 OA
ATOM     21  H   UNL     1     190.268 199.898 146.054  1.00  0.00     0.293 HD
ENDBRANCH  16  20
BRANCH  17  22
ATOM     22  O   UNL     1     193.090 198.180 147.850  1.00  0.00    -0.504 OA
ATOM     23  H   UNL     1     193.805 197.696 148.381  1.00  0.00     0.293 HD
ENDBRANCH  17  22
ENDBRANCH   1  12
BRANCH   2  24
ATOM     24  O   UNL     1     196.595 202.265 145.829  1.00  0.00    -0.502 OA
ATOM     25  H   UNL     1     197.094 202.848 146.490  1.00  0.00     0.293 HD
ENDBRANCH   2  24
BRANCH   6  26
ATOM     26  O   UNL     1     201.313 201.352 143.841  1.00  0.00    -0.507 OA
ATOM     27  H   UNL     1     201.345 201.780 144.760  1.00  0.00     0.293 HD
ENDBRANCH   6  26
BRANCH   8  28
ATOM     28  O   UNL     1     200.669 197.005 141.811  1.00  0.00    -0.508 OA
ATOM     29  H   UNL     1     200.085 196.215 141.565  1.00  0.00     0.293 HD
ENDBRANCH   8  28
TORSDOF 7
ENDMDL
