MODEL 1
REMARK VINA RESULT:    -2.714      0.000      0.000
REMARK INTER + INTRA:          -2.714
REMARK INTER:                  -2.714
REMARK INTRA:                   0.000
REMARK UNBOUND:                 0.000
REMARK SMILES CC(=O)[O-]
REMARK SMILES IDX 1 1 2 2 3 3 4 4
REMARK H PARENT
REMARK Flexibility Score: inf
ROOT
ATOM      1  C   UNL     1       1.509   8.087  -5.041  1.00  0.00     0.063 C 
ATOM      2  C   UNL     1       2.182   7.610  -3.799  1.00  0.00     0.038 C 
ATOM      3  O   UNL     1       3.392   7.889  -3.589  1.00  0.00    -0.550 OA
ATOM      4  O   UNL     1       1.493   6.811  -2.896  1.00  0.00    -0.550 OA
ENDROOT
TORSDOF 0
ENDMDL
MODEL 2
REMARK VINA RESULT:    -2.454     12.785     13.360
REMARK INTER + INTRA:          -2.454
REMARK INTER:                  -2.454
REMARK INTRA:                   0.000
REMARK UNBOUND:                 0.000
REMARK SMILES CC(=O)[O-]
REMARK SMILES IDX 1 1 2 2 3 3 4 4
REMARK H PARENT
REMARK Flexibility Score: inf
ROOT
ATOM      1  C   UNL     1      -8.823   2.714   0.249  1.00  0.00     0.063 C 
ATOM      2  C   UNL     1      -8.788   1.224   0.281  1.00  0.00     0.038 C 
ATOM      3  O   UNL     1      -7.981   0.595  -0.454  1.00  0.00    -0.550 OA
ATOM      4  O   UNL     1      -9.682   0.524   1.080  1.00  0.00    -0.550 OA
ENDROOT
TORSDOF 0
ENDMDL
MODEL 3
REMARK VINA RESULT:    -2.338     11.610     12.023
REMARK INTER + INTRA:          -2.338
REMARK INTER:                  -2.338
REMARK INTRA:                   0.000
REMARK UNBOUND:                 0.000
REMARK SMILES CC(=O)[O-]
REMARK SMILES IDX 1 1 2 2 3 3 4 4
REMARK H PARENT
REMARK Flexibility Score: inf
ROOT
ATOM      1  C   UNL     1      -7.808   5.536   3.771  1.00  0.00     0.063 C 
ATOM      2  C   UNL     1      -6.649   6.403   4.132  1.00  0.00     0.038 C 
ATOM      3  O   UNL     1      -6.308   7.349   3.374  1.00  0.00    -0.550 OA
ATOM      4  O   UNL     1      -5.909   6.135   5.276  1.00  0.00    -0.550 OA
ENDROOT
TORSDOF 0
ENDMDL
MODEL 4
REMARK VINA RESULT:    -2.336     11.619     12.106
REMARK INTER + INTRA:          -2.336
REMARK INTER:                  -2.336
REMARK INTRA:                   0.000
REMARK UNBOUND:                 0.000
REMARK SMILES CC(=O)[O-]
REMARK SMILES IDX 1 1 2 2 3 3 4 4
REMARK H PARENT
REMARK Flexibility Score: inf
ROOT
ATOM      1  C   UNL     1      -7.876   5.505   3.917  1.00  0.00     0.063 C 
ATOM      2  C   UNL     1      -6.658   6.326   4.177  1.00  0.00     0.038 C 
ATOM      3  O   UNL     1      -5.967   6.120   5.209  1.00  0.00    -0.550 OA
ATOM      4  O   UNL     1      -6.314   7.354   3.310  1.00  0.00    -0.550 OA
ENDROOT
TORSDOF 0
ENDMDL
MODEL 5
REMARK VINA RESULT:    -2.172     11.885     12.536
REMARK INTER + INTRA:          -2.172
REMARK INTER:                  -2.172
REMARK INTRA:                   0.000
REMARK UNBOUND:                 0.000
REMARK SMILES CC(=O)[O-]
REMARK SMILES IDX 1 1 2 2 3 3 4 4
REMARK H PARENT
REMARK Flexibility Score: inf
ROOT
ATOM      1  C   UNL     1      -6.320   6.593   5.972  1.00  0.00     0.063 C 
ATOM      2  C   UNL     1      -6.804   6.450   4.569  1.00  0.00     0.038 C 
ATOM      3  O   UNL     1      -7.626   5.543   4.273  1.00  0.00    -0.550 OA
ATOM      4  O   UNL     1      -6.309   7.283   3.574  1.00  0.00    -0.550 OA
ENDROOT
TORSDOF 0
ENDMDL
MODEL 6
REMARK VINA RESULT:    -2.168     11.122     11.666
REMARK INTER + INTRA:          -2.168
REMARK INTER:                  -2.168
REMARK INTRA:                   0.000
REMARK UNBOUND:                 0.000
REMARK SMILES CC(=O)[O-]
REMARK SMILES IDX 1 1 2 2 3 3 4 4
REMARK H PARENT
REMARK Flexibility Score: inf
ROOT
ATOM      1  C   UNL     1      -3.646  -3.452  -4.895  1.00  0.00     0.063 C 
ATOM      2  C   UNL     1      -3.887  -2.176  -4.162  1.00  0.00     0.038 C 
ATOM      3  O   UNL     1      -5.062  -1.824  -3.876  1.00  0.00    -0.550 OA
ATOM      4  O   UNL     1      -2.822  -1.346  -3.840  1.00  0.00    -0.550 OA
ENDROOT
TORSDOF 0
ENDMDL
MODEL 7
REMARK VINA RESULT:    -2.156     10.590     11.159
REMARK INTER + INTRA:          -2.156
REMARK INTER:                  -2.156
REMARK INTRA:                   0.000
REMARK UNBOUND:                 0.000
REMARK SMILES CC(=O)[O-]
REMARK SMILES IDX 1 1 2 2 3 3 4 4
REMARK H PARENT
REMARK Flexibility Score: inf
ROOT
ATOM      1  C   UNL     1      -7.848   5.425   2.993  1.00  0.00     0.063 C 
ATOM      2  C   UNL     1      -6.648   6.219   2.601  1.00  0.00     0.038 C 
ATOM      3  O   UNL     1      -5.950   5.863   1.616  1.00  0.00    -0.550 OA
ATOM      4  O   UNL     1      -6.267   7.321   3.355  1.00  0.00    -0.550 OA
ENDROOT
TORSDOF 0
ENDMDL
MODEL 8
REMARK VINA RESULT:    -2.120     12.245     12.487
REMARK INTER + INTRA:          -2.120
REMARK INTER:                  -2.120
REMARK INTRA:                   0.000
REMARK UNBOUND:                 0.000
REMARK SMILES CC(=O)[O-]
REMARK SMILES IDX 1 1 2 2 3 3 4 4
REMARK H PARENT
REMARK Flexibility Score: inf
ROOT
ATOM      1  C   UNL     1      -4.134  -1.986  -4.016  1.00  0.00     0.063 C 
ATOM      2  C   UNL     1      -3.980  -3.079  -5.018  1.00  0.00     0.038 C 
ATOM      3  O   UNL     1      -4.594  -3.022  -6.115  1.00  0.00    -0.550 OA
ATOM      4  O   UNL     1      -3.200  -4.190  -4.721  1.00  0.00    -0.550 OA
ENDROOT
TORSDOF 0
ENDMDL
MODEL 9
REMARK VINA RESULT:    -2.103     10.610     11.192
REMARK INTER + INTRA:          -2.103
REMARK INTER:                  -2.103
REMARK INTRA:                   0.000
REMARK UNBOUND:                 0.000
REMARK SMILES CC(=O)[O-]
REMARK SMILES IDX 1 1 2 2 3 3 4 4
REMARK H PARENT
REMARK Flexibility Score: inf
ROOT
ATOM      1  C   UNL     1      -6.422   6.043   1.244  1.00  0.00     0.063 C 
ATOM      2  C   UNL     1      -6.726   6.203   2.696  1.00  0.00     0.038 C 
ATOM      3  O   UNL     1      -7.453   5.361   3.286  1.00  0.00    -0.550 OA
ATOM      4  O   UNL     1      -6.253   7.311   3.387  1.00  0.00    -0.550 OA
ENDROOT
TORSDOF 0
ENDMDL
