MODEL 1
REMARK VINA RESULT:    -0.728      0.000      0.000
REMARK INTER + INTRA:          -4.249
REMARK INTER:                  -1.367
REMARK INTRA:                  -2.882
REMARK UNBOUND:                -2.882
REMARK SMILES O=C([O-])CCCCCCCCCCCCCCC(=O)[O-]
REMARK SMILES IDX 10 1 9 2 8 3 7 4 6 5 5 6 4 7 2 8 1 9 3 10 11 11 12 12 13 13
REMARK SMILES IDX 14 14 15 15 16 16 17 17 18 18 19 19 20 20
REMARK H PARENT
REMARK Flexibility Score: inf
ROOT
ATOM      1  C   UNL     1      38.135   4.833  37.626  1.00  0.00     0.000 C 
ENDROOT
BRANCH   1   2
ATOM      2  C   UNL     1      39.286   4.033  38.257  1.00  0.00     0.000 C 
BRANCH   2   3
ATOM      3  C   UNL     1      38.747   2.924  39.169  1.00  0.00     0.000 C 
BRANCH   3   4
ATOM      4  C   UNL     1      39.327   3.048  40.586  1.00  0.00     0.000 C 
BRANCH   4   5
ATOM      5  C   UNL     1      38.339   2.594  41.673  1.00  0.00     0.000 C 
BRANCH   5   6
ATOM      6  C   UNL     1      36.891   2.511  41.161  1.00  0.00     0.006 C 
BRANCH   6   7
ATOM      7  C   UNL     1      35.899   3.190  42.115  1.00  0.00     0.053 C 
BRANCH   7   8
ATOM      8  C   UNL     1      34.485   3.056  41.636  1.00  0.00     0.041 C 
ATOM      9  O   UNL     1      33.958   1.918  41.531  1.00  0.00    -0.550 OA
ATOM     10  O   UNL     1      33.740   4.190  41.335  1.00  0.00    -0.550 OA
ENDBRANCH   7   8
ENDBRANCH   6   7
ENDBRANCH   5   6
ENDBRANCH   4   5
ENDBRANCH   3   4
ENDBRANCH   2   3
ENDBRANCH   1   2
BRANCH   1  11
ATOM     11  C   UNL     1      36.757   4.209  37.901  1.00  0.00     0.000 C 
BRANCH  11  12
ATOM     12  C   UNL     1      35.819   5.161  38.663  1.00  0.00     0.000 C 
BRANCH  12  13
ATOM     13  C   UNL     1      36.551   6.388  39.239  1.00  0.00     0.000 C 
BRANCH  13  14
ATOM     14  C   UNL     1      36.519   6.508  40.773  1.00  0.00     0.000 C 
BRANCH  14  15
ATOM     15  C   UNL     1      37.913   6.399  41.413  1.00  0.00     0.000 C 
BRANCH  15  16
ATOM     16  C   UNL     1      39.011   7.047  40.545  1.00  0.00     0.006 C 
BRANCH  16  17
ATOM     17  C   UNL     1      40.427   6.547  40.872  1.00  0.00     0.053 C 
BRANCH  17  18
ATOM     18  C   UNL     1      41.398   7.671  41.061  1.00  0.00     0.041 C 
ATOM     19  O   UNL     1      42.449   7.724  40.370  1.00  0.00    -0.550 OA
ATOM     20  O   UNL     1      41.153   8.646  42.020  1.00  0.00    -0.550 OA
ENDBRANCH  17  18
ENDBRANCH  16  17
ENDBRANCH  15  16
ENDBRANCH  14  15
ENDBRANCH  13  14
ENDBRANCH  12  13
ENDBRANCH  11  12
ENDBRANCH   1  11
TORSDOF 15
ENDMDL
MODEL 2
REMARK VINA RESULT:    -0.681      2.851      5.304
REMARK INTER + INTRA:          -4.160
REMARK INTER:                  -1.547
REMARK INTRA:                  -2.614
REMARK UNBOUND:                -2.882
REMARK SMILES O=C([O-])CCCCCCCCCCCCCCC(=O)[O-]
REMARK SMILES IDX 10 1 9 2 8 3 7 4 6 5 5 6 4 7 2 8 1 9 3 10 11 11 12 12 13 13
REMARK SMILES IDX 14 14 15 15 16 16 17 17 18 18 19 19 20 20
REMARK H PARENT
REMARK Flexibility Score: inf
ROOT
ATOM      1  C   UNL     1      38.375   5.119  38.326  1.00  0.00     0.000 C 
ENDROOT
BRANCH   1   2
ATOM      2  C   UNL     1      38.038   3.811  37.596  1.00  0.00     0.000 C 
BRANCH   2   3
ATOM      3  C   UNL     1      37.697   2.698  38.594  1.00  0.00     0.000 C 
BRANCH   3   4
ATOM      4  C   UNL     1      38.465   1.409  38.264  1.00  0.00     0.000 C 
BRANCH   4   5
ATOM      5  C   UNL     1      39.803   1.680  37.557  1.00  0.00     0.000 C 
BRANCH   5   6
ATOM      6  C   UNL     1      41.016   1.249  38.398  1.00  0.00     0.006 C 
BRANCH   6   7
ATOM      7  C   UNL     1      41.386   2.293  39.459  1.00  0.00     0.053 C 
BRANCH   7   8
ATOM      8  C   UNL     1      41.313   1.729  40.846  1.00  0.00     0.041 C 
ATOM      9  O   UNL     1      40.199   1.419  41.345  1.00  0.00    -0.550 OA
ATOM     10  O   UNL     1      42.476   1.518  41.575  1.00  0.00    -0.550 OA
ENDBRANCH   7   8
ENDBRANCH   6   7
ENDBRANCH   5   6
ENDBRANCH   4   5
ENDBRANCH   3   4
ENDBRANCH   2   3
ENDBRANCH   1   2
BRANCH   1  11
ATOM     11  C   UNL     1      38.925   4.885  39.743  1.00  0.00     0.000 C 
BRANCH  11  12
ATOM     12  C   UNL     1      38.526   6.001  40.723  1.00  0.00     0.000 C 
BRANCH  12  13
ATOM     13  C   UNL     1      37.764   5.475  41.953  1.00  0.00     0.000 C 
BRANCH  13  14
ATOM     14  C   UNL     1      37.769   3.944  42.121  1.00  0.00     0.000 C 
BRANCH  14  15
ATOM     15  C   UNL     1      36.361   3.329  42.061  1.00  0.00     0.000 C 
BRANCH  15  16
ATOM     16  C   UNL     1      35.286   4.357  41.652  1.00  0.00     0.006 C 
BRANCH  16  17
ATOM     17  C   UNL     1      34.664   4.079  40.275  1.00  0.00     0.053 C 
BRANCH  17  18
ATOM     18  C   UNL     1      34.849   5.221  39.326  1.00  0.00     0.041 C 
ATOM     19  O   UNL     1      35.143   6.366  39.759  1.00  0.00    -0.550 OA
ATOM     20  O   UNL     1      34.670   5.026  37.961  1.00  0.00    -0.550 OA
ENDBRANCH  17  18
ENDBRANCH  16  17
ENDBRANCH  15  16
ENDBRANCH  14  15
ENDBRANCH  13  14
ENDBRANCH  12  13
ENDBRANCH  11  12
ENDBRANCH   1  11
TORSDOF 15
ENDMDL
MODEL 3
REMARK VINA RESULT:    -0.640      2.018      3.562
REMARK INTER + INTRA:          -4.084
REMARK INTER:                  -1.559
REMARK INTRA:                  -2.524
REMARK UNBOUND:                -2.882
REMARK SMILES O=C([O-])CCCCCCCCCCCCCCC(=O)[O-]
REMARK SMILES IDX 10 1 9 2 8 3 7 4 6 5 5 6 4 7 2 8 1 9 3 10 11 11 12 12 13 13
REMARK SMILES IDX 14 14 15 15 16 16 17 17 18 18 19 19 20 20
REMARK H PARENT
REMARK Flexibility Score: inf
ROOT
ATOM      1  C   UNL     1      35.597   3.913  38.261  1.00  0.00     0.000 C 
ENDROOT
BRANCH   1   2
ATOM      2  C   UNL     1      35.130   5.334  38.613  1.00  0.00     0.000 C 
BRANCH   2   3
ATOM      3  C   UNL     1      35.954   5.911  39.770  1.00  0.00     0.000 C 
BRANCH   3   4
ATOM      4  C   UNL     1      35.042   6.544  40.832  1.00  0.00     0.000 C 
BRANCH   4   5
ATOM      5  C   UNL     1      34.823   5.628  42.048  1.00  0.00     0.000 C 
BRANCH   5   6
ATOM      6  C   UNL     1      33.405   5.035  42.095  1.00  0.00     0.006 C 
BRANCH   6   7
ATOM      7  C   UNL     1      33.359   3.597  41.560  1.00  0.00     0.053 C 
BRANCH   7   8
ATOM      8  C   UNL     1      32.145   3.355  40.716  1.00  0.00     0.041 C 
ATOM      9  O   UNL     1      31.087   2.916  41.239  1.00  0.00    -0.550 OA
ATOM     10  O   UNL     1      32.172   3.642  39.357  1.00  0.00    -0.550 OA
ENDBRANCH   7   8
ENDBRANCH   6   7
ENDBRANCH   5   6
ENDBRANCH   4   5
ENDBRANCH   3   4
ENDBRANCH   2   3
ENDBRANCH   1   2
BRANCH   1  11
ATOM     11  C   UNL     1      37.125   3.753  38.342  1.00  0.00     0.000 C 
BRANCH  11  12
ATOM     12  C   UNL     1      37.548   2.568  39.227  1.00  0.00     0.000 C 
BRANCH  12  13
ATOM     13  C   UNL     1      36.517   2.242  40.325  1.00  0.00     0.000 C 
BRANCH  13  14
ATOM     14  C   UNL     1      36.969   2.562  41.761  1.00  0.00     0.000 C 
BRANCH  14  15
ATOM     15  C   UNL     1      38.380   3.171  41.825  1.00  0.00     0.000 C 
BRANCH  15  16
ATOM     16  C   UNL     1      38.354   4.685  42.123  1.00  0.00     0.006 C 
BRANCH  16  17
ATOM     17  C   UNL     1      39.708   5.377  41.903  1.00  0.00     0.053 C 
BRANCH  17  18
ATOM     18  C   UNL     1      40.194   5.241  40.494  1.00  0.00     0.041 C 
ATOM     19  O   UNL     1      39.540   5.748  39.546  1.00  0.00    -0.550 OA
ATOM     20  O   UNL     1      41.359   4.532  40.227  1.00  0.00    -0.550 OA
ENDBRANCH  17  18
ENDBRANCH  16  17
ENDBRANCH  15  16
ENDBRANCH  14  15
ENDBRANCH  13  14
ENDBRANCH  12  13
ENDBRANCH  11  12
ENDBRANCH   1  11
TORSDOF 15
ENDMDL
MODEL 4
REMARK VINA RESULT:    -0.617      2.693      4.978
REMARK INTER + INTRA:          -4.040
REMARK INTER:                  -1.553
REMARK INTRA:                  -2.488
REMARK UNBOUND:                -2.882
REMARK SMILES O=C([O-])CCCCCCCCCCCCCCC(=O)[O-]
REMARK SMILES IDX 10 1 9 2 8 3 7 4 6 5 5 6 4 7 2 8 1 9 3 10 11 11 12 12 13 13
REMARK SMILES IDX 14 14 15 15 16 16 17 17 18 18 19 19 20 20
REMARK H PARENT
REMARK Flexibility Score: inf
ROOT
ATOM      1  C   UNL     1      37.327   3.759  37.774  1.00  0.00     0.000 C 
ENDROOT
BRANCH   1   2
ATOM      2  C   UNL     1      38.697   3.261  38.259  1.00  0.00     0.000 C 
BRANCH   2   3
ATOM      3  C   UNL     1      38.913   1.793  37.873  1.00  0.00     0.000 C 
BRANCH   3   4
ATOM      4  C   UNL     1      39.213   0.937  39.113  1.00  0.00     0.000 C 
BRANCH   4   5
ATOM      5  C   UNL     1      40.704   0.938  39.489  1.00  0.00     0.000 C 
BRANCH   5   6
ATOM      6  C   UNL     1      40.958   1.481  40.905  1.00  0.00     0.006 C 
BRANCH   6   7
ATOM      7  C   UNL     1      41.568   2.889  40.885  1.00  0.00     0.053 C 
BRANCH   7   8
ATOM      8  C   UNL     1      42.958   2.903  41.446  1.00  0.00     0.041 C 
ATOM      9  O   UNL     1      43.716   1.911  41.281  1.00  0.00    -0.550 OA
ATOM     10  O   UNL     1      43.425   4.021  42.125  1.00  0.00    -0.550 OA
ENDBRANCH   7   8
ENDBRANCH   6   7
ENDBRANCH   5   6
ENDBRANCH   4   5
ENDBRANCH   3   4
ENDBRANCH   2   3
ENDBRANCH   1   2
BRANCH   1  11
ATOM     11  C   UNL     1      36.268   2.645  37.736  1.00  0.00     0.000 C 
BRANCH  11  12
ATOM     12  C   UNL     1      35.287   2.723  38.918  1.00  0.00     0.000 C 
BRANCH  12  13
ATOM     13  C   UNL     1      35.570   1.666  40.002  1.00  0.00     0.000 C 
BRANCH  13  14
ATOM     14  C   UNL     1      35.820   2.227  41.414  1.00  0.00     0.000 C 
BRANCH  14  15
ATOM     15  C   UNL     1      37.288   2.106  41.856  1.00  0.00     0.000 C 
BRANCH  15  16
ATOM     16  C   UNL     1      37.990   3.477  41.946  1.00  0.00     0.006 C 
BRANCH  16  17
ATOM     17  C   UNL     1      37.094   4.654  41.531  1.00  0.00     0.053 C 
BRANCH  17  18
ATOM     18  C   UNL     1      37.881   5.892  41.236  1.00  0.00     0.041 C 
ATOM     19  O   UNL     1      38.608   6.409  42.124  1.00  0.00    -0.550 OA
ATOM     20  O   UNL     1      37.790   6.491  39.985  1.00  0.00    -0.550 OA
ENDBRANCH  17  18
ENDBRANCH  16  17
ENDBRANCH  15  16
ENDBRANCH  14  15
ENDBRANCH  13  14
ENDBRANCH  12  13
ENDBRANCH  11  12
ENDBRANCH   1  11
TORSDOF 15
ENDMDL
MODEL 5
REMARK VINA RESULT:    -0.599      1.687      3.208
REMARK INTER + INTRA:          -4.005
REMARK INTER:                  -1.501
REMARK INTRA:                  -2.504
REMARK UNBOUND:                -2.882
REMARK SMILES O=C([O-])CCCCCCCCCCCCCCC(=O)[O-]
REMARK SMILES IDX 10 1 9 2 8 3 7 4 6 5 5 6 4 7 2 8 1 9 3 10 11 11 12 12 13 13
REMARK SMILES IDX 14 14 15 15 16 16 17 17 18 18 19 19 20 20
REMARK H PARENT
REMARK Flexibility Score: inf
ROOT
ATOM      1  C   UNL     1      37.687   2.987  38.279  1.00  0.00     0.000 C 
ENDROOT
BRANCH   1   2
ATOM      2  C   UNL     1      36.613   3.625  37.385  1.00  0.00     0.000 C 
BRANCH   2   3
ATOM      3  C   UNL     1      36.538   5.139  37.614  1.00  0.00     0.000 C 
BRANCH   3   4
ATOM      4  C   UNL     1      35.112   5.568  37.993  1.00  0.00     0.000 C 
BRANCH   4   5
ATOM      5  C   UNL     1      34.843   5.469  39.504  1.00  0.00     0.000 C 
BRANCH   5   6
ATOM      6  C   UNL     1      34.086   4.187  39.889  1.00  0.00     0.006 C 
BRANCH   6   7
ATOM      7  C   UNL     1      33.699   4.167  41.374  1.00  0.00     0.053 C 
BRANCH   7   8
ATOM      8  C   UNL     1      33.375   2.781  41.846  1.00  0.00     0.041 C 
ATOM      9  O   UNL     1      32.177   2.437  42.022  1.00  0.00    -0.550 OA
ATOM     10  O   UNL     1      34.394   1.863  42.063  1.00  0.00    -0.550 OA
ENDBRANCH   7   8
ENDBRANCH   6   7
ENDBRANCH   5   6
ENDBRANCH   4   5
ENDBRANCH   3   4
ENDBRANCH   2   3
ENDBRANCH   1   2
BRANCH   1  11
ATOM     11  C   UNL     1      37.092   2.248  39.489  1.00  0.00     0.000 C 
BRANCH  11  12
ATOM     12  C   UNL     1      38.149   1.915  40.555  1.00  0.00     0.000 C 
BRANCH  12  13
ATOM     13  C   UNL     1      37.875   2.603  41.906  1.00  0.00     0.000 C 
BRANCH  13  14
ATOM     14  C   UNL     1      37.295   4.026  41.809  1.00  0.00     0.000 C 
BRANCH  14  15
ATOM     15  C   UNL     1      38.330   5.119  42.125  1.00  0.00     0.000 C 
BRANCH  15  16
ATOM     16  C   UNL     1      38.485   6.133  40.973  1.00  0.00     0.006 C 
BRANCH  16  17
ATOM     17  C   UNL     1      39.416   5.649  39.850  1.00  0.00     0.053 C 
BRANCH  17  18
ATOM     18  C   UNL     1      40.720   5.136  40.374  1.00  0.00     0.041 C 
ATOM     19  O   UNL     1      41.046   3.932  40.197  1.00  0.00    -0.550 OA
ATOM     20  O   UNL     1      41.566   5.982  41.081  1.00  0.00    -0.550 OA
ENDBRANCH  17  18
ENDBRANCH  16  17
ENDBRANCH  15  16
ENDBRANCH  14  15
ENDBRANCH  13  14
ENDBRANCH  12  13
ENDBRANCH  11  12
ENDBRANCH   1  11
TORSDOF 15
ENDMDL
MODEL 6
REMARK VINA RESULT:    -0.583      1.998      3.396
REMARK INTER + INTRA:          -3.976
REMARK INTER:                  -1.358
REMARK INTRA:                  -2.618
REMARK UNBOUND:                -2.882
REMARK SMILES O=C([O-])CCCCCCCCCCCCCCC(=O)[O-]
REMARK SMILES IDX 10 1 9 2 8 3 7 4 6 5 5 6 4 7 2 8 1 9 3 10 11 11 12 12 13 13
REMARK SMILES IDX 14 14 15 15 16 16 17 17 18 18 19 19 20 20
REMARK H PARENT
REMARK Flexibility Score: inf
ROOT
ATOM      1  C   UNL     1      38.434   2.038  38.779  1.00  0.00     0.000 C 
ENDROOT
BRANCH   1   2
ATOM      2  C   UNL     1      37.834   3.082  37.824  1.00  0.00     0.000 C 
BRANCH   2   3
ATOM      3  C   UNL     1      36.801   3.956  38.546  1.00  0.00     0.000 C 
BRANCH   3   4
ATOM      4  C   UNL     1      35.430   3.868  37.859  1.00  0.00     0.000 C 
BRANCH   4   5
ATOM      5  C   UNL     1      34.315   3.412  38.814  1.00  0.00     0.000 C 
BRANCH   5   6
ATOM      6  C   UNL     1      34.731   3.494  40.293  1.00  0.00     0.006 C 
BRANCH   6   7
ATOM      7  C   UNL     1      33.902   4.524  41.071  1.00  0.00     0.053 C 
BRANCH   7   8
ATOM      8  C   UNL     1      34.379   5.924  40.826  1.00  0.00     0.041 C 
ATOM      9  O   UNL     1      33.780   6.660  39.997  1.00  0.00    -0.550 OA
ATOM     10  O   UNL     1      35.464   6.425  41.533  1.00  0.00    -0.550 OA
ENDBRANCH   7   8
ENDBRANCH   6   7
ENDBRANCH   5   6
ENDBRANCH   4   5
ENDBRANCH   3   4
ENDBRANCH   2   3
ENDBRANCH   1   2
BRANCH   1  11
ATOM     11  C   UNL     1      37.361   1.197  39.490  1.00  0.00     0.000 C 
BRANCH  11  12
ATOM     12  C   UNL     1      37.572   1.135  41.012  1.00  0.00     0.000 C 
BRANCH  12  13
ATOM     13  C   UNL     1      38.544   2.214  41.526  1.00  0.00     0.000 C 
BRANCH  13  14
ATOM     14  C   UNL     1      37.876   3.465  42.125  1.00  0.00     0.000 C 
BRANCH  14  15
ATOM     15  C   UNL     1      38.516   4.777  41.641  1.00  0.00     0.000 C 
BRANCH  15  16
ATOM     16  C   UNL     1      39.907   4.556  41.011  1.00  0.00     0.006 C 
BRANCH  16  17
ATOM     17  C   UNL     1      40.143   5.384  39.739  1.00  0.00     0.053 C 
BRANCH  17  18
ATOM     18  C   UNL     1      39.848   6.837  39.942  1.00  0.00     0.041 C 
ATOM     19  O   UNL     1      39.033   7.431  39.188  1.00  0.00    -0.550 OA
ATOM     20  O   UNL     1      40.494   7.542  40.950  1.00  0.00    -0.550 OA
ENDBRANCH  17  18
ENDBRANCH  16  17
ENDBRANCH  15  16
ENDBRANCH  14  15
ENDBRANCH  13  14
ENDBRANCH  12  13
ENDBRANCH  11  12
ENDBRANCH   1  11
TORSDOF 15
ENDMDL
MODEL 7
REMARK VINA RESULT:    -0.573      2.562      5.877
REMARK INTER + INTRA:          -3.958
REMARK INTER:                  -1.599
REMARK INTRA:                  -2.359
REMARK UNBOUND:                -2.882
REMARK SMILES O=C([O-])CCCCCCCCCCCCCCC(=O)[O-]
REMARK SMILES IDX 10 1 9 2 8 3 7 4 6 5 5 6 4 7 2 8 1 9 3 10 11 11 12 12 13 13
REMARK SMILES IDX 14 14 15 15 16 16 17 17 18 18 19 19 20 20
REMARK H PARENT
REMARK Flexibility Score: inf
ROOT
ATOM      1  C   UNL     1      33.302   4.277  40.590  1.00  0.00     0.000 C 
ENDROOT
BRANCH   1   2
ATOM      2  C   UNL     1      33.332   5.612  41.349  1.00  0.00     0.000 C 
BRANCH   2   3
ATOM      3  C   UNL     1      34.715   5.863  41.962  1.00  0.00     0.000 C 
BRANCH   3   4
ATOM      4  C   UNL     1      35.803   5.097  41.196  1.00  0.00     0.000 C 
BRANCH   4   5
ATOM      5  C   UNL     1      36.729   4.294  42.125  1.00  0.00     0.000 C 
BRANCH   5   6
ATOM      6  C   UNL     1      38.139   4.106  41.539  1.00  0.00     0.006 C 
BRANCH   6   7
ATOM      7  C   UNL     1      39.031   5.332  41.771  1.00  0.00     0.053 C 
BRANCH   7   8
ATOM      8  C   UNL     1      39.326   6.057  40.493  1.00  0.00     0.041 C 
ATOM      9  O   UNL     1      38.907   7.232  40.321  1.00  0.00    -0.550 OA
ATOM     10  O   UNL     1      40.088   5.447  39.505  1.00  0.00    -0.550 OA
ENDBRANCH   7   8
ENDBRANCH   6   7
ENDBRANCH   5   6
ENDBRANCH   4   5
ENDBRANCH   3   4
ENDBRANCH   2   3
ENDBRANCH   1   2
BRANCH   1  11
ATOM     11  C   UNL     1      32.431   3.217  41.285  1.00  0.00     0.000 C 
BRANCH  11  12
ATOM     12  C   UNL     1      33.265   2.192  42.072  1.00  0.00     0.000 C 
BRANCH  12  13
ATOM     13  C   UNL     1      33.957   1.158  41.163  1.00  0.00     0.000 C 
BRANCH  13  14
ATOM     14  C   UNL     1      35.433   0.876  41.498  1.00  0.00     0.000 C 
BRANCH  14  15
ATOM     15  C   UNL     1      36.340   0.875  40.256  1.00  0.00     0.000 C 
BRANCH  15  16
ATOM     16  C   UNL     1      35.959   1.979  39.248  1.00  0.00     0.006 C 
BRANCH  16  17
ATOM     17  C   UNL     1      37.161   2.547  38.477  1.00  0.00     0.053 C 
BRANCH  17  18
ATOM     18  C   UNL     1      36.772   3.661  37.556  1.00  0.00     0.041 C 
ATOM     19  O   UNL     1      36.040   3.431  36.557  1.00  0.00    -0.550 OA
ATOM     20  O   UNL     1      37.239   4.949  37.787  1.00  0.00    -0.550 OA
ENDBRANCH  17  18
ENDBRANCH  16  17
ENDBRANCH  15  16
ENDBRANCH  14  15
ENDBRANCH  13  14
ENDBRANCH  12  13
ENDBRANCH  11  12
ENDBRANCH   1  11
TORSDOF 15
ENDMDL
MODEL 8
REMARK VINA RESULT:    -0.568      2.495      6.130
REMARK INTER + INTRA:          -3.948
REMARK INTER:                  -1.506
REMARK INTRA:                  -2.442
REMARK UNBOUND:                -2.882
REMARK SMILES O=C([O-])CCCCCCCCCCCCCCC(=O)[O-]
REMARK SMILES IDX 10 1 9 2 8 3 7 4 6 5 5 6 4 7 2 8 1 9 3 10 11 11 12 12 13 13
REMARK SMILES IDX 14 14 15 15 16 16 17 17 18 18 19 19 20 20
REMARK H PARENT
REMARK Flexibility Score: inf
ROOT
ATOM      1  C   UNL     1      38.845   3.537  37.742  1.00  0.00     0.000 C 
ENDROOT
BRANCH   1   2
ATOM      2  C   UNL     1      39.411   2.118  37.906  1.00  0.00     0.000 C 
BRANCH   2   3
ATOM      3  C   UNL     1      40.813   2.155  38.527  1.00  0.00     0.000 C 
BRANCH   3   4
ATOM      4  C   UNL     1      40.975   1.053  39.584  1.00  0.00     0.000 C 
BRANCH   4   5
ATOM      5  C   UNL     1      41.125   1.613  41.008  1.00  0.00     0.000 C 
BRANCH   5   6
ATOM      6  C   UNL     1      41.850   2.969  41.039  1.00  0.00     0.006 C 
BRANCH   6   7
ATOM      7  C   UNL     1      43.359   2.814  41.270  1.00  0.00     0.053 C 
BRANCH   7   8
ATOM      8  C   UNL     1      43.980   4.083  41.771  1.00  0.00     0.041 C 
ATOM      9  O   UNL     1      43.271   5.110  41.940  1.00  0.00    -0.550 OA
ATOM     10  O   UNL     1      45.334   4.123  42.079  1.00  0.00    -0.550 OA
ENDBRANCH   7   8
ENDBRANCH   6   7
ENDBRANCH   5   6
ENDBRANCH   4   5
ENDBRANCH   3   4
ENDBRANCH   2   3
ENDBRANCH   1   2
BRANCH   1  11
ATOM     11  C   UNL     1      39.484   4.548  38.709  1.00  0.00     0.000 C 
BRANCH  11  12
ATOM     12  C   UNL     1      38.439   5.319  39.533  1.00  0.00     0.000 C 
BRANCH  12  13
ATOM     13  C   UNL     1      39.000   5.852  40.864  1.00  0.00     0.000 C 
BRANCH  13  14
ATOM     14  C   UNL     1      38.872   4.891  42.060  1.00  0.00     0.000 C 
BRANCH  14  15
ATOM     15  C   UNL     1      37.561   4.087  42.047  1.00  0.00     0.000 C 
BRANCH  15  16
ATOM     16  C   UNL     1      37.804   2.564  42.086  1.00  0.00     0.006 C 
BRANCH  16  17
ATOM     17  C   UNL     1      37.350   1.838  40.811  1.00  0.00     0.053 C 
BRANCH  17  18
ATOM     18  C   UNL     1      35.940   2.171  40.437  1.00  0.00     0.041 C 
ATOM     19  O   UNL     1      34.983   1.779  41.156  1.00  0.00    -0.550 OA
ATOM     20  O   UNL     1      35.681   2.894  39.279  1.00  0.00    -0.550 OA
ENDBRANCH  17  18
ENDBRANCH  16  17
ENDBRANCH  15  16
ENDBRANCH  14  15
ENDBRANCH  13  14
ENDBRANCH  12  13
ENDBRANCH  11  12
ENDBRANCH   1  11
TORSDOF 15
ENDMDL
MODEL 9
REMARK VINA RESULT:    -0.556      2.129      3.773
REMARK INTER + INTRA:          -3.926
REMARK INTER:                  -1.534
REMARK INTRA:                  -2.392
REMARK UNBOUND:                -2.882
REMARK SMILES O=C([O-])CCCCCCCCCCCCCCC(=O)[O-]
REMARK SMILES IDX 10 1 9 2 8 3 7 4 6 5 5 6 4 7 2 8 1 9 3 10 11 11 12 12 13 13
REMARK SMILES IDX 14 14 15 15 16 16 17 17 18 18 19 19 20 20
REMARK H PARENT
REMARK Flexibility Score: inf
ROOT
ATOM      1  C   UNL     1      38.899   3.351  37.534  1.00  0.00     0.000 C 
ENDROOT
BRANCH   1   2
ATOM      2  C   UNL     1      38.192   4.398  38.408  1.00  0.00     0.000 C 
BRANCH   2   3
ATOM      3  C   UNL     1      38.737   4.375  39.840  1.00  0.00     0.000 C 
BRANCH   3   4
ATOM      4  C   UNL     1      37.631   4.700  40.856  1.00  0.00     0.000 C 
BRANCH   4   5
ATOM      5  C   UNL     1      37.632   3.745  42.061  1.00  0.00     0.000 C 
BRANCH   5   6
ATOM      6  C   UNL     1      38.350   2.418  41.765  1.00  0.00     0.006 C 
BRANCH   6   7
ATOM      7  C   UNL     1      37.476   1.200  42.092  1.00  0.00     0.053 C 
BRANCH   7   8
ATOM      8  C   UNL     1      36.153   1.259  41.389  1.00  0.00     0.041 C 
ATOM      9  O   UNL     1      36.101   1.215  40.132  1.00  0.00    -0.550 OA
ATOM     10  O   UNL     1      34.976   1.332  42.124  1.00  0.00    -0.550 OA
ENDBRANCH   7   8
ENDBRANCH   6   7
ENDBRANCH   5   6
ENDBRANCH   4   5
ENDBRANCH   3   4
ENDBRANCH   2   3
ENDBRANCH   1   2
BRANCH   1  11
ATOM     11  C   UNL     1      38.490   1.910  37.885  1.00  0.00     0.000 C 
BRANCH  11  12
ATOM     12  C   UNL     1      39.668   1.074  38.412  1.00  0.00     0.000 C 
BRANCH  12  13
ATOM     13  C   UNL     1      41.008   1.441  37.746  1.00  0.00     0.000 C 
BRANCH  13  14
ATOM     14  C   UNL     1      42.113   1.905  38.713  1.00  0.00     0.000 C 
BRANCH  14  15
ATOM     15  C   UNL     1      41.729   1.733  40.191  1.00  0.00     0.000 C 
BRANCH  15  16
ATOM     16  C   UNL     1      41.949   3.022  41.010  1.00  0.00     0.006 C 
BRANCH  16  17
ATOM     17  C   UNL     1      42.461   4.203  40.171  1.00  0.00     0.053 C 
BRANCH  17  18
ATOM     18  C   UNL     1      42.076   5.526  40.754  1.00  0.00     0.041 C 
ATOM     19  O   UNL     1      41.669   5.601  41.943  1.00  0.00    -0.550 OA
ATOM     20  O   UNL     1      42.142   6.674  39.974  1.00  0.00    -0.550 OA
ENDBRANCH  17  18
ENDBRANCH  16  17
ENDBRANCH  15  16
ENDBRANCH  14  15
ENDBRANCH  13  14
ENDBRANCH  12  13
ENDBRANCH  11  12
ENDBRANCH   1  11
TORSDOF 15
ENDMDL
