MODEL 1
REMARK VINA RESULT:    -4.451      0.000      0.000
REMARK INTER + INTRA:         -17.162
REMARK INTER:                 -11.736
REMARK INTRA:                  -5.426
REMARK UNBOUND:                -5.426
REMARK SMILES CCCCCCCCCCCCCCCCCCCCCCCCCCCCCC(=O)[O-]
REMARK SMILES IDX 16 1 17 2 18 3 19 4 20 5 21 6 22 7 23 8 24 9 25 10 26 11
REMARK SMILES IDX 27 12 28 13 29 14 30 15 31 16 32 17 15 18 14 19 13 20 12 21
REMARK SMILES IDX 11 22 10 23 9 24 8 25 7 26 6 27 5 28 4 29 3 30 2 31 1 32
REMARK H PARENT
REMARK Flexibility Score: inf
ROOT
ATOM      1  C   UNL     1       7.569   4.772  28.044  1.00  0.00     0.000 C 
ENDROOT
BRANCH   1   2
ATOM      2  C   UNL     1       7.243   6.183  28.554  1.00  0.00     0.000 C 
BRANCH   2   3
ATOM      3  C   UNL     1       6.510   6.998  27.483  1.00  0.00     0.000 C 
BRANCH   3   4
ATOM      4  C   UNL     1       6.218   8.421  27.974  1.00  0.00     0.000 C 
BRANCH   4   5
ATOM      5  C   UNL     1       7.115   9.443  27.261  1.00  0.00     0.000 C 
BRANCH   5   6
ATOM      6  C   UNL     1       8.105  10.131  28.215  1.00  0.00     0.000 C 
BRANCH   6   7
ATOM      7  C   UNL     1       7.850   9.776  29.687  1.00  0.00     0.000 C 
BRANCH   7   8
ATOM      8  C   UNL     1       9.027   8.980  30.270  1.00  0.00     0.000 C 
BRANCH   8   9
ATOM      9  C   UNL     1      10.227   8.894  29.308  1.00  0.00     0.000 C 
BRANCH   9  10
ATOM     10  C   UNL     1      10.628   7.465  28.887  1.00  0.00     0.000 C 
BRANCH  10  11
ATOM     11  C   UNL     1      11.846   7.379  27.951  1.00  0.00     0.000 C 
BRANCH  11  12
ATOM     12  C   UNL     1      11.456   7.398  26.462  1.00  0.00     0.000 C 
BRANCH  12  13
ATOM     13  C   UNL     1       9.986   7.002  26.224  1.00  0.00     0.006 C 
BRANCH  13  14
ATOM     14  C   UNL     1       9.355   7.675  24.993  1.00  0.00     0.053 C 
BRANCH  14  15
ATOM     15  C   UNL     1       8.599   6.711  24.131  1.00  0.00     0.041 C 
ATOM     16  O   UNL     1       8.365   6.989  22.925  1.00  0.00    -0.550 OA
ATOM     17  O   UNL     1       8.158   5.504  24.656  1.00  0.00    -0.550 OA
ENDBRANCH  14  15
ENDBRANCH  13  14
ENDBRANCH  12  13
ENDBRANCH  11  12
ENDBRANCH  10  11
ENDBRANCH   9  10
ENDBRANCH   8   9
ENDBRANCH   7   8
ENDBRANCH   6   7
ENDBRANCH   5   6
ENDBRANCH   4   5
ENDBRANCH   3   4
ENDBRANCH   2   3
ENDBRANCH   1   2
BRANCH   1  18
ATOM     18  C   UNL     1       9.003   4.329  28.384  1.00  0.00     0.000 C 
BRANCH  18  19
ATOM     19  C   UNL     1       9.727   3.550  27.265  1.00  0.00     0.000 C 
BRANCH  19  20
ATOM     20  C   UNL     1      11.046   2.874  27.690  1.00  0.00     0.000 C 
BRANCH  20  21
ATOM     21  C   UNL     1      12.216   3.841  27.957  1.00  0.00     0.000 C 
BRANCH  21  22
ATOM     22  C   UNL     1      13.479   3.581  27.112  1.00  0.00     0.000 C 
BRANCH  22  23
ATOM     23  C   UNL     1      14.199   4.849  26.611  1.00  0.00     0.000 C 
BRANCH  23  24
ATOM     24  C   UNL     1      15.621   5.054  27.169  1.00  0.00    -0.000 C 
BRANCH  24  25
ATOM     25  C   UNL     1      16.192   3.856  27.952  1.00  0.00    -0.000 C 
BRANCH  25  26
ATOM     26  C   UNL     1      16.349   4.087  29.467  1.00  0.00    -0.000 C 
BRANCH  26  27
ATOM     27  C   UNL     1      15.475   5.215  30.051  1.00  0.00    -0.000 C 
BRANCH  27  28
ATOM     28  C   UNL     1      14.183   4.751  30.747  1.00  0.00    -0.000 C 
BRANCH  28  29
ATOM     29  C   UNL     1      14.197   3.254  31.101  1.00  0.00    -0.000 C 
BRANCH  29  30
ATOM     30  C   UNL     1      13.652   2.966  32.512  1.00  0.00    -0.000 C 
BRANCH  30  31
ATOM     31  C   UNL     1      12.145   2.660  32.578  1.00  0.00    -0.003 C 
ATOM     32  C   UNL     1      11.600   2.049  31.289  1.00  0.00     0.004 C 
ENDBRANCH  30  31
ENDBRANCH  29  30
ENDBRANCH  28  29
ENDBRANCH  27  28
ENDBRANCH  26  27
ENDBRANCH  25  26
ENDBRANCH  24  25
ENDBRANCH  23  24
ENDBRANCH  22  23
ENDBRANCH  21  22
ENDBRANCH  20  21
ENDBRANCH  19  20
ENDBRANCH  18  19
ENDBRANCH   1  18
TORSDOF 28
ENDMDL
MODEL 2
REMARK VINA RESULT:    -4.329      2.328      3.932
REMARK INTER + INTRA:         -16.840
REMARK INTER:                 -11.374
REMARK INTRA:                  -5.466
REMARK UNBOUND:                -5.426
REMARK SMILES CCCCCCCCCCCCCCCCCCCCCCCCCCCCCC(=O)[O-]
REMARK SMILES IDX 16 1 17 2 18 3 19 4 20 5 21 6 22 7 23 8 24 9 25 10 26 11
REMARK SMILES IDX 27 12 28 13 29 14 30 15 31 16 32 17 15 18 14 19 13 20 12 21
REMARK SMILES IDX 11 22 10 23 9 24 8 25 7 26 6 27 5 28 4 29 3 30 2 31 1 32
REMARK H PARENT
REMARK Flexibility Score: inf
ROOT
ATOM      1  C   UNL     1      10.614   3.365  27.590  1.00  0.00     0.000 C 
ENDROOT
BRANCH   1   2
ATOM      2  C   UNL     1       9.198   3.884  27.302  1.00  0.00     0.000 C 
BRANCH   2   3
ATOM      3  C   UNL     1       8.565   4.479  28.565  1.00  0.00     0.000 C 
BRANCH   3   4
ATOM      4  C   UNL     1       7.540   5.564  28.211  1.00  0.00     0.000 C 
BRANCH   4   5
ATOM      5  C   UNL     1       7.632   5.943  26.726  1.00  0.00     0.000 C 
BRANCH   5   6
ATOM      6  C   UNL     1       7.414   7.444  26.483  1.00  0.00     0.000 C 
BRANCH   6   7
ATOM      7  C   UNL     1       8.632   8.121  25.834  1.00  0.00     0.000 C 
BRANCH   7   8
ATOM      8  C   UNL     1       9.926   7.375  26.190  1.00  0.00     0.000 C 
BRANCH   8   9
ATOM      9  C   UNL     1      10.774   8.115  27.241  1.00  0.00     0.000 C 
BRANCH   9  10
ATOM     10  C   UNL     1      10.398   7.826  28.710  1.00  0.00     0.000 C 
BRANCH  10  11
ATOM     11  C   UNL     1       9.860   9.035  29.494  1.00  0.00     0.000 C 
BRANCH  11  12
ATOM     12  C   UNL     1       8.337   8.980  29.704  1.00  0.00     0.000 C 
BRANCH  12  13
ATOM     13  C   UNL     1       7.642  10.321  29.398  1.00  0.00     0.006 C 
BRANCH  13  14
ATOM     14  C   UNL     1       6.276  10.168  28.707  1.00  0.00     0.053 C 
BRANCH  14  15
ATOM     15  C   UNL     1       5.327   9.308  29.484  1.00  0.00     0.041 C 
ATOM     16  O   UNL     1       4.984   9.638  30.650  1.00  0.00    -0.550 OA
ATOM     17  O   UNL     1       4.818   8.146  28.920  1.00  0.00    -0.550 OA
ENDBRANCH  14  15
ENDBRANCH  13  14
ENDBRANCH  12  13
ENDBRANCH  11  12
ENDBRANCH  10  11
ENDBRANCH   9  10
ENDBRANCH   8   9
ENDBRANCH   7   8
ENDBRANCH   6   7
ENDBRANCH   5   6
ENDBRANCH   4   5
ENDBRANCH   3   4
ENDBRANCH   2   3
ENDBRANCH   1   2
BRANCH   1  18
ATOM     18  C   UNL     1      11.679   4.476  27.552  1.00  0.00     0.000 C 
BRANCH  18  19
ATOM     19  C   UNL     1      12.327   4.804  28.913  1.00  0.00     0.000 C 
BRANCH  19  20
ATOM     20  C   UNL     1      13.512   5.788  28.851  1.00  0.00     0.000 C 
BRANCH  20  21
ATOM     21  C   UNL     1      14.888   5.135  28.615  1.00  0.00     0.000 C 
BRANCH  21  22
ATOM     22  C   UNL     1      15.370   5.147  27.151  1.00  0.00     0.000 C 
BRANCH  22  23
ATOM     23  C   UNL     1      15.821   3.778  26.603  1.00  0.00     0.000 C 
BRANCH  23  24
ATOM     24  C   UNL     1      14.695   2.914  26.000  1.00  0.00    -0.000 C 
BRANCH  24  25
ATOM     25  C   UNL     1      14.291   1.690  26.845  1.00  0.00    -0.000 C 
BRANCH  25  26
ATOM     26  C   UNL     1      15.123   1.483  28.125  1.00  0.00    -0.000 C 
BRANCH  26  27
ATOM     27  C   UNL     1      14.754   0.235  28.951  1.00  0.00    -0.000 C 
BRANCH  27  28
ATOM     28  C   UNL     1      13.854   0.498  30.173  1.00  0.00    -0.000 C 
BRANCH  28  29
ATOM     29  C   UNL     1      13.766   1.988  30.541  1.00  0.00    -0.000 C 
BRANCH  29  30
ATOM     30  C   UNL     1      12.708   2.277  31.623  1.00  0.00    -0.000 C 
BRANCH  30  31
ATOM     31  C   UNL     1      11.248   2.116  31.166  1.00  0.00    -0.003 C 
ATOM     32  C   UNL     1      10.533   0.947  31.841  1.00  0.00     0.004 C 
ENDBRANCH  30  31
ENDBRANCH  29  30
ENDBRANCH  28  29
ENDBRANCH  27  28
ENDBRANCH  26  27
ENDBRANCH  25  26
ENDBRANCH  24  25
ENDBRANCH  23  24
ENDBRANCH  22  23
ENDBRANCH  21  22
ENDBRANCH  20  21
ENDBRANCH  19  20
ENDBRANCH  18  19
ENDBRANCH   1  18
TORSDOF 28
ENDMDL
MODEL 3
REMARK VINA RESULT:    -4.286      2.262      3.730
REMARK INTER + INTRA:         -16.728
REMARK INTER:                 -11.899
REMARK INTRA:                  -4.830
REMARK UNBOUND:                -5.426
REMARK SMILES CCCCCCCCCCCCCCCCCCCCCCCCCCCCCC(=O)[O-]
REMARK SMILES IDX 16 1 17 2 18 3 19 4 20 5 21 6 22 7 23 8 24 9 25 10 26 11
REMARK SMILES IDX 27 12 28 13 29 14 30 15 31 16 32 17 15 18 14 19 13 20 12 21
REMARK SMILES IDX 11 22 10 23 9 24 8 25 7 26 6 27 5 28 4 29 3 30 2 31 1 32
REMARK H PARENT
REMARK Flexibility Score: inf
ROOT
ATOM      1  C   UNL     1      10.296   2.972  27.969  1.00  0.00     0.000 C 
ENDROOT
BRANCH   1   2
ATOM      2  C   UNL     1       9.296   3.891  28.685  1.00  0.00     0.000 C 
BRANCH   2   3
ATOM      3  C   UNL     1       8.248   4.432  27.706  1.00  0.00     0.000 C 
BRANCH   3   4
ATOM      4  C   UNL     1       7.445   5.578  28.332  1.00  0.00     0.000 C 
BRANCH   4   5
ATOM      5  C   UNL     1       6.716   6.392  27.253  1.00  0.00     0.000 C 
BRANCH   5   6
ATOM      6  C   UNL     1       6.800   7.907  27.496  1.00  0.00     0.000 C 
BRANCH   6   7
ATOM      7  C   UNL     1       7.108   8.255  28.960  1.00  0.00     0.000 C 
BRANCH   7   8
ATOM      8  C   UNL     1       8.000   9.501  29.051  1.00  0.00     0.000 C 
BRANCH   8   9
ATOM      9  C   UNL     1       9.500   9.161  29.128  1.00  0.00     0.000 C 
BRANCH   9  10
ATOM     10  C   UNL     1       9.835   7.823  29.820  1.00  0.00     0.000 C 
BRANCH  10  11
ATOM     11  C   UNL     1      10.870   6.952  29.088  1.00  0.00     0.000 C 
BRANCH  11  12
ATOM     12  C   UNL     1      11.363   7.588  27.776  1.00  0.00     0.000 C 
BRANCH  12  13
ATOM     13  C   UNL     1      11.058   6.720  26.540  1.00  0.00     0.006 C 
BRANCH  13  14
ATOM     14  C   UNL     1       9.807   7.167  25.763  1.00  0.00     0.053 C 
BRANCH  14  15
ATOM     15  C   UNL     1       9.965   8.519  25.139  1.00  0.00     0.041 C 
ATOM     16  O   UNL     1      10.514   8.637  24.011  1.00  0.00    -0.550 OA
ATOM     17  O   UNL     1       9.503   9.650  25.800  1.00  0.00    -0.550 OA
ENDBRANCH  14  15
ENDBRANCH  13  14
ENDBRANCH  12  13
ENDBRANCH  11  12
ENDBRANCH  10  11
ENDBRANCH   9  10
ENDBRANCH   8   9
ENDBRANCH   7   8
ENDBRANCH   6   7
ENDBRANCH   5   6
ENDBRANCH   4   5
ENDBRANCH   3   4
ENDBRANCH   2   3
ENDBRANCH   1   2
BRANCH   1  18
ATOM     18  C   UNL     1      11.736   3.136  28.484  1.00  0.00     0.000 C 
BRANCH  18  19
ATOM     19  C   UNL     1      12.838   2.894  27.431  1.00  0.00     0.000 C 
BRANCH  19  20
ATOM     20  C   UNL     1      14.184   3.585  27.725  1.00  0.00     0.000 C 
BRANCH  20  21
ATOM     21  C   UNL     1      14.090   5.092  28.031  1.00  0.00     0.000 C 
BRANCH  21  22
ATOM     22  C   UNL     1      14.407   5.481  29.488  1.00  0.00     0.000 C 
BRANCH  22  23
ATOM     23  C   UNL     1      14.592   4.292  30.453  1.00  0.00     0.000 C 
BRANCH  23  24
ATOM     24  C   UNL     1      14.049   4.519  31.878  1.00  0.00    -0.000 C 
BRANCH  24  25
ATOM     25  C   UNL     1      14.257   3.340  32.849  1.00  0.00    -0.000 C 
BRANCH  25  26
ATOM     26  C   UNL     1      13.335   3.348  34.084  1.00  0.00    -0.000 C 
BRANCH  26  27
ATOM     27  C   UNL     1      12.244   4.438  34.080  1.00  0.00    -0.000 C 
BRANCH  27  28
ATOM     28  C   UNL     1      12.101   5.229  35.393  1.00  0.00    -0.000 C 
BRANCH  28  29
ATOM     29  C   UNL     1      13.082   6.410  35.490  1.00  0.00    -0.000 C 
BRANCH  29  30
ATOM     30  C   UNL     1      14.116   6.240  36.619  1.00  0.00    -0.000 C 
BRANCH  30  31
ATOM     31  C   UNL     1      15.586   6.257  36.164  1.00  0.00    -0.003 C 
ATOM     32  C   UNL     1      15.744   6.239  34.645  1.00  0.00     0.004 C 
ENDBRANCH  30  31
ENDBRANCH  29  30
ENDBRANCH  28  29
ENDBRANCH  27  28
ENDBRANCH  26  27
ENDBRANCH  25  26
ENDBRANCH  24  25
ENDBRANCH  23  24
ENDBRANCH  22  23
ENDBRANCH  21  22
ENDBRANCH  20  21
ENDBRANCH  19  20
ENDBRANCH  18  19
ENDBRANCH   1  18
TORSDOF 28
ENDMDL
MODEL 4
REMARK VINA RESULT:    -4.277      3.263      8.573
REMARK INTER + INTRA:         -16.705
REMARK INTER:                 -11.920
REMARK INTRA:                  -4.784
REMARK UNBOUND:                -5.426
REMARK SMILES CCCCCCCCCCCCCCCCCCCCCCCCCCCCCC(=O)[O-]
REMARK SMILES IDX 16 1 17 2 18 3 19 4 20 5 21 6 22 7 23 8 24 9 25 10 26 11
REMARK SMILES IDX 27 12 28 13 29 14 30 15 31 16 32 17 15 18 14 19 13 20 12 21
REMARK SMILES IDX 11 22 10 23 9 24 8 25 7 26 6 27 5 28 4 29 3 30 2 31 1 32
REMARK H PARENT
REMARK Flexibility Score: inf
ROOT
ATOM      1  C   UNL     1      10.723   3.387  27.621  1.00  0.00     0.000 C 
ENDROOT
BRANCH   1   2
ATOM      2  C   UNL     1      12.251   3.260  27.552  1.00  0.00     0.000 C 
BRANCH   2   3
ATOM      3  C   UNL     1      12.819   2.738  28.877  1.00  0.00     0.000 C 
BRANCH   3   4
ATOM      4  C   UNL     1      12.058   3.322  30.074  1.00  0.00     0.000 C 
BRANCH   4   5
ATOM      5  C   UNL     1      12.777   4.559  30.631  1.00  0.00     0.000 C 
BRANCH   5   6
ATOM      6  C   UNL     1      14.306   4.460  30.513  1.00  0.00     0.000 C 
BRANCH   6   7
ATOM      7  C   UNL     1      15.026   4.853  31.811  1.00  0.00     0.000 C 
BRANCH   7   8
ATOM      8  C   UNL     1      15.037   3.683  32.806  1.00  0.00     0.000 C 
BRANCH   8   9
ATOM      9  C   UNL     1      14.077   3.894  33.991  1.00  0.00     0.000 C 
BRANCH   9  10
ATOM     10  C   UNL     1      13.138   2.708  34.294  1.00  0.00     0.000 C 
BRANCH  10  11
ATOM     11  C   UNL     1      11.721   2.833  33.708  1.00  0.00     0.000 C 
BRANCH  11  12
ATOM     12  C   UNL     1      10.979   1.487  33.650  1.00  0.00     0.000 C 
BRANCH  12  13
ATOM     13  C   UNL     1      11.090   0.802  32.274  1.00  0.00     0.006 C 
BRANCH  13  14
ATOM     14  C   UNL     1      11.747  -0.589  32.326  1.00  0.00     0.053 C 
BRANCH  14  15
ATOM     15  C   UNL     1      13.177  -0.570  31.878  1.00  0.00     0.041 C 
ATOM     16  O   UNL     1      13.830  -1.644  31.799  1.00  0.00    -0.550 OA
ATOM     17  O   UNL     1      13.786   0.632  31.542  1.00  0.00    -0.550 OA
ENDBRANCH  14  15
ENDBRANCH  13  14
ENDBRANCH  12  13
ENDBRANCH  11  12
ENDBRANCH  10  11
ENDBRANCH   9  10
ENDBRANCH   8   9
ENDBRANCH   7   8
ENDBRANCH   6   7
ENDBRANCH   5   6
ENDBRANCH   4   5
ENDBRANCH   3   4
ENDBRANCH   2   3
ENDBRANCH   1   2
BRANCH   1  18
ATOM     18  C   UNL     1      10.221   4.790  27.234  1.00  0.00     0.000 C 
BRANCH  18  19
ATOM     19  C   UNL     1      11.331   5.828  26.961  1.00  0.00     0.000 C 
BRANCH  19  20
ATOM     20  C   UNL     1      11.478   6.924  28.035  1.00  0.00     0.000 C 
BRANCH  20  21
ATOM     21  C   UNL     1      10.358   6.952  29.093  1.00  0.00     0.000 C 
BRANCH  21  22
ATOM     22  C   UNL     1       9.896   8.362  29.512  1.00  0.00     0.000 C 
BRANCH  22  23
ATOM     23  C   UNL     1      10.098   9.457  28.446  1.00  0.00     0.000 C 
BRANCH  23  24
ATOM     24  C   UNL     1       9.445  10.814  28.774  1.00  0.00    -0.000 C 
BRANCH  24  25
ATOM     25  C   UNL     1       8.449  10.790  29.949  1.00  0.00    -0.000 C 
BRANCH  25  26
ATOM     26  C   UNL     1       6.968  10.929  29.547  1.00  0.00    -0.000 C 
BRANCH  26  27
ATOM     27  C   UNL     1       6.107   9.670  29.775  1.00  0.00    -0.000 C 
BRANCH  27  28
ATOM     28  C   UNL     1       5.645   8.949  28.495  1.00  0.00    -0.000 C 
BRANCH  28  29
ATOM     29  C   UNL     1       6.406   9.410  27.240  1.00  0.00    -0.000 C 
BRANCH  29  30
ATOM     30  C   UNL     1       7.124   8.256  26.517  1.00  0.00    -0.000 C 
BRANCH  30  31
ATOM     31  C   UNL     1       7.149   6.922  27.283  1.00  0.00    -0.003 C 
ATOM     32  C   UNL     1       6.587   5.754  26.474  1.00  0.00     0.004 C 
ENDBRANCH  30  31
ENDBRANCH  29  30
ENDBRANCH  28  29
ENDBRANCH  27  28
ENDBRANCH  26  27
ENDBRANCH  25  26
ENDBRANCH  24  25
ENDBRANCH  23  24
ENDBRANCH  22  23
ENDBRANCH  21  22
ENDBRANCH  20  21
ENDBRANCH  19  20
ENDBRANCH  18  19
ENDBRANCH   1  18
TORSDOF 28
ENDMDL
MODEL 5
REMARK VINA RESULT:    -4.245      3.211      7.756
REMARK INTER + INTRA:         -16.620
REMARK INTER:                 -10.572
REMARK INTRA:                  -6.048
REMARK UNBOUND:                -5.426
REMARK SMILES CCCCCCCCCCCCCCCCCCCCCCCCCCCCCC(=O)[O-]
REMARK SMILES IDX 16 1 17 2 18 3 19 4 20 5 21 6 22 7 23 8 24 9 25 10 26 11
REMARK SMILES IDX 27 12 28 13 29 14 30 15 31 16 32 17 15 18 14 19 13 20 12 21
REMARK SMILES IDX 11 22 10 23 9 24 8 25 7 26 6 27 5 28 4 29 3 30 2 31 1 32
REMARK H PARENT
REMARK Flexibility Score: inf
ROOT
ATOM      1  C   UNL     1      11.217   3.802  29.358  1.00  0.00     0.000 C 
ENDROOT
BRANCH   1   2
ATOM      2  C   UNL     1      11.200   2.520  30.202  1.00  0.00     0.000 C 
BRANCH   2   3
ATOM      3  C   UNL     1      12.623   2.082  30.565  1.00  0.00     0.000 C 
BRANCH   3   4
ATOM      4  C   UNL     1      13.442   3.258  31.111  1.00  0.00     0.000 C 
BRANCH   4   5
ATOM      5  C   UNL     1      14.937   3.071  30.815  1.00  0.00     0.000 C 
BRANCH   5   6
ATOM      6  C   UNL     1      15.496   4.152  29.877  1.00  0.00     0.000 C 
BRANCH   6   7
ATOM      7  C   UNL     1      14.782   5.502  30.039  1.00  0.00     0.000 C 
BRANCH   7   8
ATOM      8  C   UNL     1      14.076   5.908  28.737  1.00  0.00     0.000 C 
BRANCH   8   9
ATOM      9  C   UNL     1      14.845   5.470  27.477  1.00  0.00     0.000 C 
BRANCH   9  10
ATOM     10  C   UNL     1      14.036   4.616  26.478  1.00  0.00     0.000 C 
BRANCH  10  11
ATOM     11  C   UNL     1      14.624   3.225  26.184  1.00  0.00     0.000 C 
BRANCH  11  12
ATOM     12  C   UNL     1      14.016   2.122  27.068  1.00  0.00     0.000 C 
BRANCH  12  13
ATOM     13  C   UNL     1      15.079   1.177  27.661  1.00  0.00     0.006 C 
BRANCH  13  14
ATOM     14  C   UNL     1      14.498  -0.128  28.235  1.00  0.00     0.053 C 
BRANCH  14  15
ATOM     15  C   UNL     1      15.320  -0.682  29.357  1.00  0.00     0.041 C 
ATOM     16  O   UNL     1      14.923  -0.573  30.547  1.00  0.00    -0.550 OA
ATOM     17  O   UNL     1      16.522  -1.326  29.089  1.00  0.00    -0.550 OA
ENDBRANCH  14  15
ENDBRANCH  13  14
ENDBRANCH  12  13
ENDBRANCH  11  12
ENDBRANCH  10  11
ENDBRANCH   9  10
ENDBRANCH   8   9
ENDBRANCH   7   8
ENDBRANCH   6   7
ENDBRANCH   5   6
ENDBRANCH   4   5
ENDBRANCH   3   4
ENDBRANCH   2   3
ENDBRANCH   1   2
BRANCH   1  18
ATOM     18  C   UNL     1      10.860   3.551  27.881  1.00  0.00     0.000 C 
BRANCH  18  19
ATOM     19  C   UNL     1       9.350   3.437  27.586  1.00  0.00     0.000 C 
BRANCH  19  20
ATOM     20  C   UNL     1       8.456   4.418  28.369  1.00  0.00     0.000 C 
BRANCH  20  21
ATOM     21  C   UNL     1       7.257   4.979  27.579  1.00  0.00     0.000 C 
BRANCH  21  22
ATOM     22  C   UNL     1       7.472   6.385  26.985  1.00  0.00     0.000 C 
BRANCH  22  23
ATOM     23  C   UNL     1       8.331   6.427  25.705  1.00  0.00     0.000 C 
BRANCH  23  24
ATOM     24  C   UNL     1       9.524   7.402  25.753  1.00  0.00    -0.000 C 
BRANCH  24  25
ATOM     25  C   UNL     1      10.761   6.881  26.510  1.00  0.00    -0.000 C 
BRANCH  25  26
ATOM     26  C   UNL     1      11.185   7.733  27.722  1.00  0.00    -0.000 C 
BRANCH  26  27
ATOM     27  C   UNL     1      10.424   7.434  29.030  1.00  0.00    -0.000 C 
BRANCH  27  28
ATOM     28  C   UNL     1       9.341   8.461  29.409  1.00  0.00    -0.000 C 
BRANCH  28  29
ATOM     29  C   UNL     1       9.562   9.834  28.752  1.00  0.00    -0.000 C 
BRANCH  29  30
ATOM     30  C   UNL     1       8.434  10.221  27.776  1.00  0.00    -0.000 C 
BRANCH  30  31
ATOM     31  C   UNL     1       7.046  10.387  28.418  1.00  0.00    -0.003 C 
ATOM     32  C   UNL     1       5.936   9.681  27.641  1.00  0.00     0.004 C 
ENDBRANCH  30  31
ENDBRANCH  29  30
ENDBRANCH  28  29
ENDBRANCH  27  28
ENDBRANCH  26  27
ENDBRANCH  25  26
ENDBRANCH  24  25
ENDBRANCH  23  24
ENDBRANCH  22  23
ENDBRANCH  21  22
ENDBRANCH  20  21
ENDBRANCH  19  20
ENDBRANCH  18  19
ENDBRANCH   1  18
TORSDOF 28
ENDMDL
MODEL 6
REMARK VINA RESULT:    -4.206      4.086      8.878
REMARK INTER + INTRA:         -16.516
REMARK INTER:                 -11.391
REMARK INTRA:                  -5.125
REMARK UNBOUND:                -5.426
REMARK SMILES CCCCCCCCCCCCCCCCCCCCCCCCCCCCCC(=O)[O-]
REMARK SMILES IDX 16 1 17 2 18 3 19 4 20 5 21 6 22 7 23 8 24 9 25 10 26 11
REMARK SMILES IDX 27 12 28 13 29 14 30 15 31 16 32 17 15 18 14 19 13 20 12 21
REMARK SMILES IDX 11 22 10 23 9 24 8 25 7 26 6 27 5 28 4 29 3 30 2 31 1 32
REMARK H PARENT
REMARK Flexibility Score: inf
ROOT
ATOM      1  C   UNL     1      11.136   3.347  27.633  1.00  0.00     0.000 C 
ENDROOT
BRANCH   1   2
ATOM      2  C   UNL     1      11.507   4.045  28.949  1.00  0.00     0.000 C 
BRANCH   2   3
ATOM      3  C   UNL     1      13.024   4.242  29.058  1.00  0.00     0.000 C 
BRANCH   3   4
ATOM      4  C   UNL     1      13.412   5.703  28.805  1.00  0.00     0.000 C 
BRANCH   4   5
ATOM      5  C   UNL     1      14.322   5.825  27.574  1.00  0.00     0.000 C 
BRANCH   5   6
ATOM      6  C   UNL     1      14.910   4.475  27.136  1.00  0.00     0.000 C 
BRANCH   6   7
ATOM      7  C   UNL     1      16.420   4.548  26.860  1.00  0.00     0.000 C 
BRANCH   7   8
ATOM      8  C   UNL     1      17.218   4.502  28.171  1.00  0.00     0.000 C 
BRANCH   8   9
ATOM      9  C   UNL     1      16.742   3.390  29.125  1.00  0.00     0.000 C 
BRANCH   9  10
ATOM     10  C   UNL     1      16.398   3.856  30.555  1.00  0.00     0.000 C 
BRANCH  10  11
ATOM     11  C   UNL     1      16.411   5.379  30.766  1.00  0.00     0.000 C 
BRANCH  11  12
ATOM     12  C   UNL     1      17.473   5.831  31.783  1.00  0.00     0.000 C 
BRANCH  12  13
ATOM     13  C   UNL     1      18.869   6.004  31.153  1.00  0.00     0.006 C 
BRANCH  13  14
ATOM     14  C   UNL     1      20.026   5.844  32.155  1.00  0.00     0.053 C 
BRANCH  14  15
ATOM     15  C   UNL     1      20.494   4.427  32.276  1.00  0.00     0.041 C 
ATOM     16  O   UNL     1      21.395   4.126  33.104  1.00  0.00    -0.550 OA
ATOM     17  O   UNL     1      19.933   3.437  31.480  1.00  0.00    -0.550 OA
ENDBRANCH  14  15
ENDBRANCH  13  14
ENDBRANCH  12  13
ENDBRANCH  11  12
ENDBRANCH  10  11
ENDBRANCH   9  10
ENDBRANCH   8   9
ENDBRANCH   7   8
ENDBRANCH   6   7
ENDBRANCH   5   6
ENDBRANCH   4   5
ENDBRANCH   3   4
ENDBRANCH   2   3
ENDBRANCH   1   2
BRANCH   1  18
ATOM     18  C   UNL     1       9.638   3.459  27.298  1.00  0.00     0.000 C 
BRANCH  18  19
ATOM     19  C   UNL     1       8.829   4.386  28.228  1.00  0.00     0.000 C 
BRANCH  19  20
ATOM     20  C   UNL     1       7.449   4.809  27.687  1.00  0.00     0.000 C 
BRANCH  20  21
ATOM     21  C   UNL     1       7.009   6.236  28.070  1.00  0.00     0.000 C 
BRANCH  21  22
ATOM     22  C   UNL     1       6.786   7.187  26.878  1.00  0.00     0.000 C 
BRANCH  22  23
ATOM     23  C   UNL     1       6.520   8.658  27.260  1.00  0.00     0.000 C 
BRANCH  23  24
ATOM     24  C   UNL     1       5.907   8.867  28.659  1.00  0.00    -0.000 C 
BRANCH  24  25
ATOM     25  C   UNL     1       6.805   9.625  29.656  1.00  0.00    -0.000 C 
BRANCH  25  26
ATOM     26  C   UNL     1       7.951  10.430  29.013  1.00  0.00    -0.000 C 
BRANCH  26  27
ATOM     27  C   UNL     1       9.371   9.966  29.397  1.00  0.00    -0.000 C 
BRANCH  27  28
ATOM     28  C   UNL     1       9.453   8.578  30.057  1.00  0.00    -0.000 C 
BRANCH  28  29
ATOM     29  C   UNL     1      10.224   7.554  29.206  1.00  0.00    -0.000 C 
BRANCH  29  30
ATOM     30  C   UNL     1      10.833   8.171  27.933  1.00  0.00    -0.000 C 
BRANCH  30  31
ATOM     31  C   UNL     1      10.864   7.239  26.709  1.00  0.00    -0.003 C 
ATOM     32  C   UNL     1       9.941   7.698  25.581  1.00  0.00     0.004 C 
ENDBRANCH  30  31
ENDBRANCH  29  30
ENDBRANCH  28  29
ENDBRANCH  27  28
ENDBRANCH  26  27
ENDBRANCH  25  26
ENDBRANCH  24  25
ENDBRANCH  23  24
ENDBRANCH  22  23
ENDBRANCH  21  22
ENDBRANCH  20  21
ENDBRANCH  19  20
ENDBRANCH  18  19
ENDBRANCH   1  18
TORSDOF 28
ENDMDL
MODEL 7
REMARK VINA RESULT:    -4.198      2.477      4.882
REMARK INTER + INTRA:         -16.495
REMARK INTER:                 -12.253
REMARK INTRA:                  -4.242
REMARK UNBOUND:                -5.426
REMARK SMILES CCCCCCCCCCCCCCCCCCCCCCCCCCCCCC(=O)[O-]
REMARK SMILES IDX 16 1 17 2 18 3 19 4 20 5 21 6 22 7 23 8 24 9 25 10 26 11
REMARK SMILES IDX 27 12 28 13 29 14 30 15 31 16 32 17 15 18 14 19 13 20 12 21
REMARK SMILES IDX 11 22 10 23 9 24 8 25 7 26 6 27 5 28 4 29 3 30 2 31 1 32
REMARK H PARENT
REMARK Flexibility Score: inf
ROOT
ATOM      1  C   UNL     1      11.009   3.270  27.643  1.00  0.00     0.000 C 
ENDROOT
BRANCH   1   2
ATOM      2  C   UNL     1       9.552   3.578  27.272  1.00  0.00     0.000 C 
BRANCH   2   3
ATOM      3  C   UNL     1       8.977   4.679  28.170  1.00  0.00     0.000 C 
BRANCH   3   4
ATOM      4  C   UNL     1       7.463   4.820  27.973  1.00  0.00     0.000 C 
BRANCH   4   5
ATOM      5  C   UNL     1       7.147   5.765  26.804  1.00  0.00     0.000 C 
BRANCH   5   6
ATOM      6  C   UNL     1       6.751   7.174  27.271  1.00  0.00     0.000 C 
BRANCH   6   7
ATOM      7  C   UNL     1       7.447   8.281  26.465  1.00  0.00     0.000 C 
BRANCH   7   8
ATOM      8  C   UNL     1       8.696   7.739  25.756  1.00  0.00     0.000 C 
BRANCH   8   9
ATOM      9  C   UNL     1       9.992   8.439  26.205  1.00  0.00     0.000 C 
BRANCH   9  10
ATOM     10  C   UNL     1      10.723   7.771  27.389  1.00  0.00     0.000 C 
BRANCH  10  11
ATOM     11  C   UNL     1      10.645   8.538  28.720  1.00  0.00     0.000 C 
BRANCH  11  12
ATOM     12  C   UNL     1       9.483   8.067  29.612  1.00  0.00     0.000 C 
BRANCH  12  13
ATOM     13  C   UNL     1       9.427   8.810  30.961  1.00  0.00     0.006 C 
BRANCH  13  14
ATOM     14  C   UNL     1       8.821  10.221  30.867  1.00  0.00     0.053 C 
BRANCH  14  15
ATOM     15  C   UNL     1       7.644  10.286  29.943  1.00  0.00     0.041 C 
ATOM     16  O   UNL     1       7.738  10.884  28.839  1.00  0.00    -0.550 OA
ATOM     17  O   UNL     1       6.446   9.681  30.298  1.00  0.00    -0.550 OA
ENDBRANCH  14  15
ENDBRANCH  13  14
ENDBRANCH  12  13
ENDBRANCH  11  12
ENDBRANCH  10  11
ENDBRANCH   9  10
ENDBRANCH   8   9
ENDBRANCH   7   8
ENDBRANCH   6   7
ENDBRANCH   5   6
ENDBRANCH   4   5
ENDBRANCH   3   4
ENDBRANCH   2   3
ENDBRANCH   1   2
BRANCH   1  18
ATOM     18  C   UNL     1      11.975   4.410  27.273  1.00  0.00     0.000 C 
BRANCH  18  19
ATOM     19  C   UNL     1      12.968   4.811  28.385  1.00  0.00     0.000 C 
BRANCH  19  20
ATOM     20  C   UNL     1      12.426   4.679  29.822  1.00  0.00     0.000 C 
BRANCH  20  21
ATOM     21  C   UNL     1      13.125   3.611  30.686  1.00  0.00     0.000 C 
BRANCH  21  22
ATOM     22  C   UNL     1      12.494   2.207  30.618  1.00  0.00     0.000 C 
BRANCH  22  23
ATOM     23  C   UNL     1      11.090   2.093  31.247  1.00  0.00     0.000 C 
BRANCH  23  24
ATOM     24  C   UNL     1      10.743   0.704  31.819  1.00  0.00    -0.000 C 
BRANCH  24  25
ATOM     25  C   UNL     1      11.736   0.165  32.867  1.00  0.00    -0.000 C 
BRANCH  25  26
ATOM     26  C   UNL     1      11.993   1.106  34.060  1.00  0.00    -0.000 C 
BRANCH  26  27
ATOM     27  C   UNL     1      13.461   1.189  34.524  1.00  0.00    -0.000 C 
BRANCH  27  28
ATOM     28  C   UNL     1      14.265   2.373  33.954  1.00  0.00    -0.000 C 
BRANCH  28  29
ATOM     29  C   UNL     1      14.217   3.618  34.857  1.00  0.00    -0.000 C 
BRANCH  29  30
ATOM     30  C   UNL     1      13.983   4.921  34.070  1.00  0.00    -0.000 C 
BRANCH  30  31
ATOM     31  C   UNL     1      13.419   6.090  34.898  1.00  0.00    -0.003 C 
ATOM     32  C   UNL     1      12.822   5.647  36.232  1.00  0.00     0.004 C 
ENDBRANCH  30  31
ENDBRANCH  29  30
ENDBRANCH  28  29
ENDBRANCH  27  28
ENDBRANCH  26  27
ENDBRANCH  25  26
ENDBRANCH  24  25
ENDBRANCH  23  24
ENDBRANCH  22  23
ENDBRANCH  21  22
ENDBRANCH  20  21
ENDBRANCH  19  20
ENDBRANCH  18  19
ENDBRANCH   1  18
TORSDOF 28
ENDMDL
MODEL 8
REMARK VINA RESULT:    -4.172      3.460      8.312
REMARK INTER + INTRA:         -16.426
REMARK INTER:                 -12.145
REMARK INTRA:                  -4.281
REMARK UNBOUND:                -5.426
REMARK SMILES CCCCCCCCCCCCCCCCCCCCCCCCCCCCCC(=O)[O-]
REMARK SMILES IDX 16 1 17 2 18 3 19 4 20 5 21 6 22 7 23 8 24 9 25 10 26 11
REMARK SMILES IDX 27 12 28 13 29 14 30 15 31 16 32 17 15 18 14 19 13 20 12 21
REMARK SMILES IDX 11 22 10 23 9 24 8 25 7 26 6 27 5 28 4 29 3 30 2 31 1 32
REMARK H PARENT
REMARK Flexibility Score: inf
ROOT
ATOM      1  C   UNL     1      10.930   4.566  28.273  1.00  0.00     0.000 C 
ENDROOT
BRANCH   1   2
ATOM      2  C   UNL     1      11.208   6.015  28.696  1.00  0.00     0.000 C 
BRANCH   2   3
ATOM      3  C   UNL     1      12.658   6.407  28.391  1.00  0.00     0.000 C 
BRANCH   3   4
ATOM      4  C   UNL     1      12.923   6.415  26.880  1.00  0.00     0.000 C 
BRANCH   4   5
ATOM      5  C   UNL     1      13.978   5.365  26.502  1.00  0.00     0.000 C 
BRANCH   5   6
ATOM      6  C   UNL     1      14.493   4.577  27.717  1.00  0.00     0.000 C 
BRANCH   6   7
ATOM      7  C   UNL     1      14.152   3.082  27.639  1.00  0.00     0.000 C 
BRANCH   7   8
ATOM      8  C   UNL     1      14.014   2.478  29.044  1.00  0.00     0.000 C 
BRANCH   8   9
ATOM      9  C   UNL     1      14.197   3.519  30.164  1.00  0.00     0.000 C 
BRANCH   9  10
ATOM     10  C   UNL     1      12.958   3.750  31.055  1.00  0.00     0.000 C 
BRANCH  10  11
ATOM     11  C   UNL     1      12.549   2.549  31.926  1.00  0.00     0.000 C 
BRANCH  11  12
ATOM     12  C   UNL     1      11.278   1.849  31.417  1.00  0.00     0.000 C 
BRANCH  12  13
ATOM     13  C   UNL     1      11.121   0.419  31.969  1.00  0.00     0.006 C 
BRANCH  13  14
ATOM     14  C   UNL     1      12.060   0.102  33.146  1.00  0.00     0.053 C 
BRANCH  14  15
ATOM     15  C   UNL     1      12.527  -1.321  33.147  1.00  0.00     0.041 C 
ATOM     16  O   UNL     1      12.360  -2.042  34.166  1.00  0.00    -0.550 OA
ATOM     17  O   UNL     1      13.142  -1.853  32.021  1.00  0.00    -0.550 OA
ENDBRANCH  14  15
ENDBRANCH  13  14
ENDBRANCH  12  13
ENDBRANCH  11  12
ENDBRANCH  10  11
ENDBRANCH   9  10
ENDBRANCH   8   9
ENDBRANCH   7   8
ENDBRANCH   6   7
ENDBRANCH   5   6
ENDBRANCH   4   5
ENDBRANCH   3   4
ENDBRANCH   2   3
ENDBRANCH   1   2
BRANCH   1  18
ATOM     18  C   UNL     1       9.736   4.442  27.310  1.00  0.00     0.000 C 
BRANCH  18  19
ATOM     19  C   UNL     1       8.372   4.200  27.989  1.00  0.00     0.000 C 
BRANCH  19  20
ATOM     20  C   UNL     1       7.623   5.476  28.424  1.00  0.00     0.000 C 
BRANCH  20  21
ATOM     21  C   UNL     1       6.729   6.106  27.338  1.00  0.00     0.000 C 
BRANCH  21  22
ATOM     22  C   UNL     1       6.419   7.603  27.541  1.00  0.00     0.000 C 
BRANCH  22  23
ATOM     23  C   UNL     1       7.135   8.554  26.560  1.00  0.00     0.000 C 
BRANCH  23  24
ATOM     24  C   UNL     1       8.359   7.950  25.843  1.00  0.00    -0.000 C 
BRANCH  24  25
ATOM     25  C   UNL     1       9.721   8.300  26.475  1.00  0.00    -0.000 C 
BRANCH  25  26
ATOM     26  C   UNL     1       9.749   9.624  27.262  1.00  0.00    -0.000 C 
BRANCH  26  27
ATOM     27  C   UNL     1       9.829   9.472  28.795  1.00  0.00    -0.000 C 
BRANCH  27  28
ATOM     28  C   UNL     1       8.907  10.410  29.597  1.00  0.00    -0.000 C 
BRANCH  28  29
ATOM     29  C   UNL     1       7.856   9.651  30.425  1.00  0.00    -0.000 C 
BRANCH  29  30
ATOM     30  C   UNL     1       6.412  10.058  30.078  1.00  0.00    -0.000 C 
BRANCH  30  31
ATOM     31  C   UNL     1       5.340   9.559  31.064  1.00  0.00    -0.003 C 
ATOM     32  C   UNL     1       3.934   9.547  30.466  1.00  0.00     0.004 C 
ENDBRANCH  30  31
ENDBRANCH  29  30
ENDBRANCH  28  29
ENDBRANCH  27  28
ENDBRANCH  26  27
ENDBRANCH  25  26
ENDBRANCH  24  25
ENDBRANCH  23  24
ENDBRANCH  22  23
ENDBRANCH  21  22
ENDBRANCH  20  21
ENDBRANCH  19  20
ENDBRANCH  18  19
ENDBRANCH   1  18
TORSDOF 28
ENDMDL
MODEL 9
REMARK VINA RESULT:    -4.172      2.469      7.598
REMARK INTER + INTRA:         -16.426
REMARK INTER:                 -12.016
REMARK INTRA:                  -4.410
REMARK UNBOUND:                -5.426
REMARK SMILES CCCCCCCCCCCCCCCCCCCCCCCCCCCCCC(=O)[O-]
REMARK SMILES IDX 16 1 17 2 18 3 19 4 20 5 21 6 22 7 23 8 24 9 25 10 26 11
REMARK SMILES IDX 27 12 28 13 29 14 30 15 31 16 32 17 15 18 14 19 13 20 12 21
REMARK SMILES IDX 11 22 10 23 9 24 8 25 7 26 6 27 5 28 4 29 3 30 2 31 1 32
REMARK H PARENT
REMARK Flexibility Score: inf
ROOT
ATOM      1  C   UNL     1      11.384   4.457  28.178  1.00  0.00     0.000 C 
ENDROOT
BRANCH   1   2
ATOM      2  C   UNL     1      11.819   5.633  29.064  1.00  0.00     0.000 C 
BRANCH   2   3
ATOM      3  C   UNL     1      13.077   6.306  28.504  1.00  0.00     0.000 C 
BRANCH   3   4
ATOM      4  C   UNL     1      12.882   6.711  27.037  1.00  0.00     0.000 C 
BRANCH   4   5
ATOM      5  C   UNL     1      13.969   6.091  26.147  1.00  0.00     0.000 C 
BRANCH   5   6
ATOM      6  C   UNL     1      15.070   5.390  26.957  1.00  0.00     0.000 C 
BRANCH   6   7
ATOM      7  C   UNL     1      14.882   3.866  27.014  1.00  0.00     0.000 C 
BRANCH   7   8
ATOM      8  C   UNL     1      15.548   3.279  28.266  1.00  0.00     0.000 C 
BRANCH   8   9
ATOM      9  C   UNL     1      16.041   4.360  29.246  1.00  0.00     0.000 C 
BRANCH   9  10
ATOM     10  C   UNL     1      15.269   4.437  30.581  1.00  0.00     0.000 C 
BRANCH  10  11
ATOM     11  C   UNL     1      15.735   3.446  31.661  1.00  0.00     0.000 C 
BRANCH  11  12
ATOM     12  C   UNL     1      14.574   2.898  32.509  1.00  0.00     0.000 C 
BRANCH  12  13
ATOM     13  C   UNL     1      13.194   3.168  31.878  1.00  0.00     0.006 C 
BRANCH  13  14
ATOM     14  C   UNL     1      12.577   1.939  31.189  1.00  0.00     0.053 C 
BRANCH  14  15
ATOM     15  C   UNL     1      11.105   1.814  31.438  1.00  0.00     0.041 C 
ATOM     16  O   UNL     1      10.280   2.150  30.547  1.00  0.00    -0.550 OA
ATOM     17  O   UNL     1      10.644   1.321  32.652  1.00  0.00    -0.550 OA
ENDBRANCH  14  15
ENDBRANCH  13  14
ENDBRANCH  12  13
ENDBRANCH  11  12
ENDBRANCH  10  11
ENDBRANCH   9  10
ENDBRANCH   8   9
ENDBRANCH   7   8
ENDBRANCH   6   7
ENDBRANCH   5   6
ENDBRANCH   4   5
ENDBRANCH   3   4
ENDBRANCH   2   3
ENDBRANCH   1   2
BRANCH   1  18
ATOM     18  C   UNL     1      10.182   4.797  27.279  1.00  0.00     0.000 C 
BRANCH  18  19
ATOM     19  C   UNL     1       8.900   3.988  27.569  1.00  0.00     0.000 C 
BRANCH  19  20
ATOM     20  C   UNL     1       7.713   4.814  28.102  1.00  0.00     0.000 C 
BRANCH  20  21
ATOM     21  C   UNL     1       7.013   5.699  27.052  1.00  0.00     0.000 C 
BRANCH  21  22
ATOM     22  C   UNL     1       6.681   7.128  27.524  1.00  0.00     0.000 C 
BRANCH  22  23
ATOM     23  C   UNL     1       7.235   8.255  26.630  1.00  0.00     0.000 C 
BRANCH  23  24
ATOM     24  C   UNL     1       8.472   7.873  25.792  1.00  0.00    -0.000 C 
BRANCH  24  25
ATOM     25  C   UNL     1       9.810   8.426  26.319  1.00  0.00    -0.000 C 
BRANCH  25  26
ATOM     26  C   UNL     1       9.691   9.354  27.544  1.00  0.00    -0.000 C 
BRANCH  26  27
ATOM     27  C   UNL     1      10.293   8.796  28.849  1.00  0.00    -0.000 C 
BRANCH  27  28
ATOM     28  C   UNL     1       9.272   8.461  29.952  1.00  0.00    -0.000 C 
BRANCH  28  29
ATOM     29  C   UNL     1       8.781   9.705  30.711  1.00  0.00    -0.000 C 
BRANCH  29  30
ATOM     30  C   UNL     1       7.281   9.983  30.500  1.00  0.00    -0.000 C 
BRANCH  30  31
ATOM     31  C   UNL     1       6.582  10.707  31.665  1.00  0.00    -0.003 C 
ATOM     32  C   UNL     1       5.118  10.302  31.831  1.00  0.00     0.004 C 
ENDBRANCH  30  31
ENDBRANCH  29  30
ENDBRANCH  28  29
ENDBRANCH  27  28
ENDBRANCH  26  27
ENDBRANCH  25  26
ENDBRANCH  24  25
ENDBRANCH  23  24
ENDBRANCH  22  23
ENDBRANCH  21  22
ENDBRANCH  20  21
ENDBRANCH  19  20
ENDBRANCH  18  19
ENDBRANCH   1  18
TORSDOF 28
ENDMDL
