MODEL 1
REMARK VINA RESULT:    -5.118      0.000      0.000
REMARK INTER + INTRA:          -5.860
REMARK INTER:                  -5.716
REMARK INTRA:                  -0.144
REMARK UNBOUND:                -0.144
REMARK SMILES COc1cc2ccc(=O)oc2cc1OC
REMARK SMILES IDX 3 1 13 2 12 3 11 4 5 5 4 6 6 7 7 8 8 9 9 10 10 11 2 12 1 13
REMARK SMILES IDX 14 14 15 15
REMARK H PARENT
REMARK Flexibility Score: inf
ROOT
ATOM      1  C   UNL     1      19.718  25.864  39.451  1.00  0.00     0.161 A 
ATOM      2  C   UNL     1      19.279  25.734  38.122  1.00  0.00     0.164 A 
ATOM      3  C   UNL     1      19.341  24.479  37.484  1.00  0.00     0.098 A 
ATOM      4  C   UNL     1      19.836  23.364  38.164  1.00  0.00     0.142 A 
ATOM      5  C   UNL     1      20.277  23.494  39.497  1.00  0.00     0.022 A 
ATOM      6  C   UNL     1      20.217  24.739  40.136  1.00  0.00     0.062 A 
ATOM      7  C   UNL     1      20.769  22.359  40.150  1.00  0.00     0.019 A 
ATOM      8  C   UNL     1      20.808  21.141  39.472  1.00  0.00     0.094 A 
ATOM      9  C   UNL     1      20.354  21.088  38.150  1.00  0.00     0.336 A 
ATOM     10  O   UNL     1      20.381  19.999  37.519  1.00  0.00    -0.246 OA
ATOM     11  O   UNL     1      19.892  22.183  37.552  1.00  0.00    -0.423 OA
ENDROOT
BRANCH   1  12
ATOM     12  O   UNL     1      19.641  27.129  40.055  1.00  0.00    -0.493 OA
ATOM     13  C   UNL     1      20.765  27.876  40.511  1.00  0.00     0.278 C 
ENDBRANCH   1  12
BRANCH   2  14
ATOM     14  O   UNL     1      18.787  26.876  37.470  1.00  0.00    -0.493 OA
ATOM     15  C   UNL     1      19.449  27.543  36.400  1.00  0.00     0.278 C 
ENDBRANCH   2  14
TORSDOF 2
ENDMDL
MODEL 2
REMARK VINA RESULT:    -4.814      3.969      5.245
REMARK INTER + INTRA:          -5.521
REMARK INTER:                  -5.354
REMARK INTRA:                  -0.166
REMARK UNBOUND:                -0.144
REMARK SMILES COc1cc2ccc(=O)oc2cc1OC
REMARK SMILES IDX 3 1 13 2 12 3 11 4 5 5 4 6 6 7 7 8 8 9 9 10 10 11 2 12 1 13
REMARK SMILES IDX 14 14 15 15
REMARK H PARENT
REMARK Flexibility Score: inf
ROOT
ATOM      1  C   UNL     1      17.838  26.565  43.488  1.00  0.00     0.161 A 
ATOM      2  C   UNL     1      17.271  25.301  43.724  1.00  0.00     0.164 A 
ATOM      3  C   UNL     1      17.686  24.194  42.957  1.00  0.00     0.098 A 
ATOM      4  C   UNL     1      18.657  24.346  41.964  1.00  0.00     0.142 A 
ATOM      5  C   UNL     1      19.225  25.614  41.727  1.00  0.00     0.022 A 
ATOM      6  C   UNL     1      18.817  26.717  42.486  1.00  0.00     0.062 A 
ATOM      7  C   UNL     1      20.194  25.733  40.724  1.00  0.00     0.019 A 
ATOM      8  C   UNL     1      20.568  24.605  39.995  1.00  0.00     0.094 A 
ATOM      9  C   UNL     1      19.961  23.379  40.286  1.00  0.00     0.336 A 
ATOM     10  O   UNL     1      20.283  22.348  39.639  1.00  0.00    -0.246 OA
ATOM     11  O   UNL     1      19.041  23.294  41.245  1.00  0.00    -0.423 OA
ENDROOT
BRANCH   1  12
ATOM     12  O   UNL     1      17.401  27.645  44.271  1.00  0.00    -0.493 OA
ATOM     13  C   UNL     1      18.110  28.171  45.390  1.00  0.00     0.278 C 
ENDBRANCH   1  12
BRANCH   2  14
ATOM     14  O   UNL     1      16.299  25.185  44.731  1.00  0.00    -0.493 OA
ATOM     15  C   UNL     1      16.540  24.645  46.026  1.00  0.00     0.278 C 
ENDBRANCH   2  14
TORSDOF 2
ENDMDL
MODEL 3
REMARK VINA RESULT:    -4.739      4.564      6.927
REMARK INTER + INTRA:          -5.437
REMARK INTER:                  -5.274
REMARK INTRA:                  -0.164
REMARK UNBOUND:                -0.144
REMARK SMILES COc1cc2ccc(=O)oc2cc1OC
REMARK SMILES IDX 3 1 13 2 12 3 11 4 5 5 4 6 6 7 7 8 8 9 9 10 10 11 2 12 1 13
REMARK SMILES IDX 14 14 15 15
REMARK H PARENT
REMARK Flexibility Score: inf
ROOT
ATOM      1  C   UNL     1      17.484  24.976  43.859  1.00  0.00     0.161 A 
ATOM      2  C   UNL     1      18.079  25.798  44.832  1.00  0.00     0.164 A 
ATOM      3  C   UNL     1      19.139  26.654  44.471  1.00  0.00     0.098 A 
ATOM      4  C   UNL     1      19.601  26.690  43.154  1.00  0.00     0.142 A 
ATOM      5  C   UNL     1      19.005  25.866  42.178  1.00  0.00     0.022 A 
ATOM      6  C   UNL     1      17.951  25.013  42.531  1.00  0.00     0.062 A 
ATOM      7  C   UNL     1      19.492  25.924  40.867  1.00  0.00     0.019 A 
ATOM      8  C   UNL     1      20.543  26.789  40.565  1.00  0.00     0.094 A 
ATOM      9  C   UNL     1      21.086  27.578  41.585  1.00  0.00     0.336 A 
ATOM     10  O   UNL     1      22.035  28.365  41.335  1.00  0.00    -0.246 OA
ATOM     11  O   UNL     1      20.604  27.502  42.824  1.00  0.00    -0.423 OA
ENDROOT
BRANCH   1  12
ATOM     12  O   UNL     1      16.430  24.137  44.254  1.00  0.00    -0.493 OA
ATOM     13  C   UNL     1      15.050  24.415  44.036  1.00  0.00     0.278 C 
ENDBRANCH   1  12
BRANCH   2  14
ATOM     14  O   UNL     1      17.587  25.736  46.145  1.00  0.00    -0.493 OA
ATOM     15  C   UNL     1      16.667  26.667  46.708  1.00  0.00     0.278 C 
ENDBRANCH   2  14
TORSDOF 2
ENDMDL
MODEL 4
REMARK VINA RESULT:    -4.676      3.947      6.304
REMARK INTER + INTRA:          -5.367
REMARK INTER:                  -5.249
REMARK INTRA:                  -0.117
REMARK UNBOUND:                -0.144
REMARK SMILES COc1cc2ccc(=O)oc2cc1OC
REMARK SMILES IDX 3 1 13 2 12 3 11 4 5 5 4 6 6 7 7 8 8 9 9 10 10 11 2 12 1 13
REMARK SMILES IDX 14 14 15 15
REMARK H PARENT
REMARK Flexibility Score: inf
ROOT
ATOM      1  C   UNL     1      19.067  24.629  41.243  1.00  0.00     0.161 A 
ATOM      2  C   UNL     1      19.579  25.938  41.229  1.00  0.00     0.164 A 
ATOM      3  C   UNL     1      19.289  26.814  42.294  1.00  0.00     0.098 A 
ATOM      4  C   UNL     1      18.495  26.390  43.363  1.00  0.00     0.142 A 
ATOM      5  C   UNL     1      17.981  25.078  43.376  1.00  0.00     0.022 A 
ATOM      6  C   UNL     1      18.266  24.202  42.321  1.00  0.00     0.062 A 
ATOM      7  C   UNL     1      17.188  24.684  44.460  1.00  0.00     0.019 A 
ATOM      8  C   UNL     1      16.932  25.591  45.487  1.00  0.00     0.094 A 
ATOM      9  C   UNL     1      17.476  26.877  45.405  1.00  0.00     0.336 A 
ATOM     10  O   UNL     1      17.257  27.713  46.321  1.00  0.00    -0.246 OA
ATOM     11  O   UNL     1      18.226  27.227  44.363  1.00  0.00    -0.423 OA
ENDROOT
BRANCH   1  12
ATOM     12  O   UNL     1      19.377  23.783  40.167  1.00  0.00    -0.493 OA
ATOM     13  C   UNL     1      20.394  22.785  40.190  1.00  0.00     0.278 C 
ENDBRANCH   1  12
BRANCH   2  14
ATOM     14  O   UNL     1      20.374  26.329  40.140  1.00  0.00    -0.493 OA
ATOM     15  C   UNL     1      20.513  27.671  39.683  1.00  0.00     0.278 C 
ENDBRANCH   2  14
TORSDOF 2
ENDMDL
MODEL 5
REMARK VINA RESULT:    -4.671      7.130      8.113
REMARK INTER + INTRA:          -5.361
REMARK INTER:                  -5.201
REMARK INTRA:                  -0.160
REMARK UNBOUND:                -0.144
REMARK SMILES COc1cc2ccc(=O)oc2cc1OC
REMARK SMILES IDX 3 1 13 2 12 3 11 4 5 5 4 6 6 7 7 8 8 9 9 10 10 11 2 12 1 13
REMARK SMILES IDX 14 14 15 15
REMARK H PARENT
REMARK Flexibility Score: inf
ROOT
ATOM      1  C   UNL     1      16.528  22.375  43.569  1.00  0.00     0.161 A 
ATOM      2  C   UNL     1      16.477  22.981  44.837  1.00  0.00     0.164 A 
ATOM      3  C   UNL     1      16.635  22.194  45.995  1.00  0.00     0.098 A 
ATOM      4  C   UNL     1      16.842  20.816  45.891  1.00  0.00     0.142 A 
ATOM      5  C   UNL     1      16.892  20.209  44.620  1.00  0.00     0.022 A 
ATOM      6  C   UNL     1      16.736  20.986  43.466  1.00  0.00     0.062 A 
ATOM      7  C   UNL     1      17.100  18.826  44.549  1.00  0.00     0.019 A 
ATOM      8  C   UNL     1      17.251  18.095  45.727  1.00  0.00     0.094 A 
ATOM      9  C   UNL     1      17.189  18.766  46.953  1.00  0.00     0.336 A 
ATOM     10  O   UNL     1      17.322  18.126  48.028  1.00  0.00    -0.246 OA
ATOM     11  O   UNL     1      16.990  20.082  46.992  1.00  0.00    -0.423 OA
ENDROOT
BRANCH   1  12
ATOM     12  O   UNL     1      16.366  23.190  42.438  1.00  0.00    -0.493 OA
ATOM     13  C   UNL     1      17.439  23.717  41.662  1.00  0.00     0.278 C 
ENDBRANCH   1  12
BRANCH   2  14
ATOM     14  O   UNL     1      16.268  24.367  44.903  1.00  0.00    -0.493 OA
ATOM     15  C   UNL     1      17.278  25.321  45.221  1.00  0.00     0.278 C 
ENDBRANCH   2  14
TORSDOF 2
ENDMDL
MODEL 6
REMARK VINA RESULT:    -4.658      6.479      7.474
REMARK INTER + INTRA:          -5.346
REMARK INTER:                  -5.186
REMARK INTRA:                  -0.160
REMARK UNBOUND:                -0.144
REMARK SMILES COc1cc2ccc(=O)oc2cc1OC
REMARK SMILES IDX 3 1 13 2 12 3 11 4 5 5 4 6 6 7 7 8 8 9 9 10 10 11 2 12 1 13
REMARK SMILES IDX 14 14 15 15
REMARK H PARENT
REMARK Flexibility Score: inf
ROOT
ATOM      1  C   UNL     1      17.758  24.758  44.277  1.00  0.00     0.161 A 
ATOM      2  C   UNL     1      17.497  24.765  45.658  1.00  0.00     0.164 A 
ATOM      3  C   UNL     1      17.167  23.562  46.314  1.00  0.00     0.098 A 
ATOM      4  C   UNL     1      17.098  22.363  45.600  1.00  0.00     0.142 A 
ATOM      5  C   UNL     1      17.360  22.356  44.215  1.00  0.00     0.022 A 
ATOM      6  C   UNL     1      17.688  23.549  43.558  1.00  0.00     0.062 A 
ATOM      7  C   UNL     1      17.282  21.139  43.528  1.00  0.00     0.019 A 
ATOM      8  C   UNL     1      16.952  19.979  44.226  1.00  0.00     0.094 A 
ATOM      9  C   UNL     1      16.705  20.062  45.600  1.00  0.00     0.336 A 
ATOM     10  O   UNL     1      16.405  19.027  46.250  1.00  0.00    -0.246 OA
ATOM     11  O   UNL     1      16.786  21.233  46.229  1.00  0.00    -0.423 OA
ENDROOT
BRANCH   1  12
ATOM     12  O   UNL     1      18.083  25.975  43.657  1.00  0.00    -0.493 OA
ATOM     13  C   UNL     1      17.180  26.748  42.870  1.00  0.00     0.278 C 
ENDBRANCH   1  12
BRANCH   2  14
ATOM     14  O   UNL     1      17.576  25.988  46.343  1.00  0.00    -0.493 OA
ATOM     15  C   UNL     1      16.457  26.682  46.888  1.00  0.00     0.278 C 
ENDBRANCH   2  14
TORSDOF 2
ENDMDL
MODEL 7
REMARK VINA RESULT:    -4.645      4.187      6.290
REMARK INTER + INTRA:          -5.332
REMARK INTER:                  -5.203
REMARK INTRA:                  -0.129
REMARK UNBOUND:                -0.144
REMARK SMILES COc1cc2ccc(=O)oc2cc1OC
REMARK SMILES IDX 3 1 13 2 12 3 11 4 5 5 4 6 6 7 7 8 8 9 9 10 10 11 2 12 1 13
REMARK SMILES IDX 14 14 15 15
REMARK H PARENT
REMARK Flexibility Score: inf
ROOT
ATOM      1  C   UNL     1      19.698  26.227  41.524  1.00  0.00     0.161 A 
ATOM      2  C   UNL     1      19.043  24.986  41.430  1.00  0.00     0.164 A 
ATOM      3  C   UNL     1      18.166  24.578  42.455  1.00  0.00     0.098 A 
ATOM      4  C   UNL     1      17.943  25.399  43.563  1.00  0.00     0.142 A 
ATOM      5  C   UNL     1      18.599  26.642  43.658  1.00  0.00     0.022 A 
ATOM      6  C   UNL     1      19.472  27.053  42.643  1.00  0.00     0.062 A 
ATOM      7  C   UNL     1      18.355  27.441  44.781  1.00  0.00     0.019 A 
ATOM      8  C   UNL     1      17.478  26.989  45.766  1.00  0.00     0.094 A 
ATOM      9  C   UNL     1      16.862  25.743  45.604  1.00  0.00     0.336 A 
ATOM     10  O   UNL     1      16.067  25.315  46.480  1.00  0.00    -0.246 OA
ATOM     11  O   UNL     1      17.112  25.003  44.525  1.00  0.00    -0.423 OA
ENDROOT
BRANCH   1  12
ATOM     12  O   UNL     1      20.564  26.601  40.486  1.00  0.00    -0.493 OA
ATOM     13  C   UNL     1      20.492  27.835  39.778  1.00  0.00     0.278 C 
ENDBRANCH   1  12
BRANCH   2  14
ATOM     14  O   UNL     1      19.291  24.189  40.302  1.00  0.00    -0.493 OA
ATOM     15  C   UNL     1      20.144  23.048  40.291  1.00  0.00     0.278 C 
ENDBRANCH   2  14
TORSDOF 2
ENDMDL
MODEL 8
REMARK VINA RESULT:    -4.644      6.356      8.528
REMARK INTER + INTRA:          -5.331
REMARK INTER:                  -5.212
REMARK INTRA:                  -0.119
REMARK UNBOUND:                -0.144
REMARK SMILES COc1cc2ccc(=O)oc2cc1OC
REMARK SMILES IDX 3 1 13 2 12 3 11 4 5 5 4 6 6 7 7 8 8 9 9 10 10 11 2 12 1 13
REMARK SMILES IDX 14 14 15 15
REMARK H PARENT
REMARK Flexibility Score: inf
ROOT
ATOM      1  C   UNL     1      17.860  24.961  43.772  1.00  0.00     0.161 A 
ATOM      2  C   UNL     1      18.220  26.320  43.749  1.00  0.00     0.164 A 
ATOM      3  C   UNL     1      17.835  27.164  44.810  1.00  0.00     0.098 A 
ATOM      4  C   UNL     1      17.099  26.658  45.884  1.00  0.00     0.142 A 
ATOM      5  C   UNL     1      16.738  25.296  45.907  1.00  0.00     0.022 A 
ATOM      6  C   UNL     1      17.117  24.452  44.856  1.00  0.00     0.062 A 
ATOM      7  C   UNL     1      15.999  24.820  46.997  1.00  0.00     0.019 A 
ATOM      8  C   UNL     1      15.645  25.698  48.020  1.00  0.00     0.094 A 
ATOM      9  C   UNL     1      16.038  27.037  47.929  1.00  0.00     0.336 A 
ATOM     10  O   UNL     1      15.729  27.848  48.841  1.00  0.00    -0.246 OA
ATOM     11  O   UNL     1      16.740  27.464  46.881  1.00  0.00    -0.423 OA
ENDROOT
BRANCH   1  12
ATOM     12  O   UNL     1      18.261  24.150  42.698  1.00  0.00    -0.493 OA
ATOM     13  C   UNL     1      18.280  22.726  42.725  1.00  0.00     0.278 C 
ENDBRANCH   1  12
BRANCH   2  14
ATOM     14  O   UNL     1      18.961  26.793  42.654  1.00  0.00    -0.493 OA
ATOM     15  C   UNL     1      20.352  27.097  42.692  1.00  0.00     0.278 C 
ENDBRANCH   2  14
TORSDOF 2
ENDMDL
MODEL 9
REMARK VINA RESULT:    -4.598      4.017      5.227
REMARK INTER + INTRA:          -5.279
REMARK INTER:                  -5.172
REMARK INTRA:                  -0.107
REMARK UNBOUND:                -0.144
REMARK SMILES COc1cc2ccc(=O)oc2cc1OC
REMARK SMILES IDX 3 1 13 2 12 3 11 4 5 5 4 6 6 7 7 8 8 9 9 10 10 11 2 12 1 13
REMARK SMILES IDX 14 14 15 15
REMARK H PARENT
REMARK Flexibility Score: inf
ROOT
ATOM      1  C   UNL     1      18.355  26.784  43.199  1.00  0.00     0.161 A 
ATOM      2  C   UNL     1      19.295  26.605  42.170  1.00  0.00     0.164 A 
ATOM      3  C   UNL     1      18.886  26.069  40.933  1.00  0.00     0.098 A 
ATOM      4  C   UNL     1      17.551  25.714  40.723  1.00  0.00     0.142 A 
ATOM      5  C   UNL     1      16.608  25.893  41.755  1.00  0.00     0.022 A 
ATOM      6  C   UNL     1      17.008  26.426  42.986  1.00  0.00     0.062 A 
ATOM      7  C   UNL     1      15.278  25.528  41.513  1.00  0.00     0.019 A 
ATOM      8  C   UNL     1      14.927  25.002  40.271  1.00  0.00     0.094 A 
ATOM      9  C   UNL     1      15.918  24.853  39.295  1.00  0.00     0.336 A 
ATOM     10  O   UNL     1      15.623  24.380  38.166  1.00  0.00    -0.246 OA
ATOM     11  O   UNL     1      17.175  25.208  39.551  1.00  0.00    -0.423 OA
ENDROOT
BRANCH   1  12
ATOM     12  O   UNL     1      18.798  27.321  44.418  1.00  0.00    -0.493 OA
ATOM     13  C   UNL     1      17.978  28.055  45.323  1.00  0.00     0.278 C 
ENDBRANCH   1  12
BRANCH   2  14
ATOM     14  O   UNL     1      20.628  26.973  42.417  1.00  0.00    -0.493 OA
ATOM     15  C   UNL     1      21.506  27.524  41.441  1.00  0.00     0.278 C 
ENDBRANCH   2  14
TORSDOF 2
ENDMDL
