MODEL 1
REMARK VINA RESULT:    -3.073      0.000      0.000
REMARK INTER + INTRA:          -4.547
REMARK INTER:                  -4.151
REMARK INTRA:                  -0.396
REMARK UNBOUND:                -0.396
REMARK SMILES CCCCCCC=CC(=O)[O-]
REMARK SMILES IDX 5 1 6 2 7 3 8 4 9 5 10 6 11 7 4 8 3 9 2 10 1 11
REMARK H PARENT
REMARK Flexibility Score: inf
ROOT
ATOM      1  C   UNL     1      18.661   1.523  25.787  1.00  0.00     0.004 C 
ENDROOT
BRANCH   1   2
ATOM      2  C   UNL     1      17.384   2.036  25.100  1.00  0.00     0.027 C 
BRANCH   2   3
ATOM      3  C   UNL     1      16.705   3.129  25.884  1.00  0.00    -0.025 C 
ATOM      4  C   UNL     1      15.400   3.440  25.841  1.00  0.00     0.020 C 
BRANCH   4   5
ATOM      5  C   UNL     1      14.375   2.820  24.977  1.00  0.00     0.064 C 
ATOM      6  O   UNL     1      13.609   1.950  25.468  1.00  0.00    -0.545 OA
ATOM      7  O   UNL     1      14.202   3.190  23.650  1.00  0.00    -0.545 OA
ENDBRANCH   4   5
ENDBRANCH   2   3
ENDBRANCH   1   2
BRANCH   1   8
ATOM      8  C   UNL     1      19.064   2.322  27.041  1.00  0.00     0.000 C 
BRANCH   8   9
ATOM      9  C   UNL     1      19.075   1.479  28.334  1.00  0.00    -0.000 C 
BRANCH   9  10
ATOM     10  C   UNL     1      19.663   2.248  29.525  1.00  0.00    -0.003 C 
ATOM     11  C   UNL     1      18.802   3.457  29.880  1.00  0.00     0.004 C 
ENDBRANCH   9  10
ENDBRANCH   8   9
ENDBRANCH   1   8
TORSDOF 6
ENDMDL
MODEL 2
REMARK VINA RESULT:    -2.911     15.201     16.324
REMARK INTER + INTRA:          -4.329
REMARK INTER:                  -3.950
REMARK INTRA:                  -0.379
REMARK UNBOUND:                -0.396
REMARK SMILES CCCCCCC=CC(=O)[O-]
REMARK SMILES IDX 5 1 6 2 7 3 8 4 9 5 10 6 11 7 4 8 3 9 2 10 1 11
REMARK H PARENT
REMARK Flexibility Score: inf
ROOT
ATOM      1  C   UNL     1      11.032  15.562  21.935  1.00  0.00     0.004 C 
ENDROOT
BRANCH   1   2
ATOM      2  C   UNL     1      10.909  16.107  23.367  1.00  0.00     0.027 C 
BRANCH   2   3
ATOM      3  C   UNL     1      11.740  17.344  23.589  1.00  0.00    -0.025 C 
ATOM      4  C   UNL     1      12.268  17.744  24.757  1.00  0.00     0.020 C 
BRANCH   4   5
ATOM      5  C   UNL     1      12.094  17.093  26.071  1.00  0.00     0.064 C 
ATOM      6  O   UNL     1      12.707  16.019  26.304  1.00  0.00    -0.545 OA
ATOM      7  O   UNL     1      11.305  17.644  27.073  1.00  0.00    -0.545 OA
ENDBRANCH   4   5
ENDBRANCH   2   3
ENDBRANCH   1   2
BRANCH   1   8
ATOM      8  C   UNL     1      11.193  16.654  20.859  1.00  0.00     0.000 C 
BRANCH   8   9
ATOM      9  C   UNL     1      12.524  16.565  20.083  1.00  0.00    -0.000 C 
BRANCH   9  10
ATOM     10  C   UNL     1      13.503  17.681  20.477  1.00  0.00    -0.003 C 
ATOM     11  C   UNL     1      14.667  17.766  19.494  1.00  0.00     0.004 C 
ENDBRANCH   9  10
ENDBRANCH   8   9
ENDBRANCH   1   8
TORSDOF 6
ENDMDL
MODEL 3
REMARK VINA RESULT:    -2.850     14.657     15.680
REMARK INTER + INTRA:          -4.246
REMARK INTER:                  -3.883
REMARK INTRA:                  -0.363
REMARK UNBOUND:                -0.396
REMARK SMILES CCCCCCC=CC(=O)[O-]
REMARK SMILES IDX 5 1 6 2 7 3 8 4 9 5 10 6 11 7 4 8 3 9 2 10 1 11
REMARK H PARENT
REMARK Flexibility Score: inf
ROOT
ATOM      1  C   UNL     1      11.668  17.211  23.630  1.00  0.00     0.004 C 
ENDROOT
BRANCH   1   2
ATOM      2  C   UNL     1      11.422  17.786  22.225  1.00  0.00     0.027 C 
BRANCH   2   3
ATOM      3  C   UNL     1      12.646  17.718  21.350  1.00  0.00    -0.025 C 
ATOM      4  C   UNL     1      12.847  16.863  20.334  1.00  0.00     0.020 C 
BRANCH   4   5
ATOM      5  C   UNL     1      11.942  15.778  19.904  1.00  0.00     0.064 C 
ATOM      6  O   UNL     1      11.720  14.822  20.692  1.00  0.00    -0.545 OA
ATOM      7  O   UNL     1      11.298  15.793  18.674  1.00  0.00    -0.545 OA
ENDBRANCH   4   5
ENDBRANCH   2   3
ENDBRANCH   1   2
BRANCH   1   8
ATOM      8  C   UNL     1      10.875  15.925  23.930  1.00  0.00     0.000 C 
BRANCH   8   9
ATOM      9  C   UNL     1      10.898  15.518  25.419  1.00  0.00    -0.000 C 
BRANCH   9  10
ATOM     10  C   UNL     1      11.837  16.403  26.250  1.00  0.00    -0.003 C 
ATOM     11  C   UNL     1      11.060  17.207  27.290  1.00  0.00     0.004 C 
ENDBRANCH   9  10
ENDBRANCH   8   9
ENDBRANCH   1   8
TORSDOF 6
ENDMDL
MODEL 4
REMARK VINA RESULT:    -2.576     15.129     16.156
REMARK INTER + INTRA:          -3.876
REMARK INTER:                  -3.730
REMARK INTRA:                  -0.146
REMARK UNBOUND:                -0.396
REMARK SMILES CCCCCCC=CC(=O)[O-]
REMARK SMILES IDX 5 1 6 2 7 3 8 4 9 5 10 6 11 7 4 8 3 9 2 10 1 11
REMARK H PARENT
REMARK Flexibility Score: inf
ROOT
ATOM      1  C   UNL     1      10.972  15.820  22.424  1.00  0.00     0.004 C 
ENDROOT
BRANCH   1   2
ATOM      2  C   UNL     1      11.561  16.602  21.237  1.00  0.00     0.027 C 
BRANCH   2   3
ATOM      3  C   UNL     1      12.569  17.635  21.668  1.00  0.00    -0.025 C 
ATOM      4  C   UNL     1      13.570  18.125  20.920  1.00  0.00     0.020 C 
BRANCH   4   5
ATOM      5  C   UNL     1      13.928  17.711  19.548  1.00  0.00     0.064 C 
ATOM      6  O   UNL     1      15.144  17.650  19.228  1.00  0.00    -0.545 OA
ATOM      7  O   UNL     1      12.971  17.350  18.609  1.00  0.00    -0.545 OA
ENDBRANCH   4   5
ENDBRANCH   2   3
ENDBRANCH   1   2
BRANCH   1   8
ATOM      8  C   UNL     1      10.909  16.625  23.736  1.00  0.00     0.000 C 
BRANCH   8   9
ATOM      9  C   UNL     1      10.875  15.743  25.002  1.00  0.00    -0.000 C 
BRANCH   9  10
ATOM     10  C   UNL     1      12.040  16.047  25.955  1.00  0.00    -0.003 C 
ATOM     11  C   UNL     1      12.346  17.542  25.993  1.00  0.00     0.004 C 
ENDBRANCH   9  10
ENDBRANCH   8   9
ENDBRANCH   1   8
TORSDOF 6
ENDMDL
MODEL 5
REMARK VINA RESULT:    -2.536      1.202      1.660
REMARK INTER + INTRA:          -3.821
REMARK INTER:                  -3.571
REMARK INTRA:                  -0.250
REMARK UNBOUND:                -0.396
REMARK SMILES CCCCCCC=CC(=O)[O-]
REMARK SMILES IDX 5 1 6 2 7 3 8 4 9 5 10 6 11 7 4 8 3 9 2 10 1 11
REMARK H PARENT
REMARK Flexibility Score: inf
ROOT
ATOM      1  C   UNL     1      17.439   1.892  25.396  1.00  0.00     0.004 C 
ENDROOT
BRANCH   1   2
ATOM      2  C   UNL     1      16.394   2.945  24.987  1.00  0.00     0.027 C 
BRANCH   2   3
ATOM      3  C   UNL     1      15.048   2.698  25.618  1.00  0.00    -0.025 C 
ATOM      4  C   UNL     1      13.854   2.871  25.029  1.00  0.00     0.020 C 
BRANCH   4   5
ATOM      5  C   UNL     1      13.611   3.393  23.669  1.00  0.00     0.064 C 
ATOM      6  O   UNL     1      13.768   2.625  22.684  1.00  0.00    -0.545 OA
ATOM      7  O   UNL     1      13.179   4.693  23.440  1.00  0.00    -0.545 OA
ENDBRANCH   4   5
ENDBRANCH   2   3
ENDBRANCH   1   2
BRANCH   1   8
ATOM      8  C   UNL     1      18.492   2.407  26.396  1.00  0.00     0.000 C 
BRANCH   8   9
ATOM      9  C   UNL     1      19.397   1.296  26.968  1.00  0.00    -0.000 C 
BRANCH   9  10
ATOM     10  C   UNL     1      19.414   1.291  28.503  1.00  0.00    -0.003 C 
ATOM     11  C   UNL     1      19.110   2.678  29.063  1.00  0.00     0.004 C 
ENDBRANCH   9  10
ENDBRANCH   8   9
ENDBRANCH   1   8
TORSDOF 6
ENDMDL
MODEL 6
REMARK VINA RESULT:    -2.515      3.192      5.919
REMARK INTER + INTRA:          -3.793
REMARK INTER:                  -3.567
REMARK INTRA:                  -0.226
REMARK UNBOUND:                -0.396
REMARK SMILES CCCCCCC=CC(=O)[O-]
REMARK SMILES IDX 5 1 6 2 7 3 8 4 9 5 10 6 11 7 4 8 3 9 2 10 1 11
REMARK H PARENT
REMARK Flexibility Score: inf
ROOT
ATOM      1  C   UNL     1      15.367   3.515  25.888  1.00  0.00     0.004 C 
ENDROOT
BRANCH   1   2
ATOM      2  C   UNL     1      16.881   3.245  25.895  1.00  0.00     0.027 C 
BRANCH   2   3
ATOM      3  C   UNL     1      17.254   2.022  25.098  1.00  0.00    -0.025 C 
ATOM      4  C   UNL     1      18.339   1.254  25.289  1.00  0.00     0.020 C 
BRANCH   4   5
ATOM      5  C   UNL     1      19.416   1.480  26.273  1.00  0.00     0.064 C 
ATOM      6  O   UNL     1      20.612   1.324  25.914  1.00  0.00    -0.545 OA
ATOM      7  O   UNL     1      19.158   1.895  27.573  1.00  0.00    -0.545 OA
ENDBRANCH   4   5
ENDBRANCH   2   3
ENDBRANCH   1   2
BRANCH   1   8
ATOM      8  C   UNL     1      14.519   2.324  25.400  1.00  0.00     0.000 C 
BRANCH   8   9
ATOM      9  C   UNL     1      13.254   2.743  24.621  1.00  0.00    -0.000 C 
BRANCH   9  10
ATOM     10  C   UNL     1      13.580   3.237  23.205  1.00  0.00    -0.003 C 
ATOM     11  C   UNL     1      13.082   4.664  22.989  1.00  0.00     0.004 C 
ENDBRANCH   9  10
ENDBRANCH   8   9
ENDBRANCH   1   8
TORSDOF 6
ENDMDL
MODEL 7
REMARK VINA RESULT:    -1.853      3.338      5.950
REMARK INTER + INTRA:          -2.899
REMARK INTER:                  -2.863
REMARK INTRA:                  -0.037
REMARK UNBOUND:                -0.396
REMARK SMILES CCCCCCC=CC(=O)[O-]
REMARK SMILES IDX 5 1 6 2 7 3 8 4 9 5 10 6 11 7 4 8 3 9 2 10 1 11
REMARK H PARENT
REMARK Flexibility Score: inf
ROOT
ATOM      1  C   UNL     1      16.242   2.161  25.166  1.00  0.00     0.004 C 
ENDROOT
BRANCH   1   2
ATOM      2  C   UNL     1      17.685   2.673  25.310  1.00  0.00     0.027 C 
BRANCH   2   3
ATOM      3  C   UNL     1      18.297   2.309  26.637  1.00  0.00    -0.025 C 
ATOM      4  C   UNL     1      19.454   1.653  26.823  1.00  0.00     0.020 C 
BRANCH   4   5
ATOM      5  C   UNL     1      20.331   1.100  25.771  1.00  0.00     0.064 C 
ATOM      6  O   UNL     1      19.810   0.475  24.811  1.00  0.00    -0.545 OA
ATOM      7  O   UNL     1      21.708   1.278  25.784  1.00  0.00    -0.545 OA
ENDBRANCH   4   5
ENDBRANCH   2   3
ENDBRANCH   1   2
BRANCH   1   8
ATOM      8  C   UNL     1      15.168   3.183  25.587  1.00  0.00     0.000 C 
BRANCH   8   9
ATOM      9  C   UNL     1      13.795   2.947  24.923  1.00  0.00    -0.000 C 
BRANCH   9  10
ATOM     10  C   UNL     1      13.842   3.148  23.402  1.00  0.00    -0.003 C 
ATOM     11  C   UNL     1      13.062   4.392  22.986  1.00  0.00     0.004 C 
ENDBRANCH   9  10
ENDBRANCH   8   9
ENDBRANCH   1   8
TORSDOF 6
ENDMDL
MODEL 8
REMARK VINA RESULT:    -1.203     14.517     15.790
REMARK INTER + INTRA:          -2.021
REMARK INTER:                  -2.837
REMARK INTRA:                   0.816
REMARK UNBOUND:                -0.396
REMARK SMILES CCCCCCC=CC(=O)[O-]
REMARK SMILES IDX 5 1 6 2 7 3 8 4 9 5 10 6 11 7 4 8 3 9 2 10 1 11
REMARK H PARENT
REMARK Flexibility Score: inf
ROOT
ATOM      1  C   UNL     1      11.077  14.194  22.221  1.00  0.00     0.004 C 
ENDROOT
BRANCH   1   2
ATOM      2  C   UNL     1      10.953  15.047  20.948  1.00  0.00     0.027 C 
BRANCH   2   3
ATOM      3  C   UNL     1      12.002  16.126  20.871  1.00  0.00    -0.025 C 
ATOM      4  C   UNL     1      12.253  16.912  19.812  1.00  0.00     0.020 C 
BRANCH   4   5
ATOM      5  C   UNL     1      11.599  16.842  18.489  1.00  0.00     0.064 C 
ATOM      6  O   UNL     1      11.351  17.912  17.875  1.00  0.00    -0.545 OA
ATOM      7  O   UNL     1      11.281  15.634  17.882  1.00  0.00    -0.545 OA
ENDBRANCH   4   5
ENDBRANCH   2   3
ENDBRANCH   1   2
BRANCH   1   8
ATOM      8  C   UNL     1      10.875  14.983  23.529  1.00  0.00     0.000 C 
BRANCH   8   9
ATOM      9  C   UNL     1      11.285  16.468  23.425  1.00  0.00    -0.000 C 
BRANCH   9  10
ATOM     10  C   UNL     1      11.676  17.061  24.785  1.00  0.00    -0.003 C 
ATOM     11  C   UNL     1      11.650  15.996  25.879  1.00  0.00     0.004 C 
ENDBRANCH   9  10
ENDBRANCH   8   9
ENDBRANCH   1   8
TORSDOF 6
ENDMDL
