MODEL 1
REMARK VINA RESULT:    61.372      0.000      0.000
REMARK INTER + INTRA:          82.790
REMARK INTER:                  81.106
REMARK INTRA:                   1.685
REMARK UNBOUND:                 1.685
REMARK SMILES CC[C@H](C=C[C@@H](C)[C@@H]1CC[C@H]2C3=CC[C@H]4C[C@H](O)CC[C@]4(C)[C@@H]3CC[C@]21C)C(C)C
REMARK SMILES IDX 6 1 7 2 5 3 4 4 3 5 2 6 1 7 28 8 29 9 30 10 8 11 9 12 26 13
REMARK SMILES IDX 10 14 11 15 25 16 27 17 12 18 24 19 23 20 13 21 21 22 14 23
REMARK SMILES IDX 15 24 20 25 22 26 16 27 19 28 17 29 18 30
REMARK H PARENT 18 31
REMARK Flexibility Score: inf
ROOT
ATOM      1  C   UNL     1     -36.848  27.343  -1.300  1.00  0.00     0.012 C 
ATOM      2  C   UNL     1     -36.420  27.201  -2.777  1.00  0.00     0.012 C 
ENDROOT
BRANCH   1   3
ATOM      3  C   UNL     1     -35.956  28.364  -0.611  1.00  0.00    -0.028 C 
ATOM      4  C   UNL     1     -35.216  29.304  -1.236  1.00  0.00    -0.027 C 
BRANCH   4   5
ATOM      5  C   UNL     1     -35.154  29.534  -2.739  1.00  0.00     0.014 C 
BRANCH   5   6
ATOM      6  C   UNL     1     -36.267  30.521  -3.168  1.00  0.00     0.004 C 
ATOM      7  C   UNL     1     -36.145  31.871  -2.456  1.00  0.00     0.004 C 
ENDBRANCH   5   6
BRANCH   5   8
ATOM      8  C   UNL     1     -33.721  30.001  -3.146  1.00  0.00    -0.011 C 
ATOM      9  C   UNL     1     -32.989  30.793  -2.049  1.00  0.00     0.008 C 
ATOM     10  C   UNL     1     -33.733  30.805  -4.457  1.00  0.00     0.008 C 
ENDBRANCH   5   8
ENDBRANCH   4   5
ENDBRANCH   1   3
BRANCH   1  11
ATOM     11  C   UNL     1     -36.858  26.002  -0.478  1.00  0.00     0.002 C 
ATOM     12  C   UNL     1     -37.969  25.025  -0.922  1.00  0.00     0.005 C 
ATOM     13  C   UNL     1     -37.016  26.095   1.076  1.00  0.00    -0.023 C 
ATOM     14  C   UNL     1     -39.045  25.031   0.167  1.00  0.00     0.009 C 
ATOM     15  C   UNL     1     -38.539  25.950   1.286  1.00  0.00     0.021 C 
ATOM     16  C   UNL     1     -36.235  24.896   1.721  1.00  0.00     0.008 C 
ATOM     17  C   UNL     1     -36.483  27.413   1.693  1.00  0.00     0.012 C 
ATOM     18  C   UNL     1     -38.896  25.470   2.685  1.00  0.00    -0.067 C 
ATOM     19  C   UNL     1     -36.660  24.549   3.159  1.00  0.00     0.009 C 
ATOM     20  C   UNL     1     -38.170  24.238   3.223  1.00  0.00     0.021 C 
ATOM     21  C   UNL     1     -39.643  26.272   3.480  1.00  0.00    -0.027 C 
ATOM     22  C   UNL     1     -38.726  23.752   4.618  1.00  0.00    -0.023 C 
ATOM     23  C   UNL     1     -39.956  25.971   4.919  1.00  0.00     0.031 C 
ATOM     24  C   UNL     1     -38.950  24.991   5.540  1.00  0.00     0.002 C 
ATOM     25  C   UNL     1     -37.740  22.776   5.331  1.00  0.00     0.010 C 
ATOM     26  C   UNL     1     -40.060  22.992   4.339  1.00  0.00     0.012 C 
ATOM     27  C   UNL     1     -39.387  24.609   6.974  1.00  0.00     0.036 C 
ATOM     28  C   UNL     1     -38.204  22.379   6.743  1.00  0.00     0.032 C 
ATOM     29  C   UNL     1     -38.415  23.612   7.631  1.00  0.00     0.114 C 
BRANCH  29  30
ATOM     30  O   UNL     1     -37.179  24.230   7.883  1.00  0.00    -0.393 OA
ATOM     31  H   UNL     1     -37.230  24.617   8.796  1.00  0.00     0.210 HD
ENDBRANCH  29  30
ENDBRANCH   1  11
TORSDOF 6
ENDMDL
