MODEL 1
REMARK VINA RESULT:    -7.574      0.000      0.000
REMARK INTER + INTRA:          -7.796
REMARK INTER:                  -7.796
REMARK INTRA:                   0.000
REMARK UNBOUND:                 0.000
REMARK SMILES C=C1CCC[C@@]2(C)C[C@@]3(O)OC(=O)C(C)=C3C[C@H]12
REMARK SMILES IDX 15 1 14 2 16 3 17 4 18 5 2 6 1 7 3 8 4 9 5 10 6 11 8 12 9 13
REMARK SMILES IDX 11 14 12 15 13 16 7 17 10 18
REMARK H PARENT 10 19
REMARK Flexibility Score: inf
ROOT
ATOM      1  C   UNL     1     105.473  99.434 105.481  1.00  0.00     0.052 C 
ATOM      2  C   UNL     1     104.414 100.421 105.093  1.00  0.00     0.040 C 
ATOM      3  C   UNL     1     104.348 101.705 105.449  1.00  0.00     0.012 C 
ATOM      4  C   UNL     1     105.378 102.468 106.231  1.00  0.00     0.047 C 
ATOM      5  C   UNL     1     105.965 103.563 105.312  1.00  0.00     0.025 C 
ATOM      6  C   UNL     1     107.060 104.426 105.926  1.00  0.00    -0.073 C 
ATOM      7  C   UNL     1     107.423 104.372 107.222  1.00  0.00     0.008 C 
ATOM      8  C   UNL     1     107.733 105.399 104.988  1.00  0.00     0.031 C 
ATOM      9  C   UNL     1     106.688 106.278 104.287  1.00  0.00     0.005 C 
ATOM     10  C   UNL     1     105.548 105.448 103.664  1.00  0.00     0.008 C 
ATOM     11  C   UNL     1     104.862 104.474 104.673  1.00  0.00    -0.019 C 
ATOM     12  C   UNL     1     103.842 103.591 103.878  1.00  0.00     0.092 C 
ATOM     13  C   UNL     1     103.252 102.418 104.691  1.00  0.00     0.235 C 
ATOM     14  O   UNL     1     102.739 101.408 103.822  1.00  0.00    -0.426 OA
ATOM     15  C   UNL     1     103.409 100.224 104.070  1.00  0.00     0.336 C 
ATOM     16  O   UNL     1     103.183  99.149 103.457  1.00  0.00    -0.246 OA
ATOM     17  C   UNL     1     104.109 105.308 105.747  1.00  0.00     0.012 C 
ENDROOT
BRANCH  13  18
ATOM     18  O   UNL     1     102.240 102.865 105.557  1.00  0.00    -0.353 OA
ATOM     19  H   UNL     1     102.331 102.358 106.406  1.00  0.00     0.215 HD
ENDBRANCH  13  18
TORSDOF 1
ENDMDL
MODEL 2
REMARK VINA RESULT:    -7.546      3.393      6.207
REMARK INTER + INTRA:          -7.767
REMARK INTER:                  -7.767
REMARK INTRA:                   0.000
REMARK UNBOUND:                 0.000
REMARK SMILES C=C1CCC[C@@]2(C)C[C@@]3(O)OC(=O)C(C)=C3C[C@H]12
REMARK SMILES IDX 15 1 14 2 16 3 17 4 18 5 2 6 1 7 3 8 4 9 5 10 6 11 8 12 9 13
REMARK SMILES IDX 11 14 12 15 13 16 7 17 10 18
REMARK H PARENT 10 19
REMARK Flexibility Score: inf
ROOT
ATOM      1  C   UNL     1     103.600 109.583 105.494  1.00  0.00     0.052 C 
ATOM      2  C   UNL     1     104.644 108.595 105.072  1.00  0.00     0.040 C 
ATOM      3  C   UNL     1     104.721 107.312 105.429  1.00  0.00     0.012 C 
ATOM      4  C   UNL     1     103.718 106.551 106.247  1.00  0.00     0.047 C 
ATOM      5  C   UNL     1     103.098 105.455 105.351  1.00  0.00     0.025 C 
ATOM      6  C   UNL     1     102.024 104.594 106.005  1.00  0.00    -0.073 C 
ATOM      7  C   UNL     1     101.706 104.651 107.313  1.00  0.00     0.008 C 
ATOM      8  C   UNL     1     101.319 103.619 105.094  1.00  0.00     0.031 C 
ATOM      9  C   UNL     1     102.338 102.738 104.359  1.00  0.00     0.005 C 
ATOM     10  C   UNL     1     103.456 103.566 103.694  1.00  0.00     0.008 C 
ATOM     11  C   UNL     1     104.178 104.542 104.677  1.00  0.00    -0.019 C 
ATOM     12  C   UNL     1     105.171 105.421 103.844  1.00  0.00     0.092 C 
ATOM     13  C   UNL     1     105.789 106.596 104.634  1.00  0.00     0.235 C 
ATOM     14  O   UNL     1     106.273 107.603 103.746  1.00  0.00    -0.426 OA
ATOM     15  C   UNL     1     105.613 108.788 104.014  1.00  0.00     0.336 C 
ATOM     16  O   UNL     1     105.818 109.862 103.391  1.00  0.00    -0.246 OA
ATOM     17  C   UNL     1     104.966 103.709 105.726  1.00  0.00     0.012 C 
ENDROOT
BRANCH  13  18
ATOM     18  O   UNL     1     106.830 106.150 105.465  1.00  0.00    -0.353 OA
ATOM     19  H   UNL     1     106.730 106.611 106.339  1.00  0.00     0.215 HD
ENDBRANCH  13  18
TORSDOF 1
ENDMDL
MODEL 3
REMARK VINA RESULT:    -7.483      3.328      4.995
REMARK INTER + INTRA:          -7.702
REMARK INTER:                  -7.702
REMARK INTRA:                   0.000
REMARK UNBOUND:                 0.000
REMARK SMILES C=C1CCC[C@@]2(C)C[C@@]3(O)OC(=O)C(C)=C3C[C@H]12
REMARK SMILES IDX 15 1 14 2 16 3 17 4 18 5 2 6 1 7 3 8 4 9 5 10 6 11 8 12 9 13
REMARK SMILES IDX 11 14 12 15 13 16 7 17 10 18
REMARK H PARENT 10 19
REMARK Flexibility Score: inf
ROOT
ATOM      1  C   UNL     1     103.076 105.501 109.247  1.00  0.00     0.052 C 
ATOM      2  C   UNL     1     104.255 104.876 108.566  1.00  0.00     0.040 C 
ATOM      3  C   UNL     1     104.579 104.976 107.276  1.00  0.00     0.012 C 
ATOM      4  C   UNL     1     103.893 105.825 106.246  1.00  0.00     0.047 C 
ATOM      5  C   UNL     1     104.888 106.910 105.775  1.00  0.00     0.025 C 
ATOM      6  C   UNL     1     104.353 107.897 104.745  1.00  0.00    -0.073 C 
ATOM      7  C   UNL     1     103.152 107.785 104.147  1.00  0.00     0.008 C 
ATOM      8  C   UNL     1     105.274 109.040 104.390  1.00  0.00     0.031 C 
ATOM      9  C   UNL     1     106.648 108.508 103.961  1.00  0.00     0.005 C 
ATOM     10  C   UNL     1     107.223 107.490 104.967  1.00  0.00     0.008 C 
ATOM     11  C   UNL     1     106.250 106.311 105.286  1.00  0.00    -0.019 C 
ATOM     12  C   UNL     1     106.890 105.449 106.426  1.00  0.00     0.092 C 
ATOM     13  C   UNL     1     105.944 104.381 107.017  1.00  0.00     0.235 C 
ATOM     14  O   UNL     1     106.383 103.981 108.316  1.00  0.00    -0.426 OA
ATOM     15  C   UNL     1     105.382 104.254 109.228  1.00  0.00     0.336 C 
ATOM     16  O   UNL     1     105.472 104.017 110.461  1.00  0.00    -0.246 OA
ATOM     17  C   UNL     1     106.073 105.444 104.008  1.00  0.00     0.012 C 
ENDROOT
BRANCH  13  18
ATOM     18  O   UNL     1     105.861 103.261 106.173  1.00  0.00    -0.353 OA
ATOM     19  H   UNL     1     105.558 102.495 106.727  1.00  0.00     0.215 HD
ENDBRANCH  13  18
TORSDOF 1
ENDMDL
MODEL 4
REMARK VINA RESULT:    -7.460      2.885      4.981
REMARK INTER + INTRA:          -7.678
REMARK INTER:                  -7.678
REMARK INTRA:                   0.000
REMARK UNBOUND:                 0.000
REMARK SMILES C=C1CCC[C@@]2(C)C[C@@]3(O)OC(=O)C(C)=C3C[C@H]12
REMARK SMILES IDX 15 1 14 2 16 3 17 4 18 5 2 6 1 7 3 8 4 9 5 10 6 11 8 12 9 13
REMARK SMILES IDX 11 14 12 15 13 16 7 17 10 18
REMARK H PARENT 10 19
REMARK Flexibility Score: inf
ROOT
ATOM      1  C   UNL     1     105.852 103.402 109.214  1.00  0.00     0.052 C 
ATOM      2  C   UNL     1     104.714 104.041 108.478  1.00  0.00     0.040 C 
ATOM      3  C   UNL     1     104.428 103.914 107.182  1.00  0.00     0.012 C 
ATOM      4  C   UNL     1     105.121 103.017 106.198  1.00  0.00     0.047 C 
ATOM      5  C   UNL     1     104.110 101.948 105.725  1.00  0.00     0.025 C 
ATOM      6  C   UNL     1     104.648 100.918 104.739  1.00  0.00    -0.073 C 
ATOM      7  C   UNL     1     105.871 100.979 104.179  1.00  0.00     0.008 C 
ATOM      8  C   UNL     1     103.706  99.792 104.387  1.00  0.00     0.031 C 
ATOM      9  C   UNL     1     102.363 100.350 103.898  1.00  0.00     0.005 C 
ATOM     10  C   UNL     1     101.787 101.412 104.857  1.00  0.00     0.008 C 
ATOM     11  C   UNL     1     102.783 102.572 105.175  1.00  0.00    -0.019 C 
ATOM     12  C   UNL     1     102.133 103.483 106.270  1.00  0.00     0.092 C 
ATOM     13  C   UNL     1     103.090 104.541 106.862  1.00  0.00     0.235 C 
ATOM     14  O   UNL     1     102.622 104.989 108.134  1.00  0.00    -0.426 OA
ATOM     15  C   UNL     1     103.585 104.714 109.086  1.00  0.00     0.336 C 
ATOM     16  O   UNL     1     103.463 104.988 110.308  1.00  0.00    -0.246 OA
ATOM     17  C   UNL     1     103.026 103.397 103.880  1.00  0.00     0.012 C 
ENDROOT
BRANCH  13  18
ATOM     18  O   UNL     1     103.233 105.633 105.991  1.00  0.00    -0.353 OA
ATOM     19  H   UNL     1     102.589 105.504 105.246  1.00  0.00     0.215 HD
ENDBRANCH  13  18
TORSDOF 1
ENDMDL
MODEL 5
REMARK VINA RESULT:    -7.426      3.963      6.353
REMARK INTER + INTRA:          -7.643
REMARK INTER:                  -7.643
REMARK INTRA:                   0.000
REMARK UNBOUND:                 0.000
REMARK SMILES C=C1CCC[C@@]2(C)C[C@@]3(O)OC(=O)C(C)=C3C[C@H]12
REMARK SMILES IDX 15 1 14 2 16 3 17 4 18 5 2 6 1 7 3 8 4 9 5 10 6 11 8 12 9 13
REMARK SMILES IDX 11 14 12 15 13 16 7 17 10 18
REMARK H PARENT 10 19
REMARK Flexibility Score: inf
ROOT
ATOM      1  C   UNL     1     104.351 107.349  99.977  1.00  0.00     0.052 C 
ATOM      2  C   UNL     1     104.964 107.997 101.181  1.00  0.00     0.040 C 
ATOM      3  C   UNL     1     104.848 107.600 102.449  1.00  0.00     0.012 C 
ATOM      4  C   UNL     1     104.165 106.356 102.936  1.00  0.00     0.047 C 
ATOM      5  C   UNL     1     105.234 105.434 103.565  1.00  0.00     0.025 C 
ATOM      6  C   UNL     1     104.729 104.095 104.089  1.00  0.00    -0.073 C 
ATOM      7  C   UNL     1     103.427 103.755 104.154  1.00  0.00     0.008 C 
ATOM      8  C   UNL     1     105.790 103.137 104.573  1.00  0.00     0.031 C 
ATOM      9  C   UNL     1     106.691 103.815 105.614  1.00  0.00     0.005 C 
ATOM     10  C   UNL     1     107.213 105.184 105.134  1.00  0.00     0.008 C 
ATOM     11  C   UNL     1     106.082 106.154 104.667  1.00  0.00    -0.019 C 
ATOM     12  C   UNL     1     106.757 107.432 104.065  1.00  0.00     0.092 C 
ATOM     13  C   UNL     1     105.778 108.386 103.345  1.00  0.00     0.235 C 
ATOM     14  O   UNL     1     106.477 109.235 102.435  1.00  0.00    -0.426 OA
ATOM     15  C   UNL     1     105.986 109.022 101.161  1.00  0.00     0.336 C 
ATOM     16  O   UNL     1     106.406 109.623 100.138  1.00  0.00    -0.246 OA
ATOM     17  C   UNL     1     105.216 106.547 105.897  1.00  0.00     0.012 C 
ENDROOT
BRANCH  13  18
ATOM     18  O   UNL     1     105.060 109.161 104.271  1.00  0.00    -0.353 OA
ATOM     19  H   UNL     1     105.559 110.010 104.395  1.00  0.00     0.215 HD
ENDBRANCH  13  18
TORSDOF 1
ENDMDL
MODEL 6
REMARK VINA RESULT:    -7.416      2.783      4.160
REMARK INTER + INTRA:          -7.632
REMARK INTER:                  -7.632
REMARK INTRA:                   0.000
REMARK UNBOUND:                 0.000
REMARK SMILES C=C1CCC[C@@]2(C)C[C@@]3(O)OC(=O)C(C)=C3C[C@H]12
REMARK SMILES IDX 15 1 14 2 16 3 17 4 18 5 2 6 1 7 3 8 4 9 5 10 6 11 8 12 9 13
REMARK SMILES IDX 11 14 12 15 13 16 7 17 10 18
REMARK H PARENT 10 19
REMARK Flexibility Score: inf
ROOT
ATOM      1  C   UNL     1     101.372 101.009 104.757  1.00  0.00     0.052 C 
ATOM      2  C   UNL     1     102.700 101.700 104.729  1.00  0.00     0.040 C 
ATOM      3  C   UNL     1     103.063 102.765 105.446  1.00  0.00     0.012 C 
ATOM      4  C   UNL     1     102.254 103.439 106.515  1.00  0.00     0.047 C 
ATOM      5  C   UNL     1     102.990 103.258 107.862  1.00  0.00     0.025 C 
ATOM      6  C   UNL     1     102.295 103.853 109.081  1.00  0.00    -0.073 C 
ATOM      7  C   UNL     1     101.189 104.618 109.019  1.00  0.00     0.008 C 
ATOM      8  C   UNL     1     102.939 103.554 110.414  1.00  0.00     0.031 C 
ATOM      9  C   UNL     1     104.421 103.952 110.394  1.00  0.00     0.005 C 
ATOM     10  C   UNL     1     105.163 103.386 109.166  1.00  0.00     0.008 C 
ATOM     11  C   UNL     1     104.480 103.739 107.807  1.00  0.00    -0.019 C 
ATOM     12  C   UNL     1     105.241 102.979 106.670  1.00  0.00     0.092 C 
ATOM     13  C   UNL     1     104.542 103.037 105.293  1.00  0.00     0.235 C 
ATOM     14  O   UNL     1     104.990 101.973 104.454  1.00  0.00    -0.426 OA
ATOM     15  C   UNL     1     103.904 101.194 104.104  1.00  0.00     0.336 C 
ATOM     16  O   UNL     1     103.979 100.174 103.371  1.00  0.00    -0.246 OA
ATOM     17  C   UNL     1     104.583 105.273 107.575  1.00  0.00     0.012 C 
ENDROOT
BRANCH  13  18
ATOM     18  O   UNL     1     104.772 104.273 104.666  1.00  0.00    -0.353 OA
ATOM     19  H   UNL     1     104.901 104.949 105.382  1.00  0.00     0.215 HD
ENDBRANCH  13  18
TORSDOF 1
ENDMDL
MODEL 7
REMARK VINA RESULT:    -7.410      2.016      3.570
REMARK INTER + INTRA:          -7.627
REMARK INTER:                  -7.627
REMARK INTRA:                   0.000
REMARK UNBOUND:                 0.000
REMARK SMILES C=C1CCC[C@@]2(C)C[C@@]3(O)OC(=O)C(C)=C3C[C@H]12
REMARK SMILES IDX 15 1 14 2 16 3 17 4 18 5 2 6 1 7 3 8 4 9 5 10 6 11 8 12 9 13
REMARK SMILES IDX 11 14 12 15 13 16 7 17 10 18
REMARK H PARENT 10 19
REMARK Flexibility Score: inf
ROOT
ATOM      1  C   UNL     1     104.547 101.658 100.034  1.00  0.00     0.052 C 
ATOM      2  C   UNL     1     103.987 100.991 101.253  1.00  0.00     0.040 C 
ATOM      3  C   UNL     1     104.140 101.380 102.519  1.00  0.00     0.012 C 
ATOM      4  C   UNL     1     104.819 102.632 102.992  1.00  0.00     0.047 C 
ATOM      5  C   UNL     1     103.756 103.531 103.665  1.00  0.00     0.025 C 
ATOM      6  C   UNL     1     104.257 104.874 104.183  1.00  0.00    -0.073 C 
ATOM      7  C   UNL     1     105.553 105.236 104.206  1.00  0.00     0.008 C 
ATOM      8  C   UNL     1     103.196 105.810 104.711  1.00  0.00     0.031 C 
ATOM      9  C   UNL     1     102.344 105.109 105.777  1.00  0.00     0.005 C 
ATOM     10  C   UNL     1     101.829 103.734 105.304  1.00  0.00     0.008 C 
ATOM     11  C   UNL     1     102.959 102.787 104.791  1.00  0.00    -0.019 C 
ATOM     12  C   UNL     1     102.286 101.502 104.202  1.00  0.00     0.092 C 
ATOM     13  C   UNL     1     103.256 100.572 103.441  1.00  0.00     0.235 C 
ATOM     14  O   UNL     1     102.540  99.717 102.549  1.00  0.00    -0.426 OA
ATOM     15  C   UNL     1     102.983  99.948 101.260  1.00  0.00     0.336 C 
ATOM     16  O   UNL     1     102.538  99.348 100.247  1.00  0.00    -0.246 OA
ATOM     17  C   UNL     1     103.874 102.400 105.986  1.00  0.00     0.012 C 
ENDROOT
BRANCH  13  18
ATOM     18  O   UNL     1     104.018  99.802 104.335  1.00  0.00    -0.353 OA
ATOM     19  H   UNL     1     104.644  99.253 103.794  1.00  0.00     0.215 HD
ENDBRANCH  13  18
TORSDOF 1
ENDMDL
MODEL 8
REMARK VINA RESULT:    -7.406      2.913      5.328
REMARK INTER + INTRA:          -7.622
REMARK INTER:                  -7.622
REMARK INTRA:                   0.000
REMARK UNBOUND:                 0.000
REMARK SMILES C=C1CCC[C@@]2(C)C[C@@]3(O)OC(=O)C(C)=C3C[C@H]12
REMARK SMILES IDX 15 1 14 2 16 3 17 4 18 5 2 6 1 7 3 8 4 9 5 10 6 11 8 12 9 13
REMARK SMILES IDX 11 14 12 15 13 16 7 17 10 18
REMARK H PARENT 10 19
REMARK Flexibility Score: inf
ROOT
ATOM      1  C   UNL     1     107.473 107.848 104.831  1.00  0.00     0.052 C 
ATOM      2  C   UNL     1     106.195 107.069 104.759  1.00  0.00     0.040 C 
ATOM      3  C   UNL     1     105.885 105.975 105.456  1.00  0.00     0.012 C 
ATOM      4  C   UNL     1     106.707 105.347 106.544  1.00  0.00     0.047 C 
ATOM      5  C   UNL     1     105.922 105.465 107.870  1.00  0.00     0.025 C 
ATOM      6  C   UNL     1     106.620 104.907 109.105  1.00  0.00    -0.073 C 
ATOM      7  C   UNL     1     107.777 104.219 109.069  1.00  0.00     0.008 C 
ATOM      8  C   UNL     1     105.920 105.149 110.420  1.00  0.00     0.031 C 
ATOM      9  C   UNL     1     104.469 104.653 110.354  1.00  0.00     0.005 C 
ATOM     10  C   UNL     1     103.726 105.178 109.109  1.00  0.00     0.008 C 
ATOM     11  C   UNL     1     104.471 104.885 107.768  1.00  0.00    -0.019 C 
ATOM     12  C   UNL     1     103.693 105.603 106.615  1.00  0.00     0.092 C 
ATOM     13  C   UNL     1     104.433 105.605 105.259  1.00  0.00     0.235 C 
ATOM     14  O   UNL     1     103.938 106.644 104.414  1.00  0.00    -0.426 OA
ATOM     15  C   UNL     1     104.979 107.498 104.102  1.00  0.00     0.336 C 
ATOM     16  O   UNL     1     104.856 108.518 103.375  1.00  0.00    -0.246 OA
ATOM     17  C   UNL     1     104.478 103.350 107.521  1.00  0.00     0.012 C 
ENDROOT
BRANCH  13  18
ATOM     18  O   UNL     1     104.306 104.363 104.616  1.00  0.00    -0.353 OA
ATOM     19  H   UNL     1     104.356 103.660 105.316  1.00  0.00     0.215 HD
ENDBRANCH  13  18
TORSDOF 1
ENDMDL
MODEL 9
REMARK VINA RESULT:    -7.388      2.486      4.938
REMARK INTER + INTRA:          -7.604
REMARK INTER:                  -7.604
REMARK INTRA:                   0.000
REMARK UNBOUND:                 0.000
REMARK SMILES C=C1CCC[C@@]2(C)C[C@@]3(O)OC(=O)C(C)=C3C[C@H]12
REMARK SMILES IDX 15 1 14 2 16 3 17 4 18 5 2 6 1 7 3 8 4 9 5 10 6 11 8 12 9 13
REMARK SMILES IDX 11 14 12 15 13 16 7 17 10 18
REMARK H PARENT 10 19
REMARK Flexibility Score: inf
ROOT
ATOM      1  C   UNL     1     104.893 103.437 108.692  1.00  0.00     0.052 C 
ATOM      2  C   UNL     1     104.990 104.041 107.325  1.00  0.00     0.040 C 
ATOM      3  C   UNL     1     105.302 103.410 106.192  1.00  0.00     0.012 C 
ATOM      4  C   UNL     1     105.521 101.935 106.023  1.00  0.00     0.047 C 
ATOM      5  C   UNL     1     104.406 101.384 105.105  1.00  0.00     0.025 C 
ATOM      6  C   UNL     1     104.444  99.884 104.844  1.00  0.00    -0.073 C 
ATOM      7  C   UNL     1     105.443  99.074 105.245  1.00  0.00     0.008 C 
ATOM      8  C   UNL     1     103.278  99.323 104.066  1.00  0.00     0.031 C 
ATOM      9  C   UNL     1     103.092 100.091 102.751  1.00  0.00     0.005 C 
ATOM     10  C   UNL     1     103.066 101.619 102.963  1.00  0.00     0.008 C 
ATOM     11  C   UNL     1     104.301 102.161 103.748  1.00  0.00    -0.019 C 
ATOM     12  C   UNL     1     104.069 103.684 104.026  1.00  0.00     0.092 C 
ATOM     13  C   UNL     1     105.093 104.313 104.998  1.00  0.00     0.235 C 
ATOM     14  O   UNL     1     104.572 105.510 105.575  1.00  0.00    -0.426 OA
ATOM     15  C   UNL     1     104.528 105.361 106.948  1.00  0.00     0.336 C 
ATOM     16  O   UNL     1     104.110 106.247 107.738  1.00  0.00    -0.246 OA
ATOM     17  C   UNL     1     105.574 101.974 102.876  1.00  0.00     0.012 C 
ENDROOT
BRANCH  13  18
ATOM     18  O   UNL     1     106.305 104.584 104.343  1.00  0.00    -0.353 OA
ATOM     19  H   UNL     1     106.615 105.475 104.652  1.00  0.00     0.215 HD
ENDBRANCH  13  18
TORSDOF 1
ENDMDL
