MODEL 1
REMARK VINA RESULT:     1.579      0.000      0.000
REMARK INTER + INTRA:           7.542
REMARK INTER:                   2.225
REMARK INTRA:                   5.317
REMARK UNBOUND:                 5.317
REMARK SMILES CC1=CCC(=C(C)C)C(=O)CC(C)=CCC1
REMARK SMILES IDX 12 1 14 2 13 3 15 4 16 5 2 6 1 7 3 8 11 10 9 11 10 12 5 13
REMARK SMILES IDX 6 14 7 15 8 16 4 17
REMARK H PARENT
REMARK Flexibility Score: 60.00
ROOT
ATOM      1  C   UNL     1      26.664  13.007  24.943  1.00  0.00    -0.070 C 
ATOM      2  C   UNL     1      26.534  12.769  23.616  1.00  0.00    -0.027 C 
ATOM      3  C   UNL     1      25.645  13.904  25.601  1.00  0.00     0.039 C 
ENDROOT
BRANCH   2   4
ATOM      4  C   UNL     1      27.441  11.882  22.801  1.00  0.00     0.032 C 
BRANCH   4   5
ATOM      5  C   UNL     1      28.483  12.712  22.032  1.00  0.00     0.034 C 
BRANCH   5   6
ATOM      6  C   UNL     1      29.473  11.865  21.254  1.00  0.00    -0.077 C 
ATOM      7  C   UNL     1      29.688  12.164  19.792  1.00  0.00     0.039 C 
ATOM      8  C   UNL     1      30.120  10.793  21.778  1.00  0.00    -0.023 CG0
ATOM      9  G   UNL     1      30.144  10.365  23.230  1.00  0.00     0.000 G0
ENDBRANCH   5   6
ENDBRANCH   4   5
ENDBRANCH   2   4
BRANCH   1  10
ATOM     10  C   UNL     1      27.786  12.423  25.792  1.00  0.00     0.111 C 
BRANCH  10  11
ATOM     11  C   UNL     1      28.965  12.011  24.943  1.00  0.00     0.163 C 
ATOM     12  O   UNL     1      29.900  12.851  24.828  1.00  0.00    -0.294 OA
BRANCH  11  13
ATOM     13  C   UNL     1      29.083  10.674  24.257  1.00  0.00    -0.002 C 
ATOM     14  C   UNL     1      28.269   9.626  24.601  1.00  0.00    -0.069 C 
ATOM     15  C   UNL     1      28.331   8.302  23.870  1.00  0.00     0.039 C 
ATOM     16  C   UNL     1      27.301   9.709  25.762  1.00  0.00     0.039 C 
BRANCH  13  17
ATOM     17  C   UNL     1      30.124  10.493  23.155  1.00  0.00     0.066 CG0
ATOM     18  G   UNL     1      29.648  10.884  21.771  1.00  0.00     0.000 G0
ENDBRANCH  13  17
ENDBRANCH  11  13
ENDBRANCH  10  11
ENDBRANCH   1  10
TORSDOF 0
ENDMDL
