MODEL 1
REMARK VINA RESULT:    -7.962      0.000      0.000
REMARK INTER + INTRA:          -9.375
REMARK INTER:                  -9.125
REMARK INTRA:                  -0.250
REMARK UNBOUND:                -0.250
REMARK SMILES CC1(C)CC[C@@]23CO[C@]4(C=C[C@H]5[C@@]6(C)CC[C@H](O)[C@@](C)(CO)[C@@H]6CC[C@@]5(C)[C@@]4(C)C[C@H]2O)[C@@H]3C1
REMARK SMILES IDX 1 1 2 2 4 3 5 4 6 5 7 6 8 7 9 8 33 9 34 10 10 11 11 12 12 13
REMARK SMILES IDX 13 14 15 15 16 16 17 17 19 18 23 19 24 20 25 21 26 22 28 23
REMARK SMILES IDX 30 24 31 25 29 26 27 27 20 28 14 29 3 30 32 31 21 33 22 34
REMARK SMILES IDX 18 36
REMARK H PARENT 32 32 22 35 18 37
REMARK Flexibility Score: inf
ROOT
ATOM      1  C   UNL     1     130.900 126.956 121.817  1.00  0.00     0.011 C 
ATOM      2  C   UNL     1     129.942 127.743 122.736  1.00  0.00    -0.035 C 
ATOM      3  C   UNL     1     128.607 127.956 121.992  1.00  0.00     0.007 C 
ATOM      4  C   UNL     1     127.636 128.868 122.755  1.00  0.00     0.013 C 
ATOM      5  C   UNL     1     128.257 130.207 123.242  1.00  0.00     0.026 C 
ATOM      6  C   UNL     1     128.573 131.189 122.108  1.00  0.00     0.171 C 
ATOM      7  O   UNL     1     129.643 132.009 122.534  1.00  0.00    -0.369 OA
ATOM      8  C   UNL     1     130.062 131.572 123.817  1.00  0.00     0.096 C 
ATOM      9  C   UNL     1     129.643 130.068 123.864  1.00  0.00     0.037 C 
ATOM     10  C   UNL     1     130.576 129.118 123.053  1.00  0.00     0.014 C 
ATOM     11  C   UNL     1     131.557 131.777 123.920  1.00  0.00     0.005 C 
ATOM     12  C   UNL     1     132.143 132.835 124.501  1.00  0.00    -0.024 C 
ATOM     13  C   UNL     1     131.431 133.966 125.254  1.00  0.00     0.024 C 
ATOM     14  C   UNL     1     132.154 135.397 125.086  1.00  0.00    -0.022 C 
ATOM     15  C   UNL     1     133.715 135.256 125.110  1.00  0.00     0.010 C 
ATOM     16  C   UNL     1     134.469 136.556 124.804  1.00  0.00     0.033 C 
ATOM     17  C   UNL     1     134.087 137.113 123.427  1.00  0.00     0.123 C 
ATOM     18  C   UNL     1     132.545 137.343 123.257  1.00  0.00     0.020 C 
ATOM     19  C   UNL     1     131.763 136.023 123.694  1.00  0.00     0.006 C 
ATOM     20  C   UNL     1     130.226 136.107 123.532  1.00  0.00     0.005 C 
ATOM     21  C   UNL     1     129.574 134.722 123.646  1.00  0.00     0.008 C 
ATOM     22  C   UNL     1     129.858 133.953 124.985  1.00  0.00    -0.017 C 
ATOM     23  C   UNL     1     129.327 132.413 124.959  1.00  0.00     0.009 C 
ATOM     24  C   UNL     1     127.776 132.301 124.716  1.00  0.00     0.043 C 
ATOM     25  C   UNL     1     127.310 130.875 124.300  1.00  0.00     0.124 C 
ATOM     26  C   UNL     1     129.609 131.760 126.364  1.00  0.00     0.015 C 
ATOM     27  C   UNL     1     129.099 134.727 126.120  1.00  0.00     0.013 C 
ATOM     28  C   UNL     1     132.095 138.598 124.055  1.00  0.00     0.017 C 
ATOM     29  C   UNL     1     131.759 136.301 126.307  1.00  0.00     0.012 C 
ATOM     30  C   UNL     1     129.734 126.916 124.028  1.00  0.00     0.011 C 
ENDROOT
BRANCH  25  31
ATOM     31  O   UNL     1     125.969 130.899 123.868  1.00  0.00    -0.392 OA
ATOM     32  H   UNL     1     125.916 131.437 123.038  1.00  0.00     0.210 HD
ENDBRANCH  25  31
BRANCH  18  33
ATOM     33  C   UNL     1     132.259 137.622 121.740  1.00  0.00     0.165 C 
BRANCH  33  34
ATOM     34  O   UNL     1     132.891 138.789 121.279  1.00  0.00    -0.396 OA
ATOM     35  H   UNL     1     133.224 139.280 122.075  1.00  0.00     0.210 HD
ENDBRANCH  33  34
ENDBRANCH  18  33
BRANCH  17  36
ATOM     36  O   UNL     1     134.798 138.309 123.216  1.00  0.00    -0.392 OA
ATOM     37  H   UNL     1     134.741 138.515 122.246  1.00  0.00     0.210 HD
ENDBRANCH  17  36
TORSDOF 4
ENDMDL
MODEL 2
REMARK VINA RESULT:    -7.934      4.456      8.318
REMARK INTER + INTRA:          -9.343
REMARK INTER:                  -9.043
REMARK INTRA:                  -0.299
REMARK UNBOUND:                -0.250
REMARK SMILES CC1(C)CC[C@@]23CO[C@]4(C=C[C@H]5[C@@]6(C)CC[C@H](O)[C@@](C)(CO)[C@@H]6CC[C@@]5(C)[C@@]4(C)C[C@H]2O)[C@@H]3C1
REMARK SMILES IDX 1 1 2 2 4 3 5 4 6 5 7 6 8 7 9 8 33 9 34 10 10 11 11 12 12 13
REMARK SMILES IDX 13 14 15 15 16 16 17 17 19 18 23 19 24 20 25 21 26 22 28 23
REMARK SMILES IDX 30 24 31 25 29 26 27 27 20 28 14 29 3 30 32 31 21 33 22 34
REMARK SMILES IDX 18 36
REMARK H PARENT 32 32 22 35 18 37
REMARK Flexibility Score: inf
ROOT
ATOM      1  C   UNL     1     125.509 132.616 127.684  1.00  0.00     0.011 C 
ATOM      2  C   UNL     1     126.129 132.566 126.271  1.00  0.00    -0.035 C 
ATOM      3  C   UNL     1     125.049 132.092 125.275  1.00  0.00     0.007 C 
ATOM      4  C   UNL     1     125.602 131.852 123.863  1.00  0.00     0.013 C 
ATOM      5  C   UNL     1     126.878 130.965 123.812  1.00  0.00     0.026 C 
ATOM      6  C   UNL     1     126.620 129.494 124.157  1.00  0.00     0.171 C 
ATOM      7  O   UNL     1     127.815 128.962 124.691  1.00  0.00    -0.369 OA
ATOM      8  C   UNL     1     128.777 130.002 124.768  1.00  0.00     0.096 C 
ATOM      9  C   UNL     1     127.922 131.305 124.870  1.00  0.00     0.037 C 
ATOM     10  C   UNL     1     127.298 131.553 126.277  1.00  0.00     0.014 C 
ATOM     11  C   UNL     1     129.639 129.758 125.987  1.00  0.00     0.005 C 
ATOM     12  C   UNL     1     130.839 129.158 125.965  1.00  0.00    -0.024 C 
ATOM     13  C   UNL     1     131.605 128.710 124.713  1.00  0.00     0.024 C 
ATOM     14  C   UNL     1     132.475 127.372 124.944  1.00  0.00    -0.022 C 
ATOM     15  C   UNL     1     133.146 127.364 126.360  1.00  0.00     0.010 C 
ATOM     16  C   UNL     1     133.865 126.054 126.709  1.00  0.00     0.033 C 
ATOM     17  C   UNL     1     132.905 124.859 126.657  1.00  0.00     0.123 C 
ATOM     18  C   UNL     1     132.173 124.711 125.278  1.00  0.00     0.020 C 
ATOM     19  C   UNL     1     131.531 126.113 124.868  1.00  0.00     0.006 C 
ATOM     20  C   UNL     1     130.739 126.089 123.538  1.00  0.00     0.005 C 
ATOM     21  C   UNL     1     129.883 127.352 123.373  1.00  0.00     0.008 C 
ATOM     22  C   UNL     1     130.671 128.709 123.419  1.00  0.00    -0.017 C 
ATOM     23  C   UNL     1     129.692 130.011 123.459  1.00  0.00     0.009 C 
ATOM     24  C   UNL     1     128.742 130.106 122.208  1.00  0.00     0.043 C 
ATOM     25  C   UNL     1     127.551 131.090 122.400  1.00  0.00     0.124 C 
ATOM     26  C   UNL     1     130.583 131.310 123.443  1.00  0.00     0.015 C 
ATOM     27  C   UNL     1     131.539 128.773 122.114  1.00  0.00     0.013 C 
ATOM     28  C   UNL     1     133.150 124.162 124.203  1.00  0.00     0.017 C 
ATOM     29  C   UNL     1     133.635 127.344 123.889  1.00  0.00     0.012 C 
ATOM     30  C   UNL     1     126.627 133.988 125.918  1.00  0.00     0.011 C 
ENDROOT
BRANCH  25  31
ATOM     31  O   UNL     1     126.617 130.947 121.355  1.00  0.00    -0.392 OA
ATOM     32  H   UNL     1     125.999 130.209 121.585  1.00  0.00     0.210 HD
ENDBRANCH  25  31
BRANCH  18  33
ATOM     33  C   UNL     1     131.021 123.658 125.449  1.00  0.00     0.165 C 
BRANCH  33  34
ATOM     34  O   UNL     1     130.728 123.397 126.799  1.00  0.00    -0.396 OA
ATOM     35  H   UNL     1     129.742 123.437 126.901  1.00  0.00     0.210 HD
ENDBRANCH  33  34
ENDBRANCH  18  33
BRANCH  17  36
ATOM     36  O   UNL     1     133.627 123.693 126.968  1.00  0.00    -0.392 OA
ATOM     37  H   UNL     1     134.546 123.976 127.217  1.00  0.00     0.210 HD
ENDBRANCH  17  36
TORSDOF 4
ENDMDL
MODEL 3
REMARK VINA RESULT:    -7.836      1.605      8.090
REMARK INTER + INTRA:          -9.231
REMARK INTER:                  -8.971
REMARK INTRA:                  -0.260
REMARK UNBOUND:                -0.250
REMARK SMILES CC1(C)CC[C@@]23CO[C@]4(C=C[C@H]5[C@@]6(C)CC[C@H](O)[C@@](C)(CO)[C@@H]6CC[C@@]5(C)[C@@]4(C)C[C@H]2O)[C@@H]3C1
REMARK SMILES IDX 1 1 2 2 4 3 5 4 6 5 7 6 8 7 9 8 33 9 34 10 10 11 11 12 12 13
REMARK SMILES IDX 13 14 15 15 16 16 17 17 19 18 23 19 24 20 25 21 26 22 28 23
REMARK SMILES IDX 30 24 31 25 29 26 27 27 20 28 14 29 3 30 32 31 21 33 22 34
REMARK SMILES IDX 18 36
REMARK H PARENT 32 32 22 35 18 37
REMARK Flexibility Score: inf
ROOT
ATOM      1  C   UNL     1     130.865 139.704 120.896  1.00  0.00     0.011 C 
ATOM      2  C   UNL     1     131.632 139.058 122.070  1.00  0.00    -0.035 C 
ATOM      3  C   UNL     1     133.073 138.748 121.608  1.00  0.00     0.007 C 
ATOM      4  C   UNL     1     133.877 137.957 122.648  1.00  0.00     0.013 C 
ATOM      5  C   UNL     1     133.153 136.696 123.200  1.00  0.00     0.026 C 
ATOM      6  C   UNL     1     133.019 135.563 122.176  1.00  0.00     0.171 C 
ATOM      7  O   UNL     1     131.876 134.808 122.519  1.00  0.00    -0.369 OA
ATOM      8  C   UNL     1     131.249 135.419 123.635  1.00  0.00     0.096 C 
ATOM      9  C   UNL     1     131.684 136.916 123.545  1.00  0.00     0.037 C 
ATOM     10  C   UNL     1     130.925 137.738 122.459  1.00  0.00     0.014 C 
ATOM     11  C   UNL     1     129.755 135.223 123.502  1.00  0.00     0.005 C 
ATOM     12  C   UNL     1     129.055 134.255 124.113  1.00  0.00    -0.024 C 
ATOM     13  C   UNL     1     129.602 133.245 125.129  1.00  0.00     0.024 C 
ATOM     14  C   UNL     1     128.890 131.800 125.038  1.00  0.00    -0.022 C 
ATOM     15  C   UNL     1     127.353 131.937 124.768  1.00  0.00     0.010 C 
ATOM     16  C   UNL     1     126.636 130.604 124.520  1.00  0.00     0.033 C 
ATOM     17  C   UNL     1     127.241 129.861 123.321  1.00  0.00     0.123 C 
ATOM     18  C   UNL     1     128.784 129.615 123.458  1.00  0.00     0.020 C 
ATOM     19  C   UNL     1     129.504 130.987 123.837  1.00  0.00     0.006 C 
ATOM     20  C   UNL     1     131.044 130.888 123.960  1.00  0.00     0.005 C 
ATOM     21  C   UNL     1     131.695 132.278 123.992  1.00  0.00     0.008 C 
ATOM     22  C   UNL     1     131.198 133.226 125.141  1.00  0.00    -0.017 C 
ATOM     23  C   UNL     1     131.757 134.749 124.993  1.00  0.00     0.009 C 
ATOM     24  C   UNL     1     133.329 134.833 125.013  1.00  0.00     0.043 C 
ATOM     25  C   UNL     1     133.889 136.188 124.490  1.00  0.00     0.124 C 
ATOM     26  C   UNL     1     131.249 135.592 126.223  1.00  0.00     0.015 C 
ATOM     27  C   UNL     1     131.732 132.623 126.487  1.00  0.00     0.013 C 
ATOM     28  C   UNL     1     129.062 128.487 124.488  1.00  0.00     0.017 C 
ATOM     29  C   UNL     1     129.049 131.079 126.423  1.00  0.00     0.012 C 
ATOM     30  C   UNL     1     131.630 140.060 123.250  1.00  0.00     0.011 C 
ENDROOT
BRANCH  25  31
ATOM     31  O   UNL     1     135.284 136.109 124.307  1.00  0.00    -0.392 OA
ATOM     32  H   UNL     1     135.570 135.176 124.477  1.00  0.00     0.210 HD
ENDBRANCH  25  31
BRANCH  18  33
ATOM     33  C   UNL     1     129.323 129.127 122.068  1.00  0.00     0.165 C 
BRANCH  33  34
ATOM     34  O   UNL     1     128.827 127.861 121.712  1.00  0.00    -0.396 OA
ATOM     35  H   UNL     1     128.290 127.528 122.478  1.00  0.00     0.210 HD
ENDBRANCH  33  34
ENDBRANCH  18  33
BRANCH  17  36
ATOM     36  O   UNL     1     126.553 128.644 123.158  1.00  0.00    -0.392 OA
ATOM     37  H   UNL     1     126.650 128.379 122.205  1.00  0.00     0.210 HD
ENDBRANCH  17  36
TORSDOF 4
ENDMDL
MODEL 4
REMARK VINA RESULT:    -7.626      2.337      8.569
REMARK INTER + INTRA:          -8.991
REMARK INTER:                  -8.690
REMARK INTRA:                  -0.300
REMARK UNBOUND:                -0.250
REMARK SMILES CC1(C)CC[C@@]23CO[C@]4(C=C[C@H]5[C@@]6(C)CC[C@H](O)[C@@](C)(CO)[C@@H]6CC[C@@]5(C)[C@@]4(C)C[C@H]2O)[C@@H]3C1
REMARK SMILES IDX 1 1 2 2 4 3 5 4 6 5 7 6 8 7 9 8 33 9 34 10 10 11 11 12 12 13
REMARK SMILES IDX 13 14 15 15 16 16 17 17 19 18 23 19 24 20 25 21 26 22 28 23
REMARK SMILES IDX 30 24 31 25 29 26 27 27 20 28 14 29 3 30 32 31 21 33 22 34
REMARK SMILES IDX 18 36
REMARK H PARENT 32 32 22 35 18 37
REMARK Flexibility Score: inf
ROOT
ATOM      1  C   UNL     1     127.544 142.001 123.065  1.00  0.00     0.011 C 
ATOM      2  C   UNL     1     128.911 141.288 123.141  1.00  0.00    -0.035 C 
ATOM      3  C   UNL     1     129.607 141.407 121.768  1.00  0.00     0.007 C 
ATOM      4  C   UNL     1     130.906 140.594 121.685  1.00  0.00     0.013 C 
ATOM      5  C   UNL     1     130.774 139.117 122.151  1.00  0.00     0.026 C 
ATOM      6  C   UNL     1     129.952 138.240 121.198  1.00  0.00     0.171 C 
ATOM      7  O   UNL     1     129.376 137.200 121.961  1.00  0.00    -0.369 OA
ATOM      8  C   UNL     1     129.720 137.396 123.324  1.00  0.00     0.096 C 
ATOM      9  C   UNL     1     129.974 138.932 123.436  1.00  0.00     0.037 C 
ATOM     10  C   UNL     1     128.676 139.795 123.468  1.00  0.00     0.014 C 
ATOM     11  C   UNL     1     128.564 136.919 124.174  1.00  0.00     0.005 C 
ATOM     12  C   UNL     1     128.491 135.711 124.755  1.00  0.00    -0.024 C 
ATOM     13  C   UNL     1     129.589 134.640 124.759  1.00  0.00     0.024 C 
ATOM     14  C   UNL     1     129.012 133.135 124.727  1.00  0.00    -0.022 C 
ATOM     15  C   UNL     1     127.730 132.995 125.618  1.00  0.00     0.010 C 
ATOM     16  C   UNL     1     127.039 131.630 125.516  1.00  0.00     0.033 C 
ATOM     17  C   UNL     1     126.621 131.322 124.072  1.00  0.00     0.123 C 
ATOM     18  C   UNL     1     127.812 131.389 123.054  1.00  0.00     0.020 C 
ATOM     19  C   UNL     1     128.598 132.763 123.253  1.00  0.00     0.006 C 
ATOM     20  C   UNL     1     129.778 132.972 122.273  1.00  0.00     0.005 C 
ATOM     21  C   UNL     1     130.270 134.426 122.290  1.00  0.00     0.008 C 
ATOM     22  C   UNL     1     130.731 134.962 123.692  1.00  0.00    -0.017 C 
ATOM     23  C   UNL     1     131.033 136.564 123.691  1.00  0.00     0.009 C 
ATOM     24  C   UNL     1     132.164 136.976 122.677  1.00  0.00     0.043 C 
ATOM     25  C   UNL     1     132.201 138.502 122.369  1.00  0.00     0.124 C 
ATOM     26  C   UNL     1     131.542 136.979 125.122  1.00  0.00     0.015 C 
ATOM     27  C   UNL     1     132.054 134.202 124.054  1.00  0.00     0.013 C 
ATOM     28  C   UNL     1     128.729 130.145 123.212  1.00  0.00     0.017 C 
ATOM     29  C   UNL     1     130.094 132.172 125.330  1.00  0.00     0.012 C 
ATOM     30  C   UNL     1     129.746 141.975 124.250  1.00  0.00     0.011 C 
ENDROOT
BRANCH  25  31
ATOM     31  O   UNL     1     133.063 138.768 121.287  1.00  0.00    -0.392 OA
ATOM     32  H   UNL     1     132.631 138.446 120.456  1.00  0.00     0.210 HD
ENDBRANCH  25  31
BRANCH  18  33
ATOM     33  C   UNL     1     127.214 131.353 121.604  1.00  0.00     0.165 C 
BRANCH  33  34
ATOM     34  O   UNL     1     125.840 131.645 121.582  1.00  0.00    -0.396 OA
ATOM     35  H   UNL     1     125.716 132.447 121.010  1.00  0.00     0.210 HD
ENDBRANCH  33  34
ENDBRANCH  18  33
BRANCH  17  36
ATOM     36  O   UNL     1     126.011 130.054 124.046  1.00  0.00    -0.392 OA
ATOM     37  H   UNL     1     126.315 129.601 123.215  1.00  0.00     0.210 HD
ENDBRANCH  17  36
TORSDOF 4
ENDMDL
MODEL 5
REMARK VINA RESULT:    -7.510      1.989      2.834
REMARK INTER + INTRA:          -8.858
REMARK INTER:                  -8.588
REMARK INTRA:                  -0.270
REMARK UNBOUND:                -0.250
REMARK SMILES CC1(C)CC[C@@]23CO[C@]4(C=C[C@H]5[C@@]6(C)CC[C@H](O)[C@@](C)(CO)[C@@H]6CC[C@@]5(C)[C@@]4(C)C[C@H]2O)[C@@H]3C1
REMARK SMILES IDX 1 1 2 2 4 3 5 4 6 5 7 6 8 7 9 8 33 9 34 10 10 11 11 12 12 13
REMARK SMILES IDX 13 14 15 15 16 16 17 17 19 18 23 19 24 20 25 21 26 22 28 23
REMARK SMILES IDX 30 24 31 25 29 26 27 27 20 28 14 29 3 30 32 31 21 33 22 34
REMARK SMILES IDX 18 36
REMARK H PARENT 32 32 22 35 18 37
REMARK Flexibility Score: inf
ROOT
ATOM      1  C   UNL     1     133.254 124.783 124.589  1.00  0.00     0.011 C 
ATOM      2  C   UNL     1     131.914 125.537 124.458  1.00  0.00    -0.035 C 
ATOM      3  C   UNL     1     131.345 125.292 123.044  1.00  0.00     0.007 C 
ATOM      4  C   UNL     1     130.091 126.127 122.750  1.00  0.00     0.013 C 
ATOM      5  C   UNL     1     130.235 127.641 123.071  1.00  0.00     0.026 C 
ATOM      6  C   UNL     1     131.175 128.387 122.117  1.00  0.00     0.171 C 
ATOM      7  O   UNL     1     131.716 129.488 122.819  1.00  0.00    -0.369 OA
ATOM      8  C   UNL     1     131.239 129.448 124.155  1.00  0.00     0.096 C 
ATOM      9  C   UNL     1     130.918 127.940 124.401  1.00  0.00     0.037 C 
ATOM     10  C   UNL     1     132.174 127.050 124.649  1.00  0.00     0.014 C 
ATOM     11  C   UNL     1     132.328 129.981 125.060  1.00  0.00     0.005 C 
ATOM     12  C   UNL     1     132.391 131.242 125.516  1.00  0.00    -0.024 C 
ATOM     13  C   UNL     1     131.339 132.337 125.302  1.00  0.00     0.024 C 
ATOM     14  C   UNL     1     131.973 133.813 125.170  1.00  0.00    -0.022 C 
ATOM     15  C   UNL     1     133.170 134.012 126.161  1.00  0.00     0.010 C 
ATOM     16  C   UNL     1     133.919 135.339 125.986  1.00  0.00     0.033 C 
ATOM     17  C   UNL     1     134.482 135.479 124.566  1.00  0.00     0.123 C 
ATOM     18  C   UNL     1     133.390 135.336 123.449  1.00  0.00     0.020 C 
ATOM     19  C   UNL     1     132.537 134.014 123.712  1.00  0.00     0.006 C 
ATOM     20  C   UNL     1     131.447 133.733 122.649  1.00  0.00     0.005 C 
ATOM     21  C   UNL     1     130.901 132.304 122.770  1.00  0.00     0.008 C 
ATOM     22  C   UNL     1     130.291 131.934 124.168  1.00  0.00    -0.017 C 
ATOM     23  C   UNL     1     129.930 130.351 124.305  1.00  0.00     0.009 C 
ATOM     24  C   UNL     1     128.884 129.863 123.234  1.00  0.00     0.043 C 
ATOM     25  C   UNL     1     128.818 128.315 123.085  1.00  0.00     0.124 C 
ATOM     26  C   UNL     1     129.274 130.105 125.715  1.00  0.00     0.015 C 
ATOM     27  C   UNL     1     128.969 132.765 124.320  1.00  0.00     0.013 C 
ATOM     28  C   UNL     1     132.510 136.614 123.387  1.00  0.00     0.017 C 
ATOM     29  C   UNL     1     130.876 134.865 125.561  1.00  0.00     0.012 C 
ATOM     30  C   UNL     1     130.954 124.997 125.545  1.00  0.00     0.011 C 
ENDROOT
BRANCH  25  31
ATOM     31  O   UNL     1     128.052 127.959 121.957  1.00  0.00    -0.392 OA
ATOM     32  H   UNL     1     127.641 127.073 122.124  1.00  0.00     0.210 HD
ENDBRANCH  25  31
BRANCH  18  33
ATOM     33  C   UNL     1     134.122 135.200 122.068  1.00  0.00     0.165 C 
BRANCH  33  34
ATOM     34  O   UNL     1     135.521 135.188 122.200  1.00  0.00    -0.396 OA
ATOM     35  H   UNL     1     135.876 134.550 121.527  1.00  0.00     0.210 HD
ENDBRANCH  33  34
ENDBRANCH  18  33
BRANCH  17  36
ATOM     36  O   UNL     1     135.140 136.719 124.466  1.00  0.00    -0.392 OA
ATOM     37  H   UNL     1     135.117 137.135 125.368  1.00  0.00     0.210 HD
ENDBRANCH  17  36
TORSDOF 4
ENDMDL
MODEL 6
REMARK VINA RESULT:    -7.407      2.020      8.123
REMARK INTER + INTRA:          -8.739
REMARK INTER:                  -8.481
REMARK INTRA:                  -0.258
REMARK UNBOUND:                -0.250
REMARK SMILES CC1(C)CC[C@@]23CO[C@]4(C=C[C@H]5[C@@]6(C)CC[C@H](O)[C@@](C)(CO)[C@@H]6CC[C@@]5(C)[C@@]4(C)C[C@H]2O)[C@@H]3C1
REMARK SMILES IDX 1 1 2 2 4 3 5 4 6 5 7 6 8 7 9 8 33 9 34 10 10 11 11 12 12 13
REMARK SMILES IDX 13 14 15 15 16 16 17 17 19 18 23 19 24 20 25 21 26 22 28 23
REMARK SMILES IDX 30 24 31 25 29 26 27 27 20 28 14 29 3 30 32 31 21 33 22 34
REMARK SMILES IDX 18 36
REMARK H PARENT 32 32 22 35 18 37
REMARK Flexibility Score: inf
ROOT
ATOM      1  C   UNL     1     131.800 139.262 124.955  1.00  0.00     0.011 C 
ATOM      2  C   UNL     1     132.781 138.144 124.542  1.00  0.00    -0.035 C 
ATOM      3  C   UNL     1     133.036 138.247 123.022  1.00  0.00     0.007 C 
ATOM      4  C   UNL     1     133.873 137.083 122.476  1.00  0.00     0.013 C 
ATOM      5  C   UNL     1     133.366 135.673 122.892  1.00  0.00     0.026 C 
ATOM      6  C   UNL     1     132.043 135.272 122.227  1.00  0.00     0.171 C 
ATOM      7  O   UNL     1     131.387 134.366 123.089  1.00  0.00    -0.369 OA
ATOM      8  C   UNL     1     132.163 134.221 124.268  1.00  0.00     0.096 C 
ATOM      9  C   UNL     1     132.969 135.556 124.360  1.00  0.00     0.037 C 
ATOM     10  C   UNL     1     132.135 136.774 124.859  1.00  0.00     0.014 C 
ATOM     11  C   UNL     1     131.218 134.015 125.431  1.00  0.00     0.005 C 
ATOM     12  C   UNL     1     130.894 132.819 125.947  1.00  0.00    -0.024 C 
ATOM     13  C   UNL     1     131.486 131.465 125.538  1.00  0.00     0.024 C 
ATOM     14  C   UNL     1     130.428 130.252 125.631  1.00  0.00    -0.022 C 
ATOM     15  C   UNL     1     129.504 130.394 126.889  1.00  0.00     0.010 C 
ATOM     16  C   UNL     1     128.374 129.359 126.960  1.00  0.00     0.033 C 
ATOM     17  C   UNL     1     127.468 129.436 125.724  1.00  0.00     0.123 C 
ATOM     18  C   UNL     1     128.248 129.276 124.373  1.00  0.00     0.020 C 
ATOM     19  C   UNL     1     129.494 130.272 124.362  1.00  0.00     0.006 C 
ATOM     20  C   UNL     1     130.326 130.242 123.057  1.00  0.00     0.005 C 
ATOM     21  C   UNL     1     131.286 131.437 122.976  1.00  0.00     0.008 C 
ATOM     22  C   UNL     1     132.299 131.566 124.169  1.00  0.00    -0.017 C 
ATOM     23  C   UNL     1     133.138 132.963 124.141  1.00  0.00     0.009 C 
ATOM     24  C   UNL     1     133.989 133.144 122.829  1.00  0.00     0.043 C 
ATOM     25  C   UNL     1     134.476 134.604 122.596  1.00  0.00     0.124 C 
ATOM     26  C   UNL     1     134.159 132.959 125.340  1.00  0.00     0.015 C 
ATOM     27  C   UNL     1     133.308 130.372 124.037  1.00  0.00     0.013 C 
ATOM     28  C   UNL     1     128.664 127.794 124.161  1.00  0.00     0.017 C 
ATOM     29  C   UNL     1     131.221 128.908 125.796  1.00  0.00     0.012 C 
ATOM     30  C   UNL     1     134.092 138.339 125.341  1.00  0.00     0.011 C 
ENDROOT
BRANCH  25  31
ATOM     31  O   UNL     1     135.016 134.746 121.303  1.00  0.00    -0.392 OA
ATOM     32  H   UNL     1     135.888 135.209 121.376  1.00  0.00     0.210 HD
ENDBRANCH  25  31
BRANCH  18  33
ATOM     33  C   UNL     1     127.278 129.665 123.203  1.00  0.00     0.165 C 
BRANCH  33  34
ATOM     34  O   UNL     1     126.514 128.575 122.752  1.00  0.00    -0.396 OA
ATOM     35  H   UNL     1     126.743 128.427 121.798  1.00  0.00     0.210 HD
ENDBRANCH  33  34
ENDBRANCH  18  33
BRANCH  17  36
ATOM     36  O   UNL     1     126.467 128.455 125.843  1.00  0.00    -0.392 OA
ATOM     37  H   UNL     1     126.923 127.594 126.038  1.00  0.00     0.210 HD
ENDBRANCH  17  36
TORSDOF 4
ENDMDL
MODEL 7
REMARK VINA RESULT:    -7.361      1.790      2.626
REMARK INTER + INTRA:          -8.686
REMARK INTER:                  -8.424
REMARK INTRA:                  -0.262
REMARK UNBOUND:                -0.250
REMARK SMILES CC1(C)CC[C@@]23CO[C@]4(C=C[C@H]5[C@@]6(C)CC[C@H](O)[C@@](C)(CO)[C@@H]6CC[C@@]5(C)[C@@]4(C)C[C@H]2O)[C@@H]3C1
REMARK SMILES IDX 1 1 2 2 4 3 5 4 6 5 7 6 8 7 9 8 33 9 34 10 10 11 11 12 12 13
REMARK SMILES IDX 13 14 15 15 16 16 17 17 19 18 23 19 24 20 25 21 26 22 28 23
REMARK SMILES IDX 30 24 31 25 29 26 27 27 20 28 14 29 3 30 32 31 21 33 22 34
REMARK SMILES IDX 18 36
REMARK H PARENT 32 32 22 35 18 37
REMARK Flexibility Score: inf
ROOT
ATOM      1  C   UNL     1     129.066 127.969 125.784  1.00  0.00     0.011 C 
ATOM      2  C   UNL     1     128.158 128.956 125.019  1.00  0.00    -0.035 C 
ATOM      3  C   UNL     1     128.161 128.572 123.524  1.00  0.00     0.007 C 
ATOM      4  C   UNL     1     127.416 129.586 122.645  1.00  0.00     0.013 C 
ATOM      5  C   UNL     1     127.833 131.066 122.873  1.00  0.00     0.026 C 
ATOM      6  C   UNL     1     129.244 131.394 122.369  1.00  0.00     0.171 C 
ATOM      7  O   UNL     1     129.739 132.466 123.147  1.00  0.00    -0.369 OA
ATOM      8  C   UNL     1     128.775 132.787 124.137  1.00  0.00     0.096 C 
ATOM      9  C   UNL     1     127.978 131.460 124.339  1.00  0.00     0.037 C 
ATOM     10  C   UNL     1     128.728 130.385 125.182  1.00  0.00     0.014 C 
ATOM     11  C   UNL     1     129.511 133.236 125.381  1.00  0.00     0.005 C 
ATOM     12  C   UNL     1     129.733 134.517 125.715  1.00  0.00    -0.024 C 
ATOM     13  C   UNL     1     129.203 135.751 124.975  1.00  0.00     0.024 C 
ATOM     14  C   UNL     1     130.220 137.002 125.015  1.00  0.00    -0.022 C 
ATOM     15  C   UNL     1     130.922 137.124 126.411  1.00  0.00     0.010 C 
ATOM     16  C   UNL     1     132.014 138.200 126.474  1.00  0.00     0.033 C 
ATOM     17  C   UNL     1     133.114 137.939 125.437  1.00  0.00     0.123 C 
ATOM     18  C   UNL     1     132.569 137.824 123.971  1.00  0.00     0.020 C 
ATOM     19  C   UNL     1     131.353 136.793 123.940  1.00  0.00     0.006 C 
ATOM     20  C   UNL     1     130.750 136.556 122.534  1.00  0.00     0.005 C 
ATOM     21  C   UNL     1     129.829 135.329 122.518  1.00  0.00     0.008 C 
ATOM     22  C   UNL     1     128.632 135.374 123.534  1.00  0.00    -0.017 C 
ATOM     23  C   UNL     1     127.823 133.963 123.626  1.00  0.00     0.009 C 
ATOM     24  C   UNL     1     127.205 133.517 122.249  1.00  0.00     0.043 C 
ATOM     25  C   UNL     1     126.778 132.020 122.211  1.00  0.00     0.124 C 
ATOM     26  C   UNL     1     126.616 134.140 124.622  1.00  0.00     0.015 C 
ATOM     27  C   UNL     1     127.648 136.485 123.024  1.00  0.00     0.013 C 
ATOM     28  C   UNL     1     132.181 139.226 123.427  1.00  0.00     0.017 C 
ATOM     29  C   UNL     1     129.397 138.321 124.801  1.00  0.00     0.012 C 
ATOM     30  C   UNL     1     126.733 128.854 125.617  1.00  0.00     0.011 C 
ENDROOT
BRANCH  25  31
ATOM     31  O   UNL     1     126.463 131.628 120.894  1.00  0.00    -0.392 OA
ATOM     32  H   UNL     1     125.586 131.167 120.906  1.00  0.00     0.210 HD
ENDBRANCH  25  31
BRANCH  18  33
ATOM     33  C   UNL     1     133.725 137.271 123.065  1.00  0.00     0.165 C 
BRANCH  33  34
ATOM     34  O   UNL     1     134.790 138.179 122.938  1.00  0.00    -0.396 OA
ATOM     35  H   UNL     1     134.808 138.733 123.761  1.00  0.00     0.210 HD
ENDBRANCH  33  34
ENDBRANCH  18  33
BRANCH  17  36
ATOM     36  O   UNL     1     134.072 138.965 125.536  1.00  0.00    -0.392 OA
ATOM     37  H   UNL     1     134.926 138.604 125.179  1.00  0.00     0.210 HD
ENDBRANCH  17  36
TORSDOF 4
ENDMDL
MODEL 8
REMARK VINA RESULT:    -7.350      2.743      4.157
REMARK INTER + INTRA:          -8.674
REMARK INTER:                  -8.410
REMARK INTRA:                  -0.264
REMARK UNBOUND:                -0.250
REMARK SMILES CC1(C)CC[C@@]23CO[C@]4(C=C[C@H]5[C@@]6(C)CC[C@H](O)[C@@](C)(CO)[C@@H]6CC[C@@]5(C)[C@@]4(C)C[C@H]2O)[C@@H]3C1
REMARK SMILES IDX 1 1 2 2 4 3 5 4 6 5 7 6 8 7 9 8 33 9 34 10 10 11 11 12 12 13
REMARK SMILES IDX 13 14 15 15 16 16 17 17 19 18 23 19 24 20 25 21 26 22 28 23
REMARK SMILES IDX 30 24 31 25 29 26 27 27 20 28 14 29 3 30 32 31 21 33 22 34
REMARK SMILES IDX 18 36
REMARK H PARENT 32 32 22 35 18 37
REMARK Flexibility Score: inf
ROOT
ATOM      1  C   UNL     1     134.056 123.850 125.853  1.00  0.00     0.011 C 
ATOM      2  C   UNL     1     132.757 124.540 125.385  1.00  0.00    -0.035 C 
ATOM      3  C   UNL     1     132.515 124.183 123.902  1.00  0.00     0.007 C 
ATOM      4  C   UNL     1     131.334 124.947 123.289  1.00  0.00     0.013 C 
ATOM      5  C   UNL     1     131.365 126.483 123.526  1.00  0.00     0.026 C 
ATOM      6  C   UNL     1     132.471 127.205 122.746  1.00  0.00     0.171 C 
ATOM      7  O   UNL     1     132.817 128.368 123.470  1.00  0.00    -0.369 OA
ATOM      8  C   UNL     1     132.063 128.394 124.671  1.00  0.00     0.096 C 
ATOM      9  C   UNL     1     131.736 126.892 124.948  1.00  0.00     0.037 C 
ATOM     10  C   UNL     1     132.930 126.071 125.521  1.00  0.00     0.014 C 
ATOM     11  C   UNL     1     132.916 129.026 125.749  1.00  0.00     0.005 C 
ATOM     12  C   UNL     1     132.847 130.314 126.118  1.00  0.00    -0.024 C 
ATOM     13  C   UNL     1     131.838 131.350 125.607  1.00  0.00     0.024 C 
ATOM     14  C   UNL     1     132.448 132.840 125.511  1.00  0.00    -0.022 C 
ATOM     15  C   UNL     1     133.396 133.148 126.720  1.00  0.00     0.010 C 
ATOM     16  C   UNL     1     134.131 134.491 126.617  1.00  0.00     0.033 C 
ATOM     17  C   UNL     1     134.984 134.564 125.344  1.00  0.00     0.123 C 
ATOM     18  C   UNL     1     134.164 134.307 124.032  1.00  0.00     0.020 C 
ATOM     19  C   UNL     1     133.309 132.971 124.198  1.00  0.00     0.006 C 
ATOM     20  C   UNL     1     132.483 132.580 122.948  1.00  0.00     0.005 C 
ATOM     21  C   UNL     1     131.960 131.141 123.048  1.00  0.00     0.008 C 
ATOM     22  C   UNL     1     131.071 130.835 124.306  1.00  0.00    -0.017 C 
ATOM     23  C   UNL     1     130.730 129.250 124.472  1.00  0.00     0.009 C 
ATOM     24  C   UNL     1     129.954 128.655 123.239  1.00  0.00     0.043 C 
ATOM     25  C   UNL     1     129.962 127.099 123.188  1.00  0.00     0.124 C 
ATOM     26  C   UNL     1     129.790 129.067 125.723  1.00  0.00     0.015 C 
ATOM     27  C   UNL     1     129.727 131.620 124.112  1.00  0.00     0.013 C 
ATOM     28  C   UNL     1     133.286 135.542 123.693  1.00  0.00     0.017 C 
ATOM     29  C   UNL     1     131.265 133.869 125.583  1.00  0.00     0.012 C 
ATOM     30  C   UNL     1     131.598 124.030 126.276  1.00  0.00     0.011 C 
ENDROOT
BRANCH  25  31
ATOM     31  O   UNL     1     129.468 126.642 121.950  1.00  0.00    -0.392 OA
ATOM     32  H   UNL     1     129.050 127.405 121.478  1.00  0.00     0.210 HD
ENDBRANCH  25  31
BRANCH  18  33
ATOM     33  C   UNL     1     135.181 134.114 122.853  1.00  0.00     0.165 C 
BRANCH  33  34
ATOM     34  O   UNL     1     135.567 135.333 122.270  1.00  0.00    -0.396 OA
ATOM     35  H   UNL     1     136.552 135.408 122.364  1.00  0.00     0.210 HD
ENDBRANCH  33  34
ENDBRANCH  18  33
BRANCH  17  36
ATOM     36  O   UNL     1     135.615 135.820 125.302  1.00  0.00    -0.392 OA
ATOM     37  H   UNL     1     136.552 135.667 125.008  1.00  0.00     0.210 HD
ENDBRANCH  17  36
TORSDOF 4
ENDMDL
MODEL 9
REMARK VINA RESULT:    -7.268      2.767      8.482
REMARK INTER + INTRA:          -8.580
REMARK INTER:                  -8.466
REMARK INTRA:                  -0.114
REMARK UNBOUND:                -0.250
REMARK SMILES CC1(C)CC[C@@]23CO[C@]4(C=C[C@H]5[C@@]6(C)CC[C@H](O)[C@@](C)(CO)[C@@H]6CC[C@@]5(C)[C@@]4(C)C[C@H]2O)[C@@H]3C1
REMARK SMILES IDX 1 1 2 2 4 3 5 4 6 5 7 6 8 7 9 8 33 9 34 10 10 11 11 12 12 13
REMARK SMILES IDX 13 14 15 15 16 16 17 17 19 18 23 19 24 20 25 21 26 22 28 23
REMARK SMILES IDX 30 24 31 25 29 26 27 27 20 28 14 29 3 30 32 31 21 33 22 34
REMARK SMILES IDX 18 36
REMARK H PARENT 32 32 22 35 18 37
REMARK Flexibility Score: inf
ROOT
ATOM      1  C   UNL     1     131.484 137.651 125.131  1.00  0.00     0.011 C 
ATOM      2  C   UNL     1     132.667 136.830 124.575  1.00  0.00    -0.035 C 
ATOM      3  C   UNL     1     132.761 137.068 123.053  1.00  0.00     0.007 C 
ATOM      4  C   UNL     1     133.805 136.173 122.371  1.00  0.00     0.013 C 
ATOM      5  C   UNL     1     133.689 134.664 122.723  1.00  0.00     0.026 C 
ATOM      6  C   UNL     1     132.451 133.985 122.124  1.00  0.00     0.171 C 
ATOM      7  O   UNL     1     132.106 132.903 122.965  1.00  0.00    -0.369 OA
ATOM      8  C   UNL     1     132.989 132.894 124.075  1.00  0.00     0.096 C 
ATOM      9  C   UNL     1     133.456 134.379 124.203  1.00  0.00     0.037 C 
ATOM     10  C   UNL     1     132.398 135.329 124.841  1.00  0.00     0.014 C 
ATOM     11  C   UNL     1     132.222 132.404 125.283  1.00  0.00     0.005 C 
ATOM     12  C   UNL     1     132.239 131.141 125.737  1.00  0.00    -0.024 C 
ATOM     13  C   UNL     1     133.104 129.996 125.196  1.00  0.00     0.024 C 
ATOM     14  C   UNL     1     132.380 128.557 125.277  1.00  0.00    -0.022 C 
ATOM     15  C   UNL     1     131.558 128.406 126.602  1.00  0.00     0.010 C 
ATOM     16  C   UNL     1     130.719 127.123 126.679  1.00  0.00     0.033 C 
ATOM     17  C   UNL     1     129.722 127.037 125.517  1.00  0.00     0.123 C 
ATOM     18  C   UNL     1     130.402 127.141 124.107  1.00  0.00     0.020 C 
ATOM     19  C   UNL     1     131.366 128.412 124.080  1.00  0.00     0.006 C 
ATOM     20  C   UNL     1     132.069 128.652 122.721  1.00  0.00     0.005 C 
ATOM     21  C   UNL     1     132.704 130.048 122.657  1.00  0.00     0.008 C 
ATOM     22  C   UNL     1     133.752 130.362 123.784  1.00  0.00    -0.017 C 
ATOM     23  C   UNL     1     134.224 131.921 123.795  1.00  0.00     0.009 C 
ATOM     24  C   UNL     1     134.895 132.371 122.443  1.00  0.00     0.043 C 
ATOM     25  C   UNL     1     134.995 133.916 122.279  1.00  0.00     0.124 C 
ATOM     26  C   UNL     1     135.313 132.108 124.918  1.00  0.00     0.015 C 
ATOM     27  C   UNL     1     135.003 129.459 123.501  1.00  0.00     0.013 C 
ATOM     28  C   UNL     1     131.143 125.819 123.766  1.00  0.00     0.017 C 
ATOM     29  C   UNL     1     133.485 127.443 125.294  1.00  0.00     0.012 C 
ATOM     30  C   UNL     1     133.954 137.300 125.294  1.00  0.00     0.011 C 
ENDROOT
BRANCH  25  31
ATOM     31  O   UNL     1     135.375 134.250 120.964  1.00  0.00    -0.392 OA
ATOM     32  H   UNL     1     134.980 135.130 120.737  1.00  0.00     0.210 HD
ENDBRANCH  25  31
BRANCH  18  33
ATOM     33  C   UNL     1     129.273 127.339 123.036  1.00  0.00     0.165 C 
BRANCH  33  34
ATOM     34  O   UNL     1     129.342 126.392 122.000  1.00  0.00    -0.396 OA
ATOM     35  H   UNL     1     129.440 125.499 122.421  1.00  0.00     0.210 HD
ENDBRANCH  33  34
ENDBRANCH  18  33
BRANCH  17  36
ATOM     36  O   UNL     1     129.000 125.836 125.636  1.00  0.00    -0.392 OA
ATOM     37  H   UNL     1     128.912 125.455 124.723  1.00  0.00     0.210 HD
ENDBRANCH  17  36
TORSDOF 4
ENDMDL
