MODEL 1
REMARK VINA RESULT:    -4.928      0.000      0.000
REMARK INTER + INTRA:          -6.462
REMARK INTER:                  -6.081
REMARK INTRA:                  -0.381
REMARK UNBOUND:                -0.381
REMARK SMILES Oc1cc(O)c2cc(O)c(-c3cc(O)c(O)c(O)c3)[o+]c2c1
REMARK SMILES IDX 10 1 20 2 21 3 22 4 2 5 3 6 4 7 6 8 7 9 8 10 11 11 12 12
REMARK SMILES IDX 13 13 19 14 15 15 17 16 14 17 16 19 18 21 9 23 1 25 5 27
REMARK H PARENT 14 18 16 20 18 22 9 24 1 26 5 28
REMARK Flexibility Score: inf
ROOT
ATOM      1  C   UNL     1      23.845  71.993  13.168  1.00  0.00     0.402 A 
ATOM      2  O   UNL     1      25.029  71.990  13.774  1.00  0.00    -0.202 OA
ATOM      3  C   UNL     1      26.185  71.977  13.118  1.00  0.00     0.368 A 
ATOM      4  C   UNL     1      27.378  71.978  13.843  1.00  0.00     0.162 A 
ATOM      5  C   UNL     1      28.609  71.966  13.178  1.00  0.00     0.128 A 
ATOM      6  C   UNL     1      28.643  71.954  11.782  1.00  0.00     0.093 A 
ATOM      7  C   UNL     1      27.462  71.953  11.032  1.00  0.00     0.136 A 
ATOM      8  C   UNL     1      26.210  71.961  11.703  1.00  0.00     0.125 A 
ATOM      9  C   UNL     1      24.976  71.948  11.033  1.00  0.00     0.078 A 
ATOM     10  C   UNL     1      23.783  71.953  11.762  1.00  0.00     0.223 A 
ENDROOT
BRANCH   1  11
ATOM     11  C   UNL     1      22.627  72.019  14.010  1.00  0.00     0.091 A 
ATOM     12  C   UNL     1      22.158  70.827  14.582  1.00  0.00     0.068 A 
ATOM     13  C   UNL     1      21.019  70.827  15.400  1.00  0.00     0.162 A 
ATOM     14  C   UNL     1      21.961  73.223  14.296  1.00  0.00     0.068 A 
ATOM     15  C   UNL     1      20.348  72.033  15.664  1.00  0.00     0.200 A 
ATOM     16  C   UNL     1      20.823  73.230  15.114  1.00  0.00     0.162 A 
BRANCH  13  17
ATOM     17  O   UNL     1      20.554  69.634  15.952  1.00  0.00    -0.504 OA
ATOM     18  H   UNL     1      21.134  69.070  16.563  1.00  0.00     0.293 HD
ENDBRANCH  13  17
BRANCH  15  19
ATOM     19  O   UNL     1      19.210  72.058  16.472  1.00  0.00    -0.502 OA
ATOM     20  H   UNL     1      18.741  71.211  16.768  1.00  0.00     0.293 HD
ENDBRANCH  15  19
BRANCH  16  21
ATOM     21  O   UNL     1      20.161  74.425  15.390  1.00  0.00    -0.504 OA
ATOM     22  H   UNL     1      19.719  74.969  14.658  1.00  0.00     0.293 HD
ENDBRANCH  16  21
ENDBRANCH   1  11
BRANCH  10  23
ATOM     23  O   UNL     1      22.557  71.889  11.100  1.00  0.00    -0.500 OA
ATOM     24  H   UNL     1      22.415  72.328  10.198  1.00  0.00     0.294 HD
ENDBRANCH  10  23
BRANCH   5  25
ATOM     25  O   UNL     1      29.802  71.967  13.895  1.00  0.00    -0.507 OA
ATOM     26  H   UNL     1      30.654  72.355  13.505  1.00  0.00     0.293 HD
ENDBRANCH   5  25
BRANCH   7  27
ATOM     27  O   UNL     1      27.582  71.944   9.639  1.00  0.00    -0.507 OA
ATOM     28  H   UNL     1      27.550  72.768   9.057  1.00  0.00     0.293 HD
ENDBRANCH   7  27
TORSDOF 7
ENDMDL
MODEL 2
REMARK VINA RESULT:    -4.895      0.150      1.793
REMARK INTER + INTRA:          -6.421
REMARK INTER:                  -6.052
REMARK INTRA:                  -0.369
REMARK UNBOUND:                -0.381
REMARK SMILES Oc1cc(O)c2cc(O)c(-c3cc(O)c(O)c(O)c3)[o+]c2c1
REMARK SMILES IDX 10 1 20 2 21 3 22 4 2 5 3 6 4 7 6 8 7 9 8 10 11 11 12 12
REMARK SMILES IDX 13 13 19 14 15 15 17 16 14 17 16 19 18 21 9 23 1 25 5 27
REMARK H PARENT 14 18 16 20 18 22 9 24 1 26 5 28
REMARK Flexibility Score: inf
ROOT
ATOM      1  C   UNL     1      23.850  71.995  13.160  1.00  0.00     0.402 A 
ATOM      2  O   UNL     1      25.059  71.956  13.713  1.00  0.00    -0.202 OA
ATOM      3  C   UNL     1      26.185  71.953  13.007  1.00  0.00     0.368 A 
ATOM      4  C   UNL     1      27.409  71.913  13.678  1.00  0.00     0.162 A 
ATOM      5  C   UNL     1      28.609  71.911  12.959  1.00  0.00     0.128 A 
ATOM      6  C   UNL     1      28.582  71.950  11.564  1.00  0.00     0.093 A 
ATOM      7  C   UNL     1      27.369  71.991  10.867  1.00  0.00     0.136 A 
ATOM      8  C   UNL     1      26.148  71.989  11.592  1.00  0.00     0.125 A 
ATOM      9  C   UNL     1      24.886  72.015  10.978  1.00  0.00     0.078 A 
ATOM     10  C   UNL     1      23.726  72.007  11.758  1.00  0.00     0.223 A 
ENDROOT
BRANCH   1  11
ATOM     11  C   UNL     1      22.670  72.005  14.056  1.00  0.00     0.091 A 
ATOM     12  C   UNL     1      22.049  73.225  14.364  1.00  0.00     0.068 A 
ATOM     13  C   UNL     1      20.919  73.261  15.194  1.00  0.00     0.162 A 
ATOM     14  C   UNL     1      22.125  70.813  14.562  1.00  0.00     0.068 A 
ATOM     15  C   UNL     1      20.393  72.066  15.711  1.00  0.00     0.200 A 
ATOM     16  C   UNL     1      20.995  70.843  15.390  1.00  0.00     0.162 A 
BRANCH  13  17
ATOM     17  O   UNL     1      20.317  74.481  15.503  1.00  0.00    -0.504 OA
ATOM     18  H   UNL     1      20.219  75.215  14.812  1.00  0.00     0.293 HD
ENDBRANCH  13  17
BRANCH  15  19
ATOM     19  O   UNL     1      19.271  72.077  16.541  1.00  0.00    -0.502 OA
ATOM     20  H   UNL     1      19.341  71.960  17.544  1.00  0.00     0.293 HD
ENDBRANCH  15  19
BRANCH  16  21
ATOM     21  O   UNL     1      20.460  69.659  15.895  1.00  0.00    -0.504 OA
ATOM     22  H   UNL     1      19.460  69.520  15.978  1.00  0.00     0.293 HD
ENDBRANCH  16  21
ENDBRANCH   1  11
BRANCH  10  23
ATOM     23  O   UNL     1      22.472  71.983  11.148  1.00  0.00    -0.500 OA
ATOM     24  H   UNL     1      22.023  71.113  10.887  1.00  0.00     0.294 HD
ENDBRANCH  10  23
BRANCH   5  25
ATOM     25  O   UNL     1      29.833  71.872  13.622  1.00  0.00    -0.507 OA
ATOM     26  H   UNL     1      30.457  72.670  13.631  1.00  0.00     0.293 HD
ENDBRANCH   5  25
BRANCH   7  27
ATOM     27  O   UNL     1      27.428  72.031   9.471  1.00  0.00    -0.507 OA
ATOM     28  H   UNL     1      28.154  71.601   8.917  1.00  0.00     0.293 HD
ENDBRANCH   7  27
TORSDOF 7
ENDMDL
MODEL 3
REMARK VINA RESULT:    -4.831      1.368      7.008
REMARK INTER + INTRA:          -6.342
REMARK INTER:                  -5.975
REMARK INTRA:                  -0.367
REMARK UNBOUND:                -0.381
REMARK SMILES Oc1cc(O)c2cc(O)c(-c3cc(O)c(O)c(O)c3)[o+]c2c1
REMARK SMILES IDX 10 1 20 2 21 3 22 4 2 5 3 6 4 7 6 8 7 9 8 10 11 11 12 12
REMARK SMILES IDX 13 13 19 14 15 15 17 16 14 17 16 19 18 21 9 23 1 25 5 27
REMARK H PARENT 14 18 16 20 18 22 9 24 1 26 5 28
REMARK Flexibility Score: inf
ROOT
ATOM      1  C   UNL     1      24.081  72.232  12.877  1.00  0.00     0.402 A 
ATOM      2  O   UNL     1      23.563  71.472  13.839  1.00  0.00    -0.202 OA
ATOM      3  C   UNL     1      22.471  71.803  14.522  1.00  0.00     0.368 A 
ATOM      4  C   UNL     1      22.001  70.938  15.512  1.00  0.00     0.162 A 
ATOM      5  C   UNL     1      20.854  71.260  16.244  1.00  0.00     0.128 A 
ATOM      6  C   UNL     1      20.175  72.452  15.984  1.00  0.00     0.093 A 
ATOM      7  C   UNL     1      20.626  73.336  14.996  1.00  0.00     0.136 A 
ATOM      8  C   UNL     1      21.792  73.015  14.252  1.00  0.00     0.125 A 
ATOM      9  C   UNL     1      22.323  73.847  13.254  1.00  0.00     0.078 A 
ATOM     10  C   UNL     1      23.479  73.466  12.566  1.00  0.00     0.223 A 
ENDROOT
BRANCH   1  11
ATOM     11  C   UNL     1      25.295  71.749  12.181  1.00  0.00     0.091 A 
ATOM     12  C   UNL     1      25.169  71.112  10.937  1.00  0.00     0.068 A 
ATOM     13  C   UNL     1      26.304  70.662  10.247  1.00  0.00     0.162 A 
ATOM     14  C   UNL     1      26.578  71.963  12.712  1.00  0.00     0.068 A 
ATOM     15  C   UNL     1      27.581  70.863  10.796  1.00  0.00     0.200 A 
ATOM     16  C   UNL     1      27.716  71.518  12.026  1.00  0.00     0.162 A 
BRANCH  13  17
ATOM     17  O   UNL     1      26.165  70.018   9.018  1.00  0.00    -0.504 OA
ATOM     18  H   UNL     1      25.715  69.113   8.940  1.00  0.00     0.293 HD
ENDBRANCH  13  17
BRANCH  15  19
ATOM     19  O   UNL     1      28.725  70.422  10.129  1.00  0.00    -0.502 OA
ATOM     20  H   UNL     1      29.233  69.595  10.418  1.00  0.00     0.293 HD
ENDBRANCH  15  19
BRANCH  16  21
ATOM     21  O   UNL     1      28.986  71.727  12.560  1.00  0.00    -0.504 OA
ATOM     22  H   UNL     1      29.528  72.553  12.334  1.00  0.00     0.293 HD
ENDBRANCH  16  21
ENDBRANCH   1  11
BRANCH  10  23
ATOM     23  O   UNL     1      24.036  74.314  11.609  1.00  0.00    -0.500 OA
ATOM     24  H   UNL     1      23.557  74.528  10.742  1.00  0.00     0.294 HD
ENDBRANCH  10  23
BRANCH   5  25
ATOM     25  O   UNL     1      20.379  70.401  17.232  1.00  0.00    -0.507 OA
ATOM     26  H   UNL     1      19.433  70.038  17.209  1.00  0.00     0.293 HD
ENDBRANCH   5  25
BRANCH   7  27
ATOM     27  O   UNL     1      19.889  74.507  14.794  1.00  0.00    -0.507 OA
ATOM     28  H   UNL     1      19.222  74.883  15.452  1.00  0.00     0.293 HD
ENDBRANCH   7  27
TORSDOF 7
ENDMDL
MODEL 4
REMARK VINA RESULT:    -4.403      3.566      7.728
REMARK INTER + INTRA:          -5.813
REMARK INTER:                  -5.539
REMARK INTRA:                  -0.275
REMARK UNBOUND:                -0.381
REMARK SMILES Oc1cc(O)c2cc(O)c(-c3cc(O)c(O)c(O)c3)[o+]c2c1
REMARK SMILES IDX 10 1 20 2 21 3 22 4 2 5 3 6 4 7 6 8 7 9 8 10 11 11 12 12
REMARK SMILES IDX 13 13 19 14 15 15 17 16 14 17 16 19 18 21 9 23 1 25 5 27
REMARK H PARENT 14 18 16 20 18 22 9 24 1 26 5 28
REMARK Flexibility Score: inf
ROOT
ATOM      1  C   UNL     1      21.506  70.008  16.601  1.00  0.00     0.402 A 
ATOM      2  O   UNL     1      20.705  69.105  16.041  1.00  0.00    -0.202 OA
ATOM      3  C   UNL     1      20.480  67.905  16.564  1.00  0.00     0.368 A 
ATOM      4  C   UNL     1      19.619  67.025  15.904  1.00  0.00     0.162 A 
ATOM      5  C   UNL     1      19.363  65.756  16.433  1.00  0.00     0.128 A 
ATOM      6  C   UNL     1      19.971  65.367  17.629  1.00  0.00     0.093 A 
ATOM      7  C   UNL     1      20.837  66.230  18.311  1.00  0.00     0.136 A 
ATOM      8  C   UNL     1      21.103  67.518  17.775  1.00  0.00     0.125 A 
ATOM      9  C   UNL     1      21.967  68.443  18.383  1.00  0.00     0.078 A 
ATOM     10  C   UNL     1      22.183  69.692  17.793  1.00  0.00     0.223 A 
ENDROOT
BRANCH   1  11
ATOM     11  C   UNL     1      21.667  71.316  15.926  1.00  0.00     0.091 A 
ATOM     12  C   UNL     1      22.873  71.612  15.274  1.00  0.00     0.068 A 
ATOM     13  C   UNL     1      23.045  72.836  14.610  1.00  0.00     0.162 A 
ATOM     14  C   UNL     1      20.616  72.248  15.876  1.00  0.00     0.068 A 
ATOM     15  C   UNL     1      21.995  73.769  14.583  1.00  0.00     0.200 A 
ATOM     16  C   UNL     1      20.781  73.471  15.212  1.00  0.00     0.162 A 
BRANCH  13  17
ATOM     17  O   UNL     1      24.253  73.125  13.978  1.00  0.00    -0.504 OA
ATOM     18  H   UNL     1      25.144  72.890  14.401  1.00  0.00     0.293 HD
ENDBRANCH  13  17
BRANCH  15  19
ATOM     19  O   UNL     1      22.143  74.994  13.931  1.00  0.00    -0.502 OA
ATOM     20  H   UNL     1      21.857  75.868  14.354  1.00  0.00     0.293 HD
ENDBRANCH  15  19
BRANCH  16  21
ATOM     21  O   UNL     1      19.738  74.395  15.170  1.00  0.00    -0.504 OA
ATOM     22  H   UNL     1      19.866  75.354  15.470  1.00  0.00     0.293 HD
ENDBRANCH  16  21
ENDBRANCH   1  11
BRANCH  10  23
ATOM     23  O   UNL     1      23.080  70.592  18.370  1.00  0.00    -0.500 OA
ATOM     24  H   UNL     1      24.008  70.737  17.990  1.00  0.00     0.294 HD
ENDBRANCH  10  23
BRANCH   5  25
ATOM     25  O   UNL     1      18.505  64.875  15.780  1.00  0.00    -0.507 OA
ATOM     26  H   UNL     1      18.831  63.983  15.426  1.00  0.00     0.293 HD
ENDBRANCH   5  25
BRANCH   7  27
ATOM     27  O   UNL     1      21.402  65.766  19.502  1.00  0.00    -0.507 OA
ATOM     28  H   UNL     1      21.916  64.902  19.592  1.00  0.00     0.293 HD
ENDBRANCH   7  27
TORSDOF 7
ENDMDL
MODEL 5
REMARK VINA RESULT:    -4.353      3.827      6.323
REMARK INTER + INTRA:          -5.752
REMARK INTER:                  -5.388
REMARK INTRA:                  -0.364
REMARK UNBOUND:                -0.381
REMARK SMILES Oc1cc(O)c2cc(O)c(-c3cc(O)c(O)c(O)c3)[o+]c2c1
REMARK SMILES IDX 10 1 20 2 21 3 22 4 2 5 3 6 4 7 6 8 7 9 8 10 11 11 12 12
REMARK SMILES IDX 13 13 19 14 15 15 17 16 14 17 16 19 18 21 9 23 1 25 5 27
REMARK H PARENT 14 18 16 20 18 22 9 24 1 26 5 28
REMARK Flexibility Score: inf
ROOT
ATOM      1  C   UNL     1      22.103  69.730  16.627  1.00  0.00     0.402 A 
ATOM      2  O   UNL     1      21.713  69.852  15.361  1.00  0.00    -0.202 OA
ATOM      3  C   UNL     1      21.937  70.939  14.630  1.00  0.00     0.368 A 
ATOM      4  C   UNL     1      21.492  70.972  13.306  1.00  0.00     0.162 A 
ATOM      5  C   UNL     1      21.716  72.102  12.514  1.00  0.00     0.128 A 
ATOM      6  C   UNL     1      22.390  73.203  13.048  1.00  0.00     0.093 A 
ATOM      7  C   UNL     1      22.847  73.195  14.371  1.00  0.00     0.136 A 
ATOM      8  C   UNL     1      22.619  72.051  15.181  1.00  0.00     0.125 A 
ATOM      9  C   UNL     1      23.029  71.959  16.521  1.00  0.00     0.078 A 
ATOM     10  C   UNL     1      22.764  70.801  17.257  1.00  0.00     0.223 A 
ENDROOT
BRANCH   1  11
ATOM     11  C   UNL     1      21.804  68.463  17.333  1.00  0.00     0.091 A 
ATOM     12  C   UNL     1      22.805  67.487  17.453  1.00  0.00     0.068 A 
ATOM     13  C   UNL     1      22.554  66.287  18.133  1.00  0.00     0.162 A 
ATOM     14  C   UNL     1      20.554  68.238  17.935  1.00  0.00     0.068 A 
ATOM     15  C   UNL     1      21.295  66.063  18.714  1.00  0.00     0.200 A 
ATOM     16  C   UNL     1      20.298  67.041  18.618  1.00  0.00     0.162 A 
BRANCH  13  17
ATOM     17  O   UNL     1      23.552  65.318  18.234  1.00  0.00    -0.504 OA
ATOM     18  H   UNL     1      24.288  65.241  17.541  1.00  0.00     0.293 HD
ENDBRANCH  13  17
BRANCH  15  19
ATOM     19  O   UNL     1      21.021  64.875  19.394  1.00  0.00    -0.502 OA
ATOM     20  H   UNL     1      21.207  64.764  20.383  1.00  0.00     0.293 HD
ENDBRANCH  15  19
BRANCH  16  21
ATOM     21  O   UNL     1      19.055  66.820  19.208  1.00  0.00    -0.504 OA
ATOM     22  H   UNL     1      18.946  66.770  20.215  1.00  0.00     0.293 HD
ENDBRANCH  16  21
ENDBRANCH   1  11
BRANCH  10  23
ATOM     23  O   UNL     1      23.127  70.728  18.602  1.00  0.00    -0.500 OA
ATOM     24  H   UNL     1      24.086  70.856  18.903  1.00  0.00     0.294 HD
ENDBRANCH  10  23
BRANCH   5  25
ATOM     25  O   UNL     1      21.275  72.142  11.194  1.00  0.00    -0.507 OA
ATOM     26  H   UNL     1      20.828  72.966  10.808  1.00  0.00     0.293 HD
ENDBRANCH   5  25
BRANCH   7  27
ATOM     27  O   UNL     1      23.515  74.334  14.830  1.00  0.00    -0.507 OA
ATOM     28  H   UNL     1      23.867  75.069  14.233  1.00  0.00     0.293 HD
ENDBRANCH   7  27
TORSDOF 7
ENDMDL
MODEL 6
REMARK VINA RESULT:    -4.250      8.807     11.664
REMARK INTER + INTRA:          -5.625
REMARK INTER:                  -5.250
REMARK INTRA:                  -0.375
REMARK UNBOUND:                -0.381
REMARK SMILES Oc1cc(O)c2cc(O)c(-c3cc(O)c(O)c(O)c3)[o+]c2c1
REMARK SMILES IDX 10 1 20 2 21 3 22 4 2 5 3 6 4 7 6 8 7 9 8 10 11 11 12 12
REMARK SMILES IDX 13 13 19 14 15 15 17 16 14 17 16 19 18 21 9 23 1 25 5 27
REMARK H PARENT 14 18 16 20 18 22 9 24 1 26 5 28
REMARK Flexibility Score: inf
ROOT
ATOM      1  C   UNL     1      23.846  81.108  12.637  1.00  0.00     0.402 A 
ATOM      2  O   UNL     1      23.158  81.992  13.356  1.00  0.00    -0.202 OA
ATOM      3  C   UNL     1      21.834  81.970  13.467  1.00  0.00     0.368 A 
ATOM      4  C   UNL     1      21.201  82.940  14.247  1.00  0.00     0.162 A 
ATOM      5  C   UNL     1      19.809  82.939  14.382  1.00  0.00     0.128 A 
ATOM      6  C   UNL     1      19.048  81.963  13.735  1.00  0.00     0.093 A 
ATOM      7  C   UNL     1      19.659  80.979  12.947  1.00  0.00     0.136 A 
ATOM      8  C   UNL     1      21.071  80.978  12.804  1.00  0.00     0.125 A 
ATOM      9  C   UNL     1      21.767  80.040  12.025  1.00  0.00     0.078 A 
ATOM     10  C   UNL     1      23.160  80.105  11.927  1.00  0.00     0.223 A 
ENDROOT
BRANCH   1  11
ATOM     11  C   UNL     1      25.321  81.232  12.601  1.00  0.00     0.091 A 
ATOM     12  C   UNL     1      26.092  80.579  13.575  1.00  0.00     0.068 A 
ATOM     13  C   UNL     1      27.492  80.664  13.553  1.00  0.00     0.162 A 
ATOM     14  C   UNL     1      25.971  81.945  11.579  1.00  0.00     0.068 A 
ATOM     15  C   UNL     1      28.132  81.395  12.538  1.00  0.00     0.200 A 
ATOM     16  C   UNL     1      27.370  82.030  11.550  1.00  0.00     0.162 A 
BRANCH  13  17
ATOM     17  O   UNL     1      28.247  80.022  14.534  1.00  0.00    -0.504 OA
ATOM     18  H   UNL     1      28.762  80.544  15.233  1.00  0.00     0.293 HD
ENDBRANCH  13  17
BRANCH  15  19
ATOM     19  O   UNL     1      29.523  81.495  12.497  1.00  0.00    -0.502 OA
ATOM     20  H   UNL     1      30.089  80.904  11.900  1.00  0.00     0.293 HD
ENDBRANCH  15  19
BRANCH  16  21
ATOM     21  O   UNL     1      28.011  82.743  10.538  1.00  0.00    -0.504 OA
ATOM     22  H   UNL     1      28.033  83.756  10.534  1.00  0.00     0.293 HD
ENDBRANCH  16  21
ENDBRANCH   1  11
BRANCH  10  23
ATOM     23  O   UNL     1      23.848  79.205  11.113  1.00  0.00    -0.500 OA
ATOM     24  H   UNL     1      24.853  79.094  11.171  1.00  0.00     0.294 HD
ENDBRANCH  10  23
BRANCH   5  25
ATOM     25  O   UNL     1      19.171  83.902  15.159  1.00  0.00    -0.507 OA
ATOM     26  H   UNL     1      18.766  83.675  16.060  1.00  0.00     0.293 HD
ENDBRANCH   5  25
BRANCH   7  27
ATOM     27  O   UNL     1      18.828  80.036  12.335  1.00  0.00    -0.507 OA
ATOM     28  H   UNL     1      18.368  79.280  12.820  1.00  0.00     0.293 HD
ENDBRANCH   7  27
TORSDOF 7
ENDMDL
MODEL 7
REMARK VINA RESULT:    -4.167      2.727      5.422
REMARK INTER + INTRA:          -5.523
REMARK INTER:                  -5.166
REMARK INTRA:                  -0.357
REMARK UNBOUND:                -0.381
REMARK SMILES Oc1cc(O)c2cc(O)c(-c3cc(O)c(O)c(O)c3)[o+]c2c1
REMARK SMILES IDX 10 1 20 2 21 3 22 4 2 5 3 6 4 7 6 8 7 9 8 10 11 11 12 12
REMARK SMILES IDX 13 13 19 14 15 15 17 16 14 17 16 19 18 21 9 23 1 25 5 27
REMARK H PARENT 14 18 16 20 18 22 9 24 1 26 5 28
REMARK Flexibility Score: inf
ROOT
ATOM      1  C   UNL     1      21.038  70.836  15.856  1.00  0.00     0.402 A 
ATOM      2  O   UNL     1      22.113  70.866  15.073  1.00  0.00    -0.202 OA
ATOM      3  C   UNL     1      22.400  71.882  14.266  1.00  0.00     0.368 A 
ATOM      4  C   UNL     1      23.555  71.823  13.483  1.00  0.00     0.162 A 
ATOM      5  C   UNL     1      23.881  72.879  12.626  1.00  0.00     0.128 A 
ATOM      6  C   UNL     1      23.049  73.998  12.554  1.00  0.00     0.093 A 
ATOM      7  C   UNL     1      21.887  74.083  13.329  1.00  0.00     0.136 A 
ATOM      8  C   UNL     1      21.549  73.011  14.198  1.00  0.00     0.125 A 
ATOM      9  C   UNL     1      20.397  73.003  15.001  1.00  0.00     0.078 A 
ATOM     10  C   UNL     1      20.127  71.909  15.828  1.00  0.00     0.223 A 
ENDROOT
BRANCH   1  11
ATOM     11  C   UNL     1      20.834  69.650  16.720  1.00  0.00     0.091 A 
ATOM     12  C   UNL     1      19.989  68.617  16.285  1.00  0.00     0.068 A 
ATOM     13  C   UNL     1      19.794  67.475  17.075  1.00  0.00     0.162 A 
ATOM     14  C   UNL     1      21.511  69.511  17.943  1.00  0.00     0.068 A 
ATOM     15  C   UNL     1      20.460  67.354  18.306  1.00  0.00     0.200 A 
ATOM     16  C   UNL     1      21.322  68.371  18.735  1.00  0.00     0.162 A 
BRANCH  13  17
ATOM     17  O   UNL     1      18.942  66.461  16.639  1.00  0.00    -0.504 OA
ATOM     18  H   UNL     1      17.963  66.638  16.442  1.00  0.00     0.293 HD
ENDBRANCH  13  17
BRANCH  15  19
ATOM     19  O   UNL     1      20.280  66.228  19.110  1.00  0.00    -0.502 OA
ATOM     20  H   UNL     1      19.745  66.258  19.969  1.00  0.00     0.293 HD
ENDBRANCH  15  19
BRANCH  16  21
ATOM     21  O   UNL     1      21.991  68.239  19.951  1.00  0.00    -0.504 OA
ATOM     22  H   UNL     1      22.447  69.028  20.394  1.00  0.00     0.293 HD
ENDBRANCH  16  21
ENDBRANCH   1  11
BRANCH  10  23
ATOM     23  O   UNL     1      18.958  71.878  16.589  1.00  0.00    -0.500 OA
ATOM     24  H   UNL     1      18.161  72.461  16.365  1.00  0.00     0.294 HD
ENDBRANCH  10  23
BRANCH   5  25
ATOM     25  O   UNL     1      25.032  72.827  11.843  1.00  0.00    -0.507 OA
ATOM     26  H   UNL     1      25.734  73.558  11.882  1.00  0.00     0.293 HD
ENDBRANCH   5  25
BRANCH   7  27
ATOM     27  O   UNL     1      21.109  75.238  13.202  1.00  0.00    -0.507 OA
ATOM     28  H   UNL     1      20.384  75.512  13.848  1.00  0.00     0.293 HD
ENDBRANCH   7  27
TORSDOF 7
ENDMDL
MODEL 8
REMARK VINA RESULT:    -4.159      2.707      5.484
REMARK INTER + INTRA:          -5.513
REMARK INTER:                  -5.160
REMARK INTRA:                  -0.352
REMARK UNBOUND:                -0.381
REMARK SMILES Oc1cc(O)c2cc(O)c(-c3cc(O)c(O)c(O)c3)[o+]c2c1
REMARK SMILES IDX 10 1 20 2 21 3 22 4 2 5 3 6 4 7 6 8 7 9 8 10 11 11 12 12
REMARK SMILES IDX 13 13 19 14 15 15 17 16 14 17 16 19 18 21 9 23 1 25 5 27
REMARK H PARENT 14 18 16 20 18 22 9 24 1 26 5 28
REMARK Flexibility Score: inf
ROOT
ATOM      1  C   UNL     1      21.047  70.776  15.823  1.00  0.00     0.402 A 
ATOM      2  O   UNL     1      22.126  70.815  15.046  1.00  0.00    -0.202 OA
ATOM      3  C   UNL     1      22.422  71.844  14.258  1.00  0.00     0.368 A 
ATOM      4  C   UNL     1      23.581  71.793  13.480  1.00  0.00     0.162 A 
ATOM      5  C   UNL     1      23.917  72.863  12.643  1.00  0.00     0.128 A 
ATOM      6  C   UNL     1      23.090  73.987  12.587  1.00  0.00     0.093 A 
ATOM      7  C   UNL     1      21.924  74.063  13.357  1.00  0.00     0.136 A 
ATOM      8  C   UNL     1      21.576  72.978  14.205  1.00  0.00     0.125 A 
ATOM      9  C   UNL     1      20.421  72.961  15.002  1.00  0.00     0.078 A 
ATOM     10  C   UNL     1      20.142  71.854  15.810  1.00  0.00     0.223 A 
ENDROOT
BRANCH   1  11
ATOM     11  C   UNL     1      20.833  69.577  16.665  1.00  0.00     0.091 A 
ATOM     12  C   UNL     1      21.481  69.481  17.906  1.00  0.00     0.068 A 
ATOM     13  C   UNL     1      21.281  68.366  18.732  1.00  0.00     0.162 A 
ATOM     14  C   UNL     1      19.951  68.556  16.274  1.00  0.00     0.068 A 
ATOM     15  C   UNL     1      20.412  67.341  18.323  1.00  0.00     0.200 A 
ATOM     16  C   UNL     1      19.745  67.440  17.096  1.00  0.00     0.162 A 
BRANCH  13  17
ATOM     17  O   UNL     1      21.941  68.275  19.957  1.00  0.00    -0.504 OA
ATOM     18  H   UNL     1      22.760  67.690  20.077  1.00  0.00     0.293 HD
ENDBRANCH  13  17
BRANCH  15  19
ATOM     19  O   UNL     1      20.200  66.220  19.127  1.00  0.00    -0.502 OA
ATOM     20  H   UNL     1      19.390  66.133  19.729  1.00  0.00     0.293 HD
ENDBRANCH  15  19
BRANCH  16  21
ATOM     21  O   UNL     1      18.874  66.426  16.702  1.00  0.00    -0.504 OA
ATOM     22  H   UNL     1      19.195  65.475  16.559  1.00  0.00     0.293 HD
ENDBRANCH  16  21
ENDBRANCH   1  11
BRANCH  10  23
ATOM     23  O   UNL     1      18.969  71.815  16.564  1.00  0.00    -0.500 OA
ATOM     24  H   UNL     1      18.125  72.288  16.262  1.00  0.00     0.294 HD
ENDBRANCH  10  23
BRANCH   5  25
ATOM     25  O   UNL     1      25.070  72.819  11.865  1.00  0.00    -0.507 OA
ATOM     26  H   UNL     1      25.657  73.636  11.740  1.00  0.00     0.293 HD
ENDBRANCH   5  25
BRANCH   7  27
ATOM     27  O   UNL     1      21.152  75.223  13.246  1.00  0.00    -0.507 OA
ATOM     28  H   UNL     1      20.144  75.244  13.279  1.00  0.00     0.293 HD
ENDBRANCH   7  27
TORSDOF 7
ENDMDL
MODEL 9
REMARK VINA RESULT:    -4.009      4.029      6.101
REMARK INTER + INTRA:          -5.327
REMARK INTER:                  -4.986
REMARK INTRA:                  -0.341
REMARK UNBOUND:                -0.381
REMARK SMILES Oc1cc(O)c2cc(O)c(-c3cc(O)c(O)c(O)c3)[o+]c2c1
REMARK SMILES IDX 10 1 20 2 21 3 22 4 2 5 3 6 4 7 6 8 7 9 8 10 11 11 12 12
REMARK SMILES IDX 13 13 19 14 15 15 17 16 14 17 16 19 18 21 9 23 1 25 5 27
REMARK H PARENT 14 18 16 20 18 22 9 24 1 26 5 28
REMARK Flexibility Score: inf
ROOT
ATOM      1  C   UNL     1      21.333  69.019  15.597  1.00  0.00     0.402 A 
ATOM      2  O   UNL     1      21.989  70.143  15.874  1.00  0.00    -0.202 OA
ATOM      3  C   UNL     1      22.029  71.186  15.051  1.00  0.00     0.368 A 
ATOM      4  C   UNL     1      22.742  72.325  15.431  1.00  0.00     0.162 A 
ATOM      5  C   UNL     1      22.799  73.437  14.585  1.00  0.00     0.128 A 
ATOM      6  C   UNL     1      22.138  73.409  13.356  1.00  0.00     0.093 A 
ATOM      7  C   UNL     1      21.415  72.281  12.952  1.00  0.00     0.136 A 
ATOM      8  C   UNL     1      21.358  71.148  13.805  1.00  0.00     0.125 A 
ATOM      9  C   UNL     1      20.669  69.969  13.477  1.00  0.00     0.078 A 
ATOM     10  C   UNL     1      20.661  68.891  14.367  1.00  0.00     0.223 A 
ENDROOT
BRANCH   1  11
ATOM     11  C   UNL     1      21.354  67.931  16.601  1.00  0.00     0.091 A 
ATOM     12  C   UNL     1      22.535  67.199  16.800  1.00  0.00     0.068 A 
ATOM     13  C   UNL     1      22.588  66.176  17.758  1.00  0.00     0.162 A 
ATOM     14  C   UNL     1      20.233  67.650  17.400  1.00  0.00     0.068 A 
ATOM     15  C   UNL     1      21.456  65.890  18.539  1.00  0.00     0.200 A 
ATOM     16  C   UNL     1      20.281  66.631  18.361  1.00  0.00     0.162 A 
BRANCH  13  17
ATOM     17  O   UNL     1      23.763  65.447  17.938  1.00  0.00    -0.504 OA
ATOM     18  H   UNL     1      24.250  65.435  18.827  1.00  0.00     0.293 HD
ENDBRANCH  13  17
BRANCH  15  19
ATOM     19  O   UNL     1      21.484  64.875  19.496  1.00  0.00    -0.502 OA
ATOM     20  H   UNL     1      21.722  65.053  20.464  1.00  0.00     0.293 HD
ENDBRANCH  15  19
BRANCH  16  21
ATOM     21  O   UNL     1      19.165  66.351  19.147  1.00  0.00    -0.504 OA
ATOM     22  H   UNL     1      18.819  67.012  19.833  1.00  0.00     0.293 HD
ENDBRANCH  16  21
ENDBRANCH   1  11
BRANCH  10  23
ATOM     23  O   UNL     1      20.019  67.702  14.021  1.00  0.00    -0.500 OA
ATOM     24  H   UNL     1      20.231  66.827  14.485  1.00  0.00     0.294 HD
ENDBRANCH  10  23
BRANCH   5  25
ATOM     25  O   UNL     1      23.509  74.576  14.958  1.00  0.00    -0.507 OA
ATOM     26  H   UNL     1      23.079  75.494  14.952  1.00  0.00     0.293 HD
ENDBRANCH   5  25
BRANCH   7  27
ATOM     27  O   UNL     1      20.780  72.334  11.708  1.00  0.00    -0.507 OA
ATOM     28  H   UNL     1      20.347  73.160  11.322  1.00  0.00     0.293 HD
ENDBRANCH   7  27
TORSDOF 7
ENDMDL
