MODEL 1
REMARK VINA RESULT:    -4.567      0.000      0.000
REMARK INTER + INTRA:          -5.562
REMARK INTER:                  -5.234
REMARK INTRA:                  -0.328
REMARK UNBOUND:                -0.328
REMARK SMILES COc1ccc(C(C)=O)c(O)c1
REMARK SMILES IDX 6 1 10 2 12 3 3 4 4 5 5 6 7 7 8 8 9 9 11 10 2 12 1 13
REMARK H PARENT 11 11
REMARK Flexibility Score: inf
ROOT
ATOM      1  C   UNL     1      12.638  22.988  -1.369  1.00  0.00     0.059 A 
ATOM      2  C   UNL     1      12.129  22.991  -2.689  1.00  0.00     0.130 A 
ATOM      3  C   UNL     1      11.203  22.013  -3.084  1.00  0.00     0.093 A 
ATOM      4  C   UNL     1      10.759  21.039  -2.187  1.00  0.00     0.122 A 
ATOM      5  C   UNL     1      11.250  21.045  -0.871  1.00  0.00     0.047 A 
ATOM      6  C   UNL     1      12.175  22.011  -0.470  1.00  0.00     0.019 A 
ENDROOT
BRANCH   1   7
ATOM      7  C   UNL     1      13.634  23.986  -0.894  1.00  0.00     0.163 C 
ATOM      8  C   UNL     1      14.734  23.633   0.061  1.00  0.00     0.093 C 
ATOM      9  O   UNL     1      13.560  25.176  -1.304  1.00  0.00    -0.294 OA
ENDBRANCH   1   7
BRANCH   2  10
ATOM     10  O   UNL     1      12.516  23.970  -3.604  1.00  0.00    -0.507 OA
ATOM     11  H   UNL     1      12.831  23.734  -4.538  1.00  0.00     0.293 HD
ENDBRANCH   2  10
BRANCH   4  12
ATOM     12  O   UNL     1       9.832  20.088  -2.640  1.00  0.00    -0.497 OA
ATOM     13  C   UNL     1       9.502  19.876  -4.010  1.00  0.00     0.278 C 
ENDBRANCH   4  12
TORSDOF 3
ENDMDL
MODEL 2
REMARK VINA RESULT:    -4.002      1.306      5.009
REMARK INTER + INTRA:          -4.915
REMARK INTER:                  -4.601
REMARK INTRA:                  -0.314
REMARK UNBOUND:                -0.328
REMARK SMILES COc1ccc(C(C)=O)c(O)c1
REMARK SMILES IDX 6 1 10 2 12 3 3 4 4 5 5 6 7 7 8 8 9 9 11 10 2 12 1 13
REMARK H PARENT 11 11
REMARK Flexibility Score: inf
ROOT
ATOM      1  C   UNL     1      11.267  21.449  -2.309  1.00  0.00     0.059 A 
ATOM      2  C   UNL     1      11.769  21.370  -0.989  1.00  0.00     0.130 A 
ATOM      3  C   UNL     1      12.671  22.338  -0.524  1.00  0.00     0.093 A 
ATOM      4  C   UNL     1      13.073  23.398  -1.341  1.00  0.00     0.122 A 
ATOM      5  C   UNL     1      12.562  23.488  -2.646  1.00  0.00     0.047 A 
ATOM      6  C   UNL     1      11.668  22.526  -3.120  1.00  0.00     0.019 A 
ENDROOT
BRANCH   1   7
ATOM      7  C   UNL     1      10.323  20.443  -2.868  1.00  0.00     0.163 C 
ATOM      8  C   UNL     1      10.309  20.072  -4.320  1.00  0.00     0.093 C 
ATOM      9  O   UNL     1       9.500  19.876  -2.099  1.00  0.00    -0.294 OA
ENDBRANCH   1   7
BRANCH   2  10
ATOM     10  O   UNL     1      11.362  20.351  -0.128  1.00  0.00    -0.507 OA
ATOM     11  H   UNL     1      11.968  19.572   0.103  1.00  0.00     0.293 HD
ENDBRANCH   2  10
BRANCH   4  12
ATOM     12  O   UNL     1      13.976  24.336  -0.820  1.00  0.00    -0.497 OA
ATOM     13  C   UNL     1      13.977  25.722  -1.151  1.00  0.00     0.278 C 
ENDBRANCH   4  12
TORSDOF 3
ENDMDL
MODEL 3
REMARK VINA RESULT:    -3.780      1.964      4.434
REMARK INTER + INTRA:          -4.661
REMARK INTER:                  -4.362
REMARK INTRA:                  -0.298
REMARK UNBOUND:                -0.328
REMARK SMILES COc1ccc(C(C)=O)c(O)c1
REMARK SMILES IDX 6 1 10 2 12 3 3 4 4 5 5 6 7 7 8 8 9 9 11 10 2 12 1 13
REMARK H PARENT 11 11
REMARK Flexibility Score: inf
ROOT
ATOM      1  C   UNL     1      11.191  21.112  -3.296  1.00  0.00     0.059 A 
ATOM      2  C   UNL     1      11.688  22.436  -3.306  1.00  0.00     0.130 A 
ATOM      3  C   UNL     1      11.742  23.172  -2.113  1.00  0.00     0.093 A 
ATOM      4  C   UNL     1      11.327  22.612  -0.903  1.00  0.00     0.122 A 
ATOM      5  C   UNL     1      10.851  21.291  -0.888  1.00  0.00     0.047 A 
ATOM      6  C   UNL     1      10.788  20.551  -2.071  1.00  0.00     0.019 A 
ENDROOT
BRANCH   1   7
ATOM      7  C   UNL     1      11.091  20.285  -4.529  1.00  0.00     0.163 C 
ATOM      8  C   UNL     1       9.776  19.884  -5.125  1.00  0.00     0.093 C 
ATOM      9  O   UNL     1      12.147  19.903  -5.104  1.00  0.00    -0.294 OA
ENDBRANCH   1   7
BRANCH   2  10
ATOM     10  O   UNL     1      12.149  23.019  -4.487  1.00  0.00    -0.507 OA
ATOM     11  H   UNL     1      13.097  23.365  -4.576  1.00  0.00     0.293 HD
ENDBRANCH   2  10
BRANCH   4  12
ATOM     12  O   UNL     1      11.405  23.397   0.257  1.00  0.00    -0.497 OA
ATOM     13  C   UNL     1      11.755  22.897   1.545  1.00  0.00     0.278 C 
ENDBRANCH   4  12
TORSDOF 3
ENDMDL
MODEL 4
REMARK VINA RESULT:    -3.485     13.518     15.736
REMARK INTER + INTRA:          -4.322
REMARK INTER:                  -3.984
REMARK INTRA:                  -0.338
REMARK UNBOUND:                -0.328
REMARK SMILES COc1ccc(C(C)=O)c(O)c1
REMARK SMILES IDX 6 1 10 2 12 3 3 4 4 5 5 6 7 7 8 8 9 9 11 10 2 12 1 13
REMARK H PARENT 11 11
REMARK Flexibility Score: inf
ROOT
ATOM      1  C   UNL     1      20.091  23.824  10.121  1.00  0.00     0.059 A 
ATOM      2  C   UNL     1      19.397  22.630  10.426  1.00  0.00     0.130 A 
ATOM      3  C   UNL     1      19.589  22.007  11.668  1.00  0.00     0.093 A 
ATOM      4  C   UNL     1      20.448  22.557  12.623  1.00  0.00     0.122 A 
ATOM      5  C   UNL     1      21.124  23.752  12.329  1.00  0.00     0.047 A 
ATOM      6  C   UNL     1      20.944  24.377  11.094  1.00  0.00     0.019 A 
ENDROOT
BRANCH   1   7
ATOM      7  C   UNL     1      19.944  24.523   8.816  1.00  0.00     0.163 C 
ATOM      8  C   UNL     1      21.123  24.977   8.008  1.00  0.00     0.093 C 
ATOM      9  O   UNL     1      18.790  24.748   8.362  1.00  0.00    -0.294 OA
ENDBRANCH   1   7
BRANCH   2  10
ATOM     10  O   UNL     1      18.501  22.070   9.516  1.00  0.00    -0.507 OA
ATOM     11  H   UNL     1      17.934  21.264   9.752  1.00  0.00     0.293 HD
ENDBRANCH   2  10
BRANCH   4  12
ATOM     12  O   UNL     1      20.600  21.888  13.848  1.00  0.00    -0.497 OA
ATOM     13  C   UNL     1      20.583  22.528  15.121  1.00  0.00     0.278 C 
ENDBRANCH   4  12
TORSDOF 3
ENDMDL
MODEL 5
REMARK VINA RESULT:    -3.445      1.968      4.648
REMARK INTER + INTRA:          -4.277
REMARK INTER:                  -3.944
REMARK INTRA:                  -0.332
REMARK UNBOUND:                -0.328
REMARK SMILES COc1ccc(C(C)=O)c(O)c1
REMARK SMILES IDX 6 1 10 2 12 3 3 4 4 5 5 6 7 7 8 8 9 9 11 10 2 12 1 13
REMARK H PARENT 11 11
REMARK Flexibility Score: inf
ROOT
ATOM      1  C   UNL     1      11.379  21.319  -3.252  1.00  0.00     0.059 A 
ATOM      2  C   UNL     1      10.561  21.023  -2.137  1.00  0.00     0.130 A 
ATOM      3  C   UNL     1      10.685  21.775  -0.959  1.00  0.00     0.093 A 
ATOM      4  C   UNL     1      11.597  22.830  -0.873  1.00  0.00     0.122 A 
ATOM      5  C   UNL     1      12.397  23.137  -1.985  1.00  0.00     0.047 A 
ATOM      6  C   UNL     1      12.285  22.391  -3.160  1.00  0.00     0.019 A 
ENDROOT
BRANCH   1   7
ATOM      7  C   UNL     1      11.308  20.547  -4.523  1.00  0.00     0.163 C 
ATOM      8  C   UNL     1      12.506  19.876  -5.125  1.00  0.00     0.093 C 
ATOM      9  O   UNL     1      10.204  20.447  -5.124  1.00  0.00    -0.294 OA
ENDBRANCH   1   7
BRANCH   2  10
ATOM     10  O   UNL     1       9.610  20.004  -2.196  1.00  0.00    -0.507 OA
ATOM     11  H   UNL     1       9.761  19.165  -2.743  1.00  0.00     0.293 HD
ENDBRANCH   2  10
BRANCH   4  12
ATOM     12  O   UNL     1      11.675  23.547   0.331  1.00  0.00    -0.497 OA
ATOM     13  C   UNL     1      10.626  24.354   0.856  1.00  0.00     0.278 C 
ENDBRANCH   4  12
TORSDOF 3
ENDMDL
MODEL 6
REMARK VINA RESULT:    -3.226     14.157     16.895
REMARK INTER + INTRA:          -4.026
REMARK INTER:                  -3.695
REMARK INTRA:                  -0.331
REMARK UNBOUND:                -0.328
REMARK SMILES COc1ccc(C(C)=O)c(O)c1
REMARK SMILES IDX 6 1 10 2 12 3 3 4 4 5 5 6 7 7 8 8 9 9 11 10 2 12 1 13
REMARK H PARENT 11 11
REMARK Flexibility Score: inf
ROOT
ATOM      1  C   UNL     1      20.657  22.582  12.768  1.00  0.00     0.059 A 
ATOM      2  C   UNL     1      20.902  23.970  12.889  1.00  0.00     0.130 A 
ATOM      3  C   UNL     1      21.008  24.765  11.738  1.00  0.00     0.093 A 
ATOM      4  C   UNL     1      20.860  24.209  10.465  1.00  0.00     0.122 A 
ATOM      5  C   UNL     1      20.600  22.835  10.343  1.00  0.00     0.047 A 
ATOM      6  C   UNL     1      20.497  22.034  11.482  1.00  0.00     0.019 A 
ENDROOT
BRANCH   1   7
ATOM      7  C   UNL     1      20.551  21.682  13.948  1.00  0.00     0.163 C 
ATOM      8  C   UNL     1      21.116  20.294  13.956  1.00  0.00     0.093 C 
ATOM      9  O   UNL     1      19.967  22.093  14.987  1.00  0.00    -0.294 OA
ENDBRANCH   1   7
BRANCH   2  10
ATOM     10  O   UNL     1      21.016  24.570  14.143  1.00  0.00    -0.507 OA
ATOM     11  H   UNL     1      21.873  25.021  14.443  1.00  0.00     0.293 HD
ENDBRANCH   2  10
BRANCH   4  12
ATOM     12  O   UNL     1      20.977  25.055   9.351  1.00  0.00    -0.497 OA
ATOM     13  C   UNL     1      21.125  24.601   8.009  1.00  0.00     0.278 C 
ENDBRANCH   4  12
TORSDOF 3
ENDMDL
