MODEL 1
REMARK VINA RESULT:    -3.549      0.000      0.000
REMARK INTER + INTRA:         -15.271
REMARK INTER:                  -9.359
REMARK INTRA:                  -5.912
REMARK UNBOUND:                -5.912
REMARK SMILES CCCCCCCCCCCCCCCCCCCCCCCCCCCCCC(=O)[O-]
REMARK SMILES IDX 16 1 17 2 18 3 19 4 20 5 21 6 22 7 23 8 24 9 25 10 26 11
REMARK SMILES IDX 27 12 28 13 29 14 30 15 31 16 32 17 15 18 14 19 13 20 12 21
REMARK SMILES IDX 11 22 10 23 9 24 8 25 7 26 6 27 5 28 4 29 3 30 2 31 1 32
REMARK H PARENT
REMARK Flexibility Score: inf
ROOT
ATOM      1  C   UNL     1     128.067 129.298 126.519  1.00  0.00     0.000 C 
ENDROOT
BRANCH   1   2
ATOM      2  C   UNL     1     127.009 129.199 125.405  1.00  0.00     0.000 C 
BRANCH   2   3
ATOM      3  C   UNL     1     126.405 127.792 125.275  1.00  0.00     0.000 C 
BRANCH   3   4
ATOM      4  C   UNL     1     126.435 127.058 126.622  1.00  0.00     0.000 C 
BRANCH   4   5
ATOM      5  C   UNL     1     125.046 126.513 126.985  1.00  0.00     0.000 C 
BRANCH   5   6
ATOM      6  C   UNL     1     123.983 126.859 125.929  1.00  0.00     0.000 C 
BRANCH   6   7
ATOM      7  C   UNL     1     122.824 127.687 126.513  1.00  0.00     0.000 C 
BRANCH   7   8
ATOM      8  C   UNL     1     122.045 128.467 125.438  1.00  0.00     0.000 C 
BRANCH   8   9
ATOM      9  C   UNL     1     121.893 129.975 125.707  1.00  0.00     0.000 C 
BRANCH   9  10
ATOM     10  C   UNL     1     122.812 130.840 124.825  1.00  0.00     0.000 C 
BRANCH  10  11
ATOM     11  C   UNL     1     123.709 129.989 123.898  1.00  0.00     0.000 C 
BRANCH  11  12
ATOM     12  C   UNL     1     123.301 130.040 122.414  1.00  0.00     0.000 C 
BRANCH  12  13
ATOM     13  C   UNL     1     123.583 131.376 121.707  1.00  0.00     0.006 C 
BRANCH  13  14
ATOM     14  C   UNL     1     123.510 131.269 120.179  1.00  0.00     0.053 C 
BRANCH  14  15
ATOM     15  C   UNL     1     124.587 130.369 119.662  1.00  0.00     0.041 C 
ATOM     16  O   UNL     1     125.774 130.510 120.058  1.00  0.00    -0.550 OA
ATOM     17  O   UNL     1     124.285 129.383 118.731  1.00  0.00    -0.550 OA
ENDBRANCH  14  15
ENDBRANCH  13  14
ENDBRANCH  12  13
ENDBRANCH  11  12
ENDBRANCH  10  11
ENDBRANCH   9  10
ENDBRANCH   8   9
ENDBRANCH   7   8
ENDBRANCH   6   7
ENDBRANCH   5   6
ENDBRANCH   4   5
ENDBRANCH   3   4
ENDBRANCH   2   3
ENDBRANCH   1   2
BRANCH   1  18
ATOM     18  C   UNL     1     129.111 130.414 126.331  1.00  0.00     0.000 C 
BRANCH  18  19
ATOM     19  C   UNL     1     129.636 130.502 124.888  1.00  0.00     0.000 C 
BRANCH  19  20
ATOM     20  C   UNL     1     129.374 131.873 124.235  1.00  0.00     0.000 C 
BRANCH  20  21
ATOM     21  C   UNL     1     128.286 131.885 123.142  1.00  0.00     0.000 C 
BRANCH  21  22
ATOM     22  C   UNL     1     126.908 132.416 123.587  1.00  0.00     0.000 C 
BRANCH  22  23
ATOM     23  C   UNL     1     126.895 133.123 124.954  1.00  0.00     0.000 C 
BRANCH  23  24
ATOM     24  C   UNL     1     125.624 132.822 125.766  1.00  0.00    -0.000 C 
BRANCH  24  25
ATOM     25  C   UNL     1     125.936 132.280 127.170  1.00  0.00    -0.000 C 
BRANCH  25  26
ATOM     26  C   UNL     1     124.697 131.696 127.870  1.00  0.00    -0.000 C 
BRANCH  26  27
ATOM     27  C   UNL     1     124.900 130.240 128.327  1.00  0.00    -0.000 C 
BRANCH  27  28
ATOM     28  C   UNL     1     123.824 129.693 129.290  1.00  0.00    -0.000 C 
BRANCH  28  29
ATOM     29  C   UNL     1     124.196 128.385 130.015  1.00  0.00    -0.000 C 
BRANCH  29  30
ATOM     30  C   UNL     1     125.552 128.444 130.754  1.00  0.00    -0.000 C 
BRANCH  30  31
ATOM     31  C   UNL     1     126.545 127.361 130.300  1.00  0.00    -0.003 C 
ATOM     32  C   UNL     1     126.330 126.024 131.005  1.00  0.00     0.004 C 
ENDBRANCH  30  31
ENDBRANCH  29  30
ENDBRANCH  28  29
ENDBRANCH  27  28
ENDBRANCH  26  27
ENDBRANCH  25  26
ENDBRANCH  24  25
ENDBRANCH  23  24
ENDBRANCH  22  23
ENDBRANCH  21  22
ENDBRANCH  20  21
ENDBRANCH  19  20
ENDBRANCH  18  19
ENDBRANCH   1  18
TORSDOF 28
ENDMDL
MODEL 2
REMARK VINA RESULT:    -3.497      4.536      8.114
REMARK INTER + INTRA:         -15.133
REMARK INTER:                  -9.210
REMARK INTRA:                  -5.923
REMARK UNBOUND:                -5.912
REMARK SMILES CCCCCCCCCCCCCCCCCCCCCCCCCCCCCC(=O)[O-]
REMARK SMILES IDX 16 1 17 2 18 3 19 4 20 5 21 6 22 7 23 8 24 9 25 10 26 11
REMARK SMILES IDX 27 12 28 13 29 14 30 15 31 16 32 17 15 18 14 19 13 20 12 21
REMARK SMILES IDX 11 22 10 23 9 24 8 25 7 26 6 27 5 28 4 29 3 30 2 31 1 32
REMARK H PARENT
REMARK Flexibility Score: inf
ROOT
ATOM      1  C   UNL     1     126.020 127.256 125.358  1.00  0.00     0.000 C 
ENDROOT
BRANCH   1   2
ATOM      2  C   UNL     1     126.283 126.299 126.534  1.00  0.00     0.000 C 
BRANCH   2   3
ATOM      3  C   UNL     1     127.164 126.921 127.628  1.00  0.00     0.000 C 
BRANCH   3   4
ATOM      4  C   UNL     1     126.468 126.856 128.993  1.00  0.00     0.000 C 
BRANCH   4   5
ATOM      5  C   UNL     1     125.422 125.732 129.027  1.00  0.00     0.000 C 
BRANCH   5   6
ATOM      6  C   UNL     1     125.286 125.096 130.421  1.00  0.00     0.000 C 
BRANCH   6   7
ATOM      7  C   UNL     1     126.187 125.775 131.467  1.00  0.00     0.000 C 
BRANCH   7   8
ATOM      8  C   UNL     1     125.584 125.753 132.883  1.00  0.00     0.000 C 
BRANCH   8   9
ATOM      9  C   UNL     1     124.682 126.952 133.228  1.00  0.00     0.000 C 
BRANCH   9  10
ATOM     10  C   UNL     1     124.914 128.164 132.306  1.00  0.00     0.000 C 
BRANCH  10  11
ATOM     11  C   UNL     1     123.591 128.814 131.845  1.00  0.00     0.000 C 
BRANCH  11  12
ATOM     12  C   UNL     1     122.392 127.847 131.826  1.00  0.00     0.000 C 
BRANCH  12  13
ATOM     13  C   UNL     1     121.074 128.436 132.355  1.00  0.00     0.006 C 
BRANCH  13  14
ATOM     14  C   UNL     1     121.230 129.119 133.718  1.00  0.00     0.053 C 
BRANCH  14  15
ATOM     15  C   UNL     1     121.169 128.110 134.822  1.00  0.00     0.041 C 
ATOM     16  O   UNL     1     122.176 127.904 135.549  1.00  0.00    -0.550 OA
ATOM     17  O   UNL     1     120.005 127.382 135.038  1.00  0.00    -0.550 OA
ENDBRANCH  14  15
ENDBRANCH  13  14
ENDBRANCH  12  13
ENDBRANCH  11  12
ENDBRANCH  10  11
ENDBRANCH   9  10
ENDBRANCH   8   9
ENDBRANCH   7   8
ENDBRANCH   6   7
ENDBRANCH   5   6
ENDBRANCH   4   5
ENDBRANCH   3   4
ENDBRANCH   2   3
ENDBRANCH   1   2
BRANCH   1  18
ATOM     18  C   UNL     1     124.563 127.296 124.861  1.00  0.00     0.000 C 
BRANCH  18  19
ATOM     19  C   UNL     1     123.541 127.131 125.998  1.00  0.00     0.000 C 
BRANCH  19  20
ATOM     20  C   UNL     1     123.114 128.475 126.622  1.00  0.00     0.000 C 
BRANCH  20  21
ATOM     21  C   UNL     1     123.498 128.664 128.104  1.00  0.00     0.000 C 
BRANCH  21  22
ATOM     22  C   UNL     1     124.329 129.924 128.415  1.00  0.00     0.000 C 
BRANCH  22  23
ATOM     23  C   UNL     1     125.438 130.238 127.395  1.00  0.00     0.000 C 
BRANCH  23  24
ATOM     24  C   UNL     1     125.634 131.748 127.178  1.00  0.00    -0.000 C 
BRANCH  24  25
ATOM     25  C   UNL     1     125.462 132.160 125.707  1.00  0.00    -0.000 C 
BRANCH  25  26
ATOM     26  C   UNL     1     124.822 131.053 124.852  1.00  0.00    -0.000 C 
BRANCH  26  27
ATOM     27  C   UNL     1     125.576 130.808 123.532  1.00  0.00    -0.000 C 
BRANCH  27  28
ATOM     28  C   UNL     1     127.061 131.229 123.531  1.00  0.00    -0.000 C 
BRANCH  28  29
ATOM     29  C   UNL     1     128.065 130.095 123.816  1.00  0.00    -0.000 C 
BRANCH  29  30
ATOM     30  C   UNL     1     129.148 130.465 124.855  1.00  0.00    -0.000 C 
BRANCH  30  31
ATOM     31  C   UNL     1     128.939 129.794 126.223  1.00  0.00    -0.003 C 
ATOM     32  C   UNL     1     129.169 130.748 127.393  1.00  0.00     0.004 C 
ENDBRANCH  30  31
ENDBRANCH  29  30
ENDBRANCH  28  29
ENDBRANCH  27  28
ENDBRANCH  26  27
ENDBRANCH  25  26
ENDBRANCH  24  25
ENDBRANCH  23  24
ENDBRANCH  22  23
ENDBRANCH  21  22
ENDBRANCH  20  21
ENDBRANCH  19  20
ENDBRANCH  18  19
ENDBRANCH   1  18
TORSDOF 28
ENDMDL
MODEL 3
REMARK VINA RESULT:    -3.463      1.399      2.497
REMARK INTER + INTRA:         -15.042
REMARK INTER:                  -9.060
REMARK INTRA:                  -5.983
REMARK UNBOUND:                -5.912
REMARK SMILES CCCCCCCCCCCCCCCCCCCCCCCCCCCCCC(=O)[O-]
REMARK SMILES IDX 16 1 17 2 18 3 19 4 20 5 21 6 22 7 23 8 24 9 25 10 26 11
REMARK SMILES IDX 27 12 28 13 29 14 30 15 31 16 32 17 15 18 14 19 13 20 12 21
REMARK SMILES IDX 11 22 10 23 9 24 8 25 7 26 6 27 5 28 4 29 3 30 2 31 1 32
REMARK H PARENT
REMARK Flexibility Score: inf
ROOT
ATOM      1  C   UNL     1     128.315 129.169 126.272  1.00  0.00     0.000 C 
ENDROOT
BRANCH   1   2
ATOM      2  C   UNL     1     127.623 129.628 124.977  1.00  0.00     0.000 C 
BRANCH   2   3
ATOM      3  C   UNL     1     126.158 129.176 124.888  1.00  0.00     0.000 C 
BRANCH   3   4
ATOM      4  C   UNL     1     125.997 127.740 125.403  1.00  0.00     0.000 C 
BRANCH   4   5
ATOM      5  C   UNL     1     124.615 127.175 125.045  1.00  0.00     0.000 C 
BRANCH   5   6
ATOM      6  C   UNL     1     123.643 128.262 124.556  1.00  0.00     0.000 C 
BRANCH   6   7
ATOM      7  C   UNL     1     122.407 128.398 125.463  1.00  0.00     0.000 C 
BRANCH   7   8
ATOM      8  C   UNL     1     121.920 129.852 125.599  1.00  0.00     0.000 C 
BRANCH   8   9
ATOM      9  C   UNL     1     123.007 130.873 125.977  1.00  0.00     0.000 C 
BRANCH   9  10
ATOM     10  C   UNL     1     123.026 132.104 125.052  1.00  0.00     0.000 C 
BRANCH  10  11
ATOM     11  C   UNL     1     124.035 131.953 123.891  1.00  0.00     0.000 C 
BRANCH  11  12
ATOM     12  C   UNL     1     123.378 131.736 122.515  1.00  0.00     0.000 C 
BRANCH  12  13
ATOM     13  C   UNL     1     124.041 130.659 121.641  1.00  0.00     0.006 C 
BRANCH  13  14
ATOM     14  C   UNL     1     123.852 130.910 120.140  1.00  0.00     0.053 C 
BRANCH  14  15
ATOM     15  C   UNL     1     124.848 130.126 119.346  1.00  0.00     0.041 C 
ATOM     16  O   UNL     1     124.459 129.324 118.456  1.00  0.00    -0.550 OA
ATOM     17  O   UNL     1     126.207 130.265 119.599  1.00  0.00    -0.550 OA
ENDBRANCH  14  15
ENDBRANCH  13  14
ENDBRANCH  12  13
ENDBRANCH  11  12
ENDBRANCH  10  11
ENDBRANCH   9  10
ENDBRANCH   8   9
ENDBRANCH   7   8
ENDBRANCH   6   7
ENDBRANCH   5   6
ENDBRANCH   4   5
ENDBRANCH   3   4
ENDBRANCH   2   3
ENDBRANCH   1   2
BRANCH   1  18
ATOM     18  C   UNL     1     129.361 130.148 126.837  1.00  0.00     0.000 C 
BRANCH  18  19
ATOM     19  C   UNL     1     129.191 131.578 126.297  1.00  0.00     0.000 C 
BRANCH  19  20
ATOM     20  C   UNL     1     128.440 132.504 127.274  1.00  0.00     0.000 C 
BRANCH  20  21
ATOM     21  C   UNL     1     126.936 132.684 126.986  1.00  0.00     0.000 C 
BRANCH  21  22
ATOM     22  C   UNL     1     125.988 131.884 127.901  1.00  0.00     0.000 C 
BRANCH  22  23
ATOM     23  C   UNL     1     126.655 131.256 129.137  1.00  0.00     0.000 C 
BRANCH  23  24
ATOM     24  C   UNL     1     126.287 129.774 129.321  1.00  0.00    -0.000 C 
BRANCH  24  25
ATOM     25  C   UNL     1     125.168 129.322 128.371  1.00  0.00    -0.000 C 
BRANCH  25  26
ATOM     26  C   UNL     1     123.947 128.757 129.117  1.00  0.00    -0.000 C 
BRANCH  26  27
ATOM     27  C   UNL     1     123.591 127.324 128.682  1.00  0.00    -0.000 C 
BRANCH  27  28
ATOM     28  C   UNL     1     124.525 126.218 129.222  1.00  0.00    -0.000 C 
BRANCH  28  29
ATOM     29  C   UNL     1     124.971 126.394 130.687  1.00  0.00    -0.000 C 
BRANCH  29  30
ATOM     30  C   UNL     1     126.489 126.203 130.905  1.00  0.00    -0.000 C 
BRANCH  30  31
ATOM     31  C   UNL     1     127.116 127.269 131.819  1.00  0.00    -0.003 C 
ATOM     32  C   UNL     1     126.073 128.110 132.552  1.00  0.00     0.004 C 
ENDBRANCH  30  31
ENDBRANCH  29  30
ENDBRANCH  28  29
ENDBRANCH  27  28
ENDBRANCH  26  27
ENDBRANCH  25  26
ENDBRANCH  24  25
ENDBRANCH  23  24
ENDBRANCH  22  23
ENDBRANCH  21  22
ENDBRANCH  20  21
ENDBRANCH  19  20
ENDBRANCH  18  19
ENDBRANCH   1  18
TORSDOF 28
ENDMDL
MODEL 4
REMARK VINA RESULT:    -3.388      3.741      7.072
REMARK INTER + INTRA:         -14.847
REMARK INTER:                  -9.436
REMARK INTRA:                  -5.410
REMARK UNBOUND:                -5.912
REMARK SMILES CCCCCCCCCCCCCCCCCCCCCCCCCCCCCC(=O)[O-]
REMARK SMILES IDX 16 1 17 2 18 3 19 4 20 5 21 6 22 7 23 8 24 9 25 10 26 11
REMARK SMILES IDX 27 12 28 13 29 14 30 15 31 16 32 17 15 18 14 19 13 20 12 21
REMARK SMILES IDX 11 22 10 23 9 24 8 25 7 26 6 27 5 28 4 29 3 30 2 31 1 32
REMARK H PARENT
REMARK Flexibility Score: inf
ROOT
ATOM      1  C   UNL     1     126.895 130.607 124.201  1.00  0.00     0.000 C 
ENDROOT
BRANCH   1   2
ATOM      2  C   UNL     1     127.955 129.942 125.096  1.00  0.00     0.000 C 
BRANCH   2   3
ATOM      3  C   UNL     1     127.617 130.030 126.592  1.00  0.00     0.000 C 
BRANCH   3   4
ATOM      4  C   UNL     1     126.148 130.420 126.798  1.00  0.00     0.000 C 
BRANCH   4   5
ATOM      5  C   UNL     1     125.536 129.661 127.985  1.00  0.00     0.000 C 
BRANCH   5   6
ATOM      6  C   UNL     1     125.957 130.251 129.341  1.00  0.00     0.000 C 
BRANCH   6   7
ATOM      7  C   UNL     1     126.847 129.290 130.150  1.00  0.00     0.000 C 
BRANCH   7   8
ATOM      8  C   UNL     1     126.834 127.853 129.596  1.00  0.00     0.000 C 
BRANCH   8   9
ATOM      9  C   UNL     1     126.692 126.746 130.656  1.00  0.00     0.000 C 
BRANCH   9  10
ATOM     10  C   UNL     1     125.493 125.815 130.397  1.00  0.00     0.000 C 
BRANCH  10  11
ATOM     11  C   UNL     1     124.649 126.265 129.183  1.00  0.00     0.000 C 
BRANCH  11  12
ATOM     12  C   UNL     1     123.241 126.768 129.552  1.00  0.00     0.000 C 
BRANCH  12  13
ATOM     13  C   UNL     1     123.211 128.059 130.388  1.00  0.00     0.006 C 
BRANCH  13  14
ATOM     14  C   UNL     1     122.473 127.889 131.721  1.00  0.00     0.053 C 
BRANCH  14  15
ATOM     15  C   UNL     1     123.443 127.868 132.860  1.00  0.00     0.041 C 
ATOM     16  O   UNL     1     123.200 127.179 133.886  1.00  0.00    -0.550 OA
ATOM     17  O   UNL     1     124.608 128.621 132.798  1.00  0.00    -0.550 OA
ENDBRANCH  14  15
ENDBRANCH  13  14
ENDBRANCH  12  13
ENDBRANCH  11  12
ENDBRANCH  10  11
ENDBRANCH   9  10
ENDBRANCH   8   9
ENDBRANCH   7   8
ENDBRANCH   6   7
ENDBRANCH   5   6
ENDBRANCH   4   5
ENDBRANCH   3   4
ENDBRANCH   2   3
ENDBRANCH   1   2
BRANCH   1  18
ATOM     18  C   UNL     1     127.185 130.548 122.689  1.00  0.00     0.000 C 
BRANCH  18  19
ATOM     19  C   UNL     1     127.186 131.936 122.028  1.00  0.00     0.000 C 
BRANCH  19  20
ATOM     20  C   UNL     1     127.176 131.868 120.488  1.00  0.00     0.000 C 
BRANCH  20  21
ATOM     21  C   UNL     1     126.837 130.487 119.892  1.00  0.00     0.000 C 
BRANCH  21  22
ATOM     22  C   UNL     1     125.732 130.485 118.817  1.00  0.00     0.000 C 
BRANCH  22  23
ATOM     23  C   UNL     1     124.392 129.873 119.264  1.00  0.00     0.000 C 
BRANCH  23  24
ATOM     24  C   UNL     1     123.608 130.791 120.216  1.00  0.00    -0.000 C 
BRANCH  24  25
ATOM     25  C   UNL     1     123.537 130.234 121.647  1.00  0.00    -0.000 C 
BRANCH  25  26
ATOM     26  C   UNL     1     123.534 131.341 122.715  1.00  0.00    -0.000 C 
BRANCH  26  27
ATOM     27  C   UNL     1     123.155 130.819 124.114  1.00  0.00    -0.000 C 
BRANCH  27  28
ATOM     28  C   UNL     1     123.099 129.282 124.253  1.00  0.00    -0.000 C 
BRANCH  28  29
ATOM     29  C   UNL     1     122.852 128.762 125.683  1.00  0.00    -0.000 C 
BRANCH  29  30
ATOM     30  C   UNL     1     123.353 127.319 125.918  1.00  0.00    -0.000 C 
BRANCH  30  31
ATOM     31  C   UNL     1     124.449 126.883 124.931  1.00  0.00    -0.003 C 
ATOM     32  C   UNL     1     125.842 126.879 125.555  1.00  0.00     0.004 C 
ENDBRANCH  30  31
ENDBRANCH  29  30
ENDBRANCH  28  29
ENDBRANCH  27  28
ENDBRANCH  26  27
ENDBRANCH  25  26
ENDBRANCH  24  25
ENDBRANCH  23  24
ENDBRANCH  22  23
ENDBRANCH  21  22
ENDBRANCH  20  21
ENDBRANCH  19  20
ENDBRANCH  18  19
ENDBRANCH   1  18
TORSDOF 28
ENDMDL
MODEL 5
REMARK VINA RESULT:    -3.380      5.322      9.583
REMARK INTER + INTRA:         -14.825
REMARK INTER:                 -10.011
REMARK INTRA:                  -4.815
REMARK UNBOUND:                -5.912
REMARK SMILES CCCCCCCCCCCCCCCCCCCCCCCCCCCCCC(=O)[O-]
REMARK SMILES IDX 16 1 17 2 18 3 19 4 20 5 21 6 22 7 23 8 24 9 25 10 26 11
REMARK SMILES IDX 27 12 28 13 29 14 30 15 31 16 32 17 15 18 14 19 13 20 12 21
REMARK SMILES IDX 11 22 10 23 9 24 8 25 7 26 6 27 5 28 4 29 3 30 2 31 1 32
REMARK H PARENT
REMARK Flexibility Score: inf
ROOT
ATOM      1  C   UNL     1     125.474 126.746 125.270  1.00  0.00     0.000 C 
ENDROOT
BRANCH   1   2
ATOM      2  C   UNL     1     125.063 125.438 125.969  1.00  0.00     0.000 C 
BRANCH   2   3
ATOM      3  C   UNL     1     125.918 125.125 127.206  1.00  0.00     0.000 C 
BRANCH   3   4
ATOM      4  C   UNL     1     126.864 126.290 127.525  1.00  0.00     0.000 C 
BRANCH   4   5
ATOM      5  C   UNL     1     126.580 126.865 128.920  1.00  0.00     0.000 C 
BRANCH   5   6
ATOM      6  C   UNL     1     125.357 126.215 129.588  1.00  0.00     0.000 C 
BRANCH   6   7
ATOM      7  C   UNL     1     125.472 126.185 131.123  1.00  0.00     0.000 C 
BRANCH   7   8
ATOM      8  C   UNL     1     126.926 126.052 131.612  1.00  0.00     0.000 C 
BRANCH   8   9
ATOM      9  C   UNL     1     127.377 127.125 132.619  1.00  0.00     0.000 C 
BRANCH   9  10
ATOM     10  C   UNL     1     128.495 126.637 133.559  1.00  0.00     0.000 C 
BRANCH  10  11
ATOM     11  C   UNL     1     128.388 125.127 133.866  1.00  0.00     0.000 C 
BRANCH  11  12
ATOM     12  C   UNL     1     129.041 124.711 135.198  1.00  0.00     0.000 C 
BRANCH  12  13
ATOM     13  C   UNL     1     130.134 123.636 135.080  1.00  0.00     0.006 C 
BRANCH  13  14
ATOM     14  C   UNL     1     131.361 124.118 134.297  1.00  0.00     0.053 C 
BRANCH  14  15
ATOM     15  C   UNL     1     132.529 124.307 135.214  1.00  0.00     0.041 C 
ATOM     16  O   UNL     1     132.774 123.456 136.110  1.00  0.00    -0.550 OA
ATOM     17  O   UNL     1     133.337 125.430 135.092  1.00  0.00    -0.550 OA
ENDBRANCH  14  15
ENDBRANCH  13  14
ENDBRANCH  12  13
ENDBRANCH  11  12
ENDBRANCH  10  11
ENDBRANCH   9  10
ENDBRANCH   8   9
ENDBRANCH   7   8
ENDBRANCH   6   7
ENDBRANCH   5   6
ENDBRANCH   4   5
ENDBRANCH   3   4
ENDBRANCH   2   3
ENDBRANCH   1   2
BRANCH   1  18
ATOM     18  C   UNL     1     124.385 127.835 125.228  1.00  0.00     0.000 C 
BRANCH  18  19
ATOM     19  C   UNL     1     123.159 127.484 126.087  1.00  0.00     0.000 C 
BRANCH  19  20
ATOM     20  C   UNL     1     123.137 128.229 127.437  1.00  0.00     0.000 C 
BRANCH  20  21
ATOM     21  C   UNL     1     124.161 129.374 127.573  1.00  0.00     0.000 C 
BRANCH  21  22
ATOM     22  C   UNL     1     123.649 130.636 128.295  1.00  0.00     0.000 C 
BRANCH  22  23
ATOM     23  C   UNL     1     123.293 130.437 129.779  1.00  0.00     0.000 C 
BRANCH  23  24
ATOM     24  C   UNL     1     124.355 129.626 130.540  1.00  0.00    -0.000 C 
BRANCH  24  25
ATOM     25  C   UNL     1     125.447 130.515 131.155  1.00  0.00    -0.000 C 
BRANCH  25  26
ATOM     26  C   UNL     1     126.853 130.176 130.631  1.00  0.00    -0.000 C 
BRANCH  26  27
ATOM     27  C   UNL     1     127.234 130.982 129.376  1.00  0.00    -0.000 C 
BRANCH  27  28
ATOM     28  C   UNL     1     127.919 130.173 128.254  1.00  0.00    -0.000 C 
BRANCH  28  29
ATOM     29  C   UNL     1     127.270 130.302 126.861  1.00  0.00    -0.000 C 
BRANCH  29  30
ATOM     30  C   UNL     1     127.981 129.480 125.762  1.00  0.00    -0.000 C 
BRANCH  30  31
ATOM     31  C   UNL     1     128.593 130.347 124.649  1.00  0.00    -0.003 C 
ATOM     32  C   UNL     1     129.964 130.908 125.019  1.00  0.00     0.004 C 
ENDBRANCH  30  31
ENDBRANCH  29  30
ENDBRANCH  28  29
ENDBRANCH  27  28
ENDBRANCH  26  27
ENDBRANCH  25  26
ENDBRANCH  24  25
ENDBRANCH  23  24
ENDBRANCH  22  23
ENDBRANCH  21  22
ENDBRANCH  20  21
ENDBRANCH  19  20
ENDBRANCH  18  19
ENDBRANCH   1  18
TORSDOF 28
ENDMDL
MODEL 6
REMARK VINA RESULT:    -3.368      3.705      7.374
REMARK INTER + INTRA:         -14.793
REMARK INTER:                 -10.120
REMARK INTRA:                  -4.673
REMARK UNBOUND:                -5.912
REMARK SMILES CCCCCCCCCCCCCCCCCCCCCCCCCCCCCC(=O)[O-]
REMARK SMILES IDX 16 1 17 2 18 3 19 4 20 5 21 6 22 7 23 8 24 9 25 10 26 11
REMARK SMILES IDX 27 12 28 13 29 14 30 15 31 16 32 17 15 18 14 19 13 20 12 21
REMARK SMILES IDX 11 22 10 23 9 24 8 25 7 26 6 27 5 28 4 29 3 30 2 31 1 32
REMARK H PARENT
REMARK Flexibility Score: inf
ROOT
ATOM      1  C   UNL     1     129.587 130.679 124.492  1.00  0.00     0.000 C 
ENDROOT
BRANCH   1   2
ATOM      2  C   UNL     1     129.356 130.635 126.013  1.00  0.00     0.000 C 
BRANCH   2   3
ATOM      3  C   UNL     1     128.522 129.424 126.457  1.00  0.00     0.000 C 
BRANCH   3   4
ATOM      4  C   UNL     1     127.057 129.822 126.677  1.00  0.00     0.000 C 
BRANCH   4   5
ATOM      5  C   UNL     1     126.161 129.275 125.556  1.00  0.00     0.000 C 
BRANCH   5   6
ATOM      6  C   UNL     1     126.521 127.833 125.165  1.00  0.00     0.000 C 
BRANCH   6   7
ATOM      7  C   UNL     1     125.306 126.889 125.217  1.00  0.00     0.000 C 
BRANCH   7   8
ATOM      8  C   UNL     1     125.353 125.916 126.409  1.00  0.00     0.000 C 
BRANCH   8   9
ATOM      9  C   UNL     1     126.590 126.052 127.314  1.00  0.00     0.000 C 
BRANCH   9  10
ATOM     10  C   UNL     1     126.280 126.736 128.659  1.00  0.00     0.000 C 
BRANCH  10  11
ATOM     11  C   UNL     1     124.827 127.256 128.734  1.00  0.00     0.000 C 
BRANCH  11  12
ATOM     12  C   UNL     1     124.117 126.942 130.064  1.00  0.00     0.000 C 
BRANCH  12  13
ATOM     13  C   UNL     1     124.764 127.568 131.310  1.00  0.00     0.006 C 
BRANCH  13  14
ATOM     14  C   UNL     1     124.948 126.565 132.455  1.00  0.00     0.053 C 
BRANCH  14  15
ATOM     15  C   UNL     1     126.098 125.650 132.172  1.00  0.00     0.041 C 
ATOM     16  O   UNL     1     125.912 124.406 132.093  1.00  0.00    -0.550 OA
ATOM     17  O   UNL     1     127.377 126.165 132.011  1.00  0.00    -0.550 OA
ENDBRANCH  14  15
ENDBRANCH  13  14
ENDBRANCH  12  13
ENDBRANCH  11  12
ENDBRANCH  10  11
ENDBRANCH   9  10
ENDBRANCH   8   9
ENDBRANCH   7   8
ENDBRANCH   6   7
ENDBRANCH   5   6
ENDBRANCH   4   5
ENDBRANCH   3   4
ENDBRANCH   2   3
ENDBRANCH   1   2
BRANCH   1  18
ATOM     18  C   UNL     1     128.918 131.861 123.764  1.00  0.00     0.000 C 
BRANCH  18  19
ATOM     19  C   UNL     1     127.666 131.443 122.975  1.00  0.00     0.000 C 
BRANCH  19  20
ATOM     20  C   UNL     1     126.746 132.632 122.635  1.00  0.00     0.000 C 
BRANCH  20  21
ATOM     21  C   UNL     1     126.602 132.945 121.132  1.00  0.00     0.000 C 
BRANCH  21  22
ATOM     22  C   UNL     1     127.585 132.201 120.206  1.00  0.00     0.000 C 
BRANCH  22  23
ATOM     23  C   UNL     1     126.957 131.609 118.932  1.00  0.00     0.000 C 
BRANCH  23  24
ATOM     24  C   UNL     1     126.625 130.114 119.073  1.00  0.00    -0.000 C 
BRANCH  24  25
ATOM     25  C   UNL     1     125.207 129.777 118.586  1.00  0.00    -0.000 C 
BRANCH  25  26
ATOM     26  C   UNL     1     124.123 130.611 119.290  1.00  0.00    -0.000 C 
BRANCH  26  27
ATOM     27  C   UNL     1     123.794 130.092 120.702  1.00  0.00    -0.000 C 
BRANCH  27  28
ATOM     28  C   UNL     1     123.483 131.182 121.751  1.00  0.00    -0.000 C 
BRANCH  28  29
ATOM     29  C   UNL     1     123.532 130.712 123.219  1.00  0.00    -0.000 C 
BRANCH  29  30
ATOM     30  C   UNL     1     123.052 129.258 123.426  1.00  0.00    -0.000 C 
BRANCH  30  31
ATOM     31  C   UNL     1     121.984 129.116 124.524  1.00  0.00    -0.003 C 
ATOM     32  C   UNL     1     122.534 129.374 125.925  1.00  0.00     0.004 C 
ENDBRANCH  30  31
ENDBRANCH  29  30
ENDBRANCH  28  29
ENDBRANCH  27  28
ENDBRANCH  26  27
ENDBRANCH  25  26
ENDBRANCH  24  25
ENDBRANCH  23  24
ENDBRANCH  22  23
ENDBRANCH  21  22
ENDBRANCH  20  21
ENDBRANCH  19  20
ENDBRANCH  18  19
ENDBRANCH   1  18
TORSDOF 28
ENDMDL
MODEL 7
REMARK VINA RESULT:    -3.363     10.766     13.693
REMARK INTER + INTRA:         -14.781
REMARK INTER:                  -8.659
REMARK INTRA:                  -6.122
REMARK UNBOUND:                -5.912
REMARK SMILES CCCCCCCCCCCCCCCCCCCCCCCCCCCCCC(=O)[O-]
REMARK SMILES IDX 16 1 17 2 18 3 19 4 20 5 21 6 22 7 23 8 24 9 25 10 26 11
REMARK SMILES IDX 27 12 28 13 29 14 30 15 31 16 32 17 15 18 14 19 13 20 12 21
REMARK SMILES IDX 11 22 10 23 9 24 8 25 7 26 6 27 5 28 4 29 3 30 2 31 1 32
REMARK H PARENT
REMARK Flexibility Score: inf
ROOT
ATOM      1  C   UNL     1     128.119 121.649 120.714  1.00  0.00     0.000 C 
ENDROOT
BRANCH   1   2
ATOM      2  C   UNL     1     129.422 122.453 120.869  1.00  0.00     0.000 C 
BRANCH   2   3
ATOM      3  C   UNL     1     130.572 121.901 120.013  1.00  0.00     0.000 C 
BRANCH   3   4
ATOM      4  C   UNL     1     131.930 122.348 120.569  1.00  0.00     0.000 C 
BRANCH   4   5
ATOM      5  C   UNL     1     132.852 121.144 120.812  1.00  0.00     0.000 C 
BRANCH   5   6
ATOM      6  C   UNL     1     132.097 119.806 120.768  1.00  0.00     0.000 C 
BRANCH   6   7
ATOM      7  C   UNL     1     132.818 118.752 119.909  1.00  0.00     0.000 C 
BRANCH   7   8
ATOM      8  C   UNL     1     133.649 119.373 118.771  1.00  0.00     0.000 C 
BRANCH   8   9
ATOM      9  C   UNL     1     133.058 119.197 117.361  1.00  0.00     0.000 C 
BRANCH   9  10
ATOM     10  C   UNL     1     131.708 119.915 117.180  1.00  0.00     0.000 C 
BRANCH  10  11
ATOM     11  C   UNL     1     130.548 118.931 116.907  1.00  0.00     0.000 C 
BRANCH  11  12
ATOM     12  C   UNL     1     129.751 118.540 118.166  1.00  0.00     0.000 C 
BRANCH  12  13
ATOM     13  C   UNL     1     129.409 117.046 118.281  1.00  0.00     0.006 C 
BRANCH  13  14
ATOM     14  C   UNL     1     130.104 116.365 119.466  1.00  0.00     0.053 C 
BRANCH  14  15
ATOM     15  C   UNL     1     129.368 116.644 120.739  1.00  0.00     0.041 C 
ATOM     16  O   UNL     1     128.130 116.428 120.815  1.00  0.00    -0.550 OA
ATOM     17  O   UNL     1     130.044 117.159 121.838  1.00  0.00    -0.550 OA
ENDBRANCH  14  15
ENDBRANCH  13  14
ENDBRANCH  12  13
ENDBRANCH  11  12
ENDBRANCH  10  11
ENDBRANCH   9  10
ENDBRANCH   8   9
ENDBRANCH   7   8
ENDBRANCH   6   7
ENDBRANCH   5   6
ENDBRANCH   4   5
ENDBRANCH   3   4
ENDBRANCH   2   3
ENDBRANCH   1   2
BRANCH   1  18
ATOM     18  C   UNL     1     128.209 120.170 121.137  1.00  0.00     0.000 C 
BRANCH  18  19
ATOM     19  C   UNL     1     126.873 119.618 121.662  1.00  0.00     0.000 C 
BRANCH  19  20
ATOM     20  C   UNL     1     125.800 120.710 121.838  1.00  0.00     0.000 C 
BRANCH  20  21
ATOM     21  C   UNL     1     124.360 120.193 122.037  1.00  0.00     0.000 C 
BRANCH  21  22
ATOM     22  C   UNL     1     123.304 120.802 121.095  1.00  0.00     0.000 C 
BRANCH  22  23
ATOM     23  C   UNL     1     123.579 122.252 120.660  1.00  0.00     0.000 C 
BRANCH  23  24
ATOM     24  C   UNL     1     123.219 122.509 119.187  1.00  0.00    -0.000 C 
BRANCH  24  25
ATOM     25  C   UNL     1     122.819 121.225 118.445  1.00  0.00    -0.000 C 
BRANCH  25  26
ATOM     26  C   UNL     1     123.690 120.958 117.205  1.00  0.00    -0.000 C 
BRANCH  26  27
ATOM     27  C   UNL     1     125.147 121.420 117.389  1.00  0.00    -0.000 C 
BRANCH  27  28
ATOM     28  C   UNL     1     126.076 120.410 118.098  1.00  0.00    -0.000 C 
BRANCH  28  29
ATOM     29  C   UNL     1     126.179 119.028 117.424  1.00  0.00    -0.000 C 
BRANCH  29  30
ATOM     30  C   UNL     1     125.954 117.843 118.390  1.00  0.00    -0.000 C 
BRANCH  30  31
ATOM     31  C   UNL     1     124.604 117.899 119.124  1.00  0.00    -0.003 C 
ATOM     32  C   UNL     1     124.535 116.943 120.313  1.00  0.00     0.004 C 
ENDBRANCH  30  31
ENDBRANCH  29  30
ENDBRANCH  28  29
ENDBRANCH  27  28
ENDBRANCH  26  27
ENDBRANCH  25  26
ENDBRANCH  24  25
ENDBRANCH  23  24
ENDBRANCH  22  23
ENDBRANCH  21  22
ENDBRANCH  20  21
ENDBRANCH  19  20
ENDBRANCH  18  19
ENDBRANCH   1  18
TORSDOF 28
ENDMDL
MODEL 8
REMARK VINA RESULT:    -3.353      1.326      3.374
REMARK INTER + INTRA:         -14.754
REMARK INTER:                  -9.007
REMARK INTRA:                  -5.747
REMARK UNBOUND:                -5.912
REMARK SMILES CCCCCCCCCCCCCCCCCCCCCCCCCCCCCC(=O)[O-]
REMARK SMILES IDX 16 1 17 2 18 3 19 4 20 5 21 6 22 7 23 8 24 9 25 10 26 11
REMARK SMILES IDX 27 12 28 13 29 14 30 15 31 16 32 17 15 18 14 19 13 20 12 21
REMARK SMILES IDX 11 22 10 23 9 24 8 25 7 26 6 27 5 28 4 29 3 30 2 31 1 32
REMARK H PARENT
REMARK Flexibility Score: inf
ROOT
ATOM      1  C   UNL     1     125.767 126.879 125.699  1.00  0.00     0.000 C 
ENDROOT
BRANCH   1   2
ATOM      2  C   UNL     1     124.413 126.944 124.970  1.00  0.00     0.000 C 
BRANCH   2   3
ATOM      3  C   UNL     1     123.284 127.497 125.851  1.00  0.00     0.000 C 
BRANCH   3   4
ATOM      4  C   UNL     1     122.819 128.869 125.346  1.00  0.00     0.000 C 
BRANCH   4   5
ATOM      5  C   UNL     1     123.050 129.008 123.834  1.00  0.00     0.000 C 
BRANCH   5   6
ATOM      6  C   UNL     1     123.687 130.356 123.457  1.00  0.00     0.000 C 
BRANCH   6   7
ATOM      7  C   UNL     1     123.878 131.277 124.676  1.00  0.00     0.000 C 
BRANCH   7   8
ATOM      8  C   UNL     1     125.340 131.337 125.158  1.00  0.00     0.000 C 
BRANCH   8   9
ATOM      9  C   UNL     1     126.267 132.236 124.321  1.00  0.00     0.000 C 
BRANCH   9  10
ATOM     10  C   UNL     1     127.380 131.451 123.603  1.00  0.00     0.000 C 
BRANCH  10  11
ATOM     11  C   UNL     1     127.278 131.559 122.065  1.00  0.00     0.000 C 
BRANCH  11  12
ATOM     12  C   UNL     1     126.107 132.432 121.575  1.00  0.00     0.000 C 
BRANCH  12  13
ATOM     13  C   UNL     1     125.721 132.234 120.100  1.00  0.00     0.006 C 
BRANCH  13  14
ATOM     14  C   UNL     1     124.761 131.058 119.888  1.00  0.00     0.053 C 
BRANCH  14  15
ATOM     15  C   UNL     1     125.381 130.028 118.997  1.00  0.00     0.041 C 
ATOM     16  O   UNL     1     124.655 129.311 118.257  1.00  0.00    -0.550 OA
ATOM     17  O   UNL     1     126.758 129.845 118.993  1.00  0.00    -0.550 OA
ENDBRANCH  14  15
ENDBRANCH  13  14
ENDBRANCH  12  13
ENDBRANCH  11  12
ENDBRANCH  10  11
ENDBRANCH   9  10
ENDBRANCH   8   9
ENDBRANCH   7   8
ENDBRANCH   6   7
ENDBRANCH   5   6
ENDBRANCH   4   5
ENDBRANCH   3   4
ENDBRANCH   2   3
ENDBRANCH   1   2
BRANCH   1  18
ATOM     18  C   UNL     1     126.639 128.142 125.570  1.00  0.00     0.000 C 
BRANCH  18  19
ATOM     19  C   UNL     1     127.632 128.302 126.734  1.00  0.00     0.000 C 
BRANCH  19  20
ATOM     20  C   UNL     1     128.699 129.382 126.470  1.00  0.00     0.000 C 
BRANCH  20  21
ATOM     21  C   UNL     1     128.919 130.385 127.620  1.00  0.00     0.000 C 
BRANCH  21  22
ATOM     22  C   UNL     1     128.567 131.851 127.294  1.00  0.00     0.000 C 
BRANCH  22  23
ATOM     23  C   UNL     1     127.413 132.442 128.123  1.00  0.00     0.000 C 
BRANCH  23  24
ATOM     24  C   UNL     1     126.710 131.390 128.998  1.00  0.00    -0.000 C 
BRANCH  24  25
ATOM     25  C   UNL     1     125.184 131.404 128.825  1.00  0.00    -0.000 C 
BRANCH  25  26
ATOM     26  C   UNL     1     124.621 130.036 128.403  1.00  0.00    -0.000 C 
BRANCH  26  27
ATOM     27  C   UNL     1     125.155 128.878 129.265  1.00  0.00    -0.000 C 
BRANCH  27  28
ATOM     28  C   UNL     1     124.164 127.717 129.501  1.00  0.00    -0.000 C 
BRANCH  28  29
ATOM     29  C   UNL     1     124.680 126.322 129.094  1.00  0.00    -0.000 C 
BRANCH  29  30
ATOM     30  C   UNL     1     126.061 125.969 129.689  1.00  0.00    -0.000 C 
BRANCH  30  31
ATOM     31  C   UNL     1     126.099 126.024 131.226  1.00  0.00    -0.003 C 
ATOM     32  C   UNL     1     125.812 124.672 131.876  1.00  0.00     0.004 C 
ENDBRANCH  30  31
ENDBRANCH  29  30
ENDBRANCH  28  29
ENDBRANCH  27  28
ENDBRANCH  26  27
ENDBRANCH  25  26
ENDBRANCH  24  25
ENDBRANCH  23  24
ENDBRANCH  22  23
ENDBRANCH  21  22
ENDBRANCH  20  21
ENDBRANCH  19  20
ENDBRANCH  18  19
ENDBRANCH   1  18
TORSDOF 28
ENDMDL
MODEL 9
REMARK VINA RESULT:    -3.348      9.892     12.711
REMARK INTER + INTRA:         -14.741
REMARK INTER:                  -8.652
REMARK INTRA:                  -6.088
REMARK UNBOUND:                -5.912
REMARK SMILES CCCCCCCCCCCCCCCCCCCCCCCCCCCCCC(=O)[O-]
REMARK SMILES IDX 16 1 17 2 18 3 19 4 20 5 21 6 22 7 23 8 24 9 25 10 26 11
REMARK SMILES IDX 27 12 28 13 29 14 30 15 31 16 32 17 15 18 14 19 13 20 12 21
REMARK SMILES IDX 11 22 10 23 9 24 8 25 7 26 6 27 5 28 4 29 3 30 2 31 1 32
REMARK H PARENT
REMARK Flexibility Score: inf
ROOT
ATOM      1  C   UNL     1     124.349 119.381 118.051  1.00  0.00     0.000 C 
ENDROOT
BRANCH   1   2
ATOM      2  C   UNL     1     125.120 118.067 117.835  1.00  0.00     0.000 C 
BRANCH   2   3
ATOM      3  C   UNL     1     125.227 117.218 119.111  1.00  0.00     0.000 C 
BRANCH   3   4
ATOM      4  C   UNL     1     124.296 117.757 120.205  1.00  0.00     0.000 C 
BRANCH   4   5
ATOM      5  C   UNL     1     125.009 117.803 121.564  1.00  0.00     0.000 C 
BRANCH   5   6
ATOM      6  C   UNL     1     126.533 117.952 121.426  1.00  0.00     0.000 C 
BRANCH   6   7
ATOM      7  C   UNL     1     127.004 119.400 121.647  1.00  0.00     0.000 C 
BRANCH   7   8
ATOM      8  C   UNL     1     127.969 119.890 120.552  1.00  0.00     0.000 C 
BRANCH   8   9
ATOM      9  C   UNL     1     127.343 120.823 119.500  1.00  0.00     0.000 C 
BRANCH   9  10
ATOM     10  C   UNL     1     128.029 120.727 118.125  1.00  0.00     0.000 C 
BRANCH  10  11
ATOM     11  C   UNL     1     128.472 119.286 117.788  1.00  0.00     0.000 C 
BRANCH  11  12
ATOM     12  C   UNL     1     129.998 119.113 117.664  1.00  0.00     0.000 C 
BRANCH  12  13
ATOM     13  C   UNL     1     130.816 120.400 117.863  1.00  0.00     0.006 C 
BRANCH  13  14
ATOM     14  C   UNL     1     131.935 120.241 118.899  1.00  0.00     0.053 C 
BRANCH  14  15
ATOM     15  C   UNL     1     131.729 121.183 120.044  1.00  0.00     0.041 C 
ATOM     16  O   UNL     1     132.469 121.114 121.061  1.00  0.00    -0.550 OA
ATOM     17  O   UNL     1     130.711 122.126 119.997  1.00  0.00    -0.550 OA
ENDBRANCH  14  15
ENDBRANCH  13  14
ENDBRANCH  12  13
ENDBRANCH  11  12
ENDBRANCH  10  11
ENDBRANCH   9  10
ENDBRANCH   8   9
ENDBRANCH   7   8
ENDBRANCH   6   7
ENDBRANCH   5   6
ENDBRANCH   4   5
ENDBRANCH   3   4
ENDBRANCH   2   3
ENDBRANCH   1   2
BRANCH   1  18
ATOM     18  C   UNL     1     124.333 120.335 116.841  1.00  0.00     0.000 C 
BRANCH  18  19
ATOM     19  C   UNL     1     124.522 121.808 117.241  1.00  0.00     0.000 C 
BRANCH  19  20
ATOM     20  C   UNL     1     123.189 122.534 117.506  1.00  0.00     0.000 C 
BRANCH  20  21
ATOM     21  C   UNL     1     122.730 122.553 118.978  1.00  0.00     0.000 C 
BRANCH  21  22
ATOM     22  C   UNL     1     123.863 122.617 120.022  1.00  0.00     0.000 C 
BRANCH  22  23
ATOM     23  C   UNL     1     124.031 121.348 120.876  1.00  0.00     0.000 C 
BRANCH  23  24
ATOM     24  C   UNL     1     123.815 121.609 122.376  1.00  0.00    -0.000 C 
BRANCH  24  25
ATOM     25  C   UNL     1     122.686 122.617 122.643  1.00  0.00    -0.000 C 
BRANCH  25  26
ATOM     26  C   UNL     1     121.359 121.937 123.019  1.00  0.00    -0.000 C 
BRANCH  26  27
ATOM     27  C   UNL     1     120.448 121.692 121.802  1.00  0.00    -0.000 C 
BRANCH  27  28
ATOM     28  C   UNL     1     120.184 120.210 121.462  1.00  0.00    -0.000 C 
BRANCH  28  29
ATOM     29  C   UNL     1     121.006 119.650 120.284  1.00  0.00    -0.000 C 
BRANCH  29  30
ATOM     30  C   UNL     1     120.151 119.241 119.064  1.00  0.00    -0.000 C 
BRANCH  30  31
ATOM     31  C   UNL     1     120.826 119.539 117.714  1.00  0.00    -0.003 C 
ATOM     32  C   UNL     1     120.989 118.295 116.844  1.00  0.00     0.004 C 
ENDBRANCH  30  31
ENDBRANCH  29  30
ENDBRANCH  28  29
ENDBRANCH  27  28
ENDBRANCH  26  27
ENDBRANCH  25  26
ENDBRANCH  24  25
ENDBRANCH  23  24
ENDBRANCH  22  23
ENDBRANCH  21  22
ENDBRANCH  20  21
ENDBRANCH  19  20
ENDBRANCH  18  19
ENDBRANCH   1  18
TORSDOF 28
ENDMDL
