MODEL 1
REMARK VINA RESULT:    -5.005      0.000      0.000
REMARK INTER + INTRA:          -5.151
REMARK INTER:                  -5.151
REMARK INTRA:                   0.000
REMARK UNBOUND:                 0.000
REMARK SMILES Cc1ccccc1O
REMARK SMILES IDX 1 1 2 2 3 3 4 4 5 5 6 6 7 7 8 8
REMARK H PARENT 8 9
REMARK Flexibility Score: inf
ROOT
ATOM      1  C   UNL     1       8.607 -10.751   0.265  1.00  0.00     0.048 C 
ATOM      2  C   UNL     1       8.067 -11.566  -0.875  1.00  0.00    -0.009 A 
ATOM      3  C   UNL     1       8.158 -12.968  -0.850  1.00  0.00     0.007 A 
ATOM      4  C   UNL     1       7.656 -13.727  -1.911  1.00  0.00     0.001 A 
ATOM      5  C   UNL     1       7.061 -13.095  -3.004  1.00  0.00     0.004 A 
ATOM      6  C   UNL     1       6.965 -11.701  -3.040  1.00  0.00     0.046 A 
ATOM      7  C   UNL     1       7.466 -10.932  -1.980  1.00  0.00     0.118 A 
ENDROOT
BRANCH   7   8
ATOM      8  O   UNL     1       7.370  -9.541  -2.019  1.00  0.00    -0.508 OA
ATOM      9  H   UNL     1       6.498  -9.064  -1.821  1.00  0.00     0.293 HD
ENDBRANCH   7   8
TORSDOF 1
ENDMDL
MODEL 2
REMARK VINA RESULT:    -4.958      1.613      2.314
REMARK INTER + INTRA:          -5.103
REMARK INTER:                  -5.103
REMARK INTRA:                   0.000
REMARK UNBOUND:                 0.000
REMARK SMILES Cc1ccccc1O
REMARK SMILES IDX 1 1 2 2 3 3 4 4 5 5 6 6 7 7 8 8
REMARK H PARENT 8 9
REMARK Flexibility Score: inf
ROOT
ATOM      1  C   UNL     1       8.017 -10.041  -0.180  1.00  0.00     0.048 C 
ATOM      2  C   UNL     1       7.727 -11.210  -1.077  1.00  0.00    -0.009 A 
ATOM      3  C   UNL     1       6.976 -11.032  -2.252  1.00  0.00     0.007 A 
ATOM      4  C   UNL     1       6.705 -12.120  -3.087  1.00  0.00     0.001 A 
ATOM      5  C   UNL     1       7.179 -13.391  -2.757  1.00  0.00     0.004 A 
ATOM      6  C   UNL     1       7.926 -13.579  -1.592  1.00  0.00     0.046 A 
ATOM      7  C   UNL     1       8.203 -12.493  -0.748  1.00  0.00     0.118 A 
ENDROOT
BRANCH   7   8
ATOM      8  O   UNL     1       8.949 -12.684   0.415  1.00  0.00    -0.508 OA
ATOM      9  H   UNL     1       8.653 -13.335   1.134  1.00  0.00     0.293 HD
ENDBRANCH   7   8
TORSDOF 1
ENDMDL
MODEL 3
REMARK VINA RESULT:    -4.688      2.447      3.320
REMARK INTER + INTRA:          -4.825
REMARK INTER:                  -4.825
REMARK INTRA:                   0.000
REMARK UNBOUND:                 0.000
REMARK SMILES Cc1ccccc1O
REMARK SMILES IDX 1 1 2 2 3 3 4 4 5 5 6 6 7 7 8 8
REMARK H PARENT 8 9
REMARK Flexibility Score: inf
ROOT
ATOM      1  C   UNL     1       7.792 -13.381  -1.372  1.00  0.00     0.048 C 
ATOM      2  C   UNL     1       6.790 -13.329  -2.489  1.00  0.00    -0.009 A 
ATOM      3  C   UNL     1       7.218 -13.179  -3.820  1.00  0.00     0.007 A 
ATOM      4  C   UNL     1       6.286 -13.130  -4.859  1.00  0.00     0.001 A 
ATOM      5  C   UNL     1       4.921 -13.229  -4.582  1.00  0.00     0.004 A 
ATOM      6  C   UNL     1       4.484 -13.378  -3.263  1.00  0.00     0.046 A 
ATOM      7  C   UNL     1       5.413 -13.429  -2.213  1.00  0.00     0.118 A 
ENDROOT
BRANCH   7   8
ATOM      8  O   UNL     1       4.973 -13.577  -0.898  1.00  0.00    -0.508 OA
ATOM      9  H   UNL     1       4.855 -14.491  -0.478  1.00  0.00     0.293 HD
ENDBRANCH   7   8
TORSDOF 1
ENDMDL
MODEL 4
REMARK VINA RESULT:    -4.630      1.812      3.394
REMARK INTER + INTRA:          -4.766
REMARK INTER:                  -4.766
REMARK INTRA:                   0.000
REMARK UNBOUND:                 0.000
REMARK SMILES Cc1ccccc1O
REMARK SMILES IDX 1 1 2 2 3 3 4 4 5 5 6 6 7 7 8 8
REMARK H PARENT 8 9
REMARK Flexibility Score: inf
ROOT
ATOM      1  C   UNL     1       7.604 -13.680  -1.829  1.00  0.00     0.048 C 
ATOM      2  C   UNL     1       7.603 -12.247  -1.380  1.00  0.00    -0.009 A 
ATOM      3  C   UNL     1       6.796 -11.300  -2.033  1.00  0.00     0.007 A 
ATOM      4  C   UNL     1       6.795  -9.966  -1.616  1.00  0.00     0.001 A 
ATOM      5  C   UNL     1       7.598  -9.566  -0.547  1.00  0.00     0.004 A 
ATOM      6  C   UNL     1       8.404 -10.499   0.111  1.00  0.00     0.046 A 
ATOM      7  C   UNL     1       8.411 -11.840  -0.301  1.00  0.00     0.118 A 
ENDROOT
BRANCH   7   8
ATOM      8  O   UNL     1       9.218 -12.769   0.357  1.00  0.00    -0.508 OA
ATOM      9  H   UNL     1       9.922 -13.304  -0.138  1.00  0.00     0.293 HD
ENDBRANCH   7   8
TORSDOF 1
ENDMDL
MODEL 5
REMARK VINA RESULT:    -4.574      0.947      2.637
REMARK INTER + INTRA:          -4.707
REMARK INTER:                  -4.707
REMARK INTRA:                   0.000
REMARK UNBOUND:                 0.000
REMARK SMILES Cc1ccccc1O
REMARK SMILES IDX 1 1 2 2 3 3 4 4 5 5 6 6 7 7 8 8
REMARK H PARENT 8 9
REMARK Flexibility Score: inf
ROOT
ATOM      1  C   UNL     1       6.458 -13.185  -3.230  1.00  0.00     0.048 C 
ATOM      2  C   UNL     1       7.188 -12.469  -2.131  1.00  0.00    -0.009 A 
ATOM      3  C   UNL     1       8.008 -13.185  -1.241  1.00  0.00     0.007 A 
ATOM      4  C   UNL     1       8.688 -12.520  -0.217  1.00  0.00     0.001 A 
ATOM      5  C   UNL     1       8.556 -11.138  -0.072  1.00  0.00     0.004 A 
ATOM      6  C   UNL     1       7.744 -10.416  -0.950  1.00  0.00     0.046 A 
ATOM      7  C   UNL     1       7.058 -11.075  -1.981  1.00  0.00     0.118 A 
ENDROOT
BRANCH   7   8
ATOM      8  O   UNL     1       6.248 -10.352  -2.856  1.00  0.00    -0.508 OA
ATOM      9  H   UNL     1       6.641  -9.801  -3.610  1.00  0.00     0.293 HD
ENDBRANCH   7   8
TORSDOF 1
ENDMDL
MODEL 6
REMARK VINA RESULT:    -4.497      2.037      3.552
REMARK INTER + INTRA:          -4.629
REMARK INTER:                  -4.629
REMARK INTRA:                   0.000
REMARK UNBOUND:                 0.000
REMARK SMILES Cc1ccccc1O
REMARK SMILES IDX 1 1 2 2 3 3 4 4 5 5 6 6 7 7 8 8
REMARK H PARENT 8 9
REMARK Flexibility Score: inf
ROOT
ATOM      1  C   UNL     1       5.729 -12.414  -2.050  1.00  0.00     0.048 C 
ATOM      2  C   UNL     1       6.879 -11.892  -1.238  1.00  0.00    -0.009 A 
ATOM      3  C   UNL     1       6.900 -10.549  -0.821  1.00  0.00     0.007 A 
ATOM      4  C   UNL     1       7.971 -10.062  -0.066  1.00  0.00     0.001 A 
ATOM      5  C   UNL     1       9.027 -10.908   0.278  1.00  0.00     0.004 A 
ATOM      6  C   UNL     1       9.017 -12.243  -0.131  1.00  0.00     0.046 A 
ATOM      7  C   UNL     1       7.946 -12.741  -0.889  1.00  0.00     0.118 A 
ENDROOT
BRANCH   7   8
ATOM      8  O   UNL     1       7.939 -14.075  -1.297  1.00  0.00    -0.508 OA
ATOM      9  H   UNL     1       8.087 -14.334  -2.265  1.00  0.00     0.293 HD
ENDBRANCH   7   8
TORSDOF 1
ENDMDL
MODEL 7
REMARK VINA RESULT:    -4.441      2.613      3.484
REMARK INTER + INTRA:          -4.570
REMARK INTER:                  -4.570
REMARK INTRA:                   0.000
REMARK UNBOUND:                 0.000
REMARK SMILES Cc1ccccc1O
REMARK SMILES IDX 1 1 2 2 3 3 4 4 5 5 6 6 7 7 8 8
REMARK H PARENT 8 9
REMARK Flexibility Score: inf
ROOT
ATOM      1  C   UNL     1       4.506 -13.196  -0.955  1.00  0.00     0.048 C 
ATOM      2  C   UNL     1       5.311 -13.223  -2.222  1.00  0.00    -0.009 A 
ATOM      3  C   UNL     1       4.672 -13.117  -3.470  1.00  0.00     0.007 A 
ATOM      4  C   UNL     1       5.420 -13.142  -4.650  1.00  0.00     0.001 A 
ATOM      5  C   UNL     1       6.809 -13.273  -4.596  1.00  0.00     0.004 A 
ATOM      6  C   UNL     1       7.455 -13.378  -3.362  1.00  0.00     0.046 A 
ATOM      7  C   UNL     1       6.712 -13.353  -2.172  1.00  0.00     0.118 A 
ENDROOT
BRANCH   7   8
ATOM      8  O   UNL     1       7.360 -13.460  -0.941  1.00  0.00    -0.508 OA
ATOM      9  H   UNL     1       8.331 -13.192  -0.828  1.00  0.00     0.293 HD
ENDBRANCH   7   8
TORSDOF 1
ENDMDL
MODEL 8
REMARK VINA RESULT:    -4.432      2.763      4.115
REMARK INTER + INTRA:          -4.561
REMARK INTER:                  -4.561
REMARK INTRA:                   0.000
REMARK UNBOUND:                 0.000
REMARK SMILES Cc1ccccc1O
REMARK SMILES IDX 1 1 2 2 3 3 4 4 5 5 6 6 7 7 8 8
REMARK H PARENT 8 9
REMARK Flexibility Score: inf
ROOT
ATOM      1  C   UNL     1       3.338 -13.473  -3.437  1.00  0.00     0.048 C 
ATOM      2  C   UNL     1       4.829 -13.407  -3.269  1.00  0.00    -0.009 A 
ATOM      3  C   UNL     1       5.661 -13.234  -4.388  1.00  0.00     0.007 A 
ATOM      4  C   UNL     1       7.049 -13.172  -4.232  1.00  0.00     0.001 A 
ATOM      5  C   UNL     1       7.617 -13.283  -2.962  1.00  0.00     0.004 A 
ATOM      6  C   UNL     1       6.799 -13.455  -1.842  1.00  0.00     0.046 A 
ATOM      7  C   UNL     1       5.405 -13.518  -1.989  1.00  0.00     0.118 A 
ENDROOT
BRANCH   7   8
ATOM      8  O   UNL     1       4.592 -13.691  -0.869  1.00  0.00    -0.508 OA
ATOM      9  H   UNL     1       3.771 -14.285  -0.896  1.00  0.00     0.293 HD
ENDBRANCH   7   8
TORSDOF 1
ENDMDL
MODEL 9
REMARK VINA RESULT:    -4.218      3.020      3.696
REMARK INTER + INTRA:          -4.341
REMARK INTER:                  -4.341
REMARK INTRA:                   0.000
REMARK UNBOUND:                 0.000
REMARK SMILES Cc1ccccc1O
REMARK SMILES IDX 1 1 2 2 3 3 4 4 5 5 6 6 7 7 8 8
REMARK H PARENT 8 9
REMARK Flexibility Score: inf
ROOT
ATOM      1  C   UNL     1       3.951 -13.563  -1.265  1.00  0.00     0.048 C 
ATOM      2  C   UNL     1       5.049 -13.435  -2.282  1.00  0.00    -0.009 A 
ATOM      3  C   UNL     1       6.395 -13.440  -1.876  1.00  0.00     0.007 A 
ATOM      4  C   UNL     1       7.417 -13.320  -2.821  1.00  0.00     0.001 A 
ATOM      5  C   UNL     1       7.106 -13.195  -4.177  1.00  0.00     0.004 A 
ATOM      6  C   UNL     1       5.772 -13.189  -4.592  1.00  0.00     0.046 A 
ATOM      7  C   UNL     1       4.740 -13.309  -3.650  1.00  0.00     0.118 A 
ENDROOT
BRANCH   7   8
ATOM      8  O   UNL     1       3.409 -13.302  -4.067  1.00  0.00    -0.508 OA
ATOM      9  H   UNL     1       2.775 -14.056  -3.830  1.00  0.00     0.293 HD
ENDBRANCH   7   8
TORSDOF 1
ENDMDL
