MODEL 1
REMARK VINA RESULT:    -2.814      0.000      0.000
REMARK INTER + INTRA:          -7.287
REMARK INTER:                  -5.446
REMARK INTRA:                  -1.841
REMARK UNBOUND:                -1.841
REMARK SMILES CCCCCCCCCCCCCCCCCC(=O)[O-]
REMARK SMILES IDX 10 1 11 2 12 3 13 4 14 5 15 6 16 7 17 8 18 9 19 10 20 11
REMARK SMILES IDX 9 12 8 13 7 14 6 15 5 16 4 17 3 18 2 19 1 20
REMARK H PARENT
REMARK Flexibility Score: inf
ROOT
ATOM      1  C   UNL     1     -15.625  10.358   7.317  1.00  0.00     0.000 C 
ENDROOT
BRANCH   1   2
ATOM      2  C   UNL     1     -16.823  11.199   7.781  1.00  0.00     0.000 C 
BRANCH   2   3
ATOM      3  C   UNL     1     -16.405  12.432   8.598  1.00  0.00     0.000 C 
BRANCH   3   4
ATOM      4  C   UNL     1     -17.064  12.470   9.987  1.00  0.00     0.000 C 
BRANCH   4   5
ATOM      5  C   UNL     1     -16.467  11.434  10.959  1.00  0.00     0.000 C 
BRANCH   5   6
ATOM      6  C   UNL     1     -15.689  12.025  12.152  1.00  0.00     0.000 C 
BRANCH   6   7
ATOM      7  C   UNL     1     -16.188  13.397  12.647  1.00  0.00     0.006 C 
BRANCH   7   8
ATOM      8  C   UNL     1     -15.090  14.467  12.764  1.00  0.00     0.053 C 
BRANCH   8   9
ATOM      9  C   UNL     1     -14.035  14.300  11.714  1.00  0.00     0.041 C 
ATOM     10  O   UNL     1     -14.255  14.664  10.529  1.00  0.00    -0.550 OA
ATOM     11  O   UNL     1     -12.794  13.772  12.052  1.00  0.00    -0.550 OA
ENDBRANCH   8   9
ENDBRANCH   7   8
ENDBRANCH   6   7
ENDBRANCH   5   6
ENDBRANCH   4   5
ENDBRANCH   3   4
ENDBRANCH   2   3
ENDBRANCH   1   2
BRANCH   1  12
ATOM     12  C   UNL     1     -15.408   9.155   8.245  1.00  0.00     0.000 C 
BRANCH  12  13
ATOM     13  C   UNL     1     -16.743   8.487   8.604  1.00  0.00    -0.000 C 
BRANCH  13  14
ATOM     14  C   UNL     1     -16.604   7.471   9.758  1.00  0.00    -0.000 C 
BRANCH  14  15
ATOM     15  C   UNL     1     -15.309   7.633  10.577  1.00  0.00    -0.000 C 
BRANCH  15  16
ATOM     16  C   UNL     1     -15.489   7.555  12.104  1.00  0.00    -0.000 C 
BRANCH  16  17
ATOM     17  C   UNL     1     -14.598   6.516  12.812  1.00  0.00    -0.000 C 
BRANCH  17  18
ATOM     18  C   UNL     1     -13.447   6.015  11.929  1.00  0.00    -0.000 C 
BRANCH  18  19
ATOM     19  C   UNL     1     -13.390   4.482  11.921  1.00  0.00    -0.003 C 
ATOM     20  C   UNL     1     -14.741   3.878  12.295  1.00  0.00     0.004 C 
ENDBRANCH  18  19
ENDBRANCH  17  18
ENDBRANCH  16  17
ENDBRANCH  15  16
ENDBRANCH  14  15
ENDBRANCH  13  14
ENDBRANCH  12  13
ENDBRANCH   1  12
TORSDOF 16
ENDMDL
MODEL 2
REMARK VINA RESULT:    -2.772      1.465      1.997
REMARK INTER + INTRA:          -7.205
REMARK INTER:                  -5.753
REMARK INTRA:                  -1.452
REMARK UNBOUND:                -1.841
REMARK SMILES CCCCCCCCCCCCCCCCCC(=O)[O-]
REMARK SMILES IDX 10 1 11 2 12 3 13 4 14 5 15 6 16 7 17 8 18 9 19 10 20 11
REMARK SMILES IDX 9 12 8 13 7 14 6 15 5 16 4 17 3 18 2 19 1 20
REMARK H PARENT
REMARK Flexibility Score: inf
ROOT
ATOM      1  C   UNL     1     -15.452  10.262   8.326  1.00  0.00     0.000 C 
ENDROOT
BRANCH   1   2
ATOM      2  C   UNL     1     -15.710  11.189   7.129  1.00  0.00     0.000 C 
BRANCH   2   3
ATOM      3  C   UNL     1     -15.631  12.678   7.501  1.00  0.00     0.000 C 
BRANCH   3   4
ATOM      4  C   UNL     1     -15.412  12.899   9.007  1.00  0.00     0.000 C 
BRANCH   4   5
ATOM      5  C   UNL     1     -14.058  13.560   9.323  1.00  0.00     0.000 C 
BRANCH   5   6
ATOM      6  C   UNL     1     -14.081  14.592  10.469  1.00  0.00     0.000 C 
BRANCH   6   7
ATOM      7  C   UNL     1     -15.390  14.640  11.283  1.00  0.00     0.006 C 
BRANCH   7   8
ATOM      8  C   UNL     1     -15.214  14.353  12.783  1.00  0.00     0.053 C 
BRANCH   8   9
ATOM      9  C   UNL     1     -14.705  12.966  13.030  1.00  0.00     0.041 C 
ATOM     10  O   UNL     1     -15.509  12.002  13.124  1.00  0.00    -0.550 OA
ATOM     11  O   UNL     1     -13.338  12.734  13.125  1.00  0.00    -0.550 OA
ENDBRANCH   8   9
ENDBRANCH   7   8
ENDBRANCH   6   7
ENDBRANCH   5   6
ENDBRANCH   4   5
ENDBRANCH   3   4
ENDBRANCH   2   3
ENDBRANCH   1   2
BRANCH   1  12
ATOM     12  C   UNL     1     -16.350   9.019   8.260  1.00  0.00     0.000 C 
BRANCH  12  13
ATOM     13  C   UNL     1     -15.954   7.994   9.333  1.00  0.00    -0.000 C 
BRANCH  13  14
ATOM     14  C   UNL     1     -16.929   7.986  10.531  1.00  0.00    -0.000 C 
BRANCH  14  15
ATOM     15  C   UNL     1     -16.576   9.009  11.628  1.00  0.00    -0.000 C 
BRANCH  15  16
ATOM     16  C   UNL     1     -16.311   8.406  13.020  1.00  0.00    -0.000 C 
BRANCH  16  17
ATOM     17  C   UNL     1     -15.687   6.998  13.012  1.00  0.00    -0.000 C 
BRANCH  17  18
ATOM     18  C   UNL     1     -14.152   7.023  13.000  1.00  0.00    -0.000 C 
BRANCH  18  19
ATOM     19  C   UNL     1     -13.603   6.365  11.728  1.00  0.00    -0.003 C 
ATOM     20  C   UNL     1     -13.584   4.845  11.858  1.00  0.00     0.004 C 
ENDBRANCH  18  19
ENDBRANCH  17  18
ENDBRANCH  16  17
ENDBRANCH  15  16
ENDBRANCH  14  15
ENDBRANCH  13  14
ENDBRANCH  12  13
ENDBRANCH   1  12
TORSDOF 16
ENDMDL
MODEL 3
REMARK VINA RESULT:    -2.582      1.482      2.760
REMARK INTER + INTRA:          -6.838
REMARK INTER:                  -5.339
REMARK INTRA:                  -1.500
REMARK UNBOUND:                -1.841
REMARK SMILES CCCCCCCCCCCCCCCCCC(=O)[O-]
REMARK SMILES IDX 10 1 11 2 12 3 13 4 14 5 15 6 16 7 17 8 18 9 19 10 20 11
REMARK SMILES IDX 9 12 8 13 7 14 6 15 5 16 4 17 3 18 2 19 1 20
REMARK H PARENT
REMARK Flexibility Score: inf
ROOT
ATOM      1  C   UNL     1     -16.468   8.151   8.596  1.00  0.00     0.000 C 
ENDROOT
BRANCH   1   2
ATOM      2  C   UNL     1     -15.585   9.406   8.658  1.00  0.00     0.000 C 
BRANCH   2   3
ATOM      3  C   UNL     1     -15.624  10.227   7.359  1.00  0.00     0.000 C 
BRANCH   3   4
ATOM      4  C   UNL     1     -16.782  11.239   7.335  1.00  0.00     0.000 C 
BRANCH   4   5
ATOM      5  C   UNL     1     -16.302  12.698   7.450  1.00  0.00     0.000 C 
BRANCH   5   6
ATOM      6  C   UNL     1     -14.777  12.879   7.595  1.00  0.00     0.000 C 
BRANCH   6   7
ATOM      7  C   UNL     1     -14.248  12.860   9.043  1.00  0.00     0.006 C 
BRANCH   7   8
ATOM      8  C   UNL     1     -14.926  13.872   9.980  1.00  0.00     0.053 C 
BRANCH   8   9
ATOM      9  C   UNL     1     -15.460  13.217  11.216  1.00  0.00     0.041 C 
ATOM     10  O   UNL     1     -16.200  12.202  11.128  1.00  0.00    -0.550 OA
ATOM     11  O   UNL     1     -15.114  13.709  12.469  1.00  0.00    -0.550 OA
ENDBRANCH   8   9
ENDBRANCH   7   8
ENDBRANCH   6   7
ENDBRANCH   5   6
ENDBRANCH   4   5
ENDBRANCH   3   4
ENDBRANCH   2   3
ENDBRANCH   1   2
BRANCH   1  12
ATOM     12  C   UNL     1     -16.233   7.255   9.820  1.00  0.00     0.000 C 
BRANCH  12  13
ATOM     13  C   UNL     1     -16.589   7.992  11.119  1.00  0.00    -0.000 C 
BRANCH  13  14
ATOM     14  C   UNL     1     -15.512   7.816  12.212  1.00  0.00    -0.000 C 
BRANCH  14  15
ATOM     15  C   UNL     1     -14.202   7.188  11.699  1.00  0.00    -0.000 C 
BRANCH  15  16
ATOM     16  C   UNL     1     -13.292   6.594  12.790  1.00  0.00    -0.000 C 
BRANCH  16  17
ATOM     17  C   UNL     1     -13.555   5.112  13.120  1.00  0.00    -0.000 C 
BRANCH  17  18
ATOM     18  C   UNL     1     -13.926   4.281  11.884  1.00  0.00    -0.000 C 
BRANCH  18  19
ATOM     19  C   UNL     1     -15.405   3.875  11.919  1.00  0.00    -0.003 C 
ATOM     20  C   UNL     1     -16.115   4.484  13.125  1.00  0.00     0.004 C 
ENDBRANCH  18  19
ENDBRANCH  17  18
ENDBRANCH  16  17
ENDBRANCH  15  16
ENDBRANCH  14  15
ENDBRANCH  13  14
ENDBRANCH  12  13
ENDBRANCH   1  12
TORSDOF 16
ENDMDL
MODEL 4
REMARK VINA RESULT:    -2.376      2.939      6.858
REMARK INTER + INTRA:          -6.439
REMARK INTER:                  -4.852
REMARK INTRA:                  -1.587
REMARK UNBOUND:                -1.841
REMARK SMILES CCCCCCCCCCCCCCCCCC(=O)[O-]
REMARK SMILES IDX 10 1 11 2 12 3 13 4 14 5 15 6 16 7 17 8 18 9 19 10 20 11
REMARK SMILES IDX 9 12 8 13 7 14 6 15 5 16 4 17 3 18 2 19 1 20
REMARK H PARENT
REMARK Flexibility Score: inf
ROOT
ATOM      1  C   UNL     1     -16.917  11.094   9.409  1.00  0.00     0.000 C 
ENDROOT
BRANCH   1   2
ATOM      2  C   UNL     1     -15.793  10.093   9.713  1.00  0.00     0.000 C 
BRANCH   2   3
ATOM      3  C   UNL     1     -15.643   9.016   8.625  1.00  0.00     0.000 C 
BRANCH   3   4
ATOM      4  C   UNL     1     -16.700   7.906   8.745  1.00  0.00     0.000 C 
BRANCH   4   5
ATOM      5  C   UNL     1     -17.003   7.525  10.206  1.00  0.00     0.000 C 
BRANCH   5   6
ATOM      6  C   UNL     1     -15.878   6.760  10.932  1.00  0.00     0.000 C 
BRANCH   6   7
ATOM      7  C   UNL     1     -16.103   6.535  12.441  1.00  0.00     0.006 C 
BRANCH   7   8
ATOM      8  C   UNL     1     -15.057   5.630  13.110  1.00  0.00     0.053 C 
BRANCH   8   9
ATOM      9  C   UNL     1     -13.742   5.671  12.394  1.00  0.00     0.041 C 
ATOM     10  O   UNL     1     -12.966   6.651  12.548  1.00  0.00    -0.550 OA
ATOM     11  O   UNL     1     -13.360   4.612  11.580  1.00  0.00    -0.550 OA
ENDBRANCH   8   9
ENDBRANCH   7   8
ENDBRANCH   6   7
ENDBRANCH   5   6
ENDBRANCH   4   5
ENDBRANCH   3   4
ENDBRANCH   2   3
ENDBRANCH   1   2
BRANCH   1  12
ATOM     12  C   UNL     1     -17.125  12.058  10.585  1.00  0.00     0.000 C 
BRANCH  12  13
ATOM     13  C   UNL     1     -16.632  11.438  11.900  1.00  0.00    -0.000 C 
BRANCH  13  14
ATOM     14  C   UNL     1     -15.931  12.468  12.813  1.00  0.00    -0.000 C 
BRANCH  14  15
ATOM     15  C   UNL     1     -14.506  12.834  12.358  1.00  0.00    -0.000 C 
BRANCH  15  16
ATOM     16  C   UNL     1     -14.339  14.270  11.828  1.00  0.00    -0.000 C 
BRANCH  16  17
ATOM     17  C   UNL     1     -13.712  14.377  10.424  1.00  0.00    -0.000 C 
BRANCH  17  18
ATOM     18  C   UNL     1     -14.610  13.797   9.323  1.00  0.00    -0.000 C 
BRANCH  18  19
ATOM     19  C   UNL     1     -13.769  13.192   8.192  1.00  0.00    -0.003 C 
ATOM     20  C   UNL     1     -14.506  13.266   6.857  1.00  0.00     0.004 C 
ENDBRANCH  18  19
ENDBRANCH  17  18
ENDBRANCH  16  17
ENDBRANCH  15  16
ENDBRANCH  14  15
ENDBRANCH  13  14
ENDBRANCH  12  13
ENDBRANCH   1  12
TORSDOF 16
ENDMDL
MODEL 5
REMARK VINA RESULT:    -2.188      2.406      4.366
REMARK INTER + INTRA:          -6.075
REMARK INTER:                  -4.757
REMARK INTRA:                  -1.318
REMARK UNBOUND:                -1.841
REMARK SMILES CCCCCCCCCCCCCCCCCC(=O)[O-]
REMARK SMILES IDX 10 1 11 2 12 3 13 4 14 5 15 6 16 7 17 8 18 9 19 10 20 11
REMARK SMILES IDX 9 12 8 13 7 14 6 15 5 16 4 17 3 18 2 19 1 20
REMARK H PARENT
REMARK Flexibility Score: inf
ROOT
ATOM      1  C   UNL     1     -14.493  13.283   9.329  1.00  0.00     0.000 C 
ENDROOT
BRANCH   1   2
ATOM      2  C   UNL     1     -13.736  14.295  10.202  1.00  0.00     0.000 C 
BRANCH   2   3
ATOM      3  C   UNL     1     -13.464  13.770  11.622  1.00  0.00     0.000 C 
BRANCH   3   4
ATOM      4  C   UNL     1     -13.984  14.723  12.711  1.00  0.00     0.000 C 
BRANCH   4   5
ATOM      5  C   UNL     1     -15.496  14.990  12.599  1.00  0.00     0.000 C 
BRANCH   5   6
ATOM      6  C   UNL     1     -16.403  13.798  12.965  1.00  0.00     0.000 C 
BRANCH   6   7
ATOM      7  C   UNL     1     -17.093  13.106  11.772  1.00  0.00     0.006 C 
BRANCH   7   8
ATOM      8  C   UNL     1     -16.473  11.757  11.376  1.00  0.00     0.053 C 
BRANCH   8   9
ATOM      9  C   UNL     1     -16.047  10.965  12.575  1.00  0.00     0.041 C 
ATOM     10  O   UNL     1     -14.937  11.193  13.125  1.00  0.00    -0.550 OA
ATOM     11  O   UNL     1     -16.891   9.996  13.104  1.00  0.00    -0.550 OA
ENDBRANCH   8   9
ENDBRANCH   7   8
ENDBRANCH   6   7
ENDBRANCH   5   6
ENDBRANCH   4   5
ENDBRANCH   3   4
ENDBRANCH   2   3
ENDBRANCH   1   2
BRANCH   1  12
ATOM     12  C   UNL     1     -13.867  13.190   7.931  1.00  0.00     0.000 C 
BRANCH  12  13
ATOM     13  C   UNL     1     -14.889  12.687   6.901  1.00  0.00    -0.000 C 
BRANCH  13  14
ATOM     14  C   UNL     1     -16.138  12.066   7.562  1.00  0.00    -0.000 C 
BRANCH  14  15
ATOM     15  C   UNL     1     -16.615  10.763   6.891  1.00  0.00    -0.000 C 
BRANCH  15  16
ATOM     16  C   UNL     1     -16.910   9.601   7.858  1.00  0.00    -0.000 C 
BRANCH  16  17
ATOM     17  C   UNL     1     -15.826   9.350   8.924  1.00  0.00    -0.000 C 
BRANCH  17  18
ATOM     18  C   UNL     1     -15.730   7.877   9.344  1.00  0.00    -0.000 C 
BRANCH  18  19
ATOM     19  C   UNL     1     -17.124   7.255   9.484  1.00  0.00    -0.003 C 
ATOM     20  C   UNL     1     -17.041   5.832  10.029  1.00  0.00     0.004 C 
ENDBRANCH  18  19
ENDBRANCH  17  18
ENDBRANCH  16  17
ENDBRANCH  15  16
ENDBRANCH  14  15
ENDBRANCH  13  14
ENDBRANCH  12  13
ENDBRANCH   1  12
TORSDOF 16
ENDMDL
MODEL 6
REMARK VINA RESULT:    -1.894      1.771      3.748
REMARK INTER + INTRA:          -5.506
REMARK INTER:                  -4.248
REMARK INTRA:                  -1.257
REMARK UNBOUND:                -1.841
REMARK SMILES CCCCCCCCCCCCCCCCCC(=O)[O-]
REMARK SMILES IDX 10 1 11 2 12 3 13 4 14 5 15 6 16 7 17 8 18 9 19 10 20 11
REMARK SMILES IDX 9 12 8 13 7 14 6 15 5 16 4 17 3 18 2 19 1 20
REMARK H PARENT
REMARK Flexibility Score: inf
ROOT
ATOM      1  C   UNL     1     -14.810  12.135  12.204  1.00  0.00     0.000 C 
ENDROOT
BRANCH   1   2
ATOM      2  C   UNL     1     -14.433  13.383  13.016  1.00  0.00     0.000 C 
BRANCH   2   3
ATOM      3  C   UNL     1     -15.581  14.400  13.113  1.00  0.00     0.000 C 
BRANCH   3   4
ATOM      4  C   UNL     1     -15.682  15.295  11.867  1.00  0.00     0.000 C 
BRANCH   4   5
ATOM      5  C   UNL     1     -16.935  15.001  11.020  1.00  0.00     0.000 C 
BRANCH   5   6
ATOM      6  C   UNL     1     -17.125  13.524  10.619  1.00  0.00     0.000 C 
BRANCH   6   7
ATOM      7  C   UNL     1     -16.801  13.196   9.148  1.00  0.00     0.006 C 
BRANCH   7   8
ATOM      8  C   UNL     1     -15.513  12.381   8.948  1.00  0.00     0.053 C 
BRANCH   8   9
ATOM      9  C   UNL     1     -14.395  13.225   8.416  1.00  0.00     0.041 C 
ATOM     10  O   UNL     1     -13.761  13.997   9.183  1.00  0.00    -0.550 OA
ATOM     11  O   UNL     1     -14.032  13.135   7.078  1.00  0.00    -0.550 OA
ENDBRANCH   8   9
ENDBRANCH   7   8
ENDBRANCH   6   7
ENDBRANCH   5   6
ENDBRANCH   4   5
ENDBRANCH   3   4
ENDBRANCH   2   3
ENDBRANCH   1   2
BRANCH   1  12
ATOM     12  C   UNL     1     -15.296  11.008  13.124  1.00  0.00     0.000 C 
BRANCH  12  13
ATOM     13  C   UNL     1     -16.784  10.708  12.892  1.00  0.00    -0.000 C 
BRANCH  13  14
ATOM     14  C   UNL     1     -17.070   9.196  12.769  1.00  0.00    -0.000 C 
BRANCH  14  15
ATOM     15  C   UNL     1     -15.891   8.384  12.199  1.00  0.00    -0.000 C 
BRANCH  15  16
ATOM     16  C   UNL     1     -16.268   7.366  11.106  1.00  0.00    -0.000 C 
BRANCH  16  17
ATOM     17  C   UNL     1     -15.244   6.235  10.889  1.00  0.00    -0.000 C 
BRANCH  17  18
ATOM     18  C   UNL     1     -15.551   4.984  11.724  1.00  0.00    -0.000 C 
BRANCH  18  19
ATOM     19  C   UNL     1     -14.314   4.534  12.513  1.00  0.00    -0.003 C 
ATOM     20  C   UNL     1     -13.269   5.644  12.578  1.00  0.00     0.004 C 
ENDBRANCH  18  19
ENDBRANCH  17  18
ENDBRANCH  16  17
ENDBRANCH  15  16
ENDBRANCH  14  15
ENDBRANCH  13  14
ENDBRANCH  12  13
ENDBRANCH   1  12
TORSDOF 16
ENDMDL
