MODEL 1
REMARK VINA RESULT:    -5.992      0.000      0.000
REMARK INTER + INTRA:          -6.579
REMARK INTER:                  -6.342
REMARK INTRA:                  -0.237
REMARK UNBOUND:                -0.237
REMARK SMILES O=c1cc(-c2ccccc2)oc2ccccc12
REMARK SMILES IDX 4 1 3 2 2 3 1 4 17 5 16 6 15 7 14 8 13 9 12 10 11 11 5 12
REMARK SMILES IDX 8 13 7 14 9 15 6 16 10 17
REMARK H PARENT
REMARK Flexibility Score: inf
ROOT
ATOM      1  C   UNL     1      18.504  34.219   9.870  1.00  0.00     0.138 A 
ATOM      2  C   UNL     1      19.562  33.934   8.982  1.00  0.00     0.100 A 
ATOM      3  C   UNL     1      19.332  33.956   7.606  1.00  0.00     0.193 A 
ATOM      4  O   UNL     1      20.279  33.701   6.812  1.00  0.00    -0.289 OA
ATOM      5  C   UNL     1      18.051  34.263   7.125  1.00  0.00     0.065 A 
ATOM      6  C   UNL     1      17.751  34.303   5.750  1.00  0.00     0.016 A 
ATOM      7  C   UNL     1      16.456  34.615   5.326  1.00  0.00     0.001 A 
ATOM      8  C   UNL     1      15.455  34.888   6.263  1.00  0.00     0.004 A 
ATOM      9  C   UNL     1      15.744  34.850   7.630  1.00  0.00     0.048 A 
ATOM     10  C   UNL     1      17.036  34.540   8.066  1.00  0.00     0.138 A 
ATOM     11  O   UNL     1      17.302  34.506   9.368  1.00  0.00    -0.456 OA
ENDROOT
BRANCH   1  12
ATOM     12  C   UNL     1      18.665  34.217  11.357  1.00  0.00     0.017 A 
ATOM     13  C   UNL     1      18.896  34.146  14.169  1.00  0.00     0.000 A 
ATOM     14  C   UNL     1      19.742  34.962  13.420  1.00  0.00     0.001 A 
ATOM     15  C   UNL     1      17.936  33.365  13.527  1.00  0.00     0.001 A 
ATOM     16  C   UNL     1      19.632  35.001  12.025  1.00  0.00     0.012 A 
ATOM     17  C   UNL     1      17.819  33.397  12.135  1.00  0.00     0.012 A 
ENDBRANCH   1  12
TORSDOF 1
ENDMDL
MODEL 2
REMARK VINA RESULT:    -5.757      1.298      5.964
REMARK INTER + INTRA:          -6.331
REMARK INTER:                  -6.095
REMARK INTRA:                  -0.236
REMARK UNBOUND:                -0.237
REMARK SMILES O=c1cc(-c2ccccc2)oc2ccccc12
REMARK SMILES IDX 4 1 3 2 2 3 1 4 17 5 16 6 15 7 14 8 13 9 12 10 11 11 5 12
REMARK SMILES IDX 8 13 7 14 9 15 6 16 10 17
REMARK H PARENT
REMARK Flexibility Score: inf
ROOT
ATOM      1  C   UNL     1      18.008  34.606   9.076  1.00  0.00     0.138 A 
ATOM      2  C   UNL     1      19.133  35.401   9.383  1.00  0.00     0.100 A 
ATOM      3  C   UNL     1      19.674  35.362  10.670  1.00  0.00     0.193 A 
ATOM      4  O   UNL     1      20.679  36.072  10.944  1.00  0.00    -0.289 OA
ATOM      5  C   UNL     1      19.092  34.532  11.638  1.00  0.00     0.065 A 
ATOM      6  C   UNL     1      19.586  34.445  12.953  1.00  0.00     0.016 A 
ATOM      7  C   UNL     1      18.967  33.601  13.879  1.00  0.00     0.001 A 
ATOM      8  C   UNL     1      17.855  32.841  13.505  1.00  0.00     0.004 A 
ATOM      9  C   UNL     1      17.356  32.921  12.201  1.00  0.00     0.048 A 
ATOM     10  C   UNL     1      17.969  33.762  11.266  1.00  0.00     0.138 A 
ATOM     11  O   UNL     1      17.487  33.832  10.029  1.00  0.00    -0.456 OA
ENDROOT
BRANCH   1  12
ATOM     12  C   UNL     1      17.368  34.589   7.724  1.00  0.00     0.017 A 
ATOM     13  C   UNL     1      16.249  34.534   5.134  1.00  0.00     0.000 A 
ATOM     14  C   UNL     1      15.448  34.837   6.235  1.00  0.00     0.001 A 
ATOM     15  C   UNL     1      17.603  34.257   5.315  1.00  0.00     0.001 A 
ATOM     16  C   UNL     1      15.998  34.867   7.521  1.00  0.00     0.012 A 
ATOM     17  C   UNL     1      18.160  34.284   6.597  1.00  0.00     0.012 A 
ENDBRANCH   1  12
TORSDOF 1
ENDMDL
MODEL 3
REMARK VINA RESULT:    -5.704      1.392      6.182
REMARK INTER + INTRA:          -6.275
REMARK INTER:                  -6.035
REMARK INTRA:                  -0.240
REMARK UNBOUND:                -0.237
REMARK SMILES O=c1cc(-c2ccccc2)oc2ccccc12
REMARK SMILES IDX 4 1 3 2 2 3 1 4 17 5 16 6 15 7 14 8 13 9 12 10 11 11 5 12
REMARK SMILES IDX 8 13 7 14 9 15 6 16 10 17
REMARK H PARENT
REMARK Flexibility Score: inf
ROOT
ATOM      1  C   UNL     1      18.023  34.524   9.333  1.00  0.00     0.138 A 
ATOM      2  C   UNL     1      17.499  33.746  10.386  1.00  0.00     0.100 A 
ATOM      3  C   UNL     1      18.119  33.771  11.637  1.00  0.00     0.193 A 
ATOM      4  O   UNL     1      17.650  33.076  12.578  1.00  0.00    -0.289 OA
ATOM      5  C   UNL     1      19.253  34.572  11.828  1.00  0.00     0.065 A 
ATOM      6  C   UNL     1      19.927  34.645  13.062  1.00  0.00     0.016 A 
ATOM      7  C   UNL     1      21.054  35.460  13.198  1.00  0.00     0.001 A 
ATOM      8  C   UNL     1      21.518  36.204  12.110  1.00  0.00     0.004 A 
ATOM      9  C   UNL     1      20.857  36.139  10.880  1.00  0.00     0.048 A 
ATOM     10  C   UNL     1      19.727  35.327  10.734  1.00  0.00     0.138 A 
ATOM     11  O   UNL     1      19.105  35.270   9.560  1.00  0.00    -0.456 OA
ENDROOT
BRANCH   1  12
ATOM     12  C   UNL     1      17.421  34.553   7.964  1.00  0.00     0.017 A 
ATOM     13  C   UNL     1      16.373  34.587   5.344  1.00  0.00     0.000 A 
ATOM     14  C   UNL     1      15.540  34.843   6.432  1.00  0.00     0.001 A 
ATOM     15  C   UNL     1      17.724  34.314   5.552  1.00  0.00     0.001 A 
ATOM     16  C   UNL     1      16.054  34.828   7.733  1.00  0.00     0.012 A 
ATOM     17  C   UNL     1      18.246  34.296   6.849  1.00  0.00     0.012 A 
ENDBRANCH   1  12
TORSDOF 1
ENDMDL
MODEL 4
REMARK VINA RESULT:    -5.591      2.307      3.994
REMARK INTER + INTRA:          -6.155
REMARK INTER:                  -5.895
REMARK INTRA:                  -0.260
REMARK UNBOUND:                -0.237
REMARK SMILES O=c1cc(-c2ccccc2)oc2ccccc12
REMARK SMILES IDX 4 1 3 2 2 3 1 4 17 5 16 6 15 7 14 8 13 9 12 10 11 11 5 12
REMARK SMILES IDX 8 13 7 14 9 15 6 16 10 17
REMARK H PARENT
REMARK Flexibility Score: inf
ROOT
ATOM      1  C   UNL     1      18.012  33.215  11.344  1.00  0.00     0.138 A 
ATOM      2  C   UNL     1      18.741  34.178  12.074  1.00  0.00     0.100 A 
ATOM      3  C   UNL     1      19.621  35.030  11.404  1.00  0.00     0.193 A 
ATOM      4  O   UNL     1      20.272  35.891  12.056  1.00  0.00    -0.289 OA
ATOM      5  C   UNL     1      19.765  34.918  10.014  1.00  0.00     0.065 A 
ATOM      6  C   UNL     1      20.635  35.744   9.277  1.00  0.00     0.016 A 
ATOM      7  C   UNL     1      20.741  35.589   7.892  1.00  0.00     0.001 A 
ATOM      8  C   UNL     1      19.988  34.613   7.233  1.00  0.00     0.004 A 
ATOM      9  C   UNL     1      19.122  33.787   7.957  1.00  0.00     0.048 A 
ATOM     10  C   UNL     1      19.007  33.934   9.343  1.00  0.00     0.138 A 
ATOM     11  O   UNL     1      18.183  33.144  10.023  1.00  0.00    -0.456 OA
ENDROOT
BRANCH   1  12
ATOM     12  C   UNL     1      17.051  32.265  11.984  1.00  0.00     0.017 A 
ATOM     13  C   UNL     1      15.192  30.461  13.104  1.00  0.00     0.000 A 
ATOM     14  C   UNL     1      16.187  31.023  13.903  1.00  0.00     0.001 A 
ATOM     15  C   UNL     1      15.116  30.791  11.752  1.00  0.00     0.001 A 
ATOM     16  C   UNL     1      17.111  31.918  13.353  1.00  0.00     0.012 A 
ATOM     17  C   UNL     1      16.036  31.684  11.194  1.00  0.00     0.012 A 
ENDBRANCH   1  12
TORSDOF 1
ENDMDL
MODEL 5
REMARK VINA RESULT:    -5.497      2.535      5.619
REMARK INTER + INTRA:          -6.055
REMARK INTER:                  -5.793
REMARK INTRA:                  -0.262
REMARK UNBOUND:                -0.237
REMARK SMILES O=c1cc(-c2ccccc2)oc2ccccc12
REMARK SMILES IDX 4 1 3 2 2 3 1 4 17 5 16 6 15 7 14 8 13 9 12 10 11 11 5 12
REMARK SMILES IDX 8 13 7 14 9 15 6 16 10 17
REMARK H PARENT
REMARK Flexibility Score: inf
ROOT
ATOM      1  C   UNL     1      18.664  33.825  10.919  1.00  0.00     0.138 A 
ATOM      2  C   UNL     1      18.880  34.139  12.277  1.00  0.00     0.100 A 
ATOM      3  C   UNL     1      18.152  33.471  13.263  1.00  0.00     0.193 A 
ATOM      4  O   UNL     1      18.345  33.751  14.477  1.00  0.00    -0.289 OA
ATOM      5  C   UNL     1      17.217  32.495  12.888  1.00  0.00     0.065 A 
ATOM      6  C   UNL     1      16.450  31.785  13.830  1.00  0.00     0.016 A 
ATOM      7  C   UNL     1      15.531  30.822  13.402  1.00  0.00     0.001 A 
ATOM      8  C   UNL     1      15.369  30.563  12.038  1.00  0.00     0.004 A 
ATOM      9  C   UNL     1      16.126  31.264  11.095  1.00  0.00     0.048 A 
ATOM     10  C   UNL     1      17.049  32.228  11.513  1.00  0.00     0.138 A 
ATOM     11  O   UNL     1      17.765  32.891  10.609  1.00  0.00    -0.456 OA
ENDROOT
BRANCH   1  12
ATOM     12  C   UNL     1      19.401  34.493   9.802  1.00  0.00     0.017 A 
ATOM     13  C   UNL     1      20.765  35.680   7.635  1.00  0.00     0.000 A 
ATOM     14  C   UNL     1      20.760  36.304   8.882  1.00  0.00     0.001 A 
ATOM     15  C   UNL     1      20.095  34.470   7.460  1.00  0.00     0.001 A 
ATOM     16  C   UNL     1      20.086  35.720   9.960  1.00  0.00     0.012 A 
ATOM     17  C   UNL     1      19.418  33.880   8.531  1.00  0.00     0.012 A 
ENDBRANCH   1  12
TORSDOF 1
ENDMDL
MODEL 6
REMARK VINA RESULT:    -5.495      2.838      5.393
REMARK INTER + INTRA:          -6.054
REMARK INTER:                  -5.798
REMARK INTRA:                  -0.256
REMARK UNBOUND:                -0.237
REMARK SMILES O=c1cc(-c2ccccc2)oc2ccccc12
REMARK SMILES IDX 4 1 3 2 2 3 1 4 17 5 16 6 15 7 14 8 13 9 12 10 11 11 5 12
REMARK SMILES IDX 8 13 7 14 9 15 6 16 10 17
REMARK H PARENT
REMARK Flexibility Score: inf
ROOT
ATOM      1  C   UNL     1      17.005  32.287  12.089  1.00  0.00     0.138 A 
ATOM      2  C   UNL     1      17.169  32.478  10.701  1.00  0.00     0.100 A 
ATOM      3  C   UNL     1      18.113  33.396  10.239  1.00  0.00     0.193 A 
ATOM      4  O   UNL     1      18.260  33.566   8.997  1.00  0.00    -0.289 OA
ATOM      5  C   UNL     1      18.887  34.114  11.161  1.00  0.00     0.065 A 
ATOM      6  C   UNL     1      19.856  35.054  10.763  1.00  0.00     0.016 A 
ATOM      7  C   UNL     1      20.600  35.743  11.725  1.00  0.00     0.001 A 
ATOM      8  C   UNL     1      20.384  35.503  13.085  1.00  0.00     0.004 A 
ATOM      9  C   UNL     1      19.423  34.572  13.490  1.00  0.00     0.048 A 
ATOM     10  C   UNL     1      18.674  33.876  12.536  1.00  0.00     0.138 A 
ATOM     11  O   UNL     1      17.762  32.993  12.930  1.00  0.00    -0.456 OA
ENDROOT
BRANCH   1  12
ATOM     12  C   UNL     1      16.017  31.325  12.667  1.00  0.00     0.017 A 
ATOM     13  C   UNL     1      14.213  29.496  13.836  1.00  0.00     0.000 A 
ATOM     14  C   UNL     1      13.904  30.099  12.617  1.00  0.00     0.001 A 
ATOM     15  C   UNL     1      15.413  29.798  14.476  1.00  0.00     0.001 A 
ATOM     16  C   UNL     1      14.795  31.006  12.033  1.00  0.00     0.012 A 
ATOM     17  C   UNL     1      16.309  30.704  13.900  1.00  0.00     0.012 A 
ENDBRANCH   1  12
TORSDOF 1
ENDMDL
MODEL 7
REMARK VINA RESULT:    -5.494      2.878      5.408
REMARK INTER + INTRA:          -6.052
REMARK INTER:                  -5.796
REMARK INTRA:                  -0.257
REMARK UNBOUND:                -0.237
REMARK SMILES O=c1cc(-c2ccccc2)oc2ccccc12
REMARK SMILES IDX 4 1 3 2 2 3 1 4 17 5 16 6 15 7 14 8 13 9 12 10 11 11 5 12
REMARK SMILES IDX 8 13 7 14 9 15 6 16 10 17
REMARK H PARENT
REMARK Flexibility Score: inf
ROOT
ATOM      1  C   UNL     1      17.018  32.268  12.182  1.00  0.00     0.138 A 
ATOM      2  C   UNL     1      17.150  32.483  10.794  1.00  0.00     0.100 A 
ATOM      3  C   UNL     1      18.075  33.417  10.326  1.00  0.00     0.193 A 
ATOM      4  O   UNL     1      18.192  33.608   9.084  1.00  0.00    -0.289 OA
ATOM      5  C   UNL     1      18.862  34.128  11.242  1.00  0.00     0.065 A 
ATOM      6  C   UNL     1      19.813  35.083  10.838  1.00  0.00     0.016 A 
ATOM      7  C   UNL     1      20.572  35.764  11.794  1.00  0.00     0.001 A 
ATOM      8  C   UNL     1      20.388  35.501  13.155  1.00  0.00     0.004 A 
ATOM      9  C   UNL     1      19.445  34.554  13.566  1.00  0.00     0.048 A 
ATOM     10  C   UNL     1      18.682  33.866  12.617  1.00  0.00     0.138 A 
ATOM     11  O   UNL     1      17.787  32.968  13.017  1.00  0.00    -0.456 OA
ENDROOT
BRANCH   1  12
ATOM     12  C   UNL     1      16.052  31.288  12.767  1.00  0.00     0.017 A 
ATOM     13  C   UNL     1      14.170  29.451  13.790  1.00  0.00     0.000 A 
ATOM     14  C   UNL     1      15.334  29.729  14.506  1.00  0.00     0.001 A 
ATOM     15  C   UNL     1      13.937  30.081  12.569  1.00  0.00     0.001 A 
ATOM     16  C   UNL     1      16.270  30.639  14.003  1.00  0.00     0.012 A 
ATOM     17  C   UNL     1      14.867  30.991  12.059  1.00  0.00     0.012 A 
ENDBRANCH   1  12
TORSDOF 1
ENDMDL
MODEL 8
REMARK VINA RESULT:    -5.331      2.532      5.896
REMARK INTER + INTRA:          -5.880
REMARK INTER:                  -5.614
REMARK INTRA:                  -0.266
REMARK UNBOUND:                -0.237
REMARK SMILES O=c1cc(-c2ccccc2)oc2ccccc12
REMARK SMILES IDX 4 1 3 2 2 3 1 4 17 5 16 6 15 7 14 8 13 9 12 10 11 11 5 12
REMARK SMILES IDX 8 13 7 14 9 15 6 16 10 17
REMARK H PARENT
REMARK Flexibility Score: inf
ROOT
ATOM      1  C   UNL     1      18.399  33.463  10.527  1.00  0.00     0.138 A 
ATOM      2  C   UNL     1      17.459  32.497  10.109  1.00  0.00     0.100 A 
ATOM      3  C   UNL     1      16.763  31.755  11.064  1.00  0.00     0.193 A 
ATOM      4  O   UNL     1      15.922  30.891  10.690  1.00  0.00    -0.289 OA
ATOM      5  C   UNL     1      17.005  31.982  12.426  1.00  0.00     0.065 A 
ATOM      6  C   UNL     1      16.338  31.269  13.440  1.00  0.00     0.016 A 
ATOM      7  C   UNL     1      16.618  31.536  14.783  1.00  0.00     0.001 A 
ATOM      8  C   UNL     1      17.563  32.508  15.125  1.00  0.00     0.004 A 
ATOM      9  C   UNL     1      18.231  33.221  14.125  1.00  0.00     0.048 A 
ATOM     10  C   UNL     1      17.957  32.963  12.778  1.00  0.00     0.138 A 
ATOM     11  O   UNL     1      18.598  33.645  11.833  1.00  0.00    -0.456 OA
ENDROOT
BRANCH   1  12
ATOM     12  C   UNL     1      19.187  34.299   9.570  1.00  0.00     0.017 A 
ATOM     13  C   UNL     1      20.634  35.827   7.689  1.00  0.00     0.000 A 
ATOM     14  C   UNL     1      20.787  36.072   9.053  1.00  0.00     0.001 A 
ATOM     15  C   UNL     1      19.765  34.826   7.255  1.00  0.00     0.001 A 
ATOM     16  C   UNL     1      20.072  35.318   9.990  1.00  0.00     0.012 A 
ATOM     17  C   UNL     1      19.047  34.068   8.185  1.00  0.00     0.012 A 
ENDBRANCH   1  12
TORSDOF 1
ENDMDL
MODEL 9
REMARK VINA RESULT:    -5.207      2.247      3.493
REMARK INTER + INTRA:          -5.748
REMARK INTER:                  -5.482
REMARK INTRA:                  -0.266
REMARK UNBOUND:                -0.237
REMARK SMILES O=c1cc(-c2ccccc2)oc2ccccc12
REMARK SMILES IDX 4 1 3 2 2 3 1 4 17 5 16 6 15 7 14 8 13 9 12 10 11 11 5 12
REMARK SMILES IDX 8 13 7 14 9 15 6 16 10 17
REMARK H PARENT
REMARK Flexibility Score: inf
ROOT
ATOM      1  C   UNL     1      18.458  33.567  10.367  1.00  0.00     0.138 A 
ATOM      2  C   UNL     1      18.439  33.159   9.016  1.00  0.00     0.100 A 
ATOM      3  C   UNL     1      19.114  33.916   8.057  1.00  0.00     0.193 A 
ATOM      4  O   UNL     1      19.096  33.550   6.850  1.00  0.00    -0.289 OA
ATOM      5  C   UNL     1      19.803  35.071   8.451  1.00  0.00     0.065 A 
ATOM      6  C   UNL     1      20.503  35.880   7.536  1.00  0.00     0.016 A 
ATOM      7  C   UNL     1      21.174  37.022   7.982  1.00  0.00     0.001 A 
ATOM      8  C   UNL     1      21.151  37.367   9.336  1.00  0.00     0.004 A 
ATOM      9  C   UNL     1      20.457  36.571  10.252  1.00  0.00     0.048 A 
ATOM     10  C   UNL     1      19.784  35.425   9.817  1.00  0.00     0.138 A 
ATOM     11  O   UNL     1      19.126  34.674  10.695  1.00  0.00    -0.456 OA
ENDROOT
BRANCH   1  12
ATOM     12  C   UNL     1      17.762  32.814  11.455  1.00  0.00     0.017 A 
ATOM     13  C   UNL     1      16.410  31.332  13.440  1.00  0.00     0.000 A 
ATOM     14  C   UNL     1      17.190  32.430  13.799  1.00  0.00     0.001 A 
ATOM     15  C   UNL     1      16.298  30.967  12.100  1.00  0.00     0.001 A 
ATOM     16  C   UNL     1      17.863  33.169  12.819  1.00  0.00     0.012 A 
ATOM     17  C   UNL     1      16.967  31.699  11.114  1.00  0.00     0.012 A 
ENDBRANCH   1  12
TORSDOF 1
ENDMDL
