MODEL 1
REMARK VINA RESULT:    -5.171      0.000      0.000
REMARK INTER + INTRA:          -8.323
REMARK INTER:                  -7.892
REMARK INTRA:                  -0.431
REMARK UNBOUND:                -0.431
REMARK SMILES O=C([O-])CCCCCCCCC(=O)[O-]
REMARK SMILES IDX 7 1 6 2 5 3 4 4 2 5 1 6 3 7 8 8 9 9 10 10 11 11 12 12 13 13
REMARK SMILES IDX 14 14
REMARK H PARENT
REMARK Flexibility Score: inf
ROOT
ATOM      1  C   UNL     1     114.687 104.429 113.041  1.00  0.00     0.000 C 
ENDROOT
BRANCH   1   2
ATOM      2  C   UNL     1     116.117 104.846 113.416  1.00  0.00     0.000 C 
BRANCH   2   3
ATOM      3  C   UNL     1     117.166 104.326 112.421  1.00  0.00     0.006 C 
BRANCH   3   4
ATOM      4  C   UNL     1     118.522 104.048 113.084  1.00  0.00     0.053 C 
BRANCH   4   5
ATOM      5  C   UNL     1     119.202 105.333 113.439  1.00  0.00     0.041 C 
ATOM      6  O   UNL     1     119.845 105.433 114.518  1.00  0.00    -0.550 OA
ATOM      7  O   UNL     1     119.168 106.404 112.556  1.00  0.00    -0.550 OA
ENDBRANCH   4   5
ENDBRANCH   3   4
ENDBRANCH   2   3
ENDBRANCH   1   2
BRANCH   1   8
ATOM      8  C   UNL     1     114.552 104.237 111.523  1.00  0.00     0.000 C 
BRANCH   8   9
ATOM      9  C   UNL     1     113.976 102.862 111.147  1.00  0.00     0.000 C 
BRANCH   9  10
ATOM     10  C   UNL     1     113.448 102.089 112.365  1.00  0.00     0.006 C 
BRANCH  10  11
ATOM     11  C   UNL     1     111.981 102.434 112.638  1.00  0.00     0.053 C 
BRANCH  11  12
ATOM     12  C   UNL     1     111.149 102.196 111.417  1.00  0.00     0.041 C 
ATOM     13  O   UNL     1     111.020 101.032 110.956  1.00  0.00    -0.550 OA
ATOM     14  O   UNL     1     110.476 103.253 110.818  1.00  0.00    -0.550 OA
ENDBRANCH  11  12
ENDBRANCH  10  11
ENDBRANCH   9  10
ENDBRANCH   8   9
ENDBRANCH   1   8
TORSDOF 9
ENDMDL
MODEL 2
REMARK VINA RESULT:    -4.968      1.116      6.956
REMARK INTER + INTRA:          -8.013
REMARK INTER:                  -7.402
REMARK INTRA:                  -0.611
REMARK UNBOUND:                -0.431
REMARK SMILES O=C([O-])CCCCCCCCC(=O)[O-]
REMARK SMILES IDX 7 1 6 2 5 3 4 4 2 5 1 6 3 7 8 8 9 9 10 10 11 11 12 12 13 13
REMARK SMILES IDX 14 14
REMARK H PARENT
REMARK Flexibility Score: inf
ROOT
ATOM      1  C   UNL     1     114.457 104.643 111.801  1.00  0.00     0.000 C 
ENDROOT
BRANCH   1   2
ATOM      2  C   UNL     1     114.469 103.291 111.072  1.00  0.00     0.000 C 
BRANCH   2   3
ATOM      3  C   UNL     1     113.903 102.150 111.931  1.00  0.00     0.006 C 
BRANCH   3   4
ATOM      4  C   UNL     1     112.551 101.638 111.417  1.00  0.00     0.053 C 
BRANCH   4   5
ATOM      5  C   UNL     1     111.440 102.509 111.915  1.00  0.00     0.041 C 
ATOM      6  O   UNL     1     110.629 103.029 111.103  1.00  0.00    -0.550 OA
ATOM      7  O   UNL     1     111.271 102.707 113.279  1.00  0.00    -0.550 OA
ENDBRANCH   4   5
ENDBRANCH   3   4
ENDBRANCH   2   3
ENDBRANCH   1   2
BRANCH   1   8
ATOM      8  C   UNL     1     114.767 104.464 113.295  1.00  0.00     0.000 C 
BRANCH   8   9
ATOM      9  C   UNL     1     115.928 105.352 113.770  1.00  0.00     0.000 C 
BRANCH   9  10
ATOM     10  C   UNL     1     117.274 104.612 113.780  1.00  0.00     0.006 C 
BRANCH  10  11
ATOM     11  C   UNL     1     117.966 104.717 112.417  1.00  0.00     0.053 C 
BRANCH  11  12
ATOM     12  C   UNL     1     119.044 105.754 112.454  1.00  0.00     0.041 C 
ATOM     13  O   UNL     1     119.703 105.945 113.509  1.00  0.00    -0.550 OA
ATOM     14  O   UNL     1     119.354 106.476 111.308  1.00  0.00    -0.550 OA
ENDBRANCH  11  12
ENDBRANCH  10  11
ENDBRANCH   9  10
ENDBRANCH   8   9
ENDBRANCH   1   8
TORSDOF 9
ENDMDL
MODEL 3
REMARK VINA RESULT:    -3.902      2.746      4.143
REMARK INTER + INTRA:          -6.387
REMARK INTER:                  -5.985
REMARK INTRA:                  -0.401
REMARK UNBOUND:                -0.431
REMARK SMILES O=C([O-])CCCCCCCCC(=O)[O-]
REMARK SMILES IDX 7 1 6 2 5 3 4 4 2 5 1 6 3 7 8 8 9 9 10 10 11 11 12 12 13 13
REMARK SMILES IDX 14 14
REMARK H PARENT
REMARK Flexibility Score: inf
ROOT
ATOM      1  C   UNL     1     112.251 102.576 112.188  1.00  0.00     0.000 C 
ENDROOT
BRANCH   1   2
ATOM      2  C   UNL     1     113.556 102.457 111.387  1.00  0.00     0.000 C 
BRANCH   2   3
ATOM      3  C   UNL     1     114.483 103.668 111.581  1.00  0.00     0.006 C 
BRANCH   3   4
ATOM      4  C   UNL     1     114.769 103.961 113.059  1.00  0.00     0.053 C 
BRANCH   4   5
ATOM      5  C   UNL     1     115.985 104.822 113.195  1.00  0.00     0.041 C 
ATOM      6  O   UNL     1     115.939 105.884 113.871  1.00  0.00    -0.550 OA
ATOM      7  O   UNL     1     117.184 104.427 112.616  1.00  0.00    -0.550 OA
ENDBRANCH   4   5
ENDBRANCH   3   4
ENDBRANCH   2   3
ENDBRANCH   1   2
BRANCH   1   8
ATOM      8  C   UNL     1     111.077 101.951 111.419  1.00  0.00     0.000 C 
BRANCH   8   9
ATOM      9  C   UNL     1     110.316 102.976 110.562  1.00  0.00     0.000 C 
BRANCH   9  10
ATOM     10  C   UNL     1     109.985 104.263 111.333  1.00  0.00     0.006 C 
BRANCH  10  11
ATOM     11  C   UNL     1     108.826 105.015 110.671  1.00  0.00     0.053 C 
BRANCH  11  12
ATOM     12  C   UNL     1     108.489 106.248 111.448  1.00  0.00     0.041 C 
ATOM     13  O   UNL     1     108.787 107.384 110.994  1.00  0.00    -0.550 OA
ATOM     14  O   UNL     1     107.799 106.146 112.650  1.00  0.00    -0.550 OA
ENDBRANCH  11  12
ENDBRANCH  10  11
ENDBRANCH   9  10
ENDBRANCH   8   9
ENDBRANCH   1   8
TORSDOF 9
ENDMDL
MODEL 4
REMARK VINA RESULT:    -3.874      2.691      7.492
REMARK INTER + INTRA:          -6.343
REMARK INTER:                  -5.984
REMARK INTRA:                  -0.359
REMARK UNBOUND:                -0.431
REMARK SMILES O=C([O-])CCCCCCCCC(=O)[O-]
REMARK SMILES IDX 7 1 6 2 5 3 4 4 2 5 1 6 3 7 8 8 9 9 10 10 11 11 12 12 13 13
REMARK SMILES IDX 14 14
REMARK H PARENT
REMARK Flexibility Score: inf
ROOT
ATOM      1  C   UNL     1     111.441 102.083 111.695  1.00  0.00     0.000 C 
ENDROOT
BRANCH   1   2
ATOM      2  C   UNL     1     110.459 102.881 110.824  1.00  0.00     0.000 C 
BRANCH   2   3
ATOM      3  C   UNL     1     110.117 104.254 111.425  1.00  0.00     0.006 C 
BRANCH   3   4
ATOM      4  C   UNL     1     108.895 104.901 110.762  1.00  0.00     0.053 C 
BRANCH   4   5
ATOM      5  C   UNL     1     108.538 106.177 111.457  1.00  0.00     0.041 C 
ATOM      6  O   UNL     1     108.887 107.285 110.969  1.00  0.00    -0.550 OA
ATOM      7  O   UNL     1     107.777 106.146 112.619  1.00  0.00    -0.550 OA
ENDBRANCH   4   5
ENDBRANCH   3   4
ENDBRANCH   2   3
ENDBRANCH   1   2
BRANCH   1   8
ATOM      8  C   UNL     1     112.895 102.387 111.301  1.00  0.00     0.000 C 
BRANCH   8   9
ATOM      9  C   UNL     1     113.703 103.008 112.452  1.00  0.00     0.000 C 
BRANCH   9  10
ATOM     10  C   UNL     1     114.496 104.249 112.016  1.00  0.00     0.006 C 
BRANCH  10  11
ATOM     11  C   UNL     1     115.987 103.925 111.875  1.00  0.00     0.053 C 
BRANCH  11  12
ATOM     12  C   UNL     1     116.780 104.632 112.928  1.00  0.00     0.041 C 
ATOM     13  O   UNL     1     116.208 105.409 113.737  1.00  0.00    -0.550 OA
ATOM     14  O   UNL     1     118.144 104.394 113.049  1.00  0.00    -0.550 OA
ENDBRANCH  11  12
ENDBRANCH  10  11
ENDBRANCH   9  10
ENDBRANCH   8   9
ENDBRANCH   1   8
TORSDOF 9
ENDMDL
MODEL 5
REMARK VINA RESULT:    -2.817      3.704      7.836
REMARK INTER + INTRA:          -4.730
REMARK INTER:                  -4.418
REMARK INTRA:                  -0.312
REMARK UNBOUND:                -0.431
REMARK SMILES O=C([O-])CCCCCCCCC(=O)[O-]
REMARK SMILES IDX 7 1 6 2 5 3 4 4 2 5 1 6 3 7 8 8 9 9 10 10 11 11 12 12 13 13
REMARK SMILES IDX 14 14
REMARK H PARENT
REMARK Flexibility Score: inf
ROOT
ATOM      1  C   UNL     1     110.330 103.476 110.411  1.00  0.00     0.000 C 
ENDROOT
BRANCH   1   2
ATOM      2  C   UNL     1     108.952 104.081 110.720  1.00  0.00     0.000 C 
BRANCH   2   3
ATOM      3  C   UNL     1     109.018 105.588 111.011  1.00  0.00     0.006 C 
BRANCH   3   4
ATOM      4  C   UNL     1     108.485 105.944 112.405  1.00  0.00     0.053 C 
BRANCH   4   5
ATOM      5  C   UNL     1     107.302 106.853 112.295  1.00  0.00     0.041 C 
ATOM      6  O   UNL     1     106.378 106.798 113.150  1.00  0.00    -0.550 OA
ATOM      7  O   UNL     1     107.241 107.795 111.276  1.00  0.00    -0.550 OA
ENDBRANCH   4   5
ENDBRANCH   3   4
ENDBRANCH   2   3
ENDBRANCH   1   2
BRANCH   1   8
ATOM      8  C   UNL     1     110.763 102.505 111.520  1.00  0.00     0.000 C 
BRANCH   8   9
ATOM      9  C   UNL     1     112.212 102.018 111.350  1.00  0.00     0.000 C 
BRANCH   9  10
ATOM     10  C   UNL     1     113.201 102.782 112.242  1.00  0.00     0.006 C 
BRANCH  10  11
ATOM     11  C   UNL     1     114.436 103.214 111.444  1.00  0.00     0.053 C 
BRANCH  11  12
ATOM     12  C   UNL     1     115.403 103.940 112.326  1.00  0.00     0.041 C 
ATOM     13  O   UNL     1     116.573 104.172 111.926  1.00  0.00    -0.550 OA
ATOM     14  O   UNL     1     114.994 104.405 113.570  1.00  0.00    -0.550 OA
ENDBRANCH  11  12
ENDBRANCH  10  11
ENDBRANCH   9  10
ENDBRANCH   8   9
ENDBRANCH   1   8
TORSDOF 9
ENDMDL
MODEL 6
REMARK VINA RESULT:    -2.670      4.413      8.295
REMARK INTER + INTRA:          -4.507
REMARK INTER:                  -4.116
REMARK INTRA:                  -0.391
REMARK UNBOUND:                -0.431
REMARK SMILES O=C([O-])CCCCCCCCC(=O)[O-]
REMARK SMILES IDX 7 1 6 2 5 3 4 4 2 5 1 6 3 7 8 8 9 9 10 10 11 11 12 12 13 13
REMARK SMILES IDX 14 14
REMARK H PARENT
REMARK Flexibility Score: inf
ROOT
ATOM      1  C   UNL     1     108.912 104.702 110.881  1.00  0.00     0.000 C 
ENDROOT
BRANCH   1   2
ATOM      2  C   UNL     1     108.974 106.236 110.834  1.00  0.00     0.000 C 
BRANCH   2   3
ATOM      3  C   UNL     1     107.785 106.900 111.547  1.00  0.00     0.006 C 
BRANCH   3   4
ATOM      4  C   UNL     1     107.650 106.455 113.009  1.00  0.00     0.053 C 
BRANCH   4   5
ATOM      5  C   UNL     1     106.210 106.264 113.365  1.00  0.00     0.041 C 
ATOM      6  O   UNL     1     105.703 105.110 113.362  1.00  0.00    -0.550 OA
ATOM      7  O   UNL     1     105.438 107.352 113.750  1.00  0.00    -0.550 OA
ENDBRANCH   4   5
ENDBRANCH   3   4
ENDBRANCH   2   3
ENDBRANCH   1   2
BRANCH   1   8
ATOM      8  C   UNL     1     110.316 104.092 110.756  1.00  0.00     0.000 C 
BRANCH   8   9
ATOM      9  C   UNL     1     110.418 102.699 111.399  1.00  0.00     0.000 C 
BRANCH   9  10
ATOM     10  C   UNL     1     111.822 102.091 111.274  1.00  0.00     0.006 C 
BRANCH  10  11
ATOM     11  C   UNL     1     112.670 102.414 112.509  1.00  0.00     0.053 C 
BRANCH  11  12
ATOM     12  C   UNL     1     113.924 103.128 112.112  1.00  0.00     0.041 C 
ATOM     13  O   UNL     1     114.136 103.411 110.905  1.00  0.00    -0.550 OA
ATOM     14  O   UNL     1     114.834 103.526 113.084  1.00  0.00    -0.550 OA
ENDBRANCH  11  12
ENDBRANCH  10  11
ENDBRANCH   9  10
ENDBRANCH   8   9
ENDBRANCH   1   8
TORSDOF 9
ENDMDL
