MODEL 1
REMARK VINA RESULT:    -5.107      0.000      0.000
REMARK INTER + INTRA:          -5.107
REMARK INTER:                  -5.107
REMARK INTRA:                   0.000
REMARK UNBOUND:                 0.000
REMARK SMILES O=c1ccc2ccccc2o1
REMARK SMILES IDX 7 1 8 2 9 3 10 4 5 5 6 6 4 7 3 8 2 9 1 10 11 11
REMARK H PARENT
REMARK Flexibility Score: inf
ROOT
ATOM      1  C   UNL     1       9.828 -17.474   7.320  1.00  0.00     0.001 A 
ATOM      2  C   UNL     1       9.370 -16.181   7.592  1.00  0.00     0.004 A 
ATOM      3  C   UNL     1      10.275 -15.117   7.683  1.00  0.00     0.048 A 
ATOM      4  C   UNL     1      11.644 -15.345   7.502  1.00  0.00     0.138 A 
ATOM      5  C   UNL     1      12.106 -16.651   7.226  1.00  0.00     0.018 A 
ATOM      6  C   UNL     1      11.194 -17.713   7.137  1.00  0.00     0.012 A 
ATOM      7  C   UNL     1      13.479 -16.849   7.049  1.00  0.00     0.019 A 
ATOM      8  C   UNL     1      14.345 -15.759   7.148  1.00  0.00     0.094 A 
ATOM      9  C   UNL     1      13.815 -14.494   7.423  1.00  0.00     0.336 A 
ATOM     10  O   UNL     1      14.580 -13.500   7.516  1.00  0.00    -0.246 OA
ATOM     11  O   UNL     1      12.504 -14.334   7.587  1.00  0.00    -0.423 OA
ENDROOT
TORSDOF 0
ENDMDL
MODEL 2
REMARK VINA RESULT:    -5.061      1.638      3.833
REMARK INTER + INTRA:          -5.061
REMARK INTER:                  -5.061
REMARK INTRA:                   0.000
REMARK UNBOUND:                 0.000
REMARK SMILES O=c1ccc2ccccc2o1
REMARK SMILES IDX 7 1 8 2 9 3 10 4 5 5 6 6 4 7 3 8 2 9 1 10 11 11
REMARK H PARENT
REMARK Flexibility Score: inf
ROOT
ATOM      1  C   UNL     1      14.449 -15.270   7.514  1.00  0.00     0.001 A 
ATOM      2  C   UNL     1      13.816 -14.025   7.580  1.00  0.00     0.004 A 
ATOM      3  C   UNL     1      12.419 -13.942   7.555  1.00  0.00     0.048 A 
ATOM      4  C   UNL     1      11.650 -15.107   7.463  1.00  0.00     0.138 A 
ATOM      5  C   UNL     1      12.290 -16.366   7.397  1.00  0.00     0.018 A 
ATOM      6  C   UNL     1      13.689 -16.442   7.423  1.00  0.00     0.012 A 
ATOM      7  C   UNL     1      11.495 -17.513   7.307  1.00  0.00     0.019 A 
ATOM      8  C   UNL     1      10.106 -17.384   7.285  1.00  0.00     0.094 A 
ATOM      9  C   UNL     1       9.543 -16.105   7.355  1.00  0.00     0.336 A 
ATOM     10  O   UNL     1       8.293 -15.968   7.336  1.00  0.00    -0.246 OA
ATOM     11  O   UNL     1      10.322 -15.029   7.440  1.00  0.00    -0.423 OA
ENDROOT
TORSDOF 0
ENDMDL
MODEL 3
REMARK VINA RESULT:    -4.981      1.924      4.353
REMARK INTER + INTRA:          -4.981
REMARK INTER:                  -4.981
REMARK INTRA:                   0.000
REMARK UNBOUND:                 0.000
REMARK SMILES O=c1ccc2ccccc2o1
REMARK SMILES IDX 7 1 8 2 9 3 10 4 5 5 6 6 4 7 3 8 2 9 1 10 11 11
REMARK H PARENT
REMARK Flexibility Score: inf
ROOT
ATOM      1  C   UNL     1      14.282 -14.599   7.625  1.00  0.00     0.001 A 
ATOM      2  C   UNL     1      14.624 -15.949   7.486  1.00  0.00     0.004 A 
ATOM      3  C   UNL     1      13.624 -16.920   7.363  1.00  0.00     0.048 A 
ATOM      4  C   UNL     1      12.276 -16.543   7.380  1.00  0.00     0.138 A 
ATOM      5  C   UNL     1      11.931 -15.180   7.519  1.00  0.00     0.018 A 
ATOM      6  C   UNL     1      12.938 -14.212   7.641  1.00  0.00     0.012 A 
ATOM      7  C   UNL     1      10.576 -14.833   7.531  1.00  0.00     0.019 A 
ATOM      8  C   UNL     1       9.613 -15.835   7.406  1.00  0.00     0.094 A 
ATOM      9  C   UNL     1      10.029 -17.163   7.271  1.00  0.00     0.336 A 
ATOM     10  O   UNL     1       9.175 -18.080   7.157  1.00  0.00    -0.246 OA
ATOM     11  O   UNL     1      11.325 -17.467   7.263  1.00  0.00    -0.423 OA
ENDROOT
TORSDOF 0
ENDMDL
MODEL 4
REMARK VINA RESULT:    -4.748      1.890      3.960
REMARK INTER + INTRA:          -4.748
REMARK INTER:                  -4.748
REMARK INTRA:                   0.000
REMARK UNBOUND:                 0.000
REMARK SMILES O=c1ccc2ccccc2o1
REMARK SMILES IDX 7 1 8 2 9 3 10 4 5 5 6 6 4 7 3 8 2 9 1 10 11 11
REMARK H PARENT
REMARK Flexibility Score: inf
ROOT
ATOM      1  C   UNL     1      13.808 -16.555   6.862  1.00  0.00     0.001 A 
ATOM      2  C   UNL     1      13.614 -15.330   7.507  1.00  0.00     0.004 A 
ATOM      3  C   UNL     1      12.353 -14.991   8.012  1.00  0.00     0.048 A 
ATOM      4  C   UNL     1      11.280 -15.879   7.872  1.00  0.00     0.138 A 
ATOM      5  C   UNL     1      11.477 -17.117   7.220  1.00  0.00     0.018 A 
ATOM      6  C   UNL     1      12.742 -17.451   6.717  1.00  0.00     0.012 A 
ATOM      7  C   UNL     1      10.387 -17.985   7.095  1.00  0.00     0.019 A 
ATOM      8  C   UNL     1       9.148 -17.606   7.613  1.00  0.00     0.094 A 
ATOM      9  C   UNL     1       9.029 -16.364   8.246  1.00  0.00     0.336 A 
ATOM     10  O   UNL     1       7.920 -16.004   8.720  1.00  0.00    -0.246 OA
ATOM     11  O   UNL     1      10.082 -15.557   8.352  1.00  0.00    -0.423 OA
ENDROOT
TORSDOF 0
ENDMDL
MODEL 5
REMARK VINA RESULT:    -4.725      1.901      2.698
REMARK INTER + INTRA:          -4.725
REMARK INTER:                  -4.725
REMARK INTRA:                   0.000
REMARK UNBOUND:                 0.000
REMARK SMILES O=c1ccc2ccccc2o1
REMARK SMILES IDX 7 1 8 2 9 3 10 4 5 5 6 6 4 7 3 8 2 9 1 10 11 11
REMARK H PARENT
REMARK Flexibility Score: inf
ROOT
ATOM      1  C   UNL     1       7.874 -17.108   7.054  1.00  0.00     0.001 A 
ATOM      2  C   UNL     1       8.321 -18.096   7.938  1.00  0.00     0.004 A 
ATOM      3  C   UNL     1       9.561 -17.965   8.572  1.00  0.00     0.048 A 
ATOM      4  C   UNL     1      10.361 -16.844   8.322  1.00  0.00     0.138 A 
ATOM      5  C   UNL     1       9.909 -15.846   7.430  1.00  0.00     0.018 A 
ATOM      6  C   UNL     1       8.665 -15.983   6.798  1.00  0.00     0.012 A 
ATOM      7  C   UNL     1      10.729 -14.737   7.200  1.00  0.00     0.019 A 
ATOM      8  C   UNL     1      11.959 -14.648   7.854  1.00  0.00     0.094 A 
ATOM      9  C   UNL     1      12.339 -15.674   8.725  1.00  0.00     0.336 A 
ATOM     10  O   UNL     1      13.444 -15.613   9.323  1.00  0.00    -0.246 OA
ATOM     11  O   UNL     1      11.540 -16.720   8.926  1.00  0.00    -0.423 OA
ENDROOT
TORSDOF 0
ENDMDL
MODEL 6
REMARK VINA RESULT:    -4.570      1.535      2.047
REMARK INTER + INTRA:          -4.570
REMARK INTER:                  -4.570
REMARK INTRA:                   0.000
REMARK UNBOUND:                 0.000
REMARK SMILES O=c1ccc2ccccc2o1
REMARK SMILES IDX 7 1 8 2 9 3 10 4 5 5 6 6 4 7 3 8 2 9 1 10 11 11
REMARK H PARENT
REMARK Flexibility Score: inf
ROOT
ATOM      1  C   UNL     1       8.247 -18.123   7.635  1.00  0.00     0.001 A 
ATOM      2  C   UNL     1       7.822 -17.043   6.853  1.00  0.00     0.004 A 
ATOM      3  C   UNL     1       8.648 -15.927   6.685  1.00  0.00     0.048 A 
ATOM      4  C   UNL     1       9.904 -15.886   7.300  1.00  0.00     0.138 A 
ATOM      5  C   UNL     1      10.334 -16.976   8.090  1.00  0.00     0.018 A 
ATOM      6  C   UNL     1       9.501 -18.092   8.254  1.00  0.00     0.012 A 
ATOM      7  C   UNL     1      11.594 -16.908   8.692  1.00  0.00     0.019 A 
ATOM      8  C   UNL     1      12.384 -15.774   8.497  1.00  0.00     0.094 A 
ATOM      9  C   UNL     1      11.894 -14.734   7.702  1.00  0.00     0.336 A 
ATOM     10  O   UNL     1      12.591 -13.704   7.514  1.00  0.00    -0.246 OA
ATOM     11  O   UNL     1      10.690 -14.824   7.140  1.00  0.00    -0.423 OA
ENDROOT
TORSDOF 0
ENDMDL
MODEL 7
REMARK VINA RESULT:    -4.521      1.915      2.578
REMARK INTER + INTRA:          -4.521
REMARK INTER:                  -4.521
REMARK INTRA:                   0.000
REMARK UNBOUND:                 0.000
REMARK SMILES O=c1ccc2ccccc2o1
REMARK SMILES IDX 7 1 8 2 9 3 10 4 5 5 6 6 4 7 3 8 2 9 1 10 11 11
REMARK H PARENT
REMARK Flexibility Score: inf
ROOT
ATOM      1  C   UNL     1       9.065 -15.886   7.370  1.00  0.00     0.001 A 
ATOM      2  C   UNL     1       9.050 -17.260   7.106  1.00  0.00     0.004 A 
ATOM      3  C   UNL     1      10.250 -17.977   7.036  1.00  0.00     0.048 A 
ATOM      4  C   UNL     1      11.471 -17.321   7.229  1.00  0.00     0.138 A 
ATOM      5  C   UNL     1      11.486 -15.933   7.496  1.00  0.00     0.018 A 
ATOM      6  C   UNL     1      10.280 -15.220   7.565  1.00  0.00     0.012 A 
ATOM      7  C   UNL     1      12.720 -15.304   7.686  1.00  0.00     0.019 A 
ATOM      8  C   UNL     1      13.891 -16.058   7.606  1.00  0.00     0.094 A 
ATOM      9  C   UNL     1      13.799 -17.428   7.338  1.00  0.00     0.336 A 
ATOM     10  O   UNL     1      14.844 -18.125   7.263  1.00  0.00    -0.246 OA
ATOM     11  O   UNL     1      12.611 -18.002   7.162  1.00  0.00    -0.423 OA
ENDROOT
TORSDOF 0
ENDMDL
MODEL 8
REMARK VINA RESULT:    -4.429      0.968      2.099
REMARK INTER + INTRA:          -4.429
REMARK INTER:                  -4.429
REMARK INTRA:                   0.000
REMARK UNBOUND:                 0.000
REMARK SMILES O=c1ccc2ccccc2o1
REMARK SMILES IDX 7 1 8 2 9 3 10 4 5 5 6 6 4 7 3 8 2 9 1 10 11 11
REMARK H PARENT
REMARK Flexibility Score: inf
ROOT
ATOM      1  C   UNL     1       9.455 -17.207   7.548  1.00  0.00     0.001 A 
ATOM      2  C   UNL     1      10.513 -18.121   7.491  1.00  0.00     0.004 A 
ATOM      3  C   UNL     1      11.834 -17.666   7.417  1.00  0.00     0.048 A 
ATOM      4  C   UNL     1      12.102 -16.293   7.397  1.00  0.00     0.138 A 
ATOM      5  C   UNL     1      11.034 -15.370   7.455  1.00  0.00     0.018 A 
ATOM      6  C   UNL     1       9.712 -15.832   7.530  1.00  0.00     0.012 A 
ATOM      7  C   UNL     1      11.332 -14.003   7.435  1.00  0.00     0.019 A 
ATOM      8  C   UNL     1      12.663 -13.595   7.359  1.00  0.00     0.094 A 
ATOM      9  C   UNL     1      13.669 -14.566   7.306  1.00  0.00     0.336 A 
ATOM     10  O   UNL     1      14.876 -14.217   7.237  1.00  0.00    -0.246 OA
ATOM     11  O   UNL     1      13.358 -15.860   7.326  1.00  0.00    -0.423 OA
ENDROOT
TORSDOF 0
ENDMDL
MODEL 9
REMARK VINA RESULT:    -4.146      2.218      3.452
REMARK INTER + INTRA:          -4.146
REMARK INTER:                  -4.146
REMARK INTRA:                   0.000
REMARK UNBOUND:                 0.000
REMARK SMILES O=c1ccc2ccccc2o1
REMARK SMILES IDX 7 1 8 2 9 3 10 4 5 5 6 6 4 7 3 8 2 9 1 10 11 11
REMARK H PARENT
REMARK Flexibility Score: inf
ROOT
ATOM      1  C   UNL     1       7.035 -16.544   8.357  1.00  0.00     0.001 A 
ATOM      2  C   UNL     1       7.065 -17.671   7.528  1.00  0.00     0.004 A 
ATOM      3  C   UNL     1       8.276 -18.115   6.986  1.00  0.00     0.048 A 
ATOM      4  C   UNL     1       9.463 -17.432   7.271  1.00  0.00     0.138 A 
ATOM      5  C   UNL     1       9.433 -16.294   8.108  1.00  0.00     0.018 A 
ATOM      6  C   UNL     1       8.216 -15.854   8.649  1.00  0.00     0.012 A 
ATOM      7  C   UNL     1      10.636 -15.632   8.376  1.00  0.00     0.019 A 
ATOM      8  C   UNL     1      11.819 -16.109   7.813  1.00  0.00     0.094 A 
ATOM      9  C   UNL     1      11.773 -17.242   6.994  1.00  0.00     0.336 A 
ATOM     10  O   UNL     1      12.830 -17.688   6.478  1.00  0.00    -0.246 OA
ATOM     11  O   UNL     1      10.615 -17.854   6.755  1.00  0.00    -0.423 OA
ENDROOT
TORSDOF 0
ENDMDL
