MODEL 1
REMARK VINA RESULT:    -3.949      0.000      0.000
REMARK INTER + INTRA:          -6.379
REMARK INTER:                  -5.449
REMARK INTRA:                  -0.929
REMARK UNBOUND:                -0.929
REMARK SMILES OC[C@H](O)C(O)[C@@H](O)CO
REMARK SMILES IDX 5 1 7 2 9 3 10 4 8 6 3 8 2 9 1 10 4 12 6 14
REMARK H PARENT 10 5 8 7 1 11 4 13 6 15
REMARK Flexibility Score: inf
ROOT
ATOM      1  C   UNL     1       1.664  -5.755   6.072  1.00  0.00     0.176 C 
ENDROOT
BRANCH   1   2
ATOM      2  C   UNL     1       0.604  -6.852   5.776  1.00  0.00     0.171 C 
BRANCH   2   3
ATOM      3  C   UNL     1      -0.844  -6.347   5.908  1.00  0.00     0.190 C 
BRANCH   3   4
ATOM      4  O   UNL     1      -1.168  -5.483   4.853  1.00  0.00    -0.394 OA
ATOM      5  H   UNL     1      -1.889  -5.932   4.341  1.00  0.00     0.210 HD
ENDBRANCH   3   4
ENDBRANCH   2   3
BRANCH   2   6
ATOM      6  O   UNL     1       0.808  -7.976   6.596  1.00  0.00    -0.388 OA
ATOM      7  H   UNL     1       1.149  -7.640   7.466  1.00  0.00     0.211 HD
ENDBRANCH   2   6
ENDBRANCH   1   2
BRANCH   1   8
ATOM      8  C   UNL     1       2.283  -5.085   4.811  1.00  0.00     0.171 C 
BRANCH   8   9
ATOM      9  C   UNL     1       2.177  -3.547   4.844  1.00  0.00     0.190 C 
BRANCH   9  10
ATOM     10  O   UNL     1       0.835  -3.140   4.786  1.00  0.00    -0.394 OA
ATOM     11  H   UNL     1       0.286  -3.963   4.723  1.00  0.00     0.210 HD
ENDBRANCH   9  10
ENDBRANCH   8   9
BRANCH   8  12
ATOM     12  O   UNL     1       1.721  -5.589   3.624  1.00  0.00    -0.388 OA
ATOM     13  H   UNL     1       0.796  -5.239   3.550  1.00  0.00     0.211 HD
ENDBRANCH   8  12
ENDBRANCH   1   8
BRANCH   1  14
ATOM     14  O   UNL     1       1.141  -4.793   6.957  1.00  0.00    -0.388 OA
ATOM     15  H   UNL     1       1.901  -4.372   7.437  1.00  0.00     0.211 HD
ENDBRANCH   1  14
TORSDOF 9
ENDMDL
MODEL 2
REMARK VINA RESULT:    -3.891      1.207      2.121
REMARK INTER + INTRA:          -6.299
REMARK INTER:                  -5.752
REMARK INTRA:                  -0.547
REMARK UNBOUND:                -0.929
REMARK SMILES OC[C@H](O)C(O)[C@@H](O)CO
REMARK SMILES IDX 5 1 7 2 9 3 10 4 8 6 3 8 2 9 1 10 4 12 6 14
REMARK H PARENT 10 5 8 7 1 11 4 13 6 15
REMARK Flexibility Score: inf
ROOT
ATOM      1  C   UNL     1       0.498  -6.918   5.412  1.00  0.00     0.176 C 
ENDROOT
BRANCH   1   2
ATOM      2  C   UNL     1      -0.623  -5.959   5.901  1.00  0.00     0.171 C 
BRANCH   2   3
ATOM      3  C   UNL     1      -1.604  -6.624   6.883  1.00  0.00     0.190 C 
BRANCH   3   4
ATOM      4  O   UNL     1      -2.002  -7.883   6.414  1.00  0.00    -0.394 OA
ATOM      5  H   UNL     1      -1.749  -8.533   7.119  1.00  0.00     0.210 HD
ENDBRANCH   3   4
ENDBRANCH   2   3
BRANCH   2   6
ATOM      6  O   UNL     1      -1.319  -5.409   4.810  1.00  0.00    -0.388 OA
ATOM      7  H   UNL     1      -1.845  -6.146   4.402  1.00  0.00     0.211 HD
ENDBRANCH   2   6
ENDBRANCH   1   2
BRANCH   1   8
ATOM      8  C   UNL     1       1.659  -6.229   4.638  1.00  0.00     0.171 C 
BRANCH   8   9
ATOM      9  C   UNL     1       2.121  -4.917   5.305  1.00  0.00     0.190 C 
BRANCH   9  10
ATOM     10  O   UNL     1       1.940  -3.829   4.438  1.00  0.00    -0.394 OA
ATOM     11  H   UNL     1       1.764  -3.034   5.005  1.00  0.00     0.210 HD
ENDBRANCH   9  10
ENDBRANCH   8   9
BRANCH   8  12
ATOM     12  O   UNL     1       1.324  -6.003   3.291  1.00  0.00    -0.388 OA
ATOM     13  H   UNL     1       0.708  -5.226   3.254  1.00  0.00     0.211 HD
ENDBRANCH   8  12
ENDBRANCH   1   8
BRANCH   1  14
ATOM     14  O   UNL     1       0.986  -7.689   6.485  1.00  0.00    -0.388 OA
ATOM     15  H   UNL     1       1.330  -7.068   7.178  1.00  0.00     0.211 HD
ENDBRANCH   1  14
TORSDOF 9
ENDMDL
MODEL 3
REMARK VINA RESULT:    -3.880      1.384      3.550
REMARK INTER + INTRA:          -6.284
REMARK INTER:                  -5.819
REMARK INTRA:                  -0.465
REMARK UNBOUND:                -0.929
REMARK SMILES OC[C@H](O)C(O)[C@@H](O)CO
REMARK SMILES IDX 5 1 7 2 9 3 10 4 8 6 3 8 2 9 1 10 4 12 6 14
REMARK H PARENT 10 5 8 7 1 11 4 13 6 15
REMARK Flexibility Score: inf
ROOT
ATOM      1  C   UNL     1       1.171  -6.195   5.827  1.00  0.00     0.176 C 
ENDROOT
BRANCH   1   2
ATOM      2  C   UNL     1       2.034  -5.774   4.605  1.00  0.00     0.171 C 
BRANCH   2   3
ATOM      3  C   UNL     1       2.477  -4.300   4.656  1.00  0.00     0.190 C 
BRANCH   3   4
ATOM      4  O   UNL     1       2.437  -3.724   3.378  1.00  0.00    -0.394 OA
ATOM      5  H   UNL     1       2.452  -2.742   3.518  1.00  0.00     0.210 HD
ENDBRANCH   3   4
ENDBRANCH   2   3
BRANCH   2   6
ATOM      6  O   UNL     1       1.360  -6.042   3.402  1.00  0.00    -0.388 OA
ATOM      7  H   UNL     1       2.054  -6.173   2.704  1.00  0.00     0.211 HD
ENDBRANCH   2   6
ENDBRANCH   1   2
BRANCH   1   8
ATOM      8  C   UNL     1      -0.169  -5.419   5.982  1.00  0.00     0.171 C 
BRANCH   8   9
ATOM      9  C   UNL     1      -1.069  -6.004   7.090  1.00  0.00     0.190 C 
BRANCH   9  10
ATOM     10  O   UNL     1      -2.000  -6.904   6.550  1.00  0.00    -0.394 OA
ATOM     11  H   UNL     1      -2.783  -6.909   7.158  1.00  0.00     0.210 HD
ENDBRANCH   9  10
ENDBRANCH   8   9
BRANCH   8  12
ATOM     12  O   UNL     1      -0.873  -5.347   4.766  1.00  0.00    -0.388 OA
ATOM     13  H   UNL     1      -0.284  -4.912   4.097  1.00  0.00     0.211 HD
ENDBRANCH   8  12
ENDBRANCH   1   8
BRANCH   1  14
ATOM     14  O   UNL     1       0.957  -7.587   5.820  1.00  0.00    -0.388 OA
ATOM     15  H   UNL     1       1.151  -7.932   6.730  1.00  0.00     0.211 HD
ENDBRANCH   1  14
TORSDOF 9
ENDMDL
MODEL 4
REMARK VINA RESULT:    -3.856      1.653      3.275
REMARK INTER + INTRA:          -6.250
REMARK INTER:                  -5.739
REMARK INTRA:                  -0.511
REMARK UNBOUND:                -0.929
REMARK SMILES OC[C@H](O)C(O)[C@@H](O)CO
REMARK SMILES IDX 5 1 7 2 9 3 10 4 8 6 3 8 2 9 1 10 4 12 6 14
REMARK H PARENT 10 5 8 7 1 11 4 13 6 15
REMARK Flexibility Score: inf
ROOT
ATOM      1  C   UNL     1      -0.727  -5.588   5.061  1.00  0.00     0.176 C 
ENDROOT
BRANCH   1   2
ATOM      2  C   UNL     1      -0.431  -4.149   5.567  1.00  0.00     0.171 C 
BRANCH   2   3
ATOM      3  C   UNL     1      -1.628  -3.193   5.412  1.00  0.00     0.190 C 
BRANCH   3   4
ATOM      4  O   UNL     1      -2.381  -3.519   4.275  1.00  0.00    -0.394 OA
ATOM      5  H   UNL     1      -3.167  -2.915   4.282  1.00  0.00     0.210 HD
ENDBRANCH   3   4
ENDBRANCH   2   3
BRANCH   2   6
ATOM      6  O   UNL     1       0.705  -3.620   4.929  1.00  0.00    -0.388 OA
ATOM      7  H   UNL     1       0.807  -4.107   4.070  1.00  0.00     0.211 HD
ENDBRANCH   2   6
ENDBRANCH   1   2
BRANCH   1   8
ATOM      8  C   UNL     1       0.531  -6.475   4.834  1.00  0.00     0.171 C 
BRANCH   8   9
ATOM      9  C   UNL     1       1.376  -6.646   6.112  1.00  0.00     0.190 C 
BRANCH   9  10
ATOM     10  O   UNL     1       0.959  -7.773   6.836  1.00  0.00    -0.394 OA
ATOM     11  H   UNL     1       1.517  -7.812   7.656  1.00  0.00     0.210 HD
ENDBRANCH   9  10
ENDBRANCH   8   9
BRANCH   8  12
ATOM     12  O   UNL     1       1.328  -5.989   3.781  1.00  0.00    -0.388 OA
ATOM     13  H   UNL     1       1.972  -5.337   4.160  1.00  0.00     0.211 HD
ENDBRANCH   8  12
ENDBRANCH   1   8
BRANCH   1  14
ATOM     14  O   UNL     1      -1.655  -6.225   5.907  1.00  0.00    -0.388 OA
ATOM     15  H   UNL     1      -2.317  -6.696   5.338  1.00  0.00     0.211 HD
ENDBRANCH   1  14
TORSDOF 9
ENDMDL
MODEL 5
REMARK VINA RESULT:    -3.807      1.987      3.313
REMARK INTER + INTRA:          -6.183
REMARK INTER:                  -5.449
REMARK INTRA:                  -0.734
REMARK UNBOUND:                -0.929
REMARK SMILES OC[C@H](O)C(O)[C@@H](O)CO
REMARK SMILES IDX 5 1 7 2 9 3 10 4 8 6 3 8 2 9 1 10 4 12 6 14
REMARK H PARENT 10 5 8 7 1 11 4 13 6 15
REMARK Flexibility Score: inf
ROOT
ATOM      1  C   UNL     1      -0.009  -4.316   5.859  1.00  0.00     0.176 C 
ENDROOT
BRANCH   1   2
ATOM      2  C   UNL     1       1.527  -4.480   6.027  1.00  0.00     0.171 C 
BRANCH   2   3
ATOM      3  C   UNL     1       2.191  -5.213   4.847  1.00  0.00     0.190 C 
BRANCH   3   4
ATOM      4  O   UNL     1       2.101  -4.451   3.674  1.00  0.00    -0.394 OA
ATOM      5  H   UNL     1       2.420  -3.542   3.910  1.00  0.00     0.210 HD
ENDBRANCH   3   4
ENDBRANCH   2   3
BRANCH   2   6
ATOM      6  O   UNL     1       1.830  -5.126   7.238  1.00  0.00    -0.388 OA
ATOM      7  H   UNL     1       1.195  -4.779   7.917  1.00  0.00     0.211 HD
ENDBRANCH   2   6
ENDBRANCH   1   2
BRANCH   1   8
ATOM      8  C   UNL     1      -0.488  -2.859   5.592  1.00  0.00     0.171 C 
BRANCH   8   9
ATOM      9  C   UNL     1      -2.017  -2.760   5.417  1.00  0.00     0.190 C 
BRANCH   9  10
ATOM     10  O   UNL     1      -2.419  -3.361   4.215  1.00  0.00    -0.394 OA
ATOM     11  H   UNL     1      -2.990  -4.136   4.457  1.00  0.00     0.210 HD
ENDBRANCH   9  10
ENDBRANCH   8   9
BRANCH   8  12
ATOM     12  O   UNL     1       0.170  -2.290   4.487  1.00  0.00    -0.388 OA
ATOM     13  H   UNL     1       0.772  -2.977   4.100  1.00  0.00     0.211 HD
ENDBRANCH   8  12
ENDBRANCH   1   8
BRANCH   1  14
ATOM     14  O   UNL     1      -0.493  -5.201   4.877  1.00  0.00    -0.388 OA
ATOM     15  H   UNL     1       0.209  -5.880   4.702  1.00  0.00     0.211 HD
ENDBRANCH   1  14
TORSDOF 9
ENDMDL
MODEL 6
REMARK VINA RESULT:    -3.782      1.909      4.533
REMARK INTER + INTRA:          -6.148
REMARK INTER:                  -5.463
REMARK INTRA:                  -0.685
REMARK UNBOUND:                -0.929
REMARK SMILES OC[C@H](O)C(O)[C@@H](O)CO
REMARK SMILES IDX 5 1 7 2 9 3 10 4 8 6 3 8 2 9 1 10 4 12 6 14
REMARK H PARENT 10 5 8 7 1 11 4 13 6 15
REMARK Flexibility Score: inf
ROOT
ATOM      1  C   UNL     1      -0.071  -7.007   6.553  1.00  0.00     0.176 C 
ENDROOT
BRANCH   1   2
ATOM      2  C   UNL     1      -0.090  -6.582   5.058  1.00  0.00     0.171 C 
BRANCH   2   3
ATOM      3  C   UNL     1       1.219  -5.910   4.603  1.00  0.00     0.190 C 
BRANCH   3   4
ATOM      4  O   UNL     1       2.262  -6.843   4.542  1.00  0.00    -0.394 OA
ATOM      5  H   UNL     1       2.905  -6.585   5.252  1.00  0.00     0.210 HD
ENDBRANCH   3   4
ENDBRANCH   2   3
BRANCH   2   6
ATOM      6  O   UNL     1      -1.188  -5.747   4.791  1.00  0.00    -0.388 OA
ATOM      7  H   UNL     1      -1.585  -6.057   3.934  1.00  0.00     0.211 HD
ENDBRANCH   2   6
ENDBRANCH   1   2
BRANCH   1   8
ATOM      8  C   UNL     1      -1.403  -7.620   7.077  1.00  0.00     0.171 C 
BRANCH   8   9
ATOM      9  C   UNL     1      -1.754  -8.953   6.387  1.00  0.00     0.190 C 
BRANCH   9  10
ATOM     10  O   UNL     1      -1.070 -10.020   6.989  1.00  0.00    -0.394 OA
ATOM     11  H   UNL     1      -0.621 -10.523   6.261  1.00  0.00     0.210 HD
ENDBRANCH   9  10
ENDBRANCH   8   9
BRANCH   8  12
ATOM     12  O   UNL     1      -2.472  -6.713   6.966  1.00  0.00    -0.388 OA
ATOM     13  H   UNL     1      -2.186  -5.972   6.372  1.00  0.00     0.211 HD
ENDBRANCH   8  12
ENDBRANCH   1   8
BRANCH   1  14
ATOM     14  O   UNL     1       1.019  -7.860   6.807  1.00  0.00    -0.388 OA
ATOM     15  H   UNL     1       0.692  -8.796   6.769  1.00  0.00     0.211 HD
ENDBRANCH   1  14
TORSDOF 9
ENDMDL
MODEL 7
REMARK VINA RESULT:    -3.753      1.245      1.970
REMARK INTER + INTRA:          -6.109
REMARK INTER:                  -5.460
REMARK INTRA:                  -0.649
REMARK UNBOUND:                -0.929
REMARK SMILES OC[C@H](O)C(O)[C@@H](O)CO
REMARK SMILES IDX 5 1 7 2 9 3 10 4 8 6 3 8 2 9 1 10 4 12 6 14
REMARK H PARENT 10 5 8 7 1 11 4 13 6 15
REMARK Flexibility Score: inf
ROOT
ATOM      1  C   UNL     1       1.498  -4.634   5.858  1.00  0.00     0.176 C 
ENDROOT
BRANCH   1   2
ATOM      2  C   UNL     1       1.749  -5.641   7.014  1.00  0.00     0.171 C 
BRANCH   2   3
ATOM      3  C   UNL     1       0.808  -6.859   6.972  1.00  0.00     0.190 C 
BRANCH   3   4
ATOM      4  O   UNL     1       1.013  -7.606   5.803  1.00  0.00    -0.394 OA
ATOM      5  H   UNL     1       0.654  -7.057   5.059  1.00  0.00     0.210 HD
ENDBRANCH   3   4
ENDBRANCH   2   3
BRANCH   2   6
ATOM      6  O   UNL     1       1.665  -5.000   8.262  1.00  0.00    -0.388 OA
ATOM      7  H   UNL     1       0.989  -5.494   8.796  1.00  0.00     0.211 HD
ENDBRANCH   2   6
ENDBRANCH   1   2
BRANCH   1   8
ATOM      8  C   UNL     1       2.422  -4.815   4.618  1.00  0.00     0.171 C 
BRANCH   8   9
ATOM      9  C   UNL     1       2.879  -3.471   4.016  1.00  0.00     0.190 C 
BRANCH   9  10
ATOM     10  O   UNL     1       1.795  -2.588   3.892  1.00  0.00    -0.394 OA
ATOM     11  H   UNL     1       2.006  -1.976   3.141  1.00  0.00     0.210 HD
ENDBRANCH   9  10
ENDBRANCH   8   9
BRANCH   8  12
ATOM     12  O   UNL     1       1.817  -5.614   3.631  1.00  0.00    -0.388 OA
ATOM     13  H   UNL     1       1.571  -6.481   4.046  1.00  0.00     0.211 HD
ENDBRANCH   8  12
ENDBRANCH   1   8
BRANCH   1  14
ATOM     14  O   UNL     1       0.140  -4.639   5.488  1.00  0.00    -0.388 OA
ATOM     15  H   UNL     1       0.087  -4.817   4.514  1.00  0.00     0.211 HD
ENDBRANCH   1  14
TORSDOF 9
ENDMDL
MODEL 8
REMARK VINA RESULT:    -3.685      1.341      3.754
REMARK INTER + INTRA:          -6.015
REMARK INTER:                  -5.486
REMARK INTRA:                  -0.529
REMARK UNBOUND:                -0.929
REMARK SMILES OC[C@H](O)C(O)[C@@H](O)CO
REMARK SMILES IDX 5 1 7 2 9 3 10 4 8 6 3 8 2 9 1 10 4 12 6 14
REMARK H PARENT 10 5 8 7 1 11 4 13 6 15
REMARK Flexibility Score: inf
ROOT
ATOM      1  C   UNL     1      -0.301  -6.654   4.881  1.00  0.00     0.176 C 
ENDROOT
BRANCH   1   2
ATOM      2  C   UNL     1       1.155  -6.146   4.684  1.00  0.00     0.171 C 
BRANCH   2   3
ATOM      3  C   UNL     1       1.479  -4.896   5.522  1.00  0.00     0.190 C 
BRANCH   3   4
ATOM      4  O   UNL     1       1.045  -3.734   4.871  1.00  0.00    -0.394 OA
ATOM      5  H   UNL     1       1.856  -3.184   4.716  1.00  0.00     0.210 HD
ENDBRANCH   3   4
ENDBRANCH   2   3
BRANCH   2   6
ATOM      6  O   UNL     1       1.419  -5.907   3.325  1.00  0.00    -0.388 OA
ATOM      7  H   UNL     1       1.823  -6.737   2.958  1.00  0.00     0.211 HD
ENDBRANCH   2   6
ENDBRANCH   1   2
BRANCH   1   8
ATOM      8  C   UNL     1      -0.525  -7.527   6.150  1.00  0.00     0.171 C 
BRANCH   8   9
ATOM      9  C   UNL     1      -1.276  -6.771   7.265  1.00  0.00     0.190 C 
BRANCH   9  10
ATOM     10  O   UNL     1      -2.663  -6.845   7.069  1.00  0.00    -0.394 OA
ATOM     11  H   UNL     1      -2.806  -7.155   6.137  1.00  0.00     0.210 HD
ENDBRANCH   9  10
ENDBRANCH   8   9
BRANCH   8  12
ATOM     12  O   UNL     1       0.684  -8.051   6.642  1.00  0.00    -0.388 OA
ATOM     13  H   UNL     1       1.301  -8.172   5.874  1.00  0.00     0.211 HD
ENDBRANCH   8  12
ENDBRANCH   1   8
BRANCH   1  14
ATOM     14  O   UNL     1      -1.207  -5.577   4.836  1.00  0.00    -0.388 OA
ATOM     15  H   UNL     1      -1.991  -5.811   5.396  1.00  0.00     0.211 HD
ENDBRANCH   1  14
TORSDOF 9
ENDMDL
MODEL 9
REMARK VINA RESULT:    -3.653      0.697      3.395
REMARK INTER + INTRA:          -5.970
REMARK INTER:                  -5.479
REMARK INTRA:                  -0.491
REMARK UNBOUND:                -0.929
REMARK SMILES OC[C@H](O)C(O)[C@@H](O)CO
REMARK SMILES IDX 5 1 7 2 9 3 10 4 8 6 3 8 2 9 1 10 4 12 6 14
REMARK H PARENT 10 5 8 7 1 11 4 13 6 15
REMARK Flexibility Score: inf
ROOT
ATOM      1  C   UNL     1       1.288  -5.552   6.173  1.00  0.00     0.176 C 
ENDROOT
BRANCH   1   2
ATOM      2  C   UNL     1       2.152  -5.074   4.972  1.00  0.00     0.171 C 
BRANCH   2   3
ATOM      3  C   UNL     1       2.181  -3.542   4.818  1.00  0.00     0.190 C 
BRANCH   3   4
ATOM      4  O   UNL     1       1.742  -2.915   5.993  1.00  0.00    -0.394 OA
ATOM      5  H   UNL     1       2.517  -2.398   6.335  1.00  0.00     0.210 HD
ENDBRANCH   3   4
ENDBRANCH   2   3
BRANCH   2   6
ATOM      6  O   UNL     1       1.723  -5.679   3.778  1.00  0.00    -0.388 OA
ATOM      7  H   UNL     1       2.429  -6.325   3.512  1.00  0.00     0.211 HD
ENDBRANCH   2   6
ENDBRANCH   1   2
BRANCH   1   8
ATOM      8  C   UNL     1       0.640  -6.956   5.997  1.00  0.00     0.171 C 
BRANCH   8   9
ATOM      9  C   UNL     1      -0.896  -6.891   5.885  1.00  0.00     0.190 C 
BRANCH   9  10
ATOM     10  O   UNL     1      -1.285  -5.941   4.928  1.00  0.00    -0.394 OA
ATOM     11  H   UNL     1      -2.271  -6.007   4.840  1.00  0.00     0.210 HD
ENDBRANCH   9  10
ENDBRANCH   8   9
BRANCH   8  12
ATOM     12  O   UNL     1       1.020  -7.837   7.026  1.00  0.00    -0.388 OA
ATOM     13  H   UNL     1       0.970  -7.344   7.885  1.00  0.00     0.211 HD
ENDBRANCH   8  12
ENDBRANCH   1   8
BRANCH   1  14
ATOM     14  O   UNL     1       2.026  -5.476   7.370  1.00  0.00    -0.388 OA
ATOM     15  H   UNL     1       1.447  -5.063   8.062  1.00  0.00     0.211 HD
ENDBRANCH   1  14
TORSDOF 9
ENDMDL
