MODEL 1
REMARK VINA RESULT:    -3.164      0.000      0.000
REMARK INTER + INTRA:          -3.766
REMARK INTER:                  -3.718
REMARK INTRA:                  -0.047
REMARK UNBOUND:                -0.047
REMARK SMILES O=C([O-])CCC(=O)[O-]
REMARK SMILES IDX 4 1 2 2 1 3 3 4 5 5 6 6 7 7 8 8
REMARK H PARENT
REMARK Flexibility Score: inf
ROOT
ATOM      1  C   UNL     1     134.679 132.116 136.924  1.00  0.00     0.059 C 
ENDROOT
BRANCH   1   2
ATOM      2  C   UNL     1     135.483 132.508 135.723  1.00  0.00     0.042 C 
ATOM      3  O   UNL     1     134.926 132.626 134.599  1.00  0.00    -0.550 OA
ATOM      4  O   UNL     1     136.837 132.786 135.852  1.00  0.00    -0.550 OA
ENDBRANCH   1   2
BRANCH   1   5
ATOM      5  C   UNL     1     134.359 133.324 137.810  1.00  0.00     0.059 C 
BRANCH   5   6
ATOM      6  C   UNL     1     132.882 133.513 137.976  1.00  0.00     0.042 C 
ATOM      7  O   UNL     1     132.384 134.669 137.943  1.00  0.00    -0.550 OA
ATOM      8  O   UNL     1     132.052 132.409 138.124  1.00  0.00    -0.550 OA
ENDBRANCH   5   6
ENDBRANCH   1   5
TORSDOF 3
ENDMDL
MODEL 2
REMARK VINA RESULT:    -3.163     23.432     24.071
REMARK INTER + INTRA:          -3.764
REMARK INTER:                  -3.672
REMARK INTRA:                  -0.092
REMARK UNBOUND:                -0.047
REMARK SMILES O=C([O-])CCC(=O)[O-]
REMARK SMILES IDX 4 1 2 2 1 3 3 4 5 5 6 6 7 7 8 8
REMARK H PARENT
REMARK Flexibility Score: inf
ROOT
ATOM      1  C   UNL     1     120.615 123.098 121.168  1.00  0.00     0.059 C 
ENDROOT
BRANCH   1   2
ATOM      2  C   UNL     1     119.816 123.089 119.902  1.00  0.00     0.042 C 
ATOM      3  O   UNL     1     119.246 124.140 119.504  1.00  0.00    -0.550 OA
ATOM      4  O   UNL     1     119.734 121.932 119.138  1.00  0.00    -0.550 OA
ENDBRANCH   1   2
BRANCH   1   5
ATOM      5  C   UNL     1     120.524 121.758 121.904  1.00  0.00     0.059 C 
BRANCH   5   6
ATOM      6  C   UNL     1     119.162 121.541 122.490  1.00  0.00     0.042 C 
ATOM      7  O   UNL     1     118.677 120.380 122.553  1.00  0.00    -0.550 OA
ATOM      8  O   UNL     1     118.447 122.614 123.006  1.00  0.00    -0.550 OA
ENDBRANCH   5   6
ENDBRANCH   1   5
TORSDOF 3
ENDMDL
MODEL 3
REMARK VINA RESULT:    -3.133      1.301      1.848
REMARK INTER + INTRA:          -3.730
REMARK INTER:                  -3.612
REMARK INTRA:                  -0.118
REMARK UNBOUND:                -0.047
REMARK SMILES O=C([O-])CCC(=O)[O-]
REMARK SMILES IDX 4 1 2 2 1 3 3 4 5 5 6 6 7 7 8 8
REMARK H PARENT
REMARK Flexibility Score: inf
ROOT
ATOM      1  C   UNL     1     134.505 133.625 137.751  1.00  0.00     0.059 C 
ENDROOT
BRANCH   1   2
ATOM      2  C   UNL     1     134.970 132.676 136.690  1.00  0.00     0.042 C 
ATOM      3  O   UNL     1     136.067 132.872 136.101  1.00  0.00    -0.550 OA
ATOM      4  O   UNL     1     134.216 131.552 136.381  1.00  0.00    -0.550 OA
ENDBRANCH   1   2
BRANCH   1   5
ATOM      5  C   UNL     1     133.040 133.380 138.125  1.00  0.00     0.059 C 
BRANCH   5   6
ATOM      6  C   UNL     1     132.113 134.248 137.329  1.00  0.00     0.042 C 
ATOM      7  O   UNL     1     131.724 135.352 137.794  1.00  0.00    -0.550 OA
ATOM      8  O   UNL     1     131.714 133.858 136.058  1.00  0.00    -0.550 OA
ENDBRANCH   5   6
ENDBRANCH   1   5
TORSDOF 3
ENDMDL
MODEL 4
REMARK VINA RESULT:    -3.125      1.325      3.898
REMARK INTER + INTRA:          -3.720
REMARK INTER:                  -3.599
REMARK INTRA:                  -0.121
REMARK UNBOUND:                -0.047
REMARK SMILES O=C([O-])CCC(=O)[O-]
REMARK SMILES IDX 4 1 2 2 1 3 3 4 5 5 6 6 7 7 8 8
REMARK H PARENT
REMARK Flexibility Score: inf
ROOT
ATOM      1  C   UNL     1     133.011 133.446 138.119  1.00  0.00     0.059 C 
ENDROOT
BRANCH   1   2
ATOM      2  C   UNL     1     132.112 134.330 137.309  1.00  0.00     0.042 C 
ATOM      3  O   UNL     1     131.712 135.428 137.779  1.00  0.00    -0.550 OA
ATOM      4  O   UNL     1     131.752 133.961 136.020  1.00  0.00    -0.550 OA
ENDBRANCH   1   2
BRANCH   1   5
ATOM      5  C   UNL     1     134.484 133.653 137.756  1.00  0.00     0.059 C 
BRANCH   5   6
ATOM      6  C   UNL     1     134.960 132.629 136.771  1.00  0.00     0.042 C 
ATOM      7  O   UNL     1     134.285 131.586 136.566  1.00  0.00    -0.550 OA
ATOM      8  O   UNL     1     136.127 132.846 136.050  1.00  0.00    -0.550 OA
ENDBRANCH   5   6
ENDBRANCH   1   5
TORSDOF 3
ENDMDL
MODEL 5
REMARK VINA RESULT:    -3.103     13.515     14.499
REMARK INTER + INTRA:          -3.694
REMARK INTER:                  -3.633
REMARK INTRA:                  -0.061
REMARK UNBOUND:                -0.047
REMARK SMILES O=C([O-])CCC(=O)[O-]
REMARK SMILES IDX 4 1 2 2 1 3 3 4 5 5 6 6 7 7 8 8
REMARK H PARENT
REMARK Flexibility Score: inf
ROOT
ATOM      1  C   UNL     1     120.661 131.649 137.008  1.00  0.00     0.059 C 
ENDROOT
BRANCH   1   2
ATOM      2  C   UNL     1     119.984 132.164 135.775  1.00  0.00     0.042 C 
ATOM      3  O   UNL     1     120.186 131.609 134.663  1.00  0.00    -0.550 OA
ATOM      4  O   UNL     1     119.096 133.228 135.862  1.00  0.00    -0.550 OA
ENDBRANCH   1   2
BRANCH   1   5
ATOM      5  C   UNL     1     119.765 130.677 137.782  1.00  0.00     0.059 C 
BRANCH   5   6
ATOM      6  C   UNL     1     120.398 129.325 137.911  1.00  0.00     0.042 C 
ATOM      7  O   UNL     1     119.685 128.310 138.124  1.00  0.00    -0.550 OA
ATOM      8  O   UNL     1     121.771 129.181 137.753  1.00  0.00    -0.550 OA
ENDBRANCH   5   6
ENDBRANCH   1   5
TORSDOF 3
ENDMDL
MODEL 6
REMARK VINA RESULT:    -3.099      0.214      4.002
REMARK INTER + INTRA:          -3.689
REMARK INTER:                  -3.625
REMARK INTRA:                  -0.064
REMARK UNBOUND:                -0.047
REMARK SMILES O=C([O-])CCC(=O)[O-]
REMARK SMILES IDX 4 1 2 2 1 3 3 4 5 5 6 6 7 7 8 8
REMARK H PARENT
REMARK Flexibility Score: inf
ROOT
ATOM      1  C   UNL     1     134.351 133.583 137.756  1.00  0.00     0.059 C 
ENDROOT
BRANCH   1   2
ATOM      2  C   UNL     1     132.864 133.566 137.938  1.00  0.00     0.042 C 
ATOM      3  O   UNL     1     132.229 134.645 138.072  1.00  0.00    -0.550 OA
ATOM      4  O   UNL     1     132.174 132.361 137.918  1.00  0.00    -0.550 OA
ENDBRANCH   1   2
BRANCH   1   5
ATOM      5  C   UNL     1     134.849 132.316 137.054  1.00  0.00     0.059 C 
BRANCH   5   6
ATOM      6  C   UNL     1     135.526 132.634 135.756  1.00  0.00     0.042 C 
ATOM      7  O   UNL     1     136.782 132.714 135.699  1.00  0.00    -0.550 OA
ATOM      8  O   UNL     1     134.773 132.800 134.600  1.00  0.00    -0.550 OA
ENDBRANCH   5   6
ENDBRANCH   1   5
TORSDOF 3
ENDMDL
MODEL 7
REMARK VINA RESULT:    -3.056     13.587     14.570
REMARK INTER + INTRA:          -3.639
REMARK INTER:                  -3.563
REMARK INTRA:                  -0.076
REMARK UNBOUND:                -0.047
REMARK SMILES O=C([O-])CCC(=O)[O-]
REMARK SMILES IDX 4 1 2 2 1 3 3 4 5 5 6 6 7 7 8 8
REMARK H PARENT
REMARK Flexibility Score: inf
ROOT
ATOM      1  C   UNL     1     119.767 130.628 137.857  1.00  0.00     0.059 C 
ENDROOT
BRANCH   1   2
ATOM      2  C   UNL     1     120.418 129.280 137.881  1.00  0.00     0.042 C 
ATOM      3  O   UNL     1     121.663 129.174 137.717  1.00  0.00    -0.550 OA
ATOM      4  O   UNL     1     119.658 128.144 138.125  1.00  0.00    -0.550 OA
ENDBRANCH   1   2
BRANCH   1   5
ATOM      5  C   UNL     1     120.613 131.652 137.095  1.00  0.00     0.059 C 
BRANCH   5   6
ATOM      6  C   UNL     1     119.932 132.110 135.842  1.00  0.00     0.042 C 
ATOM      7  O   UNL     1     120.162 131.530 134.748  1.00  0.00    -0.550 OA
ATOM      8  O   UNL     1     119.012 133.149 135.889  1.00  0.00    -0.550 OA
ENDBRANCH   5   6
ENDBRANCH   1   5
TORSDOF 3
ENDMDL
MODEL 8
REMARK VINA RESULT:    -0.599     12.533     13.650
REMARK INTER + INTRA:          -0.751
REMARK INTER:                  -0.628
REMARK INTRA:                  -0.123
REMARK UNBOUND:                -0.047
REMARK SMILES O=C([O-])CCC(=O)[O-]
REMARK SMILES IDX 4 1 2 2 1 3 3 4 5 5 6 6 7 7 8 8
REMARK H PARENT
REMARK Flexibility Score: inf
ROOT
ATOM      1  C   UNL     1     129.882 119.566 137.782  1.00  0.00     0.059 C 
ENDROOT
BRANCH   1   2
ATOM      2  C   UNL     1     128.737 119.915 136.882  1.00  0.00     0.042 C 
ATOM      3  O   UNL     1     127.662 120.358 137.368  1.00  0.00    -0.550 OA
ATOM      4  O   UNL     1     128.870 119.793 135.506  1.00  0.00    -0.550 OA
ENDBRANCH   1   2
BRANCH   1   5
ATOM      5  C   UNL     1     130.727 120.797 138.125  1.00  0.00     0.059 C 
BRANCH   5   6
ATOM      6  C   UNL     1     131.964 120.870 137.283  1.00  0.00     0.042 C 
ATOM      7  O   UNL     1     133.072 120.493 137.749  1.00  0.00    -0.550 OA
ATOM      8  O   UNL     1     131.887 121.315 135.970  1.00  0.00    -0.550 OA
ENDBRANCH   5   6
ENDBRANCH   1   5
TORSDOF 3
ENDMDL
