MODEL 1
REMARK VINA RESULT:    -3.473      0.000      0.000
REMARK INTER + INTRA:          -4.676
REMARK INTER:                  -4.488
REMARK INTRA:                  -0.189
REMARK UNBOUND:                -0.189
REMARK SMILES CCCCCCC(=O)[O-]
REMARK SMILES IDX 5 1 6 2 7 3 8 4 9 5 4 6 3 7 2 8 1 9
REMARK H PARENT
REMARK Flexibility Score: inf
ROOT
ATOM      1  C   UNL     1      13.455  13.801  14.716  1.00  0.00     0.006 C 
ENDROOT
BRANCH   1   2
ATOM      2  C   UNL     1      12.833  15.191  14.555  1.00  0.00     0.053 C 
BRANCH   2   3
ATOM      3  C   UNL     1      13.393  15.879  13.350  1.00  0.00     0.041 C 
ATOM      4  O   UNL     1      14.295  16.749  13.479  1.00  0.00    -0.550 OA
ATOM      5  O   UNL     1      12.955  15.524  12.081  1.00  0.00    -0.550 OA
ENDBRANCH   2   3
ENDBRANCH   1   2
BRANCH   1   6
ATOM      6  C   UNL     1      12.424  12.795  15.242  1.00  0.00     0.000 C 
BRANCH   6   7
ATOM      7  C   UNL     1      11.768  12.023  14.086  1.00  0.00    -0.000 C 
BRANCH   7   8
ATOM      8  C   UNL     1      12.518  12.200  12.757  1.00  0.00    -0.003 C 
ATOM      9  C   UNL     1      11.585  12.527  11.591  1.00  0.00     0.004 C 
ENDBRANCH   7   8
ENDBRANCH   6   7
ENDBRANCH   1   6
TORSDOF 5
ENDMDL
MODEL 2
REMARK VINA RESULT:    -3.264      1.315      1.818
REMARK INTER + INTRA:          -4.407
REMARK INTER:                  -4.225
REMARK INTRA:                  -0.182
REMARK UNBOUND:                -0.189
REMARK SMILES CCCCCCC(=O)[O-]
REMARK SMILES IDX 5 1 6 2 7 3 8 4 9 5 4 6 3 7 2 8 1 9
REMARK H PARENT
REMARK Flexibility Score: inf
ROOT
ATOM      1  C   UNL     1      12.792  14.904  14.857  1.00  0.00     0.006 C 
ENDROOT
BRANCH   1   2
ATOM      2  C   UNL     1      13.576  15.789  13.883  1.00  0.00     0.053 C 
BRANCH   2   3
ATOM      3  C   UNL     1      13.208  15.466  12.469  1.00  0.00     0.041 C 
ATOM      4  O   UNL     1      13.269  16.356  11.580  1.00  0.00    -0.550 OA
ATOM      5  O   UNL     1      12.844  14.171  12.125  1.00  0.00    -0.550 OA
ENDBRANCH   2   3
ENDBRANCH   1   2
BRANCH   1   6
ATOM      6  C   UNL     1      13.713  13.881  15.534  1.00  0.00     0.000 C 
BRANCH   6   7
ATOM      7  C   UNL     1      12.991  12.539  15.733  1.00  0.00    -0.000 C 
BRANCH   7   8
ATOM      8  C   UNL     1      11.612  12.504  15.056  1.00  0.00    -0.003 C 
ATOM      9  C   UNL     1      11.608  11.678  13.769  1.00  0.00     0.004 C 
ENDBRANCH   7   8
ENDBRANCH   6   7
ENDBRANCH   1   6
TORSDOF 5
ENDMDL
MODEL 3
REMARK VINA RESULT:    -3.120      1.213      2.494
REMARK INTER + INTRA:          -4.220
REMARK INTER:                  -4.116
REMARK INTRA:                  -0.104
REMARK UNBOUND:                -0.189
REMARK SMILES CCCCCCC(=O)[O-]
REMARK SMILES IDX 5 1 6 2 7 3 8 4 9 5 4 6 3 7 2 8 1 9
REMARK H PARENT
REMARK Flexibility Score: inf
ROOT
ATOM      1  C   UNL     1      12.896  13.192  12.380  1.00  0.00     0.006 C 
ENDROOT
BRANCH   1   2
ATOM      2  C   UNL     1      12.414  14.582  11.956  1.00  0.00     0.053 C 
BRANCH   2   3
ATOM      3  C   UNL     1      13.196  15.645  12.660  1.00  0.00     0.041 C 
ATOM      4  O   UNL     1      13.840  16.501  11.997  1.00  0.00    -0.550 OA
ATOM      5  O   UNL     1      13.176  15.720  14.046  1.00  0.00    -0.550 OA
ENDBRANCH   2   3
ENDBRANCH   1   2
BRANCH   1   6
ATOM      6  C   UNL     1      11.720  12.315  12.830  1.00  0.00     0.000 C 
BRANCH   6   7
ATOM      7  C   UNL     1      11.976  11.727  14.226  1.00  0.00    -0.000 C 
BRANCH   7   8
ATOM      8  C   UNL     1      12.053  12.806  15.317  1.00  0.00    -0.003 C 
ATOM      9  C   UNL     1      13.479  13.037  15.820  1.00  0.00     0.004 C 
ENDBRANCH   7   8
ENDBRANCH   6   7
ENDBRANCH   1   6
TORSDOF 5
ENDMDL
MODEL 4
REMARK VINA RESULT:    -2.973      2.448      3.742
REMARK INTER + INTRA:          -4.030
REMARK INTER:                  -3.926
REMARK INTRA:                  -0.104
REMARK UNBOUND:                -0.189
REMARK SMILES CCCCCCC(=O)[O-]
REMARK SMILES IDX 5 1 6 2 7 3 8 4 9 5 4 6 3 7 2 8 1 9
REMARK H PARENT
REMARK Flexibility Score: inf
ROOT
ATOM      1  C   UNL     1      13.002  13.044  15.772  1.00  0.00     0.006 C 
ENDROOT
BRANCH   1   2
ATOM      2  C   UNL     1      13.014  12.088  14.575  1.00  0.00     0.053 C 
BRANCH   2   3
ATOM      3  C   UNL     1      11.661  12.026  13.941  1.00  0.00     0.041 C 
ATOM      4  O   UNL     1      10.632  11.890  14.655  1.00  0.00    -0.550 OA
ATOM      5  O   UNL     1      11.532  12.167  12.566  1.00  0.00    -0.550 OA
ENDBRANCH   2   3
ENDBRANCH   1   2
BRANCH   1   6
ATOM      6  C   UNL     1      12.854  14.500  15.312  1.00  0.00     0.000 C 
BRANCH   6   7
ATOM      7  C   UNL     1      13.663  14.757  14.032  1.00  0.00    -0.000 C 
BRANCH   7   8
ATOM      8  C   UNL     1      13.307  16.096  13.367  1.00  0.00    -0.003 C 
ATOM      9  C   UNL     1      13.059  15.962  11.864  1.00  0.00     0.004 C 
ENDBRANCH   7   8
ENDBRANCH   6   7
ENDBRANCH   1   6
TORSDOF 5
ENDMDL
MODEL 5
REMARK VINA RESULT:    -2.736      2.595      4.068
REMARK INTER + INTRA:          -3.725
REMARK INTER:                  -3.429
REMARK INTRA:                  -0.295
REMARK UNBOUND:                -0.189
REMARK SMILES CCCCCCC(=O)[O-]
REMARK SMILES IDX 5 1 6 2 7 3 8 4 9 5 4 6 3 7 2 8 1 9
REMARK H PARENT
REMARK Flexibility Score: inf
ROOT
ATOM      1  C   UNL     1      11.706  12.214  12.823  1.00  0.00     0.006 C 
ENDROOT
BRANCH   1   2
ATOM      2  C   UNL     1      11.410  12.349  14.319  1.00  0.00     0.053 C 
BRANCH   2   3
ATOM      3  C   UNL     1      12.621  12.000  15.126  1.00  0.00     0.041 C 
ATOM      4  O   UNL     1      13.010  10.804  15.198  1.00  0.00    -0.550 OA
ATOM      5  O   UNL     1      13.347  13.000  15.758  1.00  0.00    -0.550 OA
ENDBRANCH   2   3
ENDBRANCH   1   2
BRANCH   1   6
ATOM      6  C   UNL     1      12.875  13.115  12.409  1.00  0.00     0.000 C 
BRANCH   6   7
ATOM      7  C   UNL     1      12.366  14.448  11.838  1.00  0.00    -0.000 C 
BRANCH   7   8
ATOM      8  C   UNL     1      13.248  15.639  12.242  1.00  0.00    -0.003 C 
ATOM      9  C   UNL     1      13.330  15.826  13.757  1.00  0.00     0.004 C 
ENDBRANCH   7   8
ENDBRANCH   6   7
ENDBRANCH   1   6
TORSDOF 5
ENDMDL
MODEL 6
REMARK VINA RESULT:    -2.726      1.822      3.482
REMARK INTER + INTRA:          -3.711
REMARK INTER:                  -3.461
REMARK INTRA:                  -0.250
REMARK UNBOUND:                -0.189
REMARK SMILES CCCCCCC(=O)[O-]
REMARK SMILES IDX 5 1 6 2 7 3 8 4 9 5 4 6 3 7 2 8 1 9
REMARK H PARENT
REMARK Flexibility Score: inf
ROOT
ATOM      1  C   UNL     1      12.532  12.118  14.016  1.00  0.00     0.006 C 
ENDROOT
BRANCH   1   2
ATOM      2  C   UNL     1      11.388  12.073  12.999  1.00  0.00     0.053 C 
BRANCH   2   3
ATOM      3  C   UNL     1      11.832  12.633  11.685  1.00  0.00     0.041 C 
ATOM      4  O   UNL     1      12.477  11.915  10.876  1.00  0.00    -0.550 OA
ATOM      5  O   UNL     1      11.492  13.933  11.334  1.00  0.00    -0.550 OA
ENDBRANCH   2   3
ENDBRANCH   1   2
BRANCH   1   6
ATOM      6  C   UNL     1      12.144  12.950  15.244  1.00  0.00     0.000 C 
BRANCH   6   7
ATOM      7  C   UNL     1      13.052  14.181  15.384  1.00  0.00    -0.000 C 
BRANCH   7   8
ATOM      8  C   UNL     1      13.618  14.654  14.037  1.00  0.00    -0.003 C 
ATOM      9  C   UNL     1      13.162  16.066  13.668  1.00  0.00     0.004 C 
ENDBRANCH   7   8
ENDBRANCH   6   7
ENDBRANCH   1   6
TORSDOF 5
ENDMDL
MODEL 7
REMARK VINA RESULT:    -2.487      8.477      9.695
REMARK INTER + INTRA:          -3.402
REMARK INTER:                  -3.326
REMARK INTRA:                  -0.076
REMARK UNBOUND:                -0.189
REMARK SMILES CCCCCCC(=O)[O-]
REMARK SMILES IDX 5 1 6 2 7 3 8 4 9 5 4 6 3 7 2 8 1 9
REMARK H PARENT
REMARK Flexibility Score: inf
ROOT
ATOM      1  C   UNL     1      12.867   5.654  17.183  1.00  0.00     0.006 C 
ENDROOT
BRANCH   1   2
ATOM      2  C   UNL     1      12.493   7.016  16.591  1.00  0.00     0.053 C 
BRANCH   2   3
ATOM      3  C   UNL     1      13.403   7.360  15.454  1.00  0.00     0.041 C 
ATOM      4  O   UNL     1      13.573   8.563  15.121  1.00  0.00    -0.550 OA
ATOM      5  O   UNL     1      14.100   6.357  14.794  1.00  0.00    -0.550 OA
ENDBRANCH   2   3
ENDBRANCH   1   2
BRANCH   1   6
ATOM      6  C   UNL     1      12.555   5.602  18.684  1.00  0.00     0.000 C 
BRANCH   6   7
ATOM      7  C   UNL     1      12.392   4.151  19.162  1.00  0.00    -0.000 C 
BRANCH   7   8
ATOM      8  C   UNL     1      11.336   4.009  20.270  1.00  0.00    -0.003 C 
ATOM      9  C   UNL     1      11.786   3.082  21.399  1.00  0.00     0.004 C 
ENDBRANCH   7   8
ENDBRANCH   6   7
ENDBRANCH   1   6
TORSDOF 5
ENDMDL
MODEL 8
REMARK VINA RESULT:    -2.096      9.789     11.042
REMARK INTER + INTRA:          -2.897
REMARK INTER:                  -2.769
REMARK INTRA:                  -0.128
REMARK UNBOUND:                -0.189
REMARK SMILES CCCCCCC(=O)[O-]
REMARK SMILES IDX 5 1 6 2 7 3 8 4 9 5 4 6 3 7 2 8 1 9
REMARK H PARENT
REMARK Flexibility Score: inf
ROOT
ATOM      1  C   UNL     1      13.223   5.925  18.323  1.00  0.00     0.006 C 
ENDROOT
BRANCH   1   2
ATOM      2  C   UNL     1      12.830   5.859  16.844  1.00  0.00     0.053 C 
BRANCH   2   3
ATOM      3  C   UNL     1      13.637   4.819  16.134  1.00  0.00     0.041 C 
ATOM      4  O   UNL     1      13.603   3.620  16.518  1.00  0.00    -0.550 OA
ATOM      5  O   UNL     1      14.388   5.164  15.018  1.00  0.00    -0.550 OA
ENDBRANCH   2   3
ENDBRANCH   1   2
BRANCH   1   6
ATOM      6  C   UNL     1      12.064   5.475  19.221  1.00  0.00     0.000 C 
BRANCH   6   7
ATOM      7  C   UNL     1      12.154   3.971  19.522  1.00  0.00    -0.000 C 
BRANCH   7   8
ATOM      8  C   UNL     1      11.219   3.540  20.663  1.00  0.00    -0.003 C 
ATOM      9  C   UNL     1      11.979   3.032  21.889  1.00  0.00     0.004 C 
ENDBRANCH   7   8
ENDBRANCH   6   7
ENDBRANCH   1   6
TORSDOF 5
ENDMDL
