MODEL 1
REMARK VINA RESULT:    -3.918      0.000      0.000
REMARK INTER + INTRA:          -6.683
REMARK INTER:                  -5.979
REMARK INTRA:                  -0.704
REMARK UNBOUND:                -0.704
REMARK SMILES O=C([O-])CCCCCCCCC(=O)[O-]
REMARK SMILES IDX 7 1 6 2 5 3 4 4 2 5 1 6 3 7 8 8 9 9 10 10 11 11 12 12 13 13
REMARK SMILES IDX 14 14
REMARK H PARENT
REMARK Flexibility Score: inf
ROOT
ATOM      1  C   UNL     1      10.712 -27.348 -30.546  1.00  0.00     0.000 C 
ENDROOT
BRANCH   1   2
ATOM      2  C   UNL     1       9.482 -26.768 -29.828  1.00  0.00     0.000 C 
BRANCH   2   3
ATOM      3  C   UNL     1       8.694 -27.831 -29.048  1.00  0.00     0.006 C 
BRANCH   3   4
ATOM      4  C   UNL     1       8.287 -27.306 -27.668  1.00  0.00     0.053 C 
BRANCH   4   5
ATOM      5  C   UNL     1       9.498 -27.056 -26.825  1.00  0.00     0.041 C 
ATOM      6  O   UNL     1      10.386 -27.943 -26.713  1.00  0.00    -0.550 OA
ATOM      7  O   UNL     1       9.670 -25.827 -26.202  1.00  0.00    -0.550 OA
ENDBRANCH   4   5
ENDBRANCH   3   4
ENDBRANCH   2   3
ENDBRANCH   1   2
BRANCH   1   8
ATOM      8  C   UNL     1      11.005 -26.640 -31.880  1.00  0.00     0.000 C 
BRANCH   8   9
ATOM      9  C   UNL     1      10.169 -25.363 -32.066  1.00  0.00     0.000 C 
BRANCH   9  10
ATOM     10  C   UNL     1      11.031 -24.123 -32.344  1.00  0.00     0.006 C 
BRANCH  10  11
ATOM     11  C   UNL     1      11.062 -23.193 -31.128  1.00  0.00     0.053 C 
BRANCH  11  12
ATOM     12  C   UNL     1      12.247 -23.494 -30.267  1.00  0.00     0.041 C 
ATOM     13  O   UNL     1      12.170 -24.372 -29.367  1.00  0.00    -0.550 OA
ATOM     14  O   UNL     1      13.452 -22.840 -30.489  1.00  0.00    -0.550 OA
ENDBRANCH  11  12
ENDBRANCH  10  11
ENDBRANCH   9  10
ENDBRANCH   8   9
ENDBRANCH   1   8
TORSDOF 9
ENDMDL
MODEL 2
REMARK VINA RESULT:    -3.914      1.230      5.230
REMARK INTER + INTRA:          -6.678
REMARK INTER:                  -5.868
REMARK INTRA:                  -0.810
REMARK UNBOUND:                -0.704
REMARK SMILES O=C([O-])CCCCCCCCC(=O)[O-]
REMARK SMILES IDX 7 1 6 2 5 3 4 4 2 5 1 6 3 7 8 8 9 9 10 10 11 11 12 12 13 13
REMARK SMILES IDX 14 14
REMARK H PARENT
REMARK Flexibility Score: inf
ROOT
ATOM      1  C   UNL     1      10.813 -26.440 -30.186  1.00  0.00     0.000 C 
ENDROOT
BRANCH   1   2
ATOM      2  C   UNL     1       9.793 -25.320 -29.922  1.00  0.00     0.000 C 
BRANCH   2   3
ATOM      3  C   UNL     1       9.484 -24.490 -31.176  1.00  0.00     0.006 C 
BRANCH   3   4
ATOM      4  C   UNL     1      10.775 -24.078 -31.891  1.00  0.00     0.053 C 
BRANCH   4   5
ATOM      5  C   UNL     1      11.449 -22.964 -31.154  1.00  0.00     0.041 C 
ATOM      6  O   UNL     1      10.890 -21.839 -31.057  1.00  0.00    -0.550 OA
ATOM      7  O   UNL     1      12.672 -23.181 -30.533  1.00  0.00    -0.550 OA
ENDBRANCH   4   5
ENDBRANCH   3   4
ENDBRANCH   2   3
ENDBRANCH   1   2
BRANCH   1   8
ATOM      8  C   UNL     1      10.191 -27.843 -30.082  1.00  0.00     0.000 C 
BRANCH   8   9
ATOM      9  C   UNL     1       8.855 -27.841 -29.319  1.00  0.00     0.000 C 
BRANCH   9  10
ATOM     10  C   UNL     1       9.017 -28.208 -27.837  1.00  0.00     0.006 C 
BRANCH  10  11
ATOM     11  C   UNL     1       8.417 -27.125 -26.936  1.00  0.00     0.053 C 
BRANCH  11  12
ATOM     12  C   UNL     1       9.494 -26.417 -26.178  1.00  0.00     0.041 C 
ATOM     13  O   UNL     1       9.225 -25.829 -25.096  1.00  0.00    -0.550 OA
ATOM     14  O   UNL     1      10.803 -26.445 -26.639  1.00  0.00    -0.550 OA
ENDBRANCH  11  12
ENDBRANCH  10  11
ENDBRANCH   9  10
ENDBRANCH   8   9
ENDBRANCH   1   8
TORSDOF 9
ENDMDL
MODEL 3
REMARK VINA RESULT:    -3.883      1.531      5.495
REMARK INTER + INTRA:          -6.631
REMARK INTER:                  -5.952
REMARK INTRA:                  -0.679
REMARK UNBOUND:                -0.704
REMARK SMILES O=C([O-])CCCCCCCCC(=O)[O-]
REMARK SMILES IDX 7 1 6 2 5 3 4 4 2 5 1 6 3 7 8 8 9 9 10 10 11 11 12 12 13 13
REMARK SMILES IDX 14 14
REMARK H PARENT
REMARK Flexibility Score: inf
ROOT
ATOM      1  C   UNL     1      11.011 -26.234 -32.027  1.00  0.00     0.000 C 
ENDROOT
BRANCH   1   2
ATOM      2  C   UNL     1      10.194 -24.937 -32.158  1.00  0.00     0.000 C 
BRANCH   2   3
ATOM      3  C   UNL     1      11.077 -23.696 -32.358  1.00  0.00     0.006 C 
BRANCH   3   4
ATOM      4  C   UNL     1      11.209 -22.904 -31.053  1.00  0.00     0.053 C 
BRANCH   4   5
ATOM      5  C   UNL     1      12.436 -23.325 -30.307  1.00  0.00     0.041 C 
ATOM      6  O   UNL     1      12.359 -24.198 -29.402  1.00  0.00    -0.550 OA
ATOM      7  O   UNL     1      13.672 -22.788 -30.642  1.00  0.00    -0.550 OA
ENDBRANCH   4   5
ENDBRANCH   3   4
ENDBRANCH   2   3
ENDBRANCH   1   2
BRANCH   1   8
ATOM      8  C   UNL     1      10.641 -27.039 -30.770  1.00  0.00     0.000 C 
BRANCH   8   9
ATOM      9  C   UNL     1       9.620 -26.310 -29.881  1.00  0.00     0.000 C 
BRANCH   9  10
ATOM     10  C   UNL     1       9.544 -26.892 -28.462  1.00  0.00     0.006 C 
BRANCH  10  11
ATOM     11  C   UNL     1       8.330 -27.813 -28.312  1.00  0.00     0.053 C 
BRANCH  11  12
ATOM     12  C   UNL     1       8.622 -29.164 -28.884  1.00  0.00     0.041 C 
ATOM     13  O   UNL     1       9.445 -29.929 -28.314  1.00  0.00    -0.550 OA
ATOM     14  O   UNL     1       7.952 -29.598 -30.020  1.00  0.00    -0.550 OA
ENDBRANCH  11  12
ENDBRANCH  10  11
ENDBRANCH   9  10
ENDBRANCH   8   9
ENDBRANCH   1   8
TORSDOF 9
ENDMDL
MODEL 4
REMARK VINA RESULT:    -3.849      2.533      3.634
REMARK INTER + INTRA:          -6.578
REMARK INTER:                  -5.885
REMARK INTRA:                  -0.693
REMARK UNBOUND:                -0.704
REMARK SMILES O=C([O-])CCCCCCCCC(=O)[O-]
REMARK SMILES IDX 7 1 6 2 5 3 4 4 2 5 1 6 3 7 8 8 9 9 10 10 11 11 12 12 13 13
REMARK SMILES IDX 14 14
REMARK H PARENT
REMARK Flexibility Score: inf
ROOT
ATOM      1  C   UNL     1       9.870 -25.903 -26.845  1.00  0.00     0.000 C 
ENDROOT
BRANCH   1   2
ATOM      2  C   UNL     1       9.402 -27.362 -26.972  1.00  0.00     0.000 C 
BRANCH   2   3
ATOM      3  C   UNL     1       8.258 -27.533 -27.983  1.00  0.00     0.006 C 
BRANCH   3   4
ATOM      4  C   UNL     1       8.777 -28.111 -29.303  1.00  0.00     0.053 C 
BRANCH   4   5
ATOM      5  C   UNL     1       8.419 -29.560 -29.418  1.00  0.00     0.041 C 
ATOM      6  O   UNL     1       9.017 -30.418 -28.715  1.00  0.00    -0.550 OA
ATOM      7  O   UNL     1       7.391 -29.957 -30.264  1.00  0.00    -0.550 OA
ENDBRANCH   4   5
ENDBRANCH   3   4
ENDBRANCH   2   3
ENDBRANCH   1   2
BRANCH   1   8
ATOM      8  C   UNL     1      11.399 -25.762 -26.943  1.00  0.00     0.000 C 
BRANCH   8   9
ATOM      9  C   UNL     1      11.871 -25.432 -28.369  1.00  0.00     0.000 C 
BRANCH   9  10
ATOM     10  C   UNL     1      10.737 -24.911 -29.265  1.00  0.00     0.006 C 
BRANCH  10  11
ATOM     11  C   UNL     1      11.294 -24.309 -30.558  1.00  0.00     0.053 C 
BRANCH  11  12
ATOM     12  C   UNL     1      10.839 -25.101 -31.743  1.00  0.00     0.041 C 
ATOM     13  O   UNL     1      10.987 -26.352 -31.763  1.00  0.00    -0.550 OA
ATOM     14  O   UNL     1      10.209 -24.465 -32.804  1.00  0.00    -0.550 OA
ENDBRANCH  11  12
ENDBRANCH  10  11
ENDBRANCH   9  10
ENDBRANCH   8   9
ENDBRANCH   1   8
TORSDOF 9
ENDMDL
MODEL 5
REMARK VINA RESULT:    -3.828      2.388      6.134
REMARK INTER + INTRA:          -6.546
REMARK INTER:                  -5.728
REMARK INTRA:                  -0.818
REMARK UNBOUND:                -0.704
REMARK SMILES O=C([O-])CCCCCCCCC(=O)[O-]
REMARK SMILES IDX 7 1 6 2 5 3 4 4 2 5 1 6 3 7 8 8 9 9 10 10 11 11 12 12 13 13
REMARK SMILES IDX 14 14
REMARK H PARENT
REMARK Flexibility Score: inf
ROOT
ATOM      1  C   UNL     1      10.639 -24.476 -29.617  1.00  0.00     0.000 C 
ENDROOT
BRANCH   1   2
ATOM      2  C   UNL     1       9.507 -24.313 -30.646  1.00  0.00     0.000 C 
BRANCH   2   3
ATOM      3  C   UNL     1       9.915 -24.767 -32.055  1.00  0.00     0.006 C 
BRANCH   3   4
ATOM      4  C   UNL     1      11.374 -24.402 -32.346  1.00  0.00     0.053 C 
BRANCH   4   5
ATOM      5  C   UNL     1      11.457 -23.055 -32.995  1.00  0.00     0.041 C 
ATOM      6  O   UNL     1      11.764 -22.042 -32.312  1.00  0.00    -0.550 OA
ATOM      7  O   UNL     1      11.244 -22.928 -34.361  1.00  0.00    -0.550 OA
ENDBRANCH   4   5
ENDBRANCH   3   4
ENDBRANCH   2   3
ENDBRANCH   1   2
BRANCH   1   8
ATOM      8  C   UNL     1      10.297 -25.501 -28.522  1.00  0.00     0.000 C 
BRANCH   8   9
ATOM      9  C   UNL     1      11.189 -26.752 -28.584  1.00  0.00     0.000 C 
BRANCH   9  10
ATOM     10  C   UNL     1      10.679 -27.796 -29.588  1.00  0.00     0.006 C 
BRANCH  10  11
ATOM     11  C   UNL     1       9.149 -27.875 -29.566  1.00  0.00     0.053 C 
BRANCH  11  12
ATOM     12  C   UNL     1       8.699 -29.285 -29.354  1.00  0.00     0.041 C 
ATOM     13  O   UNL     1       9.242 -29.996 -28.467  1.00  0.00    -0.550 OA
ATOM     14  O   UNL     1       7.649 -29.800 -30.102  1.00  0.00    -0.550 OA
ENDBRANCH  11  12
ENDBRANCH  10  11
ENDBRANCH   9  10
ENDBRANCH   8   9
ENDBRANCH   1   8
TORSDOF 9
ENDMDL
MODEL 6
REMARK VINA RESULT:    -3.794      1.955      3.457
REMARK INTER + INTRA:          -6.495
REMARK INTER:                  -5.629
REMARK INTRA:                  -0.866
REMARK UNBOUND:                -0.704
REMARK SMILES O=C([O-])CCCCCCCCC(=O)[O-]
REMARK SMILES IDX 7 1 6 2 5 3 4 4 2 5 1 6 3 7 8 8 9 9 10 10 11 11 12 12 13 13
REMARK SMILES IDX 14 14
REMARK H PARENT
REMARK Flexibility Score: inf
ROOT
ATOM      1  C   UNL     1       8.685 -26.746 -28.064  1.00  0.00     0.000 C 
ENDROOT
BRANCH   1   2
ATOM      2  C   UNL     1       8.690 -26.910 -26.535  1.00  0.00     0.000 C 
BRANCH   2   3
ATOM      3  C   UNL     1       9.917 -26.264 -25.873  1.00  0.00     0.006 C 
BRANCH   3   4
ATOM      4  C   UNL     1      10.850 -27.331 -25.293  1.00  0.00     0.053 C 
BRANCH   4   5
ATOM      5  C   UNL     1      11.578 -28.043 -26.390  1.00  0.00     0.041 C 
ATOM      6  O   UNL     1      12.543 -27.485 -26.975  1.00  0.00    -0.550 OA
ATOM      7  O   UNL     1      11.221 -29.340 -26.733  1.00  0.00    -0.550 OA
ENDBRANCH   4   5
ENDBRANCH   3   4
ENDBRANCH   2   3
ENDBRANCH   1   2
BRANCH   1   8
ATOM      8  C   UNL     1       8.368 -28.061 -28.798  1.00  0.00     0.000 C 
BRANCH   8   9
ATOM      9  C   UNL     1       9.450 -28.441 -29.822  1.00  0.00     0.000 C 
BRANCH   9  10
ATOM     10  C   UNL     1      10.563 -27.388 -29.930  1.00  0.00     0.006 C 
BRANCH  10  11
ATOM     11  C   UNL     1      10.781 -26.970 -31.387  1.00  0.00     0.053 C 
BRANCH  11  12
ATOM     12  C   UNL     1      10.563 -25.500 -31.549  1.00  0.00     0.041 C 
ATOM     13  O   UNL     1       9.501 -24.967 -31.128  1.00  0.00    -0.550 OA
ATOM     14  O   UNL     1      11.550 -24.708 -32.121  1.00  0.00    -0.550 OA
ENDBRANCH  11  12
ENDBRANCH  10  11
ENDBRANCH   9  10
ENDBRANCH   8   9
ENDBRANCH   1   8
TORSDOF 9
ENDMDL
MODEL 7
REMARK VINA RESULT:    -3.771      2.226      2.749
REMARK INTER + INTRA:          -6.459
REMARK INTER:                  -5.907
REMARK INTRA:                  -0.552
REMARK UNBOUND:                -0.704
REMARK SMILES O=C([O-])CCCCCCCCC(=O)[O-]
REMARK SMILES IDX 7 1 6 2 5 3 4 4 2 5 1 6 3 7 8 8 9 9 10 10 11 11 12 12 13 13
REMARK SMILES IDX 14 14
REMARK H PARENT
REMARK Flexibility Score: inf
ROOT
ATOM      1  C   UNL     1      10.250 -27.116 -30.440  1.00  0.00     0.000 C 
ENDROOT
BRANCH   1   2
ATOM      2  C   UNL     1       9.629 -26.556 -29.149  1.00  0.00     0.000 C 
BRANCH   2   3
ATOM      3  C   UNL     1       8.708 -27.565 -28.446  1.00  0.00     0.006 C 
BRANCH   3   4
ATOM      4  C   UNL     1       8.389 -28.747 -29.367  1.00  0.00     0.053 C 
BRANCH   4   5
ATOM      5  C   UNL     1       8.917 -30.021 -28.787  1.00  0.00     0.041 C 
ATOM      6  O   UNL     1       8.401 -31.124 -29.107  1.00  0.00    -0.550 OA
ATOM      7  O   UNL     1      10.011 -29.994 -27.931  1.00  0.00    -0.550 OA
ENDBRANCH   4   5
ENDBRANCH   3   4
ENDBRANCH   2   3
ENDBRANCH   1   2
BRANCH   1   8
ATOM      8  C   UNL     1      10.725 -26.008 -31.395  1.00  0.00     0.000 C 
BRANCH   8   9
ATOM      9  C   UNL     1       9.813 -24.770 -31.364  1.00  0.00     0.000 C 
BRANCH   9  10
ATOM     10  C   UNL     1      10.579 -23.474 -31.060  1.00  0.00     0.006 C 
BRANCH  10  11
ATOM     11  C   UNL     1      12.023 -23.561 -31.563  1.00  0.00     0.053 C 
BRANCH  11  12
ATOM     12  C   UNL     1      12.158 -22.886 -32.891  1.00  0.00     0.041 C 
ATOM     13  O   UNL     1      12.993 -23.308 -33.734  1.00  0.00    -0.550 OA
ATOM     14  O   UNL     1      11.328 -21.822 -33.217  1.00  0.00    -0.550 OA
ENDBRANCH  11  12
ENDBRANCH  10  11
ENDBRANCH   9  10
ENDBRANCH   8   9
ENDBRANCH   1   8
TORSDOF 9
ENDMDL
MODEL 8
REMARK VINA RESULT:    -3.734      1.463      5.068
REMARK INTER + INTRA:          -6.404
REMARK INTER:                  -5.666
REMARK INTRA:                  -0.737
REMARK UNBOUND:                -0.704
REMARK SMILES O=C([O-])CCCCCCCCC(=O)[O-]
REMARK SMILES IDX 7 1 6 2 5 3 4 4 2 5 1 6 3 7 8 8 9 9 10 10 11 11 12 12 13 13
REMARK SMILES IDX 14 14
REMARK H PARENT
REMARK Flexibility Score: inf
ROOT
ATOM      1  C   UNL     1       9.467 -26.716 -29.685  1.00  0.00     0.000 C 
ENDROOT
BRANCH   1   2
ATOM      2  C   UNL     1      10.601 -27.401 -30.466  1.00  0.00     0.000 C 
BRANCH   2   3
ATOM      3  C   UNL     1      10.948 -26.670 -31.772  1.00  0.00     0.006 C 
BRANCH   3   4
ATOM      4  C   UNL     1      10.356 -25.257 -31.781  1.00  0.00     0.053 C 
BRANCH   4   5
ATOM      5  C   UNL     1      11.444 -24.233 -31.697  1.00  0.00     0.041 C 
ATOM      6  O   UNL     1      12.069 -24.060 -30.617  1.00  0.00    -0.550 OA
ATOM      7  O   UNL     1      11.801 -23.504 -32.824  1.00  0.00    -0.550 OA
ENDBRANCH   4   5
ENDBRANCH   3   4
ENDBRANCH   2   3
ENDBRANCH   1   2
BRANCH   1   8
ATOM      8  C   UNL     1       8.576 -27.721 -28.935  1.00  0.00     0.000 C 
BRANCH   8   9
ATOM      9  C   UNL     1       8.372 -27.341 -27.458  1.00  0.00     0.000 C 
BRANCH   9  10
ATOM     10  C   UNL     1       9.503 -26.457 -26.911  1.00  0.00     0.006 C 
BRANCH  10  11
ATOM     11  C   UNL     1      10.534 -27.296 -26.149  1.00  0.00     0.053 C 
BRANCH  11  12
ATOM     12  C   UNL     1      11.828 -27.340 -26.897  1.00  0.00     0.041 C 
ATOM     13  O   UNL     1      12.490 -28.411 -26.954  1.00  0.00    -0.550 OA
ATOM     14  O   UNL     1      12.282 -26.214 -27.571  1.00  0.00    -0.550 OA
ENDBRANCH  11  12
ENDBRANCH  10  11
ENDBRANCH   9  10
ENDBRANCH   8   9
ENDBRANCH   1   8
TORSDOF 9
ENDMDL
MODEL 9
REMARK VINA RESULT:    -3.711      1.779      2.363
REMARK INTER + INTRA:          -6.368
REMARK INTER:                  -5.709
REMARK INTRA:                  -0.659
REMARK UNBOUND:                -0.704
REMARK SMILES O=C([O-])CCCCCCCCC(=O)[O-]
REMARK SMILES IDX 7 1 6 2 5 3 4 4 2 5 1 6 3 7 8 8 9 9 10 10 11 11 12 12 13 13
REMARK SMILES IDX 14 14
REMARK H PARENT
REMARK Flexibility Score: inf
ROOT
ATOM      1  C   UNL     1      11.041 -26.033 -31.638  1.00  0.00     0.000 C 
ENDROOT
BRANCH   1   2
ATOM      2  C   UNL     1      10.588 -27.315 -30.918  1.00  0.00     0.000 C 
BRANCH   2   3
ATOM      3  C   UNL     1      10.875 -27.281 -29.409  1.00  0.00     0.006 C 
BRANCH   3   4
ATOM      4  C   UNL     1      10.135 -28.411 -28.688  1.00  0.00     0.053 C 
BRANCH   4   5
ATOM      5  C   UNL     1       8.658 -28.168 -28.709  1.00  0.00     0.041 C 
ATOM      6  O   UNL     1       7.915 -28.847 -29.465  1.00  0.00    -0.550 OA
ATOM      7  O   UNL     1       8.097 -27.224 -27.857  1.00  0.00    -0.550 OA
ENDBRANCH   4   5
ENDBRANCH   3   4
ENDBRANCH   2   3
ENDBRANCH   1   2
BRANCH   1   8
ATOM      8  C   UNL     1       9.911 -24.998 -31.767  1.00  0.00     0.000 C 
BRANCH   8   9
ATOM      9  C   UNL     1       9.992 -23.898 -30.695  1.00  0.00     0.000 C 
BRANCH   9  10
ATOM     10  C   UNL     1      11.423 -23.672 -30.183  1.00  0.00     0.006 C 
BRANCH  10  11
ATOM     11  C   UNL     1      12.006 -22.373 -30.747  1.00  0.00     0.053 C 
BRANCH  11  12
ATOM     12  C   UNL     1      13.107 -22.670 -31.715  1.00  0.00     0.041 C 
ATOM     13  O   UNL     1      12.837 -23.107 -32.866  1.00  0.00    -0.550 OA
ATOM     14  O   UNL     1      14.427 -22.418 -31.367  1.00  0.00    -0.550 OA
ENDBRANCH  11  12
ENDBRANCH  10  11
ENDBRANCH   9  10
ENDBRANCH   8   9
ENDBRANCH   1   8
TORSDOF 9
ENDMDL
