MODEL 1
REMARK VINA RESULT:    -3.586      0.000      0.000
REMARK INTER + INTRA:          -4.481
REMARK INTER:                  -4.215
REMARK INTRA:                  -0.265
REMARK UNBOUND:                -0.265
REMARK SMILES O=c1cc(-c2ccc(O)c(O)c2)oc2cc(O)cc(O)c12
REMARK SMILES IDX 4 1 3 2 2 3 1 4 21 5 19 6 18 7 16 8 15 9 14 10 13 11 5 12
REMARK SMILES IDX 6 13 7 14 8 15 12 16 10 17 9 18 11 20 20 22 17 24
REMARK H PARENT 9 19 11 21 20 23 17 25
REMARK Flexibility Score: inf
ROOT
ATOM      1  C   UNL     1      13.428 -12.907  29.447  1.00  0.00     0.138 A 
ATOM      2  C   UNL     1      13.745 -13.324  28.147  1.00  0.00     0.100 A 
ATOM      3  C   UNL     1      14.505 -14.478  27.958  1.00  0.00     0.197 A 
ATOM      4  O   UNL     1      14.825 -14.793  26.782  1.00  0.00    -0.289 OA
ATOM      5  C   UNL     1      14.924 -15.235  29.078  1.00  0.00     0.107 A 
ATOM      6  C   UNL     1      15.669 -16.451  29.004  1.00  0.00     0.134 A 
ATOM      7  C   UNL     1      16.128 -17.051  30.183  1.00  0.00     0.093 A 
ATOM      8  C   UNL     1      15.818 -16.512  31.435  1.00  0.00     0.123 A 
ATOM      9  C   UNL     1      15.047 -15.356  31.518  1.00  0.00     0.094 A 
ATOM     10  C   UNL     1      14.603 -14.715  30.359  1.00  0.00     0.146 A 
ATOM     11  O   UNL     1      13.881 -13.605  30.483  1.00  0.00    -0.456 OA
ENDROOT
BRANCH   1  12
ATOM     12  C   UNL     1      12.622 -11.687  29.706  1.00  0.00     0.021 A 
ATOM     13  C   UNL     1      13.235 -10.561  30.282  1.00  0.00     0.016 A 
ATOM     14  C   UNL     1      12.496  -9.405  30.543  1.00  0.00     0.051 A 
ATOM     15  C   UNL     1      11.129  -9.356  30.241  1.00  0.00     0.157 A 
ATOM     16  C   UNL     1      11.244 -11.636  29.417  1.00  0.00     0.062 A 
ATOM     17  C   UNL     1      10.501 -10.480  29.679  1.00  0.00     0.158 A 
BRANCH  15  18
ATOM     18  O   UNL     1      10.394  -8.200  30.501  1.00  0.00    -0.504 OA
ATOM     19  H   UNL     1      10.450  -7.390  29.895  1.00  0.00     0.293 HD
ENDBRANCH  15  18
BRANCH  17  20
ATOM     20  O   UNL     1       9.139 -10.467  29.378  1.00  0.00    -0.504 OA
ATOM     21  H   UNL     1       8.428 -10.444  30.100  1.00  0.00     0.293 HD
ENDBRANCH  17  20
ENDBRANCH   1  12
BRANCH   6  22
ATOM     22  O   UNL     1      15.960 -17.117  27.810  1.00  0.00    -0.507 OA
ATOM     23  H   UNL     1      16.349 -16.682  26.987  1.00  0.00     0.293 HD
ENDBRANCH   6  22
BRANCH   8  24
ATOM     24  O   UNL     1      16.266 -17.125  32.603  1.00  0.00    -0.508 OA
ATOM     25  H   UNL     1      15.851 -16.916  33.503  1.00  0.00     0.293 HD
ENDBRANCH   8  24
TORSDOF 5
ENDMDL
MODEL 2
REMARK VINA RESULT:    -2.397      1.716      7.000
REMARK INTER + INTRA:          -3.082
REMARK INTER:                  -2.812
REMARK INTRA:                  -0.270
REMARK UNBOUND:                -0.265
REMARK SMILES O=c1cc(-c2ccc(O)c(O)c2)oc2cc(O)cc(O)c12
REMARK SMILES IDX 4 1 3 2 2 3 1 4 21 5 19 6 18 7 16 8 15 9 14 10 13 11 5 12
REMARK SMILES IDX 6 13 7 14 8 15 12 16 10 17 9 18 11 20 20 22 17 24
REMARK H PARENT 9 19 11 21 20 23 17 25
REMARK Flexibility Score: inf
ROOT
ATOM      1  C   UNL     1      13.190 -13.203  28.330  1.00  0.00     0.138 A 
ATOM      2  C   UNL     1      11.850 -13.215  27.919  1.00  0.00     0.100 A 
ATOM      3  C   UNL     1      10.977 -12.229  28.379  1.00  0.00     0.197 A 
ATOM      4  O   UNL     1       9.767 -12.302  28.041  1.00  0.00    -0.289 OA
ATOM      5  C   UNL     1      11.458 -11.206  29.231  1.00  0.00     0.107 A 
ATOM      6  C   UNL     1      10.669 -10.127  29.729  1.00  0.00     0.134 A 
ATOM      7  C   UNL     1      11.224  -9.239  30.660  1.00  0.00     0.093 A 
ATOM      8  C   UNL     1      12.556  -9.357  31.064  1.00  0.00     0.123 A 
ATOM      9  C   UNL     1      13.349 -10.376  30.542  1.00  0.00     0.094 A 
ATOM     10  C   UNL     1      12.815 -11.298  29.638  1.00  0.00     0.146 A 
ATOM     11  O   UNL     1      13.602 -12.263  29.175  1.00  0.00    -0.456 OA
ENDROOT
BRANCH   1  12
ATOM     12  C   UNL     1      14.162 -14.227  27.871  1.00  0.00     0.021 A 
ATOM     13  C   UNL     1      14.555 -14.254  26.522  1.00  0.00     0.016 A 
ATOM     14  C   UNL     1      15.462 -15.213  26.065  1.00  0.00     0.051 A 
ATOM     15  C   UNL     1      15.984 -16.169  26.946  1.00  0.00     0.157 A 
ATOM     16  C   UNL     1      14.680 -15.199  28.749  1.00  0.00     0.062 A 
ATOM     17  C   UNL     1      15.587 -16.163  28.293  1.00  0.00     0.158 A 
BRANCH  15  18
ATOM     18  O   UNL     1      16.890 -17.124  26.487  1.00  0.00    -0.504 OA
ATOM     19  H   UNL     1      16.672 -18.113  26.507  1.00  0.00     0.293 HD
ENDBRANCH  15  18
BRANCH  17  20
ATOM     20  O   UNL     1      16.081 -17.108  29.193  1.00  0.00    -0.504 OA
ATOM     21  H   UNL     1      17.017 -17.489  29.114  1.00  0.00     0.293 HD
ENDBRANCH  17  20
ENDBRANCH   1  12
BRANCH   6  22
ATOM     22  O   UNL     1       9.355  -9.868  29.327  1.00  0.00    -0.507 OA
ATOM     23  H   UNL     1       8.597 -10.532  29.373  1.00  0.00     0.293 HD
ENDBRANCH   6  22
BRANCH   8  24
ATOM     24  O   UNL     1      13.104  -8.460  31.978  1.00  0.00    -0.508 OA
ATOM     25  H   UNL     1      14.106  -8.345  32.072  1.00  0.00     0.293 HD
ENDBRANCH   8  24
TORSDOF 5
ENDMDL
MODEL 3
REMARK VINA RESULT:    -1.299     11.382     13.434
REMARK INTER + INTRA:          -1.792
REMARK INTER:                  -1.521
REMARK INTRA:                  -0.270
REMARK UNBOUND:                -0.265
REMARK SMILES O=c1cc(-c2ccc(O)c(O)c2)oc2cc(O)cc(O)c12
REMARK SMILES IDX 4 1 3 2 2 3 1 4 21 5 19 6 18 7 16 8 15 9 14 10 13 11 5 12
REMARK SMILES IDX 6 13 7 14 8 15 12 16 10 17 9 18 11 20 20 22 17 24
REMARK H PARENT 9 19 11 21 20 23 17 25
REMARK Flexibility Score: inf
ROOT
ATOM      1  C   UNL     1      16.167  -0.623  27.121  1.00  0.00     0.138 A 
ATOM      2  C   UNL     1      15.446  -1.120  28.215  1.00  0.00     0.100 A 
ATOM      3  C   UNL     1      16.052  -2.022  29.090  1.00  0.00     0.197 A 
ATOM      4  O   UNL     1      15.359  -2.498  30.027  1.00  0.00    -0.289 OA
ATOM      5  C   UNL     1      17.399  -2.404  28.884  1.00  0.00     0.107 A 
ATOM      6  C   UNL     1      18.132  -3.285  29.734  1.00  0.00     0.134 A 
ATOM      7  C   UNL     1      19.424  -3.683  29.365  1.00  0.00     0.093 A 
ATOM      8  C   UNL     1      20.030  -3.184  28.209  1.00  0.00     0.123 A 
ATOM      9  C   UNL     1      19.341  -2.283  27.402  1.00  0.00     0.094 A 
ATOM     10  C   UNL     1      18.039  -1.894  27.724  1.00  0.00     0.146 A 
ATOM     11  O   UNL     1      17.412  -1.041  26.919  1.00  0.00    -0.456 OA
ENDROOT
BRANCH   1  12
ATOM     12  C   UNL     1      15.571   0.338  26.159  1.00  0.00     0.021 A 
ATOM     13  C   UNL     1      15.366   1.672  26.551  1.00  0.00     0.016 A 
ATOM     14  C   UNL     1      14.800   2.593  25.666  1.00  0.00     0.051 A 
ATOM     15  C   UNL     1      14.420   2.195  24.378  1.00  0.00     0.157 A 
ATOM     16  C   UNL     1      15.175  -0.059  24.867  1.00  0.00     0.062 A 
ATOM     17  C   UNL     1      14.606   0.862  23.979  1.00  0.00     0.158 A 
BRANCH  15  18
ATOM     18  O   UNL     1      13.857   3.118  23.497  1.00  0.00    -0.504 OA
ATOM     19  H   UNL     1      12.857   3.159  23.341  1.00  0.00     0.293 HD
ENDBRANCH  15  18
BRANCH  17  20
ATOM     20  O   UNL     1      14.228   0.432  22.707  1.00  0.00    -0.504 OA
ATOM     21  H   UNL     1      14.812  -0.182  22.151  1.00  0.00     0.293 HD
ENDBRANCH  17  20
ENDBRANCH   1  12
BRANCH   6  22
ATOM     22  O   UNL     1      17.653  -3.774  30.953  1.00  0.00    -0.507 OA
ATOM     23  H   UNL     1      18.193  -4.317  31.609  1.00  0.00     0.293 HD
ENDBRANCH   6  22
BRANCH   8  24
ATOM     24  O   UNL     1      21.320  -3.574  27.859  1.00  0.00    -0.508 OA
ATOM     25  H   UNL     1      21.887  -4.145  28.475  1.00  0.00     0.293 HD
ENDBRANCH   8  24
TORSDOF 5
ENDMDL
MODEL 4
REMARK VINA RESULT:    -1.242      1.190      2.756
REMARK INTER + INTRA:          -1.725
REMARK INTER:                  -1.455
REMARK INTRA:                  -0.270
REMARK UNBOUND:                -0.265
REMARK SMILES O=c1cc(-c2ccc(O)c(O)c2)oc2cc(O)cc(O)c12
REMARK SMILES IDX 4 1 3 2 2 3 1 4 21 5 19 6 18 7 16 8 15 9 14 10 13 11 5 12
REMARK SMILES IDX 6 13 7 14 8 15 12 16 10 17 9 18 11 20 20 22 17 24
REMARK H PARENT 9 19 11 21 20 23 17 25
REMARK Flexibility Score: inf
ROOT
ATOM      1  C   UNL     1      13.537 -12.920  29.771  1.00  0.00     0.138 A 
ATOM      2  C   UNL     1      13.907 -13.729  30.853  1.00  0.00     0.100 A 
ATOM      3  C   UNL     1      14.687 -14.865  30.632  1.00  0.00     0.197 A 
ATOM      4  O   UNL     1      14.951 -15.606  31.615  1.00  0.00    -0.289 OA
ATOM      5  C   UNL     1      15.124 -15.172  29.322  1.00  0.00     0.107 A 
ATOM      6  C   UNL     1      15.957 -16.281  28.983  1.00  0.00     0.134 A 
ATOM      7  C   UNL     1      16.230 -16.552  27.635  1.00  0.00     0.093 A 
ATOM      8  C   UNL     1      15.750 -15.720  26.621  1.00  0.00     0.123 A 
ATOM      9  C   UNL     1      14.981 -14.606  26.946  1.00  0.00     0.094 A 
ATOM     10  C   UNL     1      14.663 -14.328  28.278  1.00  0.00     0.146 A 
ATOM     11  O   UNL     1      13.915 -13.262  28.544  1.00  0.00    -0.456 OA
ENDROOT
BRANCH   1  12
ATOM     12  C   UNL     1      12.709 -11.700  29.950  1.00  0.00     0.021 A 
ATOM     13  C   UNL     1      13.283 -10.550  30.517  1.00  0.00     0.016 A 
ATOM     14  C   UNL     1      12.522  -9.394  30.703  1.00  0.00     0.051 A 
ATOM     15  C   UNL     1      11.171  -9.369  30.333  1.00  0.00     0.157 A 
ATOM     16  C   UNL     1      11.346 -11.674  29.592  1.00  0.00     0.062 A 
ATOM     17  C   UNL     1      10.581 -10.517  29.779  1.00  0.00     0.158 A 
BRANCH  15  18
ATOM     18  O   UNL     1      10.414  -8.213  30.518  1.00  0.00    -0.504 OA
ATOM     19  H   UNL     1       9.477  -8.249  30.903  1.00  0.00     0.293 HD
ENDBRANCH  15  18
BRANCH  17  20
ATOM     20  O   UNL     1       9.235 -10.529  29.412  1.00  0.00    -0.504 OA
ATOM     21  H   UNL     1       8.581  -9.829  29.742  1.00  0.00     0.293 HD
ENDBRANCH  17  20
ENDBRANCH   1  12
BRANCH   6  22
ATOM     22  O   UNL     1      16.556 -17.124  29.922  1.00  0.00    -0.507 OA
ATOM     23  H   UNL     1      17.524 -17.079  30.204  1.00  0.00     0.293 HD
ENDBRANCH   6  22
BRANCH   8  24
ATOM     24  O   UNL     1      16.039 -15.989  25.285  1.00  0.00    -0.508 OA
ATOM     25  H   UNL     1      15.804 -15.333  24.550  1.00  0.00     0.293 HD
ENDBRANCH   8  24
TORSDOF 5
ENDMDL
MODEL 5
REMARK VINA RESULT:    -0.626     10.046     14.069
REMARK INTER + INTRA:          -1.001
REMARK INTER:                  -0.735
REMARK INTRA:                  -0.267
REMARK UNBOUND:                -0.265
REMARK SMILES O=c1cc(-c2ccc(O)c(O)c2)oc2cc(O)cc(O)c12
REMARK SMILES IDX 4 1 3 2 2 3 1 4 21 5 19 6 18 7 16 8 15 9 14 10 13 11 5 12
REMARK SMILES IDX 6 13 7 14 8 15 12 16 10 17 9 18 11 20 20 22 17 24
REMARK H PARENT 9 19 11 21 20 23 17 25
REMARK Flexibility Score: inf
ROOT
ATOM      1  C   UNL     1      15.704  -1.889  26.339  1.00  0.00     0.138 A 
ATOM      2  C   UNL     1      15.270  -1.249  25.171  1.00  0.00     0.100 A 
ATOM      3  C   UNL     1      15.030   0.125  25.183  1.00  0.00     0.197 A 
ATOM      4  O   UNL     1      14.582   0.660  24.135  1.00  0.00    -0.289 OA
ATOM      5  C   UNL     1      15.258   0.868  26.366  1.00  0.00     0.107 A 
ATOM      6  C   UNL     1      15.086   2.280  26.483  1.00  0.00     0.134 A 
ATOM      7  C   UNL     1      15.229   2.889  27.737  1.00  0.00     0.093 A 
ATOM      8  C   UNL     1      15.595   2.147  28.863  1.00  0.00     0.123 A 
ATOM      9  C   UNL     1      15.816   0.777  28.746  1.00  0.00     0.094 A 
ATOM     10  C   UNL     1      15.648   0.135  27.517  1.00  0.00     0.146 A 
ATOM     11  O   UNL     1      15.856  -1.177  27.452  1.00  0.00    -0.456 OA
ENDROOT
BRANCH   1  12
ATOM     12  C   UNL     1      15.974  -3.348  26.383  1.00  0.00     0.021 A 
ATOM     13  C   UNL     1      17.263  -3.804  26.706  1.00  0.00     0.016 A 
ATOM     14  C   UNL     1      17.544  -5.172  26.745  1.00  0.00     0.051 A 
ATOM     15  C   UNL     1      16.544  -6.108  26.453  1.00  0.00     0.157 A 
ATOM     16  C   UNL     1      14.976  -4.294  26.077  1.00  0.00     0.062 A 
ATOM     17  C   UNL     1      15.255  -5.664  26.114  1.00  0.00     0.158 A 
BRANCH  15  18
ATOM     18  O   UNL     1      16.826  -7.473  26.494  1.00  0.00    -0.504 OA
ATOM     19  H   UNL     1      17.628  -7.832  26.999  1.00  0.00     0.293 HD
ENDBRANCH  15  18
BRANCH  17  20
ATOM     20  O   UNL     1      14.240  -6.571  25.806  1.00  0.00    -0.504 OA
ATOM     21  H   UNL     1      13.265  -6.296  25.769  1.00  0.00     0.293 HD
ENDBRANCH  17  20
ENDBRANCH   1  12
BRANCH   6  22
ATOM     22  O   UNL     1      14.803   3.125  25.407  1.00  0.00    -0.507 OA
ATOM     23  H   UNL     1      15.423   3.839  25.056  1.00  0.00     0.293 HD
ENDBRANCH   6  22
BRANCH   8  24
ATOM     24  O   UNL     1      15.749   2.765  30.102  1.00  0.00    -0.508 OA
ATOM     25  H   UNL     1      14.972   3.217  30.568  1.00  0.00     0.293 HD
ENDBRANCH   8  24
TORSDOF 5
ENDMDL
