MODEL 1
REMARK VINA RESULT:    -2.307      0.000      0.000
REMARK INTER + INTRA:          -6.833
REMARK INTER:                  -5.813
REMARK INTRA:                  -1.019
REMARK UNBOUND:                -1.019
REMARK SMILES CCCCCCCCCCCCCCCCCCCCCCCCCCCC(=O)[O-]
REMARK SMILES IDX 15 1 16 2 17 3 18 4 19 5 20 6 21 7 22 8 23 9 24 10 25 11
REMARK SMILES IDX 26 12 27 13 28 14 29 15 30 16 14 17 13 18 12 19 11 20 10 21
REMARK SMILES IDX 9 22 8 23 7 24 6 25 5 26 4 27 3 28 2 29 1 30
REMARK H PARENT
REMARK Flexibility Score: inf
ROOT
ATOM      1  C   UNL     1       0.954 -21.461 -16.157  1.00  0.00     0.000 C 
ENDROOT
BRANCH   1   2
ATOM      2  C   UNL     1       1.910 -22.451 -15.471  1.00  0.00     0.000 C 
BRANCH   2   3
ATOM      3  C   UNL     1       3.388 -22.053 -15.628  1.00  0.00     0.000 C 
BRANCH   3   4
ATOM      4  C   UNL     1       4.221 -23.124 -16.354  1.00  0.00     0.000 C 
BRANCH   4   5
ATOM      5  C   UNL     1       5.569 -22.631 -16.913  1.00  0.00     0.000 C 
BRANCH   5   6
ATOM      6  C   UNL     1       5.878 -21.171 -16.535  1.00  0.00     0.000 C 
BRANCH   6   7
ATOM      7  C   UNL     1       6.823 -21.070 -15.326  1.00  0.00     0.000 C 
BRANCH   7   8
ATOM      8  C   UNL     1       8.189 -21.733 -15.588  1.00  0.00     0.000 C 
BRANCH   8   9
ATOM      9  C   UNL     1       8.610 -21.624 -17.069  1.00  0.00     0.000 C 
BRANCH   9  10
ATOM     10  C   UNL     1      10.077 -22.013 -17.320  1.00  0.00     0.000 C 
BRANCH  10  11
ATOM     11  C   UNL     1      10.306 -22.606 -18.720  1.00  0.00     0.000 C 
BRANCH  11  12
ATOM     12  C   UNL     1       9.989 -21.616 -19.853  1.00  0.00     0.006 C 
BRANCH  12  13
ATOM     13  C   UNL     1      10.024 -22.243 -21.260  1.00  0.00     0.053 C 
BRANCH  13  14
ATOM     14  C   UNL     1       9.472 -21.331 -22.316  1.00  0.00     0.041 C 
ATOM     15  O   UNL     1      10.187 -20.416 -22.803  1.00  0.00    -0.550 OA
ATOM     16  O   UNL     1       8.185 -21.529 -22.801  1.00  0.00    -0.550 OA
ENDBRANCH  13  14
ENDBRANCH  12  13
ENDBRANCH  11  12
ENDBRANCH  10  11
ENDBRANCH   9  10
ENDBRANCH   8   9
ENDBRANCH   7   8
ENDBRANCH   6   7
ENDBRANCH   5   6
ENDBRANCH   4   5
ENDBRANCH   3   4
ENDBRANCH   2   3
ENDBRANCH   1   2
BRANCH   1  17
ATOM     17  C   UNL     1      -0.470 -22.000 -16.408  1.00  0.00     0.000 C 
BRANCH  17  18
ATOM     18  C   UNL     1      -1.089 -22.784 -15.233  1.00  0.00     0.000 C 
BRANCH  18  19
ATOM     19  C   UNL     1      -2.625 -22.876 -15.253  1.00  0.00     0.000 C 
BRANCH  19  20
ATOM     20  C   UNL     1      -3.237 -22.936 -13.843  1.00  0.00     0.000 C 
BRANCH  20  21
ATOM     21  C   UNL     1      -4.780 -22.906 -13.875  1.00  0.00     0.000 C 
BRANCH  21  22
ATOM     22  C   UNL     1      -5.424 -22.943 -12.479  1.00  0.00    -0.000 C 
BRANCH  22  23
ATOM     23  C   UNL     1      -6.953 -23.090 -12.529  1.00  0.00    -0.000 C 
BRANCH  23  24
ATOM     24  C   UNL     1      -7.668 -22.173 -11.524  1.00  0.00    -0.000 C 
BRANCH  24  25
ATOM     25  C   UNL     1      -8.957 -21.557 -12.101  1.00  0.00    -0.000 C 
BRANCH  25  26
ATOM     26  C   UNL     1      -8.689 -20.300 -12.944  1.00  0.00    -0.000 C 
BRANCH  26  27
ATOM     27  C   UNL     1      -8.191 -20.633 -14.360  1.00  0.00    -0.000 C 
BRANCH  27  28
ATOM     28  C   UNL     1      -8.994 -21.767 -15.025  1.00  0.00    -0.000 C 
BRANCH  28  29
ATOM     29  C   UNL     1      -8.647 -22.029 -16.501  1.00  0.00    -0.003 C 
ATOM     30  C   UNL     1      -7.378 -21.309 -16.957  1.00  0.00     0.004 C 
ENDBRANCH  28  29
ENDBRANCH  27  28
ENDBRANCH  26  27
ENDBRANCH  25  26
ENDBRANCH  24  25
ENDBRANCH  23  24
ENDBRANCH  22  23
ENDBRANCH  21  22
ENDBRANCH  20  21
ENDBRANCH  19  20
ENDBRANCH  18  19
ENDBRANCH  17  18
ENDBRANCH   1  17
TORSDOF 26
ENDMDL
MODEL 2
REMARK VINA RESULT:    -1.032      4.206     14.661
REMARK INTER + INTRA:          -3.620
REMARK INTER:                  -2.650
REMARK INTRA:                  -0.970
REMARK UNBOUND:                -1.019
REMARK SMILES CCCCCCCCCCCCCCCCCCCCCCCCCCCC(=O)[O-]
REMARK SMILES IDX 15 1 16 2 17 3 18 4 19 5 20 6 21 7 22 8 23 9 24 10 25 11
REMARK SMILES IDX 26 12 27 13 28 14 29 15 30 16 14 17 13 18 12 19 11 20 10 21
REMARK SMILES IDX 9 22 8 23 7 24 6 25 5 26 4 27 3 28 2 29 1 30
REMARK H PARENT
REMARK Flexibility Score: inf
ROOT
ATOM      1  C   UNL     1      -1.806 -22.043 -15.697  1.00  0.00     0.000 C 
ENDROOT
BRANCH   1   2
ATOM      2  C   UNL     1      -2.315 -22.579 -14.349  1.00  0.00     0.000 C 
BRANCH   2   3
ATOM      3  C   UNL     1      -3.778 -23.052 -14.413  1.00  0.00     0.000 C 
BRANCH   3   4
ATOM      4  C   UNL     1      -4.511 -22.912 -13.067  1.00  0.00     0.000 C 
BRANCH   4   5
ATOM      5  C   UNL     1      -6.038 -23.099 -13.135  1.00  0.00     0.000 C 
BRANCH   5   6
ATOM      6  C   UNL     1      -6.702 -23.125 -11.745  1.00  0.00     0.000 C 
BRANCH   6   7
ATOM      7  C   UNL     1      -7.683 -21.957 -11.547  1.00  0.00     0.000 C 
BRANCH   7   8
ATOM      8  C   UNL     1      -7.487 -20.838 -12.586  1.00  0.00     0.000 C 
BRANCH   8   9
ATOM      9  C   UNL     1      -8.827 -20.196 -13.005  1.00  0.00     0.000 C 
BRANCH   9  10
ATOM     10  C   UNL     1      -9.106 -20.288 -14.515  1.00  0.00     0.000 C 
BRANCH  10  11
ATOM     11  C   UNL     1      -8.700 -21.644 -15.116  1.00  0.00     0.000 C 
BRANCH  11  12
ATOM     12  C   UNL     1      -9.014 -21.756 -16.617  1.00  0.00     0.006 C 
BRANCH  12  13
ATOM     13  C   UNL     1      -7.859 -21.310 -17.534  1.00  0.00     0.053 C 
BRANCH  13  14
ATOM     14  C   UNL     1      -6.508 -21.617 -16.957  1.00  0.00     0.041 C 
ATOM     15  O   UNL     1      -5.703 -22.357 -17.583  1.00  0.00    -0.550 OA
ATOM     16  O   UNL     1      -6.118 -21.041 -15.754  1.00  0.00    -0.550 OA
ENDBRANCH  13  14
ENDBRANCH  12  13
ENDBRANCH  11  12
ENDBRANCH  10  11
ENDBRANCH   9  10
ENDBRANCH   8   9
ENDBRANCH   7   8
ENDBRANCH   6   7
ENDBRANCH   5   6
ENDBRANCH   4   5
ENDBRANCH   3   4
ENDBRANCH   2   3
ENDBRANCH   1   2
BRANCH   1  17
ATOM     17  C   UNL     1      -0.455 -22.626 -16.160  1.00  0.00     0.000 C 
BRANCH  17  18
ATOM     18  C   UNL     1       0.630 -21.581 -16.488  1.00  0.00     0.000 C 
BRANCH  18  19
ATOM     19  C   UNL     1       1.832 -21.572 -15.528  1.00  0.00     0.000 C 
BRANCH  19  20
ATOM     20  C   UNL     1       2.907 -22.606 -15.908  1.00  0.00     0.000 C 
BRANCH  20  21
ATOM     21  C   UNL     1       4.322 -21.990 -15.945  1.00  0.00     0.000 C 
BRANCH  21  22
ATOM     22  C   UNL     1       5.402 -22.965 -16.444  1.00  0.00    -0.000 C 
BRANCH  22  23
ATOM     23  C   UNL     1       6.137 -22.453 -17.693  1.00  0.00    -0.000 C 
BRANCH  23  24
ATOM     24  C   UNL     1       7.615 -22.875 -17.724  1.00  0.00    -0.000 C 
BRANCH  24  25
ATOM     25  C   UNL     1       8.518 -21.921 -16.921  1.00  0.00    -0.000 C 
BRANCH  25  26
ATOM     26  C   UNL     1       9.979 -21.941 -17.399  1.00  0.00    -0.000 C 
BRANCH  26  27
ATOM     27  C   UNL     1      10.134 -22.570 -18.795  1.00  0.00    -0.000 C 
BRANCH  27  28
ATOM     28  C   UNL     1      10.307 -21.519 -19.907  1.00  0.00    -0.000 C 
BRANCH  28  29
ATOM     29  C   UNL     1       9.104 -21.374 -20.856  1.00  0.00    -0.003 C 
ATOM     30  C   UNL     1       9.353 -21.975 -22.239  1.00  0.00     0.004 C 
ENDBRANCH  28  29
ENDBRANCH  27  28
ENDBRANCH  26  27
ENDBRANCH  25  26
ENDBRANCH  24  25
ENDBRANCH  23  24
ENDBRANCH  22  23
ENDBRANCH  21  22
ENDBRANCH  20  21
ENDBRANCH  19  20
ENDBRANCH  18  19
ENDBRANCH  17  18
ENDBRANCH   1  17
TORSDOF 26
ENDMDL
MODEL 3
REMARK VINA RESULT:    -0.740      1.217      3.871
REMARK INTER + INTRA:          -2.884
REMARK INTER:                  -2.210
REMARK INTRA:                  -0.674
REMARK UNBOUND:                -1.019
REMARK SMILES CCCCCCCCCCCCCCCCCCCCCCCCCCCC(=O)[O-]
REMARK SMILES IDX 15 1 16 2 17 3 18 4 19 5 20 6 21 7 22 8 23 9 24 10 25 11
REMARK SMILES IDX 26 12 27 13 28 14 29 15 30 16 14 17 13 18 12 19 11 20 10 21
REMARK SMILES IDX 9 22 8 23 7 24 6 25 5 26 4 27 3 28 2 29 1 30
REMARK H PARENT
REMARK Flexibility Score: inf
ROOT
ATOM      1  C   UNL     1       5.426 -22.158 -16.946  1.00  0.00     0.000 C 
ENDROOT
BRANCH   1   2
ATOM      2  C   UNL     1       6.500 -21.093 -16.670  1.00  0.00     0.000 C 
BRANCH   2   3
ATOM      3  C   UNL     1       7.027 -21.143 -15.226  1.00  0.00     0.000 C 
BRANCH   3   4
ATOM      4  C   UNL     1       8.515 -20.765 -15.119  1.00  0.00     0.000 C 
BRANCH   4   5
ATOM      5  C   UNL     1       9.314 -20.889 -16.429  1.00  0.00     0.000 C 
BRANCH   5   6
ATOM      6  C   UNL     1      10.258 -22.107 -16.443  1.00  0.00     0.000 C 
BRANCH   6   7
ATOM      7  C   UNL     1       9.954 -23.065 -17.607  1.00  0.00     0.000 C 
BRANCH   7   8
ATOM      8  C   UNL     1       8.500 -22.950 -18.103  1.00  0.00     0.000 C 
BRANCH   8   9
ATOM      9  C   UNL     1       8.416 -22.913 -19.644  1.00  0.00     0.000 C 
BRANCH   9  10
ATOM     10  C   UNL     1       9.791 -22.935 -20.335  1.00  0.00     0.000 C 
BRANCH  10  11
ATOM     11  C   UNL     1      10.489 -21.565 -20.318  1.00  0.00     0.000 C 
BRANCH  11  12
ATOM     12  C   UNL     1       9.710 -20.484 -21.086  1.00  0.00     0.006 C 
BRANCH  12  13
ATOM     13  C   UNL     1       9.935 -20.512 -22.609  1.00  0.00     0.053 C 
BRANCH  13  14
ATOM     14  C   UNL     1       9.868 -21.898 -23.180  1.00  0.00     0.041 C 
ATOM     15  O   UNL     1       8.761 -22.393 -23.521  1.00  0.00    -0.550 OA
ATOM     16  O   UNL     1      11.036 -22.622 -23.387  1.00  0.00    -0.550 OA
ENDBRANCH  13  14
ENDBRANCH  12  13
ENDBRANCH  11  12
ENDBRANCH  10  11
ENDBRANCH   9  10
ENDBRANCH   8   9
ENDBRANCH   7   8
ENDBRANCH   6   7
ENDBRANCH   5   6
ENDBRANCH   4   5
ENDBRANCH   3   4
ENDBRANCH   2   3
ENDBRANCH   1   2
BRANCH   1  17
ATOM     17  C   UNL     1       4.073 -21.913 -16.245  1.00  0.00     0.000 C 
BRANCH  17  18
ATOM     18  C   UNL     1       3.121 -23.125 -16.220  1.00  0.00     0.000 C 
BRANCH  18  19
ATOM     19  C   UNL     1       1.926 -22.990 -15.259  1.00  0.00     0.000 C 
BRANCH  19  20
ATOM     20  C   UNL     1       0.836 -22.043 -15.793  1.00  0.00     0.000 C 
BRANCH  20  21
ATOM     21  C   UNL     1      -0.416 -22.028 -14.889  1.00  0.00     0.000 C 
BRANCH  21  22
ATOM     22  C   UNL     1      -1.436 -23.125 -15.238  1.00  0.00    -0.000 C 
BRANCH  22  23
ATOM     23  C   UNL     1      -2.805 -22.900 -14.575  1.00  0.00    -0.000 C 
BRANCH  23  24
ATOM     24  C   UNL     1      -3.914 -22.603 -15.597  1.00  0.00    -0.000 C 
BRANCH  24  25
ATOM     25  C   UNL     1      -5.310 -22.534 -14.949  1.00  0.00    -0.000 C 
BRANCH  25  26
ATOM     26  C   UNL     1      -5.300 -22.957 -13.471  1.00  0.00    -0.000 C 
BRANCH  26  27
ATOM     27  C   UNL     1      -6.282 -22.138 -12.616  1.00  0.00    -0.000 C 
BRANCH  27  28
ATOM     28  C   UNL     1      -7.747 -22.314 -13.055  1.00  0.00    -0.000 C 
BRANCH  28  29
ATOM     29  C   UNL     1      -8.528 -21.003 -13.254  1.00  0.00    -0.003 C 
ATOM     30  C   UNL     1      -8.796 -20.681 -14.723  1.00  0.00     0.004 C 
ENDBRANCH  28  29
ENDBRANCH  27  28
ENDBRANCH  26  27
ENDBRANCH  25  26
ENDBRANCH  24  25
ENDBRANCH  23  24
ENDBRANCH  22  23
ENDBRANCH  21  22
ENDBRANCH  20  21
ENDBRANCH  19  20
ENDBRANCH  18  19
ENDBRANCH  17  18
ENDBRANCH   1  17
TORSDOF 26
ENDMDL
MODEL 4
REMARK VINA RESULT:    -0.496      5.302     15.384
REMARK INTER + INTRA:          -2.268
REMARK INTER:                  -1.149
REMARK INTRA:                  -1.119
REMARK UNBOUND:                -1.019
REMARK SMILES CCCCCCCCCCCCCCCCCCCCCCCCCCCC(=O)[O-]
REMARK SMILES IDX 15 1 16 2 17 3 18 4 19 5 20 6 21 7 22 8 23 9 24 10 25 11
REMARK SMILES IDX 26 12 27 13 28 14 29 15 30 16 14 17 13 18 12 19 11 20 10 21
REMARK SMILES IDX 9 22 8 23 7 24 6 25 5 26 4 27 3 28 2 29 1 30
REMARK H PARENT
REMARK Flexibility Score: inf
ROOT
ATOM      1  C   UNL     1       1.363 -21.224 -16.337  1.00  0.00     0.000 C 
ENDROOT
BRANCH   1   2
ATOM      2  C   UNL     1       0.531 -22.518 -16.345  1.00  0.00     0.000 C 
BRANCH   2   3
ATOM      3  C   UNL     1      -0.025 -22.873 -14.955  1.00  0.00     0.000 C 
BRANCH   3   4
ATOM      4  C   UNL     1      -1.557 -23.020 -14.944  1.00  0.00     0.000 C 
BRANCH   4   5
ATOM      5  C   UNL     1      -2.320 -21.939 -15.732  1.00  0.00     0.000 C 
BRANCH   5   6
ATOM      6  C   UNL     1      -3.777 -22.335 -16.037  1.00  0.00     0.000 C 
BRANCH   6   7
ATOM      7  C   UNL     1      -4.558 -21.200 -16.719  1.00  0.00     0.000 C 
BRANCH   7   8
ATOM      8  C   UNL     1      -5.894 -21.678 -17.318  1.00  0.00     0.000 C 
BRANCH   8   9
ATOM      9  C   UNL     1      -6.844 -22.238 -16.238  1.00  0.00     0.000 C 
BRANCH   9  10
ATOM     10  C   UNL     1      -8.064 -21.341 -15.969  1.00  0.00     0.000 C 
BRANCH  10  11
ATOM     11  C   UNL     1      -9.106 -22.009 -15.056  1.00  0.00     0.000 C 
BRANCH  11  12
ATOM     12  C   UNL     1      -8.500 -22.564 -13.756  1.00  0.00     0.006 C 
BRANCH  12  13
ATOM     13  C   UNL     1      -8.088 -21.479 -12.743  1.00  0.00     0.053 C 
BRANCH  13  14
ATOM     14  C   UNL     1      -7.698 -22.047 -11.410  1.00  0.00     0.041 C 
ATOM     15  O   UNL     1      -6.750 -22.873 -11.324  1.00  0.00    -0.550 OA
ATOM     16  O   UNL     1      -8.344 -21.621 -10.257  1.00  0.00    -0.550 OA
ENDBRANCH  13  14
ENDBRANCH  12  13
ENDBRANCH  11  12
ENDBRANCH  10  11
ENDBRANCH   9  10
ENDBRANCH   8   9
ENDBRANCH   7   8
ENDBRANCH   6   7
ENDBRANCH   5   6
ENDBRANCH   4   5
ENDBRANCH   3   4
ENDBRANCH   2   3
ENDBRANCH   1   2
BRANCH   1  17
ATOM     17  C   UNL     1       2.686 -21.307 -15.548  1.00  0.00     0.000 C 
BRANCH  17  18
ATOM     18  C   UNL     1       3.638 -22.439 -15.985  1.00  0.00     0.000 C 
BRANCH  18  19
ATOM     19  C   UNL     1       5.107 -22.246 -15.570  1.00  0.00     0.000 C 
BRANCH  19  20
ATOM     20  C   UNL     1       6.083 -23.063 -16.435  1.00  0.00     0.000 C 
BRANCH  20  21
ATOM     21  C   UNL     1       6.573 -22.272 -17.667  1.00  0.00     0.000 C 
BRANCH  21  22
ATOM     22  C   UNL     1       7.375 -23.125 -18.664  1.00  0.00    -0.000 C 
BRANCH  22  23
ATOM     23  C   UNL     1       8.577 -22.375 -19.261  1.00  0.00    -0.000 C 
BRANCH  23  24
ATOM     24  C   UNL     1       9.911 -23.087 -18.991  1.00  0.00    -0.000 C 
BRANCH  24  25
ATOM     25  C   UNL     1      11.065 -22.520 -19.839  1.00  0.00    -0.000 C 
BRANCH  25  26
ATOM     26  C   UNL     1      10.718 -22.439 -21.334  1.00  0.00    -0.000 C 
BRANCH  26  27
ATOM     27  C   UNL     1      10.337 -21.015 -21.775  1.00  0.00    -0.000 C 
BRANCH  27  28
ATOM     28  C   UNL     1       9.110 -20.987 -22.705  1.00  0.00    -0.000 C 
BRANCH  28  29
ATOM     29  C   UNL     1       8.448 -22.354 -22.950  1.00  0.00    -0.003 C 
ATOM     30  C   UNL     1       9.072 -23.124 -24.114  1.00  0.00     0.004 C 
ENDBRANCH  28  29
ENDBRANCH  27  28
ENDBRANCH  26  27
ENDBRANCH  25  26
ENDBRANCH  24  25
ENDBRANCH  23  24
ENDBRANCH  22  23
ENDBRANCH  21  22
ENDBRANCH  20  21
ENDBRANCH  19  20
ENDBRANCH  18  19
ENDBRANCH  17  18
ENDBRANCH   1  17
TORSDOF 26
ENDMDL
MODEL 5
REMARK VINA RESULT:    -0.168      1.396      2.745
REMARK INTER + INTRA:          -1.442
REMARK INTER:                  -2.689
REMARK INTRA:                   1.247
REMARK UNBOUND:                -1.019
REMARK SMILES CCCCCCCCCCCCCCCCCCCCCCCCCCCC(=O)[O-]
REMARK SMILES IDX 15 1 16 2 17 3 18 4 19 5 20 6 21 7 22 8 23 9 24 10 25 11
REMARK SMILES IDX 26 12 27 13 28 14 29 15 30 16 14 17 13 18 12 19 11 20 10 21
REMARK SMILES IDX 9 22 8 23 7 24 6 25 5 26 4 27 3 28 2 29 1 30
REMARK H PARENT
REMARK Flexibility Score: inf
ROOT
ATOM      1  C   UNL     1       2.127 -21.123 -15.986  1.00  0.00     0.000 C 
ENDROOT
BRANCH   1   2
ATOM      2  C   UNL     1       3.069 -22.332 -15.861  1.00  0.00     0.000 C 
BRANCH   2   3
ATOM      3  C   UNL     1       4.514 -21.925 -15.520  1.00  0.00     0.000 C 
BRANCH   3   4
ATOM      4  C   UNL     1       5.560 -22.674 -16.364  1.00  0.00     0.000 C 
BRANCH   4   5
ATOM      5  C   UNL     1       6.930 -22.861 -15.686  1.00  0.00     0.000 C 
BRANCH   5   6
ATOM      6  C   UNL     1       8.074 -23.078 -16.695  1.00  0.00     0.000 C 
BRANCH   6   7
ATOM      7  C   UNL     1       7.826 -22.342 -18.022  1.00  0.00     0.000 C 
BRANCH   7   8
ATOM      8  C   UNL     1       8.465 -23.062 -19.225  1.00  0.00     0.000 C 
BRANCH   8   9
ATOM      9  C   UNL     1       9.614 -22.240 -19.848  1.00  0.00     0.000 C 
BRANCH   9  10
ATOM     10  C   UNL     1      10.457 -23.034 -20.861  1.00  0.00     0.000 C 
BRANCH  10  11
ATOM     11  C   UNL     1      10.081 -22.726 -22.320  1.00  0.00     0.000 C 
BRANCH  11  12
ATOM     12  C   UNL     1       8.568 -22.804 -22.582  1.00  0.00     0.006 C 
BRANCH  12  13
ATOM     13  C   UNL     1       7.778 -21.589 -22.059  1.00  0.00     0.053 C 
BRANCH  13  14
ATOM     14  C   UNL     1       8.498 -20.291 -22.277  1.00  0.00     0.041 C 
ATOM     15  O   UNL     1       9.732 -20.200 -22.037  1.00  0.00    -0.550 OA
ATOM     16  O   UNL     1       7.818 -19.197 -22.798  1.00  0.00    -0.550 OA
ENDBRANCH  13  14
ENDBRANCH  12  13
ENDBRANCH  11  12
ENDBRANCH  10  11
ENDBRANCH   9  10
ENDBRANCH   8   9
ENDBRANCH   7   8
ENDBRANCH   6   7
ENDBRANCH   5   6
ENDBRANCH   4   5
ENDBRANCH   3   4
ENDBRANCH   2   3
ENDBRANCH   1   2
BRANCH   1  17
ATOM     17  C   UNL     1       0.665 -21.472 -16.331  1.00  0.00     0.000 C 
BRANCH  17  18
ATOM     18  C   UNL     1      -0.045 -22.391 -15.317  1.00  0.00     0.000 C 
BRANCH  18  19
ATOM     19  C   UNL     1      -1.558 -22.558 -15.543  1.00  0.00     0.000 C 
BRANCH  19  20
ATOM     20  C   UNL     1      -2.286 -23.125 -14.311  1.00  0.00     0.000 C 
BRANCH  20  21
ATOM     21  C   UNL     1      -3.340 -22.144 -13.754  1.00  0.00     0.000 C 
BRANCH  21  22
ATOM     22  C   UNL     1      -4.669 -22.821 -13.379  1.00  0.00    -0.000 C 
BRANCH  22  23
ATOM     23  C   UNL     1      -5.735 -22.695 -14.480  1.00  0.00    -0.000 C 
BRANCH  23  24
ATOM     24  C   UNL     1      -5.245 -21.877 -15.685  1.00  0.00    -0.000 C 
BRANCH  24  25
ATOM     25  C   UNL     1      -6.154 -22.041 -16.918  1.00  0.00    -0.000 C 
BRANCH  25  26
ATOM     26  C   UNL     1      -7.436 -21.198 -16.827  1.00  0.00    -0.000 C 
BRANCH  26  27
ATOM     27  C   UNL     1      -8.600 -21.961 -16.172  1.00  0.00    -0.000 C 
BRANCH  27  28
ATOM     28  C   UNL     1      -8.831 -21.554 -14.705  1.00  0.00    -0.000 C 
BRANCH  28  29
ATOM     29  C   UNL     1      -8.525 -20.080 -14.384  1.00  0.00    -0.003 C 
ATOM     30  C   UNL     1      -9.051 -19.641 -13.018  1.00  0.00     0.004 C 
ENDBRANCH  28  29
ENDBRANCH  27  28
ENDBRANCH  26  27
ENDBRANCH  25  26
ENDBRANCH  24  25
ENDBRANCH  23  24
ENDBRANCH  22  23
ENDBRANCH  21  22
ENDBRANCH  20  21
ENDBRANCH  19  20
ENDBRANCH  18  19
ENDBRANCH  17  18
ENDBRANCH   1  17
TORSDOF 26
ENDMDL
MODEL 6
REMARK VINA RESULT:     0.088      1.372      3.503
REMARK INTER + INTRA:          -0.799
REMARK INTER:                  -0.407
REMARK INTRA:                  -0.392
REMARK UNBOUND:                -1.019
REMARK SMILES CCCCCCCCCCCCCCCCCCCCCCCCCCCC(=O)[O-]
REMARK SMILES IDX 15 1 16 2 17 3 18 4 19 5 20 6 21 7 22 8 23 9 24 10 25 11
REMARK SMILES IDX 26 12 27 13 28 14 29 15 30 16 14 17 13 18 12 19 11 20 10 21
REMARK SMILES IDX 9 22 8 23 7 24 6 25 5 26 4 27 3 28 2 29 1 30
REMARK H PARENT
REMARK Flexibility Score: inf
ROOT
ATOM      1  C   UNL     1       5.130 -22.139 -16.454  1.00  0.00     0.000 C 
ENDROOT
BRANCH   1   2
ATOM      2  C   UNL     1       6.309 -23.120 -16.340  1.00  0.00     0.000 C 
BRANCH   2   3
ATOM      3  C   UNL     1       7.495 -22.532 -15.555  1.00  0.00     0.000 C 
BRANCH   3   4
ATOM      4  C   UNL     1       7.127 -21.250 -14.787  1.00  0.00     0.000 C 
BRANCH   4   5
ATOM      5  C   UNL     1       7.420 -19.936 -15.534  1.00  0.00     0.000 C 
BRANCH   5   6
ATOM      6  C   UNL     1       8.619 -19.167 -14.948  1.00  0.00     0.000 C 
BRANCH   6   7
ATOM      7  C   UNL     1       9.685 -20.109 -14.363  1.00  0.00     0.000 C 
BRANCH   7   8
ATOM      8  C   UNL     1      10.745 -20.519 -15.402  1.00  0.00     0.000 C 
BRANCH   8   9
ATOM      9  C   UNL     1      10.206 -21.569 -16.397  1.00  0.00     0.000 C 
BRANCH   9  10
ATOM     10  C   UNL     1      11.056 -21.699 -17.673  1.00  0.00     0.000 C 
BRANCH  10  11
ATOM     11  C   UNL     1      10.305 -22.392 -18.822  1.00  0.00     0.000 C 
BRANCH  11  12
ATOM     12  C   UNL     1       8.900 -21.814 -19.058  1.00  0.00     0.006 C 
BRANCH  12  13
ATOM     13  C   UNL     1       8.159 -22.437 -20.257  1.00  0.00     0.053 C 
BRANCH  13  14
ATOM     14  C   UNL     1       8.979 -22.429 -21.513  1.00  0.00     0.041 C 
ATOM     15  O   UNL     1      10.194 -22.763 -21.482  1.00  0.00    -0.550 OA
ATOM     16  O   UNL     1       8.387 -22.108 -22.728  1.00  0.00    -0.550 OA
ENDBRANCH  13  14
ENDBRANCH  12  13
ENDBRANCH  11  12
ENDBRANCH  10  11
ENDBRANCH   9  10
ENDBRANCH   8   9
ENDBRANCH   7   8
ENDBRANCH   6   7
ENDBRANCH   5   6
ENDBRANCH   4   5
ENDBRANCH   3   4
ENDBRANCH   2   3
ENDBRANCH   1   2
BRANCH   1  17
ATOM     17  C   UNL     1       3.849 -22.575 -15.714  1.00  0.00     0.000 C 
BRANCH  17  18
ATOM     18  C   UNL     1       2.566 -22.570 -16.569  1.00  0.00     0.000 C 
BRANCH  18  19
ATOM     19  C   UNL     1       1.304 -23.073 -15.846  1.00  0.00     0.000 C 
BRANCH  19  20
ATOM     20  C   UNL     1       0.418 -21.926 -15.326  1.00  0.00     0.000 C 
BRANCH  20  21
ATOM     21  C   UNL     1      -0.847 -21.730 -16.189  1.00  0.00     0.000 C 
BRANCH  21  22
ATOM     22  C   UNL     1      -2.146 -22.140 -15.475  1.00  0.00    -0.000 C 
BRANCH  22  23
ATOM     23  C   UNL     1      -2.186 -21.693 -14.004  1.00  0.00    -0.000 C 
BRANCH  23  24
ATOM     24  C   UNL     1      -2.883 -22.717 -13.094  1.00  0.00    -0.000 C 
BRANCH  24  25
ATOM     25  C   UNL     1      -4.272 -23.124 -13.621  1.00  0.00    -0.000 C 
BRANCH  25  26
ATOM     26  C   UNL     1      -5.374 -22.988 -12.557  1.00  0.00    -0.000 C 
BRANCH  26  27
ATOM     27  C   UNL     1      -6.502 -22.038 -12.994  1.00  0.00    -0.000 C 
BRANCH  27  28
ATOM     28  C   UNL     1      -7.278 -22.556 -14.220  1.00  0.00    -0.000 C 
BRANCH  28  29
ATOM     29  C   UNL     1      -8.539 -21.752 -14.578  1.00  0.00    -0.003 C 
ATOM     30  C   UNL     1      -8.545 -20.345 -13.979  1.00  0.00     0.004 C 
ENDBRANCH  28  29
ENDBRANCH  27  28
ENDBRANCH  26  27
ENDBRANCH  25  26
ENDBRANCH  24  25
ENDBRANCH  23  24
ENDBRANCH  22  23
ENDBRANCH  21  22
ENDBRANCH  20  21
ENDBRANCH  19  20
ENDBRANCH  18  19
ENDBRANCH  17  18
ENDBRANCH   1  17
TORSDOF 26
ENDMDL
MODEL 7
REMARK VINA RESULT:     0.247      5.324     15.543
REMARK INTER + INTRA:          -0.398
REMARK INTER:                  -0.676
REMARK INTRA:                   0.278
REMARK UNBOUND:                -1.019
REMARK SMILES CCCCCCCCCCCCCCCCCCCCCCCCCCCC(=O)[O-]
REMARK SMILES IDX 15 1 16 2 17 3 18 4 19 5 20 6 21 7 22 8 23 9 24 10 25 11
REMARK SMILES IDX 26 12 27 13 28 14 29 15 30 16 14 17 13 18 12 19 11 20 10 21
REMARK SMILES IDX 9 22 8 23 7 24 6 25 5 26 4 27 3 28 2 29 1 30
REMARK H PARENT
REMARK Flexibility Score: inf
ROOT
ATOM      1  C   UNL     1      -0.761 -21.718 -16.181  1.00  0.00     0.000 C 
ENDROOT
BRANCH   1   2
ATOM      2  C   UNL     1      -2.095 -22.365 -15.774  1.00  0.00     0.000 C 
BRANCH   2   3
ATOM      3  C   UNL     1      -3.240 -22.024 -16.743  1.00  0.00     0.000 C 
BRANCH   3   4
ATOM      4  C   UNL     1      -4.533 -21.609 -16.019  1.00  0.00     0.000 C 
BRANCH   4   5
ATOM      5  C   UNL     1      -5.537 -20.820 -16.880  1.00  0.00     0.000 C 
BRANCH   5   6
ATOM      6  C   UNL     1      -6.604 -21.719 -17.531  1.00  0.00     0.000 C 
BRANCH   6   7
ATOM      7  C   UNL     1      -7.857 -21.867 -16.651  1.00  0.00     0.000 C 
BRANCH   7   8
ATOM      8  C   UNL     1      -7.609 -22.752 -15.415  1.00  0.00     0.000 C 
BRANCH   8   9
ATOM      9  C   UNL     1      -8.924 -23.123 -14.697  1.00  0.00     0.000 C 
BRANCH   9  10
ATOM     10  C   UNL     1      -9.124 -22.385 -13.362  1.00  0.00     0.000 C 
BRANCH  10  11
ATOM     11  C   UNL     1      -7.949 -22.582 -12.389  1.00  0.00     0.000 C 
BRANCH  11  12
ATOM     12  C   UNL     1      -7.881 -21.499 -11.299  1.00  0.00     0.006 C 
BRANCH  12  13
ATOM     13  C   UNL     1      -9.032 -20.476 -11.361  1.00  0.00     0.053 C 
BRANCH  13  14
ATOM     14  C   UNL     1      -8.791 -19.392 -12.370  1.00  0.00     0.041 C 
ATOM     15  O   UNL     1      -8.821 -18.181 -12.022  1.00  0.00    -0.550 OA
ATOM     16  O   UNL     1      -8.478 -19.721 -13.683  1.00  0.00    -0.550 OA
ENDBRANCH  13  14
ENDBRANCH  12  13
ENDBRANCH  11  12
ENDBRANCH  10  11
ENDBRANCH   9  10
ENDBRANCH   8   9
ENDBRANCH   7   8
ENDBRANCH   6   7
ENDBRANCH   5   6
ENDBRANCH   4   5
ENDBRANCH   3   4
ENDBRANCH   2   3
ENDBRANCH   1   2
BRANCH   1  17
ATOM     17  C   UNL     1       0.463 -22.185 -15.366  1.00  0.00     0.000 C 
BRANCH  17  18
ATOM     18  C   UNL     1       1.828 -21.723 -15.913  1.00  0.00     0.000 C 
BRANCH  18  19
ATOM     19  C   UNL     1       3.050 -22.351 -15.220  1.00  0.00     0.000 C 
BRANCH  19  20
ATOM     20  C   UNL     1       4.297 -22.382 -16.122  1.00  0.00     0.000 C 
BRANCH  20  21
ATOM     21  C   UNL     1       5.210 -21.158 -15.897  1.00  0.00     0.000 C 
BRANCH  21  22
ATOM     22  C   UNL     1       6.672 -21.401 -16.307  1.00  0.00    -0.000 C 
BRANCH  22  23
ATOM     23  C   UNL     1       6.815 -21.855 -17.769  1.00  0.00    -0.000 C 
BRANCH  23  24
ATOM     24  C   UNL     1       8.240 -22.324 -18.105  1.00  0.00    -0.000 C 
BRANCH  24  25
ATOM     25  C   UNL     1       8.302 -23.125 -19.419  1.00  0.00    -0.000 C 
BRANCH  25  26
ATOM     26  C   UNL     1       9.606 -22.887 -20.198  1.00  0.00    -0.000 C 
BRANCH  26  27
ATOM     27  C   UNL     1      10.084 -21.427 -20.119  1.00  0.00    -0.000 C 
BRANCH  27  28
ATOM     28  C   UNL     1      11.019 -21.040 -21.280  1.00  0.00    -0.000 C 
BRANCH  28  29
ATOM     29  C   UNL     1      10.318 -20.812 -22.630  1.00  0.00    -0.003 C 
ATOM     30  C   UNL     1       8.796 -20.923 -22.544  1.00  0.00     0.004 C 
ENDBRANCH  28  29
ENDBRANCH  27  28
ENDBRANCH  26  27
ENDBRANCH  25  26
ENDBRANCH  24  25
ENDBRANCH  23  24
ENDBRANCH  22  23
ENDBRANCH  21  22
ENDBRANCH  20  21
ENDBRANCH  19  20
ENDBRANCH  18  19
ENDBRANCH  17  18
ENDBRANCH   1  17
TORSDOF 26
ENDMDL
MODEL 8
REMARK VINA RESULT:     0.429      5.748     15.946
REMARK INTER + INTRA:           0.062
REMARK INTER:                   0.578
REMARK INTRA:                  -0.515
REMARK UNBOUND:                -1.019
REMARK SMILES CCCCCCCCCCCCCCCCCCCCCCCCCCCC(=O)[O-]
REMARK SMILES IDX 15 1 16 2 17 3 18 4 19 5 20 6 21 7 22 8 23 9 24 10 25 11
REMARK SMILES IDX 26 12 27 13 28 14 29 15 30 16 14 17 13 18 12 19 11 20 10 21
REMARK SMILES IDX 9 22 8 23 7 24 6 25 5 26 4 27 3 28 2 29 1 30
REMARK H PARENT
REMARK Flexibility Score: inf
ROOT
ATOM      1  C   UNL     1      -0.819 -21.629 -16.410  1.00  0.00     0.000 C 
ENDROOT
BRANCH   1   2
ATOM      2  C   UNL     1      -2.256 -22.080 -16.101  1.00  0.00     0.000 C 
BRANCH   2   3
ATOM      3  C   UNL     1      -3.305 -21.333 -16.943  1.00  0.00     0.000 C 
BRANCH   3   4
ATOM      4  C   UNL     1      -4.729 -21.458 -16.372  1.00  0.00     0.000 C 
BRANCH   4   5
ATOM      5  C   UNL     1      -5.730 -20.404 -16.881  1.00  0.00     0.000 C 
BRANCH   5   6
ATOM      6  C   UNL     1      -6.945 -21.026 -17.596  1.00  0.00     0.000 C 
BRANCH   6   7
ATOM      7  C   UNL     1      -8.019 -21.505 -16.606  1.00  0.00     0.000 C 
BRANCH   7   8
ATOM      8  C   UNL     1      -7.441 -22.400 -15.493  1.00  0.00     0.000 C 
BRANCH   8   9
ATOM      9  C   UNL     1      -8.549 -23.123 -14.698  1.00  0.00     0.000 C 
BRANCH   9  10
ATOM     10  C   UNL     1      -9.125 -22.282 -13.545  1.00  0.00     0.000 C 
BRANCH  10  11
ATOM     11  C   UNL     1      -8.809 -22.873 -12.161  1.00  0.00     0.000 C 
BRANCH  11  12
ATOM     12  C   UNL     1      -8.369 -21.811 -11.139  1.00  0.00     0.006 C 
BRANCH  12  13
ATOM     13  C   UNL     1      -9.071 -21.928  -9.773  1.00  0.00     0.053 C 
BRANCH  13  14
ATOM     14  C   UNL     1      -8.133 -22.319  -8.669  1.00  0.00     0.041 C 
ATOM     15  O   UNL     1      -8.576 -22.849  -7.615  1.00  0.00    -0.550 OA
ATOM     16  O   UNL     1      -6.763 -22.150  -8.828  1.00  0.00    -0.550 OA
ENDBRANCH  13  14
ENDBRANCH  12  13
ENDBRANCH  11  12
ENDBRANCH  10  11
ENDBRANCH   9  10
ENDBRANCH   8   9
ENDBRANCH   7   8
ENDBRANCH   6   7
ENDBRANCH   5   6
ENDBRANCH   4   5
ENDBRANCH   3   4
ENDBRANCH   2   3
ENDBRANCH   1   2
BRANCH   1  17
ATOM     17  C   UNL     1       0.283 -22.582 -15.901  1.00  0.00     0.000 C 
BRANCH  17  18
ATOM     18  C   UNL     1       1.667 -21.933 -15.699  1.00  0.00     0.000 C 
BRANCH  18  19
ATOM     19  C   UNL     1       2.863 -22.881 -15.896  1.00  0.00     0.000 C 
BRANCH  19  20
ATOM     20  C   UNL     1       4.145 -22.143 -16.320  1.00  0.00     0.000 C 
BRANCH  20  21
ATOM     21  C   UNL     1       5.382 -23.067 -16.299  1.00  0.00     0.000 C 
BRANCH  21  22
ATOM     22  C   UNL     1       6.259 -22.944 -17.558  1.00  0.00    -0.000 C 
BRANCH  22  23
ATOM     23  C   UNL     1       7.647 -22.354 -17.263  1.00  0.00    -0.000 C 
BRANCH  23  24
ATOM     24  C   UNL     1       8.589 -22.425 -18.476  1.00  0.00    -0.000 C 
BRANCH  24  25
ATOM     25  C   UNL     1      10.063 -22.197 -18.093  1.00  0.00    -0.000 C 
BRANCH  25  26
ATOM     26  C   UNL     1      11.018 -22.356 -19.286  1.00  0.00    -0.000 C 
BRANCH  26  27
ATOM     27  C   UNL     1      10.308 -22.183 -20.639  1.00  0.00    -0.000 C 
BRANCH  27  28
ATOM     28  C   UNL     1      10.595 -20.820 -21.295  1.00  0.00    -0.000 C 
BRANCH  28  29
ATOM     29  C   UNL     1       9.562 -20.373 -22.345  1.00  0.00    -0.003 C 
ATOM     30  C   UNL     1       8.301 -21.238 -22.353  1.00  0.00     0.004 C 
ENDBRANCH  28  29
ENDBRANCH  27  28
ENDBRANCH  26  27
ENDBRANCH  25  26
ENDBRANCH  24  25
ENDBRANCH  23  24
ENDBRANCH  22  23
ENDBRANCH  21  22
ENDBRANCH  20  21
ENDBRANCH  19  20
ENDBRANCH  18  19
ENDBRANCH  17  18
ENDBRANCH   1  17
TORSDOF 26
ENDMDL
