MODEL 1
REMARK VINA RESULT:    -4.294      0.000      0.000
REMARK INTER + INTRA:          -9.453
REMARK INTER:                  -7.557
REMARK INTRA:                  -1.896
REMARK UNBOUND:                -1.896
REMARK SMILES CCCCCCCCCCCCCCC(=O)[O-]
REMARK SMILES IDX 9 1 10 2 11 3 12 4 13 5 14 6 15 7 16 8 17 9 8 10 7 11 6 12
REMARK SMILES IDX 5 13 4 14 3 15 2 16 1 17
REMARK H PARENT
REMARK Flexibility Score: inf
ROOT
ATOM      1  C   UNL     1      56.870  13.361  91.965  1.00  0.00     0.000 C 
ENDROOT
BRANCH   1   2
ATOM      2  C   UNL     1      57.401  14.332  90.896  1.00  0.00     0.000 C 
BRANCH   2   3
ATOM      3  C   UNL     1      57.369  13.799  89.448  1.00  0.00     0.000 C 
BRANCH   3   4
ATOM      4  C   UNL     1      56.430  12.603  89.215  1.00  0.00     0.000 C 
BRANCH   4   5
ATOM      5  C   UNL     1      57.141  11.406  88.560  1.00  0.00     0.006 C 
BRANCH   5   6
ATOM      6  C   UNL     1      58.597  11.274  89.026  1.00  0.00     0.053 C 
BRANCH   6   7
ATOM      7  C   UNL     1      58.751  10.206  90.065  1.00  0.00     0.041 C 
ATOM      8  O   UNL     1      57.743   9.579  90.486  1.00  0.00    -0.550 OA
ATOM      9  O   UNL     1      60.014   9.876  90.542  1.00  0.00    -0.550 OA
ENDBRANCH   6   7
ENDBRANCH   5   6
ENDBRANCH   4   5
ENDBRANCH   3   4
ENDBRANCH   2   3
ENDBRANCH   1   2
BRANCH   1  10
ATOM     10  C   UNL     1      57.995  12.675  92.758  1.00  0.00     0.000 C 
BRANCH  10  11
ATOM     11  C   UNL     1      59.394  13.111  92.292  1.00  0.00    -0.000 C 
BRANCH  11  12
ATOM     12  C   UNL     1      60.200  13.794  93.410  1.00  0.00    -0.000 C 
BRANCH  12  13
ATOM     13  C   UNL     1      59.698  15.215  93.727  1.00  0.00    -0.000 C 
BRANCH  13  14
ATOM     14  C   UNL     1      59.769  15.617  95.211  1.00  0.00    -0.000 C 
BRANCH  14  15
ATOM     15  C   UNL     1      59.105  14.592  96.143  1.00  0.00    -0.000 C 
BRANCH  15  16
ATOM     16  C   UNL     1      57.590  14.544  95.915  1.00  0.00    -0.003 C 
ATOM     17  C   UNL     1      57.004  13.212  96.376  1.00  0.00     0.004 C 
ENDBRANCH  15  16
ENDBRANCH  14  15
ENDBRANCH  13  14
ENDBRANCH  12  13
ENDBRANCH  11  12
ENDBRANCH  10  11
ENDBRANCH   1  10
TORSDOF 13
ENDMDL
MODEL 2
REMARK VINA RESULT:    -4.285      2.234      5.700
REMARK INTER + INTRA:          -9.438
REMARK INTER:                  -7.470
REMARK INTRA:                  -1.968
REMARK UNBOUND:                -1.896
REMARK SMILES CCCCCCCCCCCCCCC(=O)[O-]
REMARK SMILES IDX 9 1 10 2 11 3 12 4 13 5 14 6 15 7 16 8 17 9 8 10 7 11 6 12
REMARK SMILES IDX 5 13 4 14 3 15 2 16 1 17
REMARK H PARENT
REMARK Flexibility Score: inf
ROOT
ATOM      1  C   UNL     1      58.354  13.583  92.020  1.00  0.00     0.000 C 
ENDROOT
BRANCH   1   2
ATOM      2  C   UNL     1      58.553  14.326  93.352  1.00  0.00     0.000 C 
BRANCH   2   3
ATOM      3  C   UNL     1      57.365  15.201  93.802  1.00  0.00     0.000 C 
BRANCH   3   4
ATOM      4  C   UNL     1      56.272  14.460  94.592  1.00  0.00     0.000 C 
BRANCH   4   5
ATOM      5  C   UNL     1      55.089  14.027  93.710  1.00  0.00     0.006 C 
BRANCH   5   6
ATOM      6  C   UNL     1      54.514  12.671  94.140  1.00  0.00     0.053 C 
BRANCH   6   7
ATOM      7  C   UNL     1      55.543  11.585  94.065  1.00  0.00     0.041 C 
ATOM      8  O   UNL     1      56.032  11.250  92.954  1.00  0.00    -0.550 OA
ATOM      9  O   UNL     1      55.990  10.969  95.227  1.00  0.00    -0.550 OA
ENDBRANCH   6   7
ENDBRANCH   5   6
ENDBRANCH   4   5
ENDBRANCH   3   4
ENDBRANCH   2   3
ENDBRANCH   1   2
BRANCH   1  10
ATOM     10  C   UNL     1      58.732  14.438  90.798  1.00  0.00     0.000 C 
BRANCH  10  11
ATOM     11  C   UNL     1      57.666  14.386  89.691  1.00  0.00    -0.000 C 
BRANCH  11  12
ATOM     12  C   UNL     1      56.497  13.450  90.043  1.00  0.00    -0.000 C 
BRANCH  12  13
ATOM     13  C   UNL     1      56.175  12.446  88.920  1.00  0.00    -0.000 C 
BRANCH  13  14
ATOM     14  C   UNL     1      57.271  11.400  88.646  1.00  0.00    -0.000 C 
BRANCH  14  15
ATOM     15  C   UNL     1      57.440  10.392  89.794  1.00  0.00    -0.000 C 
BRANCH  15  16
ATOM     16  C   UNL     1      58.898  10.335  90.263  1.00  0.00    -0.003 C 
ATOM     17  C   UNL     1      59.804  11.163  89.354  1.00  0.00     0.004 C 
ENDBRANCH  15  16
ENDBRANCH  14  15
ENDBRANCH  13  14
ENDBRANCH  12  13
ENDBRANCH  11  12
ENDBRANCH  10  11
ENDBRANCH   1  10
TORSDOF 13
ENDMDL
MODEL 3
REMARK VINA RESULT:    -4.251      2.492      5.033
REMARK INTER + INTRA:          -9.377
REMARK INTER:                  -7.272
REMARK INTRA:                  -2.105
REMARK UNBOUND:                -1.896
REMARK SMILES CCCCCCCCCCCCCCC(=O)[O-]
REMARK SMILES IDX 9 1 10 2 11 3 12 4 13 5 14 6 15 7 16 8 17 9 8 10 7 11 6 12
REMARK SMILES IDX 5 13 4 14 3 15 2 16 1 17
REMARK H PARENT
REMARK Flexibility Score: inf
ROOT
ATOM      1  C   UNL     1      58.251  10.459  90.169  1.00  0.00     0.000 C 
ENDROOT
BRANCH   1   2
ATOM      2  C   UNL     1      59.241  11.034  91.198  1.00  0.00     0.000 C 
BRANCH   2   3
ATOM      3  C   UNL     1      58.994  12.504  91.597  1.00  0.00     0.000 C 
BRANCH   3   4
ATOM      4  C   UNL     1      58.310  12.702  92.961  1.00  0.00     0.000 C 
BRANCH   4   5
ATOM      5  C   UNL     1      56.776  12.736  92.860  1.00  0.00     0.006 C 
BRANCH   5   6
ATOM      6  C   UNL     1      56.131  11.474  93.447  1.00  0.00     0.053 C 
BRANCH   6   7
ATOM      7  C   UNL     1      55.131  10.875  92.505  1.00  0.00     0.041 C 
ATOM      8  O   UNL     1      54.165  11.564  92.082  1.00  0.00    -0.550 OA
ATOM      9  O   UNL     1      55.286   9.565  92.067  1.00  0.00    -0.550 OA
ENDBRANCH   6   7
ENDBRANCH   5   6
ENDBRANCH   4   5
ENDBRANCH   3   4
ENDBRANCH   2   3
ENDBRANCH   1   2
BRANCH   1  10
ATOM     10  C   UNL     1      58.249  11.239  88.843  1.00  0.00     0.000 C 
BRANCH  10  11
ATOM     11  C   UNL     1      56.828  11.495  88.314  1.00  0.00    -0.000 C 
BRANCH  11  12
ATOM     12  C   UNL     1      56.022  12.437  89.225  1.00  0.00    -0.000 C 
BRANCH  12  13
ATOM     13  C   UNL     1      56.149  13.917  88.817  1.00  0.00    -0.000 C 
BRANCH  13  14
ATOM     14  C   UNL     1      56.536  14.877  89.957  1.00  0.00    -0.000 C 
BRANCH  14  15
ATOM     15  C   UNL     1      57.977  15.399  89.839  1.00  0.00    -0.000 C 
BRANCH  15  16
ATOM     16  C   UNL     1      58.328  16.311  91.019  1.00  0.00    -0.003 C 
ATOM     17  C   UNL     1      59.794  16.160  91.417  1.00  0.00     0.004 C 
ENDBRANCH  15  16
ENDBRANCH  14  15
ENDBRANCH  13  14
ENDBRANCH  12  13
ENDBRANCH  11  12
ENDBRANCH  10  11
ENDBRANCH   1  10
TORSDOF 13
ENDMDL
MODEL 4
REMARK VINA RESULT:    -4.228      3.185      6.420
REMARK INTER + INTRA:          -9.337
REMARK INTER:                  -7.455
REMARK INTRA:                  -1.882
REMARK UNBOUND:                -1.896
REMARK SMILES CCCCCCCCCCCCCCC(=O)[O-]
REMARK SMILES IDX 9 1 10 2 11 3 12 4 13 5 14 6 15 7 16 8 17 9 8 10 7 11 6 12
REMARK SMILES IDX 5 13 4 14 3 15 2 16 1 17
REMARK H PARENT
REMARK Flexibility Score: inf
ROOT
ATOM      1  C   UNL     1      58.042  14.036  90.546  1.00  0.00     0.000 C 
ENDROOT
BRANCH   1   2
ATOM      2  C   UNL     1      57.498  13.451  91.861  1.00  0.00     0.000 C 
BRANCH   2   3
ATOM      3  C   UNL     1      58.566  12.891  92.824  1.00  0.00     0.000 C 
BRANCH   3   4
ATOM      4  C   UNL     1      59.793  13.795  93.034  1.00  0.00     0.000 C 
BRANCH   4   5
ATOM      5  C   UNL     1      59.493  15.011  93.926  1.00  0.00     0.006 C 
BRANCH   5   6
ATOM      6  C   UNL     1      60.224  16.273  93.447  1.00  0.00     0.053 C 
BRANCH   6   7
ATOM      7  C   UNL     1      61.616  16.347  93.996  1.00  0.00     0.041 C 
ATOM      8  O   UNL     1      61.897  15.791  95.091  1.00  0.00    -0.550 OA
ATOM      9  O   UNL     1      62.612  16.999  93.279  1.00  0.00    -0.550 OA
ENDBRANCH   6   7
ENDBRANCH   5   6
ENDBRANCH   4   5
ENDBRANCH   3   4
ENDBRANCH   2   3
ENDBRANCH   1   2
BRANCH   1  10
ATOM     10  C   UNL     1      56.943  14.257  89.493  1.00  0.00     0.000 C 
BRANCH  10  11
ATOM     11  C   UNL     1      55.988  13.057  89.380  1.00  0.00    -0.000 C 
BRANCH  11  12
ATOM     12  C   UNL     1      56.298  12.171  88.160  1.00  0.00    -0.000 C 
BRANCH  12  13
ATOM     13  C   UNL     1      57.386  11.119  88.446  1.00  0.00    -0.000 C 
BRANCH  13  14
ATOM     14  C   UNL     1      57.184  10.306  89.738  1.00  0.00    -0.000 C 
BRANCH  14  15
ATOM     15  C   UNL     1      58.507   9.931  90.425  1.00  0.00    -0.000 C 
BRANCH  15  16
ATOM     16  C   UNL     1      59.654  10.815  89.923  1.00  0.00    -0.003 C 
ATOM     17  C   UNL     1      60.895  10.658  90.798  1.00  0.00     0.004 C 
ENDBRANCH  15  16
ENDBRANCH  14  15
ENDBRANCH  13  14
ENDBRANCH  12  13
ENDBRANCH  11  12
ENDBRANCH  10  11
ENDBRANCH   1  10
TORSDOF 13
ENDMDL
MODEL 5
REMARK VINA RESULT:    -4.226      1.906      2.689
REMARK INTER + INTRA:          -9.333
REMARK INTER:                  -7.749
REMARK INTRA:                  -1.584
REMARK UNBOUND:                -1.896
REMARK SMILES CCCCCCCCCCCCCCC(=O)[O-]
REMARK SMILES IDX 9 1 10 2 11 3 12 4 13 5 14 6 15 7 16 8 17 9 8 10 7 11 6 12
REMARK SMILES IDX 5 13 4 14 3 15 2 16 1 17
REMARK H PARENT
REMARK Flexibility Score: inf
ROOT
ATOM      1  C   UNL     1      59.696  16.394  90.048  1.00  0.00     0.000 C 
ENDROOT
BRANCH   1   2
ATOM      2  C   UNL     1      58.669  15.465  89.377  1.00  0.00     0.000 C 
BRANCH   2   3
ATOM      3  C   UNL     1      58.615  14.029  89.936  1.00  0.00     0.000 C 
BRANCH   3   4
ATOM      4  C   UNL     1      57.328  13.251  89.613  1.00  0.00     0.000 C 
BRANCH   4   5
ATOM      5  C   UNL     1      57.604  11.833  89.086  1.00  0.00     0.006 C 
BRANCH   5   6
ATOM      6  C   UNL     1      59.080  11.438  89.234  1.00  0.00     0.053 C 
BRANCH   6   7
ATOM      7  C   UNL     1      59.255  10.307  90.201  1.00  0.00     0.041 C 
ATOM      8  O   UNL     1      58.373   9.413  90.298  1.00  0.00    -0.550 OA
ATOM      9  O   UNL     1      60.410  10.220  90.968  1.00  0.00    -0.550 OA
ENDBRANCH   6   7
ENDBRANCH   5   6
ENDBRANCH   4   5
ENDBRANCH   3   4
ENDBRANCH   2   3
ENDBRANCH   1   2
BRANCH   1  10
ATOM     10  C   UNL     1      59.040  17.582  90.772  1.00  0.00     0.000 C 
BRANCH  10  11
ATOM     11  C   UNL     1      59.857  18.054  91.987  1.00  0.00    -0.000 C 
BRANCH  11  12
ATOM     12  C   UNL     1      60.648  16.909  92.645  1.00  0.00    -0.000 C 
BRANCH  12  13
ATOM     13  C   UNL     1      60.412  16.815  94.164  1.00  0.00    -0.000 C 
BRANCH  13  14
ATOM     14  C   UNL     1      60.212  15.389  94.707  1.00  0.00    -0.000 C 
BRANCH  14  15
ATOM     15  C   UNL     1      58.732  15.018  94.888  1.00  0.00    -0.000 C 
BRANCH  15  16
ATOM     16  C   UNL     1      58.133  14.492  93.579  1.00  0.00    -0.003 C 
ATOM     17  C   UNL     1      57.016  15.404  93.077  1.00  0.00     0.004 C 
ENDBRANCH  15  16
ENDBRANCH  14  15
ENDBRANCH  13  14
ENDBRANCH  12  13
ENDBRANCH  11  12
ENDBRANCH  10  11
ENDBRANCH   1  10
TORSDOF 13
ENDMDL
MODEL 6
REMARK VINA RESULT:    -4.210      2.573      5.174
REMARK INTER + INTRA:          -9.305
REMARK INTER:                  -7.417
REMARK INTRA:                  -1.888
REMARK UNBOUND:                -1.896
REMARK SMILES CCCCCCCCCCCCCCC(=O)[O-]
REMARK SMILES IDX 9 1 10 2 11 3 12 4 13 5 14 6 15 7 16 8 17 9 8 10 7 11 6 12
REMARK SMILES IDX 5 13 4 14 3 15 2 16 1 17
REMARK H PARENT
REMARK Flexibility Score: inf
ROOT
ATOM      1  C   UNL     1      57.064  14.432  94.619  1.00  0.00     0.000 C 
ENDROOT
BRANCH   1   2
ATOM      2  C   UNL     1      55.680  14.771  94.040  1.00  0.00     0.000 C 
BRANCH   2   3
ATOM      3  C   UNL     1      54.683  13.595  93.986  1.00  0.00     0.000 C 
BRANCH   3   4
ATOM      4  C   UNL     1      54.112  13.288  92.591  1.00  0.00     0.000 C 
BRANCH   4   5
ATOM      5  C   UNL     1      54.643  11.968  92.006  1.00  0.00     0.006 C 
BRANCH   5   6
ATOM      6  C   UNL     1      55.484  11.183  93.021  1.00  0.00     0.053 C 
BRANCH   6   7
ATOM      7  C   UNL     1      54.812   9.907  93.427  1.00  0.00     0.041 C 
ATOM      8  O   UNL     1      54.573   9.015  92.571  1.00  0.00    -0.550 OA
ATOM      9  O   UNL     1      54.482   9.688  94.759  1.00  0.00    -0.550 OA
ENDBRANCH   6   7
ENDBRANCH   5   6
ENDBRANCH   4   5
ENDBRANCH   3   4
ENDBRANCH   2   3
ENDBRANCH   1   2
BRANCH   1  10
ATOM     10  C   UNL     1      58.196  14.595  93.591  1.00  0.00     0.000 C 
BRANCH  10  11
ATOM     11  C   UNL     1      57.676  14.630  92.144  1.00  0.00    -0.000 C 
BRANCH  11  12
ATOM     12  C   UNL     1      58.042  13.360  91.356  1.00  0.00    -0.000 C 
BRANCH  12  13
ATOM     13  C   UNL     1      57.430  13.336  89.943  1.00  0.00    -0.000 C 
BRANCH  13  14
ATOM     14  C   UNL     1      57.678  12.042  89.146  1.00  0.00    -0.000 C 
BRANCH  14  15
ATOM     15  C   UNL     1      59.054  11.419  89.427  1.00  0.00    -0.000 C 
BRANCH  15  16
ATOM     16  C   UNL     1      58.917  10.134  90.252  1.00  0.00    -0.003 C 
ATOM     17  C   UNL     1      57.475   9.633  90.257  1.00  0.00     0.004 C 
ENDBRANCH  15  16
ENDBRANCH  14  15
ENDBRANCH  13  14
ENDBRANCH  12  13
ENDBRANCH  11  12
ENDBRANCH  10  11
ENDBRANCH   1  10
TORSDOF 13
ENDMDL
MODEL 7
REMARK VINA RESULT:    -4.210      3.191      6.671
REMARK INTER + INTRA:          -9.305
REMARK INTER:                  -7.722
REMARK INTRA:                  -1.583
REMARK UNBOUND:                -1.896
REMARK SMILES CCCCCCCCCCCCCCC(=O)[O-]
REMARK SMILES IDX 9 1 10 2 11 3 12 4 13 5 14 6 15 7 16 8 17 9 8 10 7 11 6 12
REMARK SMILES IDX 5 13 4 14 3 15 2 16 1 17
REMARK H PARENT
REMARK Flexibility Score: inf
ROOT
ATOM      1  C   UNL     1      57.785  12.769  93.375  1.00  0.00     0.000 C 
ENDROOT
BRANCH   1   2
ATOM      2  C   UNL     1      56.702  13.860  93.456  1.00  0.00     0.000 C 
BRANCH   2   3
ATOM      3  C   UNL     1      56.790  14.784  94.688  1.00  0.00     0.000 C 
BRANCH   3   4
ATOM      4  C   UNL     1      57.443  14.154  95.930  1.00  0.00     0.000 C 
BRANCH   4   5
ATOM      5  C   UNL     1      58.565  15.025  96.521  1.00  0.00     0.006 C 
BRANCH   5   6
ATOM      6  C   UNL     1      59.786  15.100  95.594  1.00  0.00     0.053 C 
BRANCH   6   7
ATOM      7  C   UNL     1      60.382  16.474  95.575  1.00  0.00     0.041 C 
ATOM      8  O   UNL     1      60.499  17.101  94.489  1.00  0.00    -0.550 OA
ATOM      9  O   UNL     1      60.776  17.078  96.763  1.00  0.00    -0.550 OA
ENDBRANCH   6   7
ENDBRANCH   5   6
ENDBRANCH   4   5
ENDBRANCH   3   4
ENDBRANCH   2   3
ENDBRANCH   1   2
BRANCH   1  10
ATOM     10  C   UNL     1      58.697  12.926  92.146  1.00  0.00     0.000 C 
BRANCH  10  11
ATOM     11  C   UNL     1      58.437  14.236  91.384  1.00  0.00    -0.000 C 
BRANCH  11  12
ATOM     12  C   UNL     1      58.043  13.994  89.916  1.00  0.00    -0.000 C 
BRANCH  12  13
ATOM     13  C   UNL     1      56.587  13.518  89.759  1.00  0.00    -0.000 C 
BRANCH  13  14
ATOM     14  C   UNL     1      56.371  12.414  88.708  1.00  0.00    -0.000 C 
BRANCH  14  15
ATOM     15  C   UNL     1      57.484  11.354  88.714  1.00  0.00    -0.000 C 
BRANCH  15  16
ATOM     16  C   UNL     1      57.263  10.333  89.836  1.00  0.00    -0.003 C 
ATOM     17  C   UNL     1      58.587   9.745  90.316  1.00  0.00     0.004 C 
ENDBRANCH  15  16
ENDBRANCH  14  15
ENDBRANCH  13  14
ENDBRANCH  12  13
ENDBRANCH  11  12
ENDBRANCH  10  11
ENDBRANCH   1  10
TORSDOF 13
ENDMDL
MODEL 8
REMARK VINA RESULT:    -4.207      3.311      5.805
REMARK INTER + INTRA:          -9.300
REMARK INTER:                  -7.537
REMARK INTRA:                  -1.764
REMARK UNBOUND:                -1.896
REMARK SMILES CCCCCCCCCCCCCCC(=O)[O-]
REMARK SMILES IDX 9 1 10 2 11 3 12 4 13 5 14 6 15 7 16 8 17 9 8 10 7 11 6 12
REMARK SMILES IDX 5 13 4 14 3 15 2 16 1 17
REMARK H PARENT
REMARK Flexibility Score: inf
ROOT
ATOM      1  C   UNL     1      58.329  13.230  92.847  1.00  0.00     0.000 C 
ENDROOT
BRANCH   1   2
ATOM      2  C   UNL     1      57.217  12.342  93.432  1.00  0.00     0.000 C 
BRANCH   2   3
ATOM      3  C   UNL     1      55.835  12.491  92.763  1.00  0.00     0.000 C 
BRANCH   3   4
ATOM      4  C   UNL     1      54.848  11.344  93.041  1.00  0.00     0.000 C 
BRANCH   4   5
ATOM      5  C   UNL     1      55.177  10.574  94.331  1.00  0.00     0.006 C 
BRANCH   5   6
ATOM      6  C   UNL     1      54.543   9.177  94.348  1.00  0.00     0.053 C 
BRANCH   6   7
ATOM      7  C   UNL     1      54.545   8.585  95.725  1.00  0.00     0.041 C 
ATOM      8  O   UNL     1      54.448   9.330  96.736  1.00  0.00    -0.550 OA
ATOM      9  O   UNL     1      54.618   7.207  95.889  1.00  0.00    -0.550 OA
ENDBRANCH   6   7
ENDBRANCH   5   6
ENDBRANCH   4   5
ENDBRANCH   3   4
ENDBRANCH   2   3
ENDBRANCH   1   2
BRANCH   1  10
ATOM     10  C   UNL     1      57.814  14.605  92.387  1.00  0.00     0.000 C 
BRANCH  10  11
ATOM     11  C   UNL     1      58.360  15.006  91.006  1.00  0.00    -0.000 C 
BRANCH  11  12
ATOM     12  C   UNL     1      58.560  13.794  90.079  1.00  0.00    -0.000 C 
BRANCH  12  13
ATOM     13  C   UNL     1      57.255  13.339  89.400  1.00  0.00    -0.000 C 
BRANCH  13  14
ATOM     14  C   UNL     1      57.240  11.872  88.932  1.00  0.00    -0.000 C 
BRANCH  14  15
ATOM     15  C   UNL     1      58.594  11.170  89.114  1.00  0.00    -0.000 C 
BRANCH  15  16
ATOM     16  C   UNL     1      58.530  10.141  90.248  1.00  0.00    -0.003 C 
ATOM     17  C   UNL     1      57.087   9.758  90.565  1.00  0.00     0.004 C 
ENDBRANCH  15  16
ENDBRANCH  14  15
ENDBRANCH  13  14
ENDBRANCH  12  13
ENDBRANCH  11  12
ENDBRANCH  10  11
ENDBRANCH   1  10
TORSDOF 13
ENDMDL
MODEL 9
REMARK VINA RESULT:    -4.188      1.978      2.972
REMARK INTER + INTRA:          -9.267
REMARK INTER:                  -7.081
REMARK INTRA:                  -2.185
REMARK UNBOUND:                -1.896
REMARK SMILES CCCCCCCCCCCCCCC(=O)[O-]
REMARK SMILES IDX 9 1 10 2 11 3 12 4 13 5 14 6 15 7 16 8 17 9 8 10 7 11 6 12
REMARK SMILES IDX 5 13 4 14 3 15 2 16 1 17
REMARK H PARENT
REMARK Flexibility Score: inf
ROOT
ATOM      1  C   UNL     1      57.727  14.910  90.214  1.00  0.00     0.000 C 
ENDROOT
BRANCH   1   2
ATOM      2  C   UNL     1      56.263  14.628  89.833  1.00  0.00     0.000 C 
BRANCH   2   3
ATOM      3  C   UNL     1      56.053  13.469  88.837  1.00  0.00     0.000 C 
BRANCH   3   4
ATOM      4  C   UNL     1      56.380  12.070  89.387  1.00  0.00     0.000 C 
BRANCH   4   5
ATOM      5  C   UNL     1      57.385  11.304  88.510  1.00  0.00     0.006 C 
BRANCH   5   6
ATOM      6  C   UNL     1      58.803  11.335  89.096  1.00  0.00     0.053 C 
BRANCH   6   7
ATOM      7  C   UNL     1      58.989  10.285  90.149  1.00  0.00     0.041 C 
ATOM      8  O   UNL     1      58.226   9.284  90.190  1.00  0.00    -0.550 OA
ATOM      9  O   UNL     1      60.030  10.395  91.064  1.00  0.00    -0.550 OA
ENDBRANCH   6   7
ENDBRANCH   5   6
ENDBRANCH   4   5
ENDBRANCH   3   4
ENDBRANCH   2   3
ENDBRANCH   1   2
BRANCH   1  10
ATOM     10  C   UNL     1      57.978  14.814  91.728  1.00  0.00     0.000 C 
BRANCH  10  11
ATOM     11  C   UNL     1      58.808  13.577  92.110  1.00  0.00    -0.000 C 
BRANCH  11  12
ATOM     12  C   UNL     1      58.136  12.732  93.206  1.00  0.00    -0.000 C 
BRANCH  12  13
ATOM     13  C   UNL     1      56.891  11.979  92.701  1.00  0.00    -0.000 C 
BRANCH  13  14
ATOM     14  C   UNL     1      55.713  11.927  93.692  1.00  0.00    -0.000 C 
BRANCH  14  15
ATOM     15  C   UNL     1      54.508  12.764  93.236  1.00  0.00    -0.000 C 
BRANCH  15  16
ATOM     16  C   UNL     1      54.724  14.249  93.548  1.00  0.00    -0.003 C 
ATOM     17  C   UNL     1      53.882  15.133  92.631  1.00  0.00     0.004 C 
ENDBRANCH  15  16
ENDBRANCH  14  15
ENDBRANCH  13  14
ENDBRANCH  12  13
ENDBRANCH  11  12
ENDBRANCH  10  11
ENDBRANCH   1  10
TORSDOF 13
ENDMDL
