MODEL 1
REMARK VINA RESULT:    -4.649      0.000      0.000
REMARK INTER + INTRA:         -10.006
REMARK INTER:                  -8.725
REMARK INTRA:                  -1.280
REMARK UNBOUND:                -1.280
REMARK SMILES CCCCCCCCC=CCCCCCCCC(=O)[O-]
REMARK SMILES IDX 10 1 9 2 11 3 12 4 13 5 14 6 15 7 16 8 17 9 18 10 19 11
REMARK SMILES IDX 20 12 8 13 7 14 6 15 5 16 4 17 3 18 2 19 1 20
REMARK H PARENT
REMARK Flexibility Score: inf
ROOT
ATOM      1  C   UNL     1      13.731  -0.998 -20.577  1.00  0.00    -0.031 C 
ATOM      2  C   UNL     1      13.226   0.170 -21.018  1.00  0.00    -0.031 C 
ENDROOT
BRANCH   1   3
ATOM      3  C   UNL     1      14.018  -1.338 -19.133  1.00  0.00     0.027 C 
BRANCH   3   4
ATOM      4  C   UNL     1      12.763  -1.852 -18.412  1.00  0.00     0.004 C 
BRANCH   4   5
ATOM      5  C   UNL     1      12.064  -0.753 -17.596  1.00  0.00     0.000 C 
BRANCH   5   6
ATOM      6  C   UNL     1      10.800  -0.259 -18.310  1.00  0.00     0.000 C 
BRANCH   6   7
ATOM      7  C   UNL     1       9.970  -1.437 -18.838  1.00  0.00     0.000 C 
BRANCH   7   8
ATOM      8  C   UNL     1       9.874  -1.467 -20.375  1.00  0.00     0.006 C 
BRANCH   8   9
ATOM      9  C   UNL     1      10.200  -2.837 -20.995  1.00  0.00     0.053 C 
BRANCH   9  10
ATOM     10  C   UNL     1      10.146  -2.823 -22.492  1.00  0.00     0.041 C 
ATOM     11  O   UNL     1       9.713  -3.823 -23.122  1.00  0.00    -0.550 OA
ATOM     12  O   UNL     1      10.547  -1.692 -23.192  1.00  0.00    -0.550 OA
ENDBRANCH   9  10
ENDBRANCH   8   9
ENDBRANCH   7   8
ENDBRANCH   6   7
ENDBRANCH   5   6
ENDBRANCH   4   5
ENDBRANCH   3   4
ENDBRANCH   1   3
BRANCH   2  13
ATOM     13  C   UNL     1      12.889   1.358 -20.151  1.00  0.00     0.027 C 
BRANCH  13  14
ATOM     14  C   UNL     1      13.247   2.681 -20.839  1.00  0.00     0.004 C 
BRANCH  14  15
ATOM     15  C   UNL     1      13.257   3.840 -19.831  1.00  0.00     0.000 C 
BRANCH  15  16
ATOM     16  C   UNL     1      13.562   5.196 -20.503  1.00  0.00     0.000 C 
BRANCH  16  17
ATOM     17  C   UNL     1      15.064   5.507 -20.611  1.00  0.00    -0.000 C 
BRANCH  17  18
ATOM     18  C   UNL     1      15.449   6.124 -21.967  1.00  0.00    -0.000 C 
BRANCH  18  19
ATOM     19  C   UNL     1      16.783   5.583 -22.502  1.00  0.00    -0.003 C 
ATOM     20  C   UNL     1      16.597   4.502 -23.566  1.00  0.00     0.004 C 
ENDBRANCH  18  19
ENDBRANCH  17  18
ENDBRANCH  16  17
ENDBRANCH  15  16
ENDBRANCH  14  15
ENDBRANCH  13  14
ENDBRANCH   2  13
TORSDOF 15
ENDMDL
MODEL 2
REMARK VINA RESULT:    -4.398      3.269      7.942
REMARK INTER + INTRA:          -9.534
REMARK INTER:                  -8.372
REMARK INTRA:                  -1.163
REMARK UNBOUND:                -1.280
REMARK SMILES CCCCCCCCC=CCCCCCCCC(=O)[O-]
REMARK SMILES IDX 10 1 9 2 11 3 12 4 13 5 14 6 15 7 16 8 17 9 18 10 19 11
REMARK SMILES IDX 20 12 8 13 7 14 6 15 5 16 4 17 3 18 2 19 1 20
REMARK H PARENT
REMARK Flexibility Score: inf
ROOT
ATOM      1  C   UNL     1      13.172   0.179 -21.047  1.00  0.00    -0.031 C 
ATOM      2  C   UNL     1      13.727  -0.980 -20.645  1.00  0.00    -0.031 C 
ENDROOT
BRANCH   1   3
ATOM      3  C   UNL     1      12.861   1.357 -20.153  1.00  0.00     0.027 C 
BRANCH   3   4
ATOM      4  C   UNL     1      13.193   2.691 -20.838  1.00  0.00     0.004 C 
BRANCH   4   5
ATOM      5  C   UNL     1      13.178   3.874 -19.857  1.00  0.00     0.000 C 
BRANCH   5   6
ATOM      6  C   UNL     1      13.408   5.200 -20.592  1.00  0.00     0.000 C 
BRANCH   6   7
ATOM      7  C   UNL     1      14.868   5.656 -20.460  1.00  0.00     0.000 C 
BRANCH   7   8
ATOM      8  C   UNL     1      15.548   5.904 -21.819  1.00  0.00     0.006 C 
BRANCH   8   9
ATOM      9  C   UNL     1      16.972   5.329 -21.919  1.00  0.00     0.053 C 
BRANCH   9  10
ATOM     10  C   UNL     1      17.471   5.260 -23.331  1.00  0.00     0.041 C 
ATOM     11  O   UNL     1      16.702   4.899 -24.260  1.00  0.00    -0.550 OA
ATOM     12  O   UNL     1      18.779   5.623 -23.624  1.00  0.00    -0.550 OA
ENDBRANCH   9  10
ENDBRANCH   8   9
ENDBRANCH   7   8
ENDBRANCH   6   7
ENDBRANCH   5   6
ENDBRANCH   4   5
ENDBRANCH   3   4
ENDBRANCH   1   3
BRANCH   2  13
ATOM     13  C   UNL     1      14.106  -1.320 -19.224  1.00  0.00     0.027 C 
BRANCH  13  14
ATOM     14  C   UNL     1      12.904  -1.846 -18.429  1.00  0.00     0.004 C 
BRANCH  14  15
ATOM     15  C   UNL     1      12.126  -0.690 -17.781  1.00  0.00     0.000 C 
BRANCH  15  16
ATOM     16  C   UNL     1      10.599  -0.860 -17.926  1.00  0.00     0.000 C 
BRANCH  16  17
ATOM     17  C   UNL     1      10.113  -0.840 -19.385  1.00  0.00    -0.000 C 
BRANCH  17  18
ATOM     18  C   UNL     1       9.787  -2.243 -19.925  1.00  0.00    -0.000 C 
BRANCH  18  19
ATOM     19  C   UNL     1      10.514  -2.551 -21.242  1.00  0.00    -0.003 C 
ATOM     20  C   UNL     1       9.672  -3.395 -22.198  1.00  0.00     0.004 C 
ENDBRANCH  18  19
ENDBRANCH  17  18
ENDBRANCH  16  17
ENDBRANCH  15  16
ENDBRANCH  14  15
ENDBRANCH  13  14
ENDBRANCH   2  13
TORSDOF 15
ENDMDL
MODEL 3
REMARK VINA RESULT:    -4.357      1.364      2.406
REMARK INTER + INTRA:          -9.458
REMARK INTER:                  -7.867
REMARK INTRA:                  -1.591
REMARK UNBOUND:                -1.280
REMARK SMILES CCCCCCCCC=CCCCCCCCC(=O)[O-]
REMARK SMILES IDX 10 1 9 2 11 3 12 4 13 5 14 6 15 7 16 8 17 9 18 10 19 11
REMARK SMILES IDX 20 12 8 13 7 14 6 15 5 16 4 17 3 18 2 19 1 20
REMARK H PARENT
REMARK Flexibility Score: inf
ROOT
ATOM      1  C   UNL     1      12.466   1.020 -16.795  1.00  0.00    -0.031 C 
ATOM      2  C   UNL     1      12.911   2.077 -17.502  1.00  0.00    -0.031 C 
ENDROOT
BRANCH   1   3
ATOM      3  C   UNL     1      11.852  -0.230 -17.381  1.00  0.00     0.027 C 
BRANCH   3   4
ATOM      4  C   UNL     1      12.836  -1.409 -17.357  1.00  0.00     0.004 C 
BRANCH   4   5
ATOM      5  C   UNL     1      13.074  -2.003 -18.755  1.00  0.00     0.000 C 
BRANCH   5   6
ATOM      6  C   UNL     1      14.158  -1.220 -19.506  1.00  0.00     0.000 C 
BRANCH   6   7
ATOM      7  C   UNL     1      13.686  -0.844 -20.918  1.00  0.00     0.000 C 
BRANCH   7   8
ATOM      8  C   UNL     1      12.179  -0.535 -20.988  1.00  0.00     0.006 C 
BRANCH   8   9
ATOM      9  C   UNL     1      11.420  -1.361 -22.042  1.00  0.00     0.053 C 
BRANCH   9  10
ATOM     10  C   UNL     1      10.389  -2.264 -21.437  1.00  0.00     0.041 C 
ATOM     11  O   UNL     1      10.063  -3.334 -22.016  1.00  0.00    -0.550 OA
ATOM     12  O   UNL     1       9.808  -1.939 -20.218  1.00  0.00    -0.550 OA
ENDBRANCH   9  10
ENDBRANCH   8   9
ENDBRANCH   7   8
ENDBRANCH   6   7
ENDBRANCH   5   6
ENDBRANCH   4   5
ENDBRANCH   3   4
ENDBRANCH   1   3
BRANCH   2  13
ATOM     13  C   UNL     1      12.844   2.212 -19.004  1.00  0.00     0.027 C 
BRANCH  13  14
ATOM     14  C   UNL     1      12.769   3.682 -19.436  1.00  0.00     0.004 C 
BRANCH  14  15
ATOM     15  C   UNL     1      13.907   4.028 -20.407  1.00  0.00     0.000 C 
BRANCH  15  16
ATOM     16  C   UNL     1      14.016   5.546 -20.662  1.00  0.00     0.000 C 
BRANCH  16  17
ATOM     17  C   UNL     1      15.408   6.125 -20.358  1.00  0.00    -0.000 C 
BRANCH  17  18
ATOM     18  C   UNL     1      16.469   5.701 -21.388  1.00  0.00    -0.000 C 
BRANCH  18  19
ATOM     19  C   UNL     1      16.002   5.916 -22.835  1.00  0.00    -0.003 C 
ATOM     20  C   UNL     1      16.574   4.878 -23.800  1.00  0.00     0.004 C 
ENDBRANCH  18  19
ENDBRANCH  17  18
ENDBRANCH  16  17
ENDBRANCH  15  16
ENDBRANCH  14  15
ENDBRANCH  13  14
ENDBRANCH   2  13
TORSDOF 15
ENDMDL
MODEL 4
REMARK VINA RESULT:    -4.356      1.247      2.474
REMARK INTER + INTRA:          -9.455
REMARK INTER:                  -7.287
REMARK INTRA:                  -2.169
REMARK UNBOUND:                -1.280
REMARK SMILES CCCCCCCCC=CCCCCCCCC(=O)[O-]
REMARK SMILES IDX 10 1 9 2 11 3 12 4 13 5 14 6 15 7 16 8 17 9 18 10 19 11
REMARK SMILES IDX 20 12 8 13 7 14 6 15 5 16 4 17 3 18 2 19 1 20
REMARK H PARENT
REMARK Flexibility Score: inf
ROOT
ATOM      1  C   UNL     1      13.108  -1.351 -17.874  1.00  0.00    -0.031 C 
ATOM      2  C   UNL     1      13.628  -1.741 -19.054  1.00  0.00    -0.031 C 
ENDROOT
BRANCH   1   3
ATOM      3  C   UNL     1      13.035   0.075 -17.378  1.00  0.00     0.027 C 
BRANCH   3   4
ATOM      4  C   UNL     1      11.639   0.678 -17.589  1.00  0.00     0.004 C 
BRANCH   4   5
ATOM      5  C   UNL     1      10.542  -0.396 -17.666  1.00  0.00     0.000 C 
BRANCH   5   6
ATOM      6  C   UNL     1       9.905  -0.432 -19.061  1.00  0.00     0.000 C 
BRANCH   6   7
ATOM      7  C   UNL     1       9.537  -1.868 -19.461  1.00  0.00     0.000 C 
BRANCH   7   8
ATOM      8  C   UNL     1      10.423  -2.425 -20.591  1.00  0.00     0.006 C 
BRANCH   8   9
ATOM      9  C   UNL     1       9.702  -3.421 -21.516  1.00  0.00     0.053 C 
BRANCH   9  10
ATOM     10  C   UNL     1       9.933  -3.133 -22.969  1.00  0.00     0.041 C 
ATOM     11  O   UNL     1       9.596  -3.973 -23.844  1.00  0.00    -0.550 OA
ATOM     12  O   UNL     1      10.493  -1.923 -23.357  1.00  0.00    -0.550 OA
ENDBRANCH   9  10
ENDBRANCH   8   9
ENDBRANCH   7   8
ENDBRANCH   6   7
ENDBRANCH   5   6
ENDBRANCH   4   5
ENDBRANCH   3   4
ENDBRANCH   1   3
BRANCH   2  13
ATOM     13  C   UNL     1      14.260  -0.827 -20.074  1.00  0.00     0.027 C 
BRANCH  13  14
ATOM     14  C   UNL     1      13.321  -0.566 -21.259  1.00  0.00     0.004 C 
BRANCH  14  15
ATOM     15  C   UNL     1      12.502   0.715 -21.040  1.00  0.00     0.000 C 
BRANCH  15  16
ATOM     16  C   UNL     1      13.396   1.967 -20.925  1.00  0.00     0.000 C 
BRANCH  16  17
ATOM     17  C   UNL     1      12.974   2.926 -19.799  1.00  0.00    -0.000 C 
BRANCH  17  18
ATOM     18  C   UNL     1      13.187   4.406 -20.164  1.00  0.00    -0.000 C 
BRANCH  18  19
ATOM     19  C   UNL     1      14.502   4.641 -20.922  1.00  0.00    -0.003 C 
ATOM     20  C   UNL     1      15.218   5.916 -20.479  1.00  0.00     0.004 C 
ENDBRANCH  18  19
ENDBRANCH  17  18
ENDBRANCH  16  17
ENDBRANCH  15  16
ENDBRANCH  14  15
ENDBRANCH  13  14
ENDBRANCH   2  13
TORSDOF 15
ENDMDL
MODEL 5
REMARK VINA RESULT:    -4.272      3.552      7.895
REMARK INTER + INTRA:          -9.298
REMARK INTER:                  -7.584
REMARK INTRA:                  -1.714
REMARK UNBOUND:                -1.280
REMARK SMILES CCCCCCCCC=CCCCCCCCC(=O)[O-]
REMARK SMILES IDX 10 1 9 2 11 3 12 4 13 5 14 6 15 7 16 8 17 9 18 10 19 11
REMARK SMILES IDX 20 12 8 13 7 14 6 15 5 16 4 17 3 18 2 19 1 20
REMARK H PARENT
REMARK Flexibility Score: inf
ROOT
ATOM      1  C   UNL     1      11.614   1.255 -18.047  1.00  0.00    -0.031 C 
ATOM      2  C   UNL     1      11.617  -0.047 -17.704  1.00  0.00    -0.031 C 
ENDROOT
BRANCH   1   3
ATOM      3  C   UNL     1      12.842   2.094 -18.317  1.00  0.00     0.027 C 
BRANCH   3   4
ATOM      4  C   UNL     1      12.875   2.600 -19.766  1.00  0.00     0.004 C 
BRANCH   4   5
ATOM      5  C   UNL     1      13.180   4.103 -19.856  1.00  0.00     0.000 C 
BRANCH   5   6
ATOM      6  C   UNL     1      14.260   4.383 -20.908  1.00  0.00     0.000 C 
BRANCH   6   7
ATOM      7  C   UNL     1      15.043   5.659 -20.567  1.00  0.00     0.000 C 
BRANCH   7   8
ATOM      8  C   UNL     1      16.349   5.798 -21.371  1.00  0.00     0.006 C 
BRANCH   8   9
ATOM      9  C   UNL     1      16.159   5.694 -22.894  1.00  0.00     0.053 C 
BRANCH   9  10
ATOM     10  C   UNL     1      17.433   5.372 -23.616  1.00  0.00     0.041 C 
ATOM     11  O   UNL     1      18.531   5.379 -23.001  1.00  0.00    -0.550 OA
ATOM     12  O   UNL     1      17.401   5.034 -24.963  1.00  0.00    -0.550 OA
ENDBRANCH   9  10
ENDBRANCH   8   9
ENDBRANCH   7   8
ENDBRANCH   6   7
ENDBRANCH   5   6
ENDBRANCH   4   5
ENDBRANCH   3   4
ENDBRANCH   1   3
BRANCH   2  13
ATOM     13  C   UNL     1      12.850  -0.891 -17.495  1.00  0.00     0.027 C 
BRANCH  13  14
ATOM     14  C   UNL     1      13.141  -1.779 -18.712  1.00  0.00     0.004 C 
BRANCH  14  15
ATOM     15  C   UNL     1      14.032  -1.047 -19.727  1.00  0.00     0.000 C 
BRANCH  15  16
ATOM     16  C   UNL     1      13.404  -1.008 -21.135  1.00  0.00     0.000 C 
BRANCH  16  17
ATOM     17  C   UNL     1      11.883  -0.779 -21.127  1.00  0.00    -0.000 C 
BRANCH  17  18
ATOM     18  C   UNL     1      11.139  -1.674 -22.134  1.00  0.00    -0.000 C 
BRANCH  18  19
ATOM     19  C   UNL     1      10.139  -2.620 -21.454  1.00  0.00    -0.003 C 
ATOM     20  C   UNL     1       9.797  -2.190 -20.028  1.00  0.00     0.004 C 
ENDBRANCH  18  19
ENDBRANCH  17  18
ENDBRANCH  16  17
ENDBRANCH  15  16
ENDBRANCH  14  15
ENDBRANCH  13  14
ENDBRANCH   2  13
TORSDOF 15
ENDMDL
MODEL 6
REMARK VINA RESULT:    -4.054      2.816      3.922
REMARK INTER + INTRA:          -8.890
REMARK INTER:                  -7.401
REMARK INTRA:                  -1.489
REMARK UNBOUND:                -1.280
REMARK SMILES CCCCCCCCC=CCCCCCCCC(=O)[O-]
REMARK SMILES IDX 10 1 9 2 11 3 12 4 13 5 14 6 15 7 16 8 17 9 18 10 19 11
REMARK SMILES IDX 20 12 8 13 7 14 6 15 5 16 4 17 3 18 2 19 1 20
REMARK H PARENT
REMARK Flexibility Score: inf
ROOT
ATOM      1  C   UNL     1      12.891  -0.673 -21.483  1.00  0.00    -0.031 C 
ATOM      2  C   UNL     1      13.452   0.453 -21.002  1.00  0.00    -0.031 C 
ENDROOT
BRANCH   1   3
ATOM      3  C   UNL     1      11.420  -0.867 -21.768  1.00  0.00     0.027 C 
BRANCH   3   4
ATOM      4  C   UNL     1      10.892  -2.174 -21.158  1.00  0.00     0.004 C 
BRANCH   4   5
ATOM      5  C   UNL     1       9.861  -1.929 -20.046  1.00  0.00     0.000 C 
BRANCH   5   6
ATOM      6  C   UNL     1      10.480  -1.135 -18.889  1.00  0.00     0.000 C 
BRANCH   6   7
ATOM      7  C   UNL     1      11.732  -1.839 -18.346  1.00  0.00     0.000 C 
BRANCH   7   8
ATOM      8  C   UNL     1      12.743  -0.867 -17.709  1.00  0.00     0.006 C 
BRANCH   8   9
ATOM      9  C   UNL     1      12.126   0.469 -17.258  1.00  0.00     0.053 C 
BRANCH   9  10
ATOM     10  C   UNL     1      13.160   1.493 -16.902  1.00  0.00     0.041 C 
ATOM     11  O   UNL     1      13.127   2.638 -17.426  1.00  0.00    -0.550 OA
ATOM     12  O   UNL     1      14.142   1.194 -15.967  1.00  0.00    -0.550 OA
ENDBRANCH   9  10
ENDBRANCH   8   9
ENDBRANCH   7   8
ENDBRANCH   6   7
ENDBRANCH   5   6
ENDBRANCH   4   5
ENDBRANCH   3   4
ENDBRANCH   1   3
BRANCH   2  13
ATOM     13  C   UNL     1      12.704   1.710 -20.630  1.00  0.00     0.027 C 
BRANCH  13  14
ATOM     14  C   UNL     1      13.478   2.970 -21.035  1.00  0.00     0.004 C 
BRANCH  14  15
ATOM     15  C   UNL     1      13.131   4.149 -20.114  1.00  0.00     0.000 C 
BRANCH  15  16
ATOM     16  C   UNL     1      13.631   5.497 -20.675  1.00  0.00     0.000 C 
BRANCH  16  17
ATOM     17  C   UNL     1      15.157   5.669 -20.599  1.00  0.00    -0.000 C 
BRANCH  17  18
ATOM     18  C   UNL     1      15.777   6.099 -21.940  1.00  0.00    -0.000 C 
BRANCH  18  19
ATOM     19  C   UNL     1      16.868   5.131 -22.421  1.00  0.00    -0.003 C 
ATOM     20  C   UNL     1      16.651   4.667 -23.861  1.00  0.00     0.004 C 
ENDBRANCH  18  19
ENDBRANCH  17  18
ENDBRANCH  16  17
ENDBRANCH  15  16
ENDBRANCH  14  15
ENDBRANCH  13  14
ENDBRANCH   2  13
TORSDOF 15
ENDMDL
MODEL 7
REMARK VINA RESULT:    -3.974      3.529      7.210
REMARK INTER + INTRA:          -8.739
REMARK INTER:                  -7.050
REMARK INTRA:                  -1.689
REMARK UNBOUND:                -1.280
REMARK SMILES CCCCCCCCC=CCCCCCCCC(=O)[O-]
REMARK SMILES IDX 10 1 9 2 11 3 12 4 13 5 14 6 15 7 16 8 17 9 18 10 19 11
REMARK SMILES IDX 20 12 8 13 7 14 6 15 5 16 4 17 3 18 2 19 1 20
REMARK H PARENT
REMARK Flexibility Score: inf
ROOT
ATOM      1  C   UNL     1      12.310  -1.625 -17.634  1.00  0.00    -0.031 C 
ATOM      2  C   UNL     1      13.369  -2.055 -18.347  1.00  0.00    -0.031 C 
ENDROOT
BRANCH   1   3
ATOM      3  C   UNL     1      11.783  -0.209 -17.615  1.00  0.00     0.027 C 
BRANCH   3   4
ATOM      4  C   UNL     1      12.513   0.653 -16.575  1.00  0.00     0.004 C 
BRANCH   4   5
ATOM      5  C   UNL     1      12.890   2.039 -17.122  1.00  0.00     0.000 C 
BRANCH   5   6
ATOM      6  C   UNL     1      12.953   2.026 -18.654  1.00  0.00     0.000 C 
BRANCH   6   7
ATOM      7  C   UNL     1      12.614   3.408 -19.231  1.00  0.00     0.000 C 
BRANCH   7   8
ATOM      8  C   UNL     1      13.651   3.905 -20.256  1.00  0.00     0.006 C 
BRANCH   8   9
ATOM      9  C   UNL     1      13.773   5.437 -20.328  1.00  0.00     0.053 C 
BRANCH   9  10
ATOM     10  C   UNL     1      15.146   5.891 -20.724  1.00  0.00     0.041 C 
ATOM     11  O   UNL     1      16.015   6.125 -19.843  1.00  0.00    -0.550 OA
ATOM     12  O   UNL     1      15.473   6.026 -22.066  1.00  0.00    -0.550 OA
ENDBRANCH   9  10
ENDBRANCH   8   9
ENDBRANCH   7   8
ENDBRANCH   6   7
ENDBRANCH   5   6
ENDBRANCH   4   5
ENDBRANCH   3   4
ENDBRANCH   1   3
BRANCH   2  13
ATOM     13  C   UNL     1      14.237  -1.189 -19.227  1.00  0.00     0.027 C 
BRANCH  13  14
ATOM     14  C   UNL     1      13.846  -1.314 -20.705  1.00  0.00     0.004 C 
BRANCH  14  15
ATOM     15  C   UNL     1      12.913  -0.168 -21.125  1.00  0.00     0.000 C 
BRANCH  15  16
ATOM     16  C   UNL     1      11.550  -0.681 -21.634  1.00  0.00     0.000 C 
BRANCH  16  17
ATOM     17  C   UNL     1      10.578  -1.072 -20.508  1.00  0.00    -0.000 C 
BRANCH  17  18
ATOM     18  C   UNL     1       9.914  -2.441 -20.742  1.00  0.00    -0.000 C 
BRANCH  18  19
ATOM     19  C   UNL     1      10.548  -3.210 -21.910  1.00  0.00    -0.003 C 
ATOM     20  C   UNL     1       9.520  -3.655 -22.950  1.00  0.00     0.004 C 
ENDBRANCH  18  19
ENDBRANCH  17  18
ENDBRANCH  16  17
ENDBRANCH  15  16
ENDBRANCH  14  15
ENDBRANCH  13  14
ENDBRANCH   2  13
TORSDOF 15
ENDMDL
MODEL 8
REMARK VINA RESULT:    -3.956      3.598      7.815
REMARK INTER + INTRA:          -8.705
REMARK INTER:                  -7.781
REMARK INTRA:                  -0.924
REMARK UNBOUND:                -1.280
REMARK SMILES CCCCCCCCC=CCCCCCCCC(=O)[O-]
REMARK SMILES IDX 10 1 9 2 11 3 12 4 13 5 14 6 15 7 16 8 17 9 18 10 19 11
REMARK SMILES IDX 20 12 8 13 7 14 6 15 5 16 4 17 3 18 2 19 1 20
REMARK H PARENT
REMARK Flexibility Score: inf
ROOT
ATOM      1  C   UNL     1      13.346   0.255 -21.161  1.00  0.00    -0.031 C 
ATOM      2  C   UNL     1      13.810  -0.916 -20.683  1.00  0.00    -0.031 C 
ENDROOT
BRANCH   1   3
ATOM      3  C   UNL     1      12.906   1.431 -20.320  1.00  0.00     0.027 C 
BRANCH   3   4
ATOM      4  C   UNL     1      13.287   2.768 -20.972  1.00  0.00     0.004 C 
BRANCH   4   5
ATOM      5  C   UNL     1      13.364   3.916 -19.954  1.00  0.00     0.000 C 
BRANCH   5   6
ATOM      6  C   UNL     1      13.596   5.259 -20.658  1.00  0.00     0.000 C 
BRANCH   6   7
ATOM      7  C   UNL     1      15.052   5.721 -20.497  1.00  0.00     0.000 C 
BRANCH   7   8
ATOM      8  C   UNL     1      15.811   5.800 -21.834  1.00  0.00     0.006 C 
BRANCH   8   9
ATOM      9  C   UNL     1      17.339   5.891 -21.681  1.00  0.00     0.053 C 
BRANCH   9  10
ATOM     10  C   UNL     1      18.071   5.498 -22.929  1.00  0.00     0.041 C 
ATOM     11  O   UNL     1      19.330   5.521 -22.961  1.00  0.00    -0.550 OA
ATOM     12  O   UNL     1      17.363   5.078 -24.047  1.00  0.00    -0.550 OA
ENDBRANCH   9  10
ENDBRANCH   8   9
ENDBRANCH   7   8
ENDBRANCH   6   7
ENDBRANCH   5   6
ENDBRANCH   4   5
ENDBRANCH   3   4
ENDBRANCH   1   3
BRANCH   2  13
ATOM     13  C   UNL     1      13.939  -1.273 -19.223  1.00  0.00     0.027 C 
BRANCH  13  14
ATOM     14  C   UNL     1      12.714  -2.045 -18.718  1.00  0.00     0.004 C 
BRANCH  14  15
ATOM     15  C   UNL     1      11.486  -1.763 -19.598  1.00  0.00     0.000 C 
BRANCH  15  16
ATOM     16  C   UNL     1      10.373  -1.022 -18.829  1.00  0.00     0.000 C 
BRANCH  16  17
ATOM     17  C   UNL     1      10.852   0.265 -18.137  1.00  0.00    -0.000 C 
BRANCH  17  18
ATOM     18  C   UNL     1      11.123   0.070 -16.635  1.00  0.00    -0.000 C 
BRANCH  18  19
ATOM     19  C   UNL     1      12.531   0.527 -16.227  1.00  0.00    -0.003 C 
ATOM     20  C   UNL     1      13.001   1.756 -17.004  1.00  0.00     0.004 C 
ENDBRANCH  18  19
ENDBRANCH  17  18
ENDBRANCH  16  17
ENDBRANCH  15  16
ENDBRANCH  14  15
ENDBRANCH  13  14
ENDBRANCH   2  13
TORSDOF 15
ENDMDL
MODEL 9
REMARK VINA RESULT:    -3.896      1.381      2.032
REMARK INTER + INTRA:          -8.594
REMARK INTER:                  -7.070
REMARK INTRA:                  -1.524
REMARK UNBOUND:                -1.280
REMARK SMILES CCCCCCCCC=CCCCCCCCC(=O)[O-]
REMARK SMILES IDX 10 1 9 2 11 3 12 4 13 5 14 6 15 7 16 8 17 9 18 10 19 11
REMARK SMILES IDX 20 12 8 13 7 14 6 15 5 16 4 17 3 18 2 19 1 20
REMARK H PARENT
REMARK Flexibility Score: inf
ROOT
ATOM      1  C   UNL     1      12.988  -0.640 -21.030  1.00  0.00    -0.031 C 
ATOM      2  C   UNL     1      12.533   0.620 -21.165  1.00  0.00    -0.031 C 
ENDROOT
BRANCH   1   3
ATOM      3  C   UNL     1      14.385  -1.025 -20.601  1.00  0.00     0.027 C 
BRANCH   3   4
ATOM      4  C   UNL     1      14.427  -1.458 -19.128  1.00  0.00     0.004 C 
BRANCH   4   5
ATOM      5  C   UNL     1      13.025  -1.682 -18.542  1.00  0.00     0.000 C 
BRANCH   5   6
ATOM      6  C   UNL     1      12.803  -0.810 -17.301  1.00  0.00     0.000 C 
BRANCH   6   7
ATOM      7  C   UNL     1      11.776   0.297 -17.582  1.00  0.00     0.000 C 
BRANCH   7   8
ATOM      8  C   UNL     1      10.344  -0.241 -17.761  1.00  0.00     0.006 C 
BRANCH   8   9
ATOM      9  C   UNL     1       9.910  -0.385 -19.230  1.00  0.00     0.053 C 
BRANCH   9  10
ATOM     10  C   UNL     1       9.678  -1.811 -19.628  1.00  0.00     0.041 C 
ATOM     11  O   UNL     1       9.318  -2.660 -18.771  1.00  0.00    -0.550 OA
ATOM     12  O   UNL     1       9.831  -2.196 -20.954  1.00  0.00    -0.550 OA
ENDBRANCH   9  10
ENDBRANCH   8   9
ENDBRANCH   7   8
ENDBRANCH   6   7
ENDBRANCH   5   6
ENDBRANCH   4   5
ENDBRANCH   3   4
ENDBRANCH   1   3
BRANCH   2  13
ATOM     13  C   UNL     1      13.348   1.871 -20.946  1.00  0.00     0.027 C 
BRANCH  13  14
ATOM     14  C   UNL     1      12.884   2.636 -19.700  1.00  0.00     0.004 C 
BRANCH  14  15
ATOM     15  C   UNL     1      13.077   4.150 -19.882  1.00  0.00     0.000 C 
BRANCH  15  16
ATOM     16  C   UNL     1      14.201   4.479 -20.886  1.00  0.00     0.000 C 
BRANCH  16  17
ATOM     17  C   UNL     1      14.989   5.752 -20.536  1.00  0.00    -0.000 C 
BRANCH  17  18
ATOM     18  C   UNL     1      16.337   5.842 -21.272  1.00  0.00    -0.000 C 
BRANCH  18  19
ATOM     19  C   UNL     1      16.169   6.041 -22.785  1.00  0.00    -0.003 C 
ATOM     20  C   UNL     1      16.567   4.805 -23.591  1.00  0.00     0.004 C 
ENDBRANCH  18  19
ENDBRANCH  17  18
ENDBRANCH  16  17
ENDBRANCH  15  16
ENDBRANCH  14  15
ENDBRANCH  13  14
ENDBRANCH   2  13
TORSDOF 15
ENDMDL
