MODEL 1
REMARK VINA RESULT:    -1.546      0.000      0.000
REMARK INTER + INTRA:          -4.339
REMARK INTER:                  -2.043
REMARK INTRA:                  -2.296
REMARK UNBOUND:                -2.296
REMARK SMILES CC(C)=CCC[C@H](C(=O)[O-])[C@H]1CC[C@]2(C)C3=C(CC[C@]12C)[C@]1(C)CC[C@@H](O)C(C)(C)[C@H]1CC3
REMARK SMILES IDX 6 1 7 2 8 3 9 4 10 5 11 6 12 7 20 8 13 9 14 10 19 11 21 12
REMARK SMILES IDX 15 13 16 14 18 15 17 16 33 17 22 18 32 19 31 20 24 21 23 22
REMARK SMILES IDX 28 23 25 24 26 25 29 26 30 27 27 28 5 30 4 31 2 32 1 33 3 34
REMARK H PARENT 27 29
REMARK Flexibility Score: inf
ROOT
ATOM      1  C   UNL     1      90.344  29.916   6.767  1.00  0.00     0.014 C 
ENDROOT
BRANCH   1   2
ATOM      2  C   UNL     1      90.922  28.633   7.420  1.00  0.00     0.039 C 
BRANCH   2   3
ATOM      3  C   UNL     1      90.517  27.396   6.647  1.00  0.00     0.045 C 
ATOM      4  O   UNL     1      91.367  26.495   6.420  1.00  0.00    -0.550 OA
ATOM      5  O   UNL     1      89.237  27.259   6.124  1.00  0.00    -0.550 OA
ENDBRANCH   2   3
BRANCH   2   6
ATOM      6  C   UNL     1      90.701  28.555   8.973  1.00  0.00     0.004 C 
ATOM      7  C   UNL     1      89.984  27.321   9.501  1.00  0.00     0.006 C 
ATOM      8  C   UNL     1      91.963  28.684   9.892  1.00  0.00    -0.020 C 
ATOM      9  C   UNL     1      90.076  27.490  11.001  1.00  0.00     0.012 C 
ATOM     10  C   UNL     1      91.493  28.063  11.293  1.00  0.00    -0.006 C 
ATOM     11  C   UNL     1      92.346  30.183  10.024  1.00  0.00     0.012 C 
ATOM     12  C   UNL     1      93.180  27.927   9.272  1.00  0.00     0.012 C 
ATOM     13  C   UNL     1      92.381  26.894  11.803  1.00  0.00     0.017 C 
ATOM     14  C   UNL     1      91.462  29.089  12.451  1.00  0.00    -0.064 C 
ATOM     15  C   UNL     1      93.184  30.438  11.270  1.00  0.00     0.032 C 
ATOM     16  C   UNL     1      92.401  30.086  12.517  1.00  0.00    -0.064 C 
ATOM     17  C   UNL     1      90.463  28.880  13.603  1.00  0.00     0.032 C 
ATOM     18  C   UNL     1      92.593  30.871  13.833  1.00  0.00    -0.008 C 
ATOM     19  C   UNL     1      90.941  29.305  15.012  1.00  0.00     0.009 C 
ATOM     20  C   UNL     1      92.390  29.821  14.992  1.00  0.00     0.007 C 
ATOM     21  C   UNL     1      94.009  31.540  13.991  1.00  0.00     0.014 C 
ATOM     22  C   UNL     1      91.533  32.007  13.807  1.00  0.00     0.016 C 
ATOM     23  C   UNL     1      93.039  30.195  16.379  1.00  0.00    -0.006 C 
ATOM     24  C   UNL     1      95.020  30.652  14.717  1.00  0.00     0.033 C 
ATOM     25  C   UNL     1      94.601  30.366  16.178  1.00  0.00     0.120 C 
ATOM     26  C   UNL     1      92.405  31.468  17.001  1.00  0.00     0.014 C 
ATOM     27  C   UNL     1      92.818  29.043  17.394  1.00  0.00     0.014 C 
BRANCH  25  28
ATOM     28  O   UNL     1      95.125  31.373  17.010  1.00  0.00    -0.393 OA
ATOM     29  H   UNL     1      94.489  32.134  16.979  1.00  0.00     0.210 HD
ENDBRANCH  25  28
ENDBRANCH   2   6
ENDBRANCH   1   2
BRANCH   1  30
ATOM     30  C   UNL     1      89.152  30.551   7.502  1.00  0.00     0.028 C 
BRANCH  30  31
ATOM     31  C   UNL     1      89.572  31.810   8.218  1.00  0.00    -0.028 C 
ATOM     32  C   UNL     1      89.365  32.045   9.533  1.00  0.00    -0.080 C 
ATOM     33  C   UNL     1      89.824  33.359  10.109  1.00  0.00     0.039 C 
ATOM     34  C   UNL     1      88.713  31.024  10.437  1.00  0.00     0.039 C 
ENDBRANCH  30  31
ENDBRANCH   1  30
TORSDOF 6
ENDMDL
MODEL 2
REMARK VINA RESULT:    -1.440      1.065      1.149
REMARK INTER + INTRA:          -4.199
REMARK INTER:                  -1.895
REMARK INTRA:                  -2.304
REMARK UNBOUND:                -2.296
REMARK SMILES CC(C)=CCC[C@H](C(=O)[O-])[C@H]1CC[C@]2(C)C3=C(CC[C@]12C)[C@]1(C)CC[C@@H](O)C(C)(C)[C@H]1CC3
REMARK SMILES IDX 6 1 7 2 8 3 9 4 10 5 11 6 12 7 20 8 13 9 14 10 19 11 21 12
REMARK SMILES IDX 15 13 16 14 18 15 17 16 33 17 22 18 32 19 31 20 24 21 23 22
REMARK SMILES IDX 28 23 25 24 26 25 29 26 30 27 27 28 5 30 4 31 2 32 1 33 3 34
REMARK H PARENT 27 29
REMARK Flexibility Score: inf
ROOT
ATOM      1  C   UNL     1      89.000  29.185   7.669  1.00  0.00     0.014 C 
ENDROOT
BRANCH   1   2
ATOM      2  C   UNL     1      89.815  28.008   8.265  1.00  0.00     0.039 C 
BRANCH   2   3
ATOM      3  C   UNL     1      89.454  26.698   7.596  1.00  0.00     0.045 C 
ATOM      4  O   UNL     1      90.362  25.876   7.303  1.00  0.00    -0.550 OA
ATOM      5  O   UNL     1      88.144  26.408   7.239  1.00  0.00    -0.550 OA
ENDBRANCH   2   3
BRANCH   2   6
ATOM      6  C   UNL     1      89.830  27.976   9.835  1.00  0.00     0.004 C 
ATOM      7  C   UNL     1      89.306  26.712  10.499  1.00  0.00     0.006 C 
ATOM      8  C   UNL     1      91.198  28.243  10.553  1.00  0.00    -0.020 C 
ATOM      9  C   UNL     1      89.602  26.949  11.964  1.00  0.00     0.012 C 
ATOM     10  C   UNL     1      90.992  27.644  12.025  1.00  0.00    -0.006 C 
ATOM     11  C   UNL     1      91.467  29.772  10.582  1.00  0.00     0.012 C 
ATOM     12  C   UNL     1      92.371  27.561   9.779  1.00  0.00     0.012 C 
ATOM     13  C   UNL     1      92.041  26.572  12.430  1.00  0.00     0.017 C 
ATOM     14  C   UNL     1      91.043  28.711  13.145  1.00  0.00    -0.064 C 
ATOM     15  C   UNL     1      92.454  30.144  11.682  1.00  0.00     0.032 C 
ATOM     16  C   UNL     1      91.893  29.781  13.042  1.00  0.00    -0.064 C 
ATOM     17  C   UNL     1      90.245  28.470  14.438  1.00  0.00     0.032 C 
ATOM     18  C   UNL     1      92.208  30.633  14.291  1.00  0.00    -0.008 C 
ATOM     19  C   UNL     1      90.886  28.990  15.747  1.00  0.00     0.009 C 
ATOM     20  C   UNL     1      92.266  29.618  15.497  1.00  0.00     0.007 C 
ATOM     21  C   UNL     1      93.570  31.419  14.217  1.00  0.00     0.014 C 
ATOM     22  C   UNL     1      91.063  31.678  14.391  1.00  0.00     0.016 C 
ATOM     23  C   UNL     1      93.077  30.100  16.761  1.00  0.00    -0.006 C 
ATOM     24  C   UNL     1      94.748  30.644  14.809  1.00  0.00     0.033 C 
ATOM     25  C   UNL     1      94.572  30.386  16.324  1.00  0.00     0.120 C 
ATOM     26  C   UNL     1      92.435  31.342  17.433  1.00  0.00     0.014 C 
ATOM     27  C   UNL     1      93.105  28.976  17.830  1.00  0.00     0.014 C 
BRANCH  25  28
ATOM     28  O   UNL     1      95.125  31.465  17.039  1.00  0.00    -0.393 OA
ATOM     29  H   UNL     1      95.111  32.251  16.434  1.00  0.00     0.210 HD
ENDBRANCH  25  28
ENDBRANCH   2   6
ENDBRANCH   1   2
BRANCH   1  30
ATOM     30  C   UNL     1      87.891  29.745   8.575  1.00  0.00     0.028 C 
BRANCH  30  31
ATOM     31  C   UNL     1      88.305  31.065   9.176  1.00  0.00    -0.028 C 
ATOM     32  C   UNL     1      88.283  31.341  10.499  1.00  0.00    -0.080 C 
ATOM     33  C   UNL     1      88.709  32.713  10.953  1.00  0.00     0.039 C 
ATOM     34  C   UNL     1      87.870  30.312  11.526  1.00  0.00     0.039 C 
ENDBRANCH  30  31
ENDBRANCH   1  30
TORSDOF 6
ENDMDL
MODEL 3
REMARK VINA RESULT:    -1.396      2.282      7.407
REMARK INTER + INTRA:          -4.141
REMARK INTER:                  -1.837
REMARK INTRA:                  -2.304
REMARK UNBOUND:                -2.296
REMARK SMILES CC(C)=CCC[C@H](C(=O)[O-])[C@H]1CC[C@]2(C)C3=C(CC[C@]12C)[C@]1(C)CC[C@@H](O)C(C)(C)[C@H]1CC3
REMARK SMILES IDX 6 1 7 2 8 3 9 4 10 5 11 6 12 7 20 8 13 9 14 10 19 11 21 12
REMARK SMILES IDX 15 13 16 14 18 15 17 16 33 17 22 18 32 19 31 20 24 21 23 22
REMARK SMILES IDX 28 23 25 24 26 25 29 26 30 27 27 28 5 30 4 31 2 32 1 33 3 34
REMARK H PARENT 27 29
REMARK Flexibility Score: inf
ROOT
ATOM      1  C   UNL     1      90.051  31.357  15.323  1.00  0.00     0.014 C 
ENDROOT
BRANCH   1   2
ATOM      2  C   UNL     1      91.475  31.812  14.910  1.00  0.00     0.039 C 
BRANCH   2   3
ATOM      3  C   UNL     1      91.878  33.077  15.637  1.00  0.00     0.045 C 
ATOM      4  O   UNL     1      93.054  33.201  16.071  1.00  0.00    -0.550 OA
ATOM      5  O   UNL     1      90.957  34.085  15.895  1.00  0.00    -0.550 OA
ENDBRANCH   2   3
BRANCH   2   6
ATOM      6  C   UNL     1      91.712  31.827  13.357  1.00  0.00     0.004 C 
ATOM      7  C   UNL     1      92.103  33.160  12.738  1.00  0.00     0.006 C 
ATOM      8  C   UNL     1      92.757  30.815  12.774  1.00  0.00    -0.020 C 
ATOM      9  C   UNL     1      92.398  32.794  11.300  1.00  0.00     0.012 C 
ATOM     10  C   UNL     1      93.128  31.421  11.337  1.00  0.00    -0.006 C 
ATOM     11  C   UNL     1      92.099  29.414  12.658  1.00  0.00     0.012 C 
ATOM     12  C   UNL     1      93.994  30.692  13.718  1.00  0.00     0.012 C 
ATOM     13  C   UNL     1      94.645  31.686  11.129  1.00  0.00     0.017 C 
ATOM     14  C   UNL     1      92.703  30.521  10.152  1.00  0.00    -0.064 C 
ATOM     15  C   UNL     1      92.826  28.537  11.646  1.00  0.00     0.032 C 
ATOM     16  C   UNL     1      92.761  29.156  10.265  1.00  0.00    -0.064 C 
ATOM     17  C   UNL     1      92.367  31.179   8.802  1.00  0.00     0.032 C 
ATOM     18  C   UNL     1      92.690  28.278   8.997  1.00  0.00    -0.008 C 
ATOM     19  C   UNL     1      92.758  30.382   7.534  1.00  0.00     0.009 C 
ATOM     20  C   UNL     1      93.479  29.070   7.883  1.00  0.00     0.007 C 
ATOM     21  C   UNL     1      93.328  26.849   9.157  1.00  0.00     0.014 C 
ATOM     22  C   UNL     1      91.177  28.091   8.695  1.00  0.00     0.016 C 
ATOM     23  C   UNL     1      94.023  28.206   6.682  1.00  0.00    -0.006 C 
ATOM     24  C   UNL     1      94.802  26.796   8.755  1.00  0.00     0.033 C 
ATOM     25  C   UNL     1      95.008  27.106   7.254  1.00  0.00     0.120 C 
ATOM     26  C   UNL     1      92.878  27.566   5.853  1.00  0.00     0.014 C 
ATOM     27  C   UNL     1      94.832  29.104   5.710  1.00  0.00     0.014 C 
BRANCH  25  28
ATOM     28  O   UNL     1      94.928  25.906   6.523  1.00  0.00    -0.393 OA
ATOM     29  H   UNL     1      94.770  25.178   7.179  1.00  0.00     0.210 HD
ENDBRANCH  25  28
ENDBRANCH   2   6
ENDBRANCH   1   2
BRANCH   1  30
ATOM     30  C   UNL     1      88.972  31.492  14.234  1.00  0.00     0.028 C 
BRANCH  30  31
ATOM     31  C   UNL     1      88.655  30.150  13.625  1.00  0.00    -0.028 C 
ATOM     32  C   UNL     1      88.639  29.899  12.297  1.00  0.00    -0.080 C 
ATOM     33  C   UNL     1      88.285  28.511  11.832  1.00  0.00     0.039 C 
ATOM     34  C   UNL     1      88.989  30.959  11.278  1.00  0.00     0.039 C 
ENDBRANCH  30  31
ENDBRANCH   1  30
TORSDOF 6
ENDMDL
MODEL 4
REMARK VINA RESULT:    -1.328      3.243      6.639
REMARK INTER + INTRA:          -4.052
REMARK INTER:                  -1.757
REMARK INTRA:                  -2.295
REMARK UNBOUND:                -2.296
REMARK SMILES CC(C)=CCC[C@H](C(=O)[O-])[C@H]1CC[C@]2(C)C3=C(CC[C@]12C)[C@]1(C)CC[C@@H](O)C(C)(C)[C@H]1CC3
REMARK SMILES IDX 6 1 7 2 8 3 9 4 10 5 11 6 12 7 20 8 13 9 14 10 19 11 21 12
REMARK SMILES IDX 15 13 16 14 18 15 17 16 33 17 22 18 32 19 31 20 24 21 23 22
REMARK SMILES IDX 28 23 25 24 26 25 29 26 30 27 27 28 5 30 4 31 2 32 1 33 3 34
REMARK H PARENT 27 29
REMARK Flexibility Score: inf
ROOT
ATOM      1  C   UNL     1      91.377  26.289  14.274  1.00  0.00     0.014 C 
ENDROOT
BRANCH   1   2
ATOM      2  C   UNL     1      90.991  27.671  14.862  1.00  0.00     0.039 C 
BRANCH   2   3
ATOM      3  C   UNL     1      89.973  27.527  15.974  1.00  0.00     0.045 C 
ATOM      4  O   UNL     1      90.073  28.240  17.008  1.00  0.00    -0.550 OA
ATOM      5  O   UNL     1      88.961  26.578  15.907  1.00  0.00    -0.550 OA
ENDBRANCH   2   3
BRANCH   2   6
ATOM      6  C   UNL     1      90.647  28.751  13.774  1.00  0.00     0.004 C 
ATOM      7  C   UNL     1      89.245  29.339  13.814  1.00  0.00     0.006 C 
ATOM      8  C   UNL     1      91.583  30.004  13.676  1.00  0.00    -0.020 C 
ATOM      9  C   UNL     1      89.302  30.425  12.762  1.00  0.00     0.012 C 
ATOM     10  C   UNL     1      90.702  31.090  12.892  1.00  0.00    -0.006 C 
ATOM     11  C   UNL     1      92.865  29.620  12.888  1.00  0.00     0.012 C 
ATOM     12  C   UNL     1      92.015  30.485  15.097  1.00  0.00     0.012 C 
ATOM     13  C   UNL     1      90.521  32.433  13.651  1.00  0.00     0.017 C 
ATOM     14  C   UNL     1      91.276  31.476  11.507  1.00  0.00    -0.064 C 
ATOM     15  C   UNL     1      93.548  30.850  12.302  1.00  0.00     0.032 C 
ATOM     16  C   UNL     1      92.632  31.546  11.316  1.00  0.00    -0.064 C 
ATOM     17  C   UNL     1      90.308  31.930  10.402  1.00  0.00     0.032 C 
ATOM     18  C   UNL     1      93.195  32.268  10.072  1.00  0.00    -0.008 C 
ATOM     19  C   UNL     1      90.829  33.025   9.440  1.00  0.00     0.009 C 
ATOM     20  C   UNL     1      92.240  33.499   9.824  1.00  0.00     0.007 C 
ATOM     21  C   UNL     1      94.671  32.789  10.234  1.00  0.00     0.014 C 
ATOM     22  C   UNL     1      93.187  31.214   8.931  1.00  0.00     0.016 C 
ATOM     23  C   UNL     1      92.854  34.685   8.986  1.00  0.00    -0.006 C 
ATOM     24  C   UNL     1      94.751  34.229  10.743  1.00  0.00     0.033 C 
ATOM     25  C   UNL     1      94.130  35.235   9.746  1.00  0.00     0.120 C 
ATOM     26  C   UNL     1      93.197  34.263   7.533  1.00  0.00     0.014 C 
ATOM     27  C   UNL     1      91.829  35.846   8.885  1.00  0.00     0.014 C 
BRANCH  25  28
ATOM     28  O   UNL     1      95.125  35.663   8.848  1.00  0.00    -0.393 OA
ATOM     29  H   UNL     1      95.996  35.553   9.308  1.00  0.00     0.210 HD
ENDBRANCH  25  28
ENDBRANCH   2   6
ENDBRANCH   1   2
BRANCH   1  30
ATOM     30  C   UNL     1      90.920  26.035  12.828  1.00  0.00     0.028 C 
BRANCH  30  31
ATOM     31  C   UNL     1      92.070  26.200  11.866  1.00  0.00    -0.028 C 
ATOM     32  C   UNL     1      92.029  26.963  10.751  1.00  0.00    -0.080 C 
ATOM     33  C   UNL     1      93.251  27.018   9.872  1.00  0.00     0.039 C 
ATOM     34  C   UNL     1      90.808  27.774  10.380  1.00  0.00     0.039 C 
ENDBRANCH  30  31
ENDBRANCH   1  30
TORSDOF 6
ENDMDL
MODEL 5
REMARK VINA RESULT:    -1.320      2.236      7.419
REMARK INTER + INTRA:          -4.040
REMARK INTER:                  -1.737
REMARK INTRA:                  -2.303
REMARK UNBOUND:                -2.296
REMARK SMILES CC(C)=CCC[C@H](C(=O)[O-])[C@H]1CC[C@]2(C)C3=C(CC[C@]12C)[C@]1(C)CC[C@@H](O)C(C)(C)[C@H]1CC3
REMARK SMILES IDX 6 1 7 2 8 3 9 4 10 5 11 6 12 7 20 8 13 9 14 10 19 11 21 12
REMARK SMILES IDX 15 13 16 14 18 15 17 16 33 17 22 18 32 19 31 20 24 21 23 22
REMARK SMILES IDX 28 23 25 24 26 25 29 26 30 27 27 28 5 30 4 31 2 32 1 33 3 34
REMARK H PARENT 27 29
REMARK Flexibility Score: inf
ROOT
ATOM      1  C   UNL     1      91.049  32.615  15.629  1.00  0.00     0.014 C 
ENDROOT
BRANCH   1   2
ATOM      2  C   UNL     1      90.098  31.457  15.230  1.00  0.00     0.039 C 
BRANCH   2   3
ATOM      3  C   UNL     1      89.363  30.912  16.437  1.00  0.00     0.045 C 
ATOM      4  O   UNL     1      88.137  30.638  16.350  1.00  0.00    -0.550 OA
ATOM      5  O   UNL     1      89.999  30.766  17.663  1.00  0.00    -0.550 OA
ENDBRANCH   2   3
BRANCH   2   6
ATOM      6  C   UNL     1      90.764  30.375  14.307  1.00  0.00     0.004 C 
ATOM      7  C   UNL     1      90.723  28.937  14.799  1.00  0.00     0.006 C 
ATOM      8  C   UNL     1      90.268  30.283  12.823  1.00  0.00    -0.020 C 
ATOM      9  C   UNL     1      91.296  28.161  13.633  1.00  0.00     0.012 C 
ATOM     10  C   UNL     1      90.732  28.825  12.344  1.00  0.00    -0.006 C 
ATOM     11  C   UNL     1      90.943  31.407  11.991  1.00  0.00     0.012 C 
ATOM     12  C   UNL     1      88.722  30.484  12.743  1.00  0.00     0.012 C 
ATOM     13  C   UNL     1      89.577  27.930  11.816  1.00  0.00     0.017 C 
ATOM     14  C   UNL     1      91.785  28.847  11.211  1.00  0.00    -0.064 C 
ATOM     15  C   UNL     1      90.943  31.077  10.503  1.00  0.00     0.032 C 
ATOM     16  C   UNL     1      91.737  29.814  10.240  1.00  0.00    -0.064 C 
ATOM     17  C   UNL     1      92.785  27.683  11.103  1.00  0.00     0.032 C 
ATOM     18  C   UNL     1      92.542  29.632   8.935  1.00  0.00    -0.008 C 
ATOM     19  C   UNL     1      93.203  27.267   9.672  1.00  0.00     0.009 C 
ATOM     20  C   UNL     1      92.471  28.092   8.600  1.00  0.00     0.007 C 
ATOM     21  C   UNL     1      91.989  30.448   7.709  1.00  0.00     0.014 C 
ATOM     22  C   UNL     1      93.974  30.152   9.244  1.00  0.00     0.016 C 
ATOM     23  C   UNL     1      92.728  27.704   7.094  1.00  0.00    -0.006 C 
ATOM     24  C   UNL     1      90.992  29.660   6.858  1.00  0.00     0.033 C 
ATOM     25  C   UNL     1      91.643  28.425   6.193  1.00  0.00     0.120 C 
ATOM     26  C   UNL     1      94.168  28.054   6.635  1.00  0.00     0.014 C 
ATOM     27  C   UNL     1      92.556  26.174   6.906  1.00  0.00     0.014 C 
BRANCH  25  28
ATOM     28  O   UNL     1      92.171  28.801   4.945  1.00  0.00    -0.393 OA
ATOM     29  H   UNL     1      91.424  29.192   4.421  1.00  0.00     0.210 HD
ENDBRANCH  25  28
ENDBRANCH   2   6
ENDBRANCH   1   2
BRANCH   1  30
ATOM     30  C   UNL     1      92.547  32.266  15.633  1.00  0.00     0.028 C 
BRANCH  30  31
ATOM     31  C   UNL     1      93.240  32.866  14.435  1.00  0.00    -0.028 C 
ATOM     32  C   UNL     1      94.012  32.168  13.572  1.00  0.00    -0.080 C 
ATOM     33  C   UNL     1      94.658  32.906  12.429  1.00  0.00     0.039 C 
ATOM     34  C   UNL     1      94.221  30.678  13.708  1.00  0.00     0.039 C 
ENDBRANCH  30  31
ENDBRANCH   1  30
TORSDOF 6
ENDMDL
MODEL 6
REMARK VINA RESULT:    -1.300      3.067      7.072
REMARK INTER + INTRA:          -4.015
REMARK INTER:                  -1.734
REMARK INTRA:                  -2.280
REMARK UNBOUND:                -2.296
REMARK SMILES CC(C)=CCC[C@H](C(=O)[O-])[C@H]1CC[C@]2(C)C3=C(CC[C@]12C)[C@]1(C)CC[C@@H](O)C(C)(C)[C@H]1CC3
REMARK SMILES IDX 6 1 7 2 8 3 9 4 10 5 11 6 12 7 20 8 13 9 14 10 19 11 21 12
REMARK SMILES IDX 15 13 16 14 18 15 17 16 33 17 22 18 32 19 31 20 24 21 23 22
REMARK SMILES IDX 28 23 25 24 26 25 29 26 30 27 27 28 5 30 4 31 2 32 1 33 3 34
REMARK H PARENT 27 29
REMARK Flexibility Score: inf
ROOT
ATOM      1  C   UNL     1      90.687  28.955  15.161  1.00  0.00     0.014 C 
ENDROOT
BRANCH   1   2
ATOM      2  C   UNL     1      90.428  28.052  13.927  1.00  0.00     0.039 C 
BRANCH   2   3
ATOM      3  C   UNL     1      90.330  26.595  14.326  1.00  0.00     0.045 C 
ATOM      4  O   UNL     1      89.415  25.876  13.845  1.00  0.00    -0.550 OA
ATOM      5  O   UNL     1      91.194  26.045  15.264  1.00  0.00    -0.550 OA
ENDBRANCH   2   3
BRANCH   2   6
ATOM      6  C   UNL     1      91.375  28.352  12.710  1.00  0.00     0.004 C 
ATOM      7  C   UNL     1      92.129  27.169  12.123  1.00  0.00     0.006 C 
ATOM      8  C   UNL     1      90.748  29.061  11.461  1.00  0.00    -0.020 C 
ATOM      9  C   UNL     1      92.805  27.765  10.908  1.00  0.00     0.012 C 
ATOM     10  C   UNL     1      91.781  28.751  10.275  1.00  0.00    -0.006 C 
ATOM     11  C   UNL     1      90.633  30.584  11.745  1.00  0.00     0.012 C 
ATOM     12  C   UNL     1      89.314  28.513  11.175  1.00  0.00     0.012 C 
ATOM     13  C   UNL     1      91.146  28.049   9.043  1.00  0.00     0.017 C 
ATOM     14  C   UNL     1      92.481  30.011   9.713  1.00  0.00    -0.064 C 
ATOM     15  C   UNL     1      90.547  31.387  10.453  1.00  0.00     0.032 C 
ATOM     16  C   UNL     1      91.802  31.199   9.627  1.00  0.00    -0.064 C 
ATOM     17  C   UNL     1      93.890  29.872   9.110  1.00  0.00     0.032 C 
ATOM     18  C   UNL     1      92.362  32.340   8.750  1.00  0.00    -0.008 C 
ATOM     19  C   UNL     1      94.212  30.783   7.900  1.00  0.00     0.009 C 
ATOM     20  C   UNL     1      93.002  31.638   7.491  1.00  0.00     0.007 C 
ATOM     21  C   UNL     1      91.283  33.378   8.264  1.00  0.00     0.014 C 
ATOM     22  C   UNL     1      93.382  33.101   9.643  1.00  0.00     0.016 C 
ATOM     23  C   UNL     1      93.160  32.541   6.208  1.00  0.00    -0.006 C 
ATOM     24  C   UNL     1      90.676  33.027   6.905  1.00  0.00     0.033 C 
ATOM     25  C   UNL     1      91.728  33.057   5.772  1.00  0.00     0.120 C 
ATOM     26  C   UNL     1      94.143  33.720   6.436  1.00  0.00     0.014 C 
ATOM     27  C   UNL     1      93.734  31.699   5.038  1.00  0.00     0.014 C 
BRANCH  25  28
ATOM     28  O   UNL     1      91.786  34.356   5.235  1.00  0.00    -0.393 OA
ATOM     29  H   UNL     1      92.398  34.881   5.813  1.00  0.00     0.210 HD
ENDBRANCH  25  28
ENDBRANCH   2   6
ENDBRANCH   1   2
BRANCH   1  30
ATOM     30  C   UNL     1      92.117  29.507  15.288  1.00  0.00     0.028 C 
BRANCH  30  31
ATOM     31  C   UNL     1      92.151  30.983  14.982  1.00  0.00    -0.028 C 
ATOM     32  C   UNL     1      93.004  31.561  14.107  1.00  0.00    -0.080 C 
ATOM     33  C   UNL     1      92.936  33.054  13.917  1.00  0.00     0.039 C 
ATOM     34  C   UNL     1      94.000  30.754  13.306  1.00  0.00     0.039 C 
ENDBRANCH  30  31
ENDBRANCH   1  30
TORSDOF 6
ENDMDL
MODEL 7
REMARK VINA RESULT:    -1.285      1.843      2.678
REMARK INTER + INTRA:          -3.994
REMARK INTER:                  -1.718
REMARK INTRA:                  -2.276
REMARK UNBOUND:                -2.296
REMARK SMILES CC(C)=CCC[C@H](C(=O)[O-])[C@H]1CC[C@]2(C)C3=C(CC[C@]12C)[C@]1(C)CC[C@@H](O)C(C)(C)[C@H]1CC3
REMARK SMILES IDX 6 1 7 2 8 3 9 4 10 5 11 6 12 7 20 8 13 9 14 10 19 11 21 12
REMARK SMILES IDX 15 13 16 14 18 15 17 16 33 17 22 18 32 19 31 20 24 21 23 22
REMARK SMILES IDX 28 23 25 24 26 25 29 26 30 27 27 28 5 30 4 31 2 32 1 33 3 34
REMARK H PARENT 27 29
REMARK Flexibility Score: inf
ROOT
ATOM      1  C   UNL     1      88.639  29.408   7.286  1.00  0.00     0.014 C 
ENDROOT
BRANCH   1   2
ATOM      2  C   UNL     1      89.942  28.617   7.572  1.00  0.00     0.039 C 
BRANCH   2   3
ATOM      3  C   UNL     1      90.353  27.789   6.373  1.00  0.00     0.045 C 
ATOM      4  O   UNL     1      89.470  27.250   5.654  1.00  0.00    -0.550 OA
ATOM      5  O   UNL     1      91.691  27.557   6.081  1.00  0.00    -0.550 OA
ENDBRANCH   2   3
BRANCH   2   6
ATOM      6  C   UNL     1      89.934  27.852   8.944  1.00  0.00     0.004 C 
ATOM      7  C   UNL     1      90.145  26.347   8.889  1.00  0.00     0.006 C 
ATOM      8  C   UNL     1      90.933  28.336  10.050  1.00  0.00    -0.020 C 
ATOM      9  C   UNL     1      90.233  25.963  10.350  1.00  0.00     0.012 C 
ATOM     10  C   UNL     1      91.040  27.091  11.053  1.00  0.00    -0.006 C 
ATOM     11  C   UNL     1      90.348  29.594  10.749  1.00  0.00     0.012 C 
ATOM     12  C   UNL     1      92.307  28.728   9.421  1.00  0.00     0.012 C 
ATOM     13  C   UNL     1      92.488  26.572  11.273  1.00  0.00     0.017 C 
ATOM     14  C   UNL     1      90.490  27.383  12.470  1.00  0.00    -0.064 C 
ATOM     15  C   UNL     1      90.960  29.800  12.129  1.00  0.00     0.032 C 
ATOM     16  C   UNL     1      90.645  28.624  13.030  1.00  0.00    -0.064 C 
ATOM     17  C   UNL     1      89.910  26.221  13.295  1.00  0.00     0.032 C 
ATOM     18  C   UNL     1      90.429  28.813  14.547  1.00  0.00    -0.008 C 
ATOM     19  C   UNL     1      90.146  26.280  14.824  1.00  0.00     0.009 C 
ATOM     20  C   UNL     1      90.987  27.503  15.226  1.00  0.00     0.007 C 
ATOM     21  C   UNL     1      91.167  30.061  15.160  1.00  0.00     0.014 C 
ATOM     22  C   UNL     1      88.901  29.027  14.735  1.00  0.00     0.016 C 
ATOM     23  C   UNL     1      91.388  27.633  16.745  1.00  0.00    -0.006 C 
ATOM     24  C   UNL     1      92.562  29.735  15.696  1.00  0.00     0.033 C 
ATOM     25  C   UNL     1      92.513  28.740  16.879  1.00  0.00     0.120 C 
ATOM     26  C   UNL     1      90.168  27.953  17.649  1.00  0.00     0.014 C 
ATOM     27  C   UNL     1      91.982  26.293  17.251  1.00  0.00     0.014 C 
BRANCH  25  28
ATOM     28  O   UNL     1      92.391  29.462  18.080  1.00  0.00    -0.393 OA
ATOM     29  H   UNL     1      91.439  29.410  18.353  1.00  0.00     0.210 HD
ENDBRANCH  25  28
ENDBRANCH   2   6
ENDBRANCH   1   2
BRANCH   1  30
ATOM     30  C   UNL     1      87.386  28.905   8.023  1.00  0.00     0.028 C 
BRANCH  30  31
ATOM     31  C   UNL     1      87.035  29.818   9.170  1.00  0.00    -0.028 C 
ATOM     32  C   UNL     1      86.830  29.403  10.440  1.00  0.00    -0.080 C 
ATOM     33  C   UNL     1      86.467  30.429  11.481  1.00  0.00     0.039 C 
ATOM     34  C   UNL     1      86.979  27.954  10.844  1.00  0.00     0.039 C 
ENDBRANCH  30  31
ENDBRANCH   1  30
TORSDOF 6
ENDMDL
MODEL 8
REMARK VINA RESULT:    -1.254      1.464      2.071
REMARK INTER + INTRA:          -3.954
REMARK INTER:                  -2.019
REMARK INTRA:                  -1.935
REMARK UNBOUND:                -2.296
REMARK SMILES CC(C)=CCC[C@H](C(=O)[O-])[C@H]1CC[C@]2(C)C3=C(CC[C@]12C)[C@]1(C)CC[C@@H](O)C(C)(C)[C@H]1CC3
REMARK SMILES IDX 6 1 7 2 8 3 9 4 10 5 11 6 12 7 20 8 13 9 14 10 19 11 21 12
REMARK SMILES IDX 15 13 16 14 18 15 17 16 33 17 22 18 32 19 31 20 24 21 23 22
REMARK SMILES IDX 28 23 25 24 26 25 29 26 30 27 27 28 5 30 4 31 2 32 1 33 3 34
REMARK H PARENT 27 29
REMARK Flexibility Score: inf
ROOT
ATOM      1  C   UNL     1      90.113  29.534   7.486  1.00  0.00     0.014 C 
ENDROOT
BRANCH   1   2
ATOM      2  C   UNL     1      90.647  28.217   8.106  1.00  0.00     0.039 C 
BRANCH   2   3
ATOM      3  C   UNL     1      90.221  27.016   7.288  1.00  0.00     0.045 C 
ATOM      4  O   UNL     1      91.068  26.135   6.985  1.00  0.00    -0.550 OA
ATOM      5  O   UNL     1      88.924  26.893   6.808  1.00  0.00    -0.550 OA
ENDBRANCH   2   3
BRANCH   2   6
ATOM      6  C   UNL     1      90.400  28.096   9.653  1.00  0.00     0.004 C 
ATOM      7  C   UNL     1      89.771  26.802  10.146  1.00  0.00     0.006 C 
ATOM      8  C   UNL     1      91.629  28.308  10.602  1.00  0.00    -0.020 C 
ATOM      9  C   UNL     1      89.819  26.953  11.651  1.00  0.00     0.012 C 
ATOM     10  C   UNL     1      91.180  27.629  11.982  1.00  0.00    -0.006 C 
ATOM     11  C   UNL     1      91.891  29.830  10.763  1.00  0.00     0.012 C 
ATOM     12  C   UNL     1      92.914  27.658   9.996  1.00  0.00     0.012 C 
ATOM     13  C   UNL     1      92.145  26.524  12.494  1.00  0.00     0.017 C 
ATOM     14  C   UNL     1      91.044  28.630  13.154  1.00  0.00    -0.064 C 
ATOM     15  C   UNL     1      92.681  30.128  12.032  1.00  0.00     0.032 C 
ATOM     16  C   UNL     1      91.901  29.695  13.256  1.00  0.00    -0.064 C 
ATOM     17  C   UNL     1      90.042  28.325  14.280  1.00  0.00     0.032 C 
ATOM     18  C   UNL     1      92.005  30.472  14.587  1.00  0.00    -0.008 C 
ATOM     19  C   UNL     1      90.456  28.763  15.706  1.00  0.00     0.009 C 
ATOM     20  C   UNL     1      91.859  29.390  15.726  1.00  0.00     0.007 C 
ATOM     21  C   UNL     1      93.360  31.246  14.786  1.00  0.00     0.014 C 
ATOM     22  C   UNL     1      90.860  31.522  14.555  1.00  0.00     0.016 C 
ATOM     23  C   UNL     1      92.449  29.791  17.132  1.00  0.00    -0.006 C 
ATOM     24  C   UNL     1      94.422  30.427  15.521  1.00  0.00     0.033 C 
ATOM     25  C   UNL     1      93.996  30.085  16.968  1.00  0.00     0.120 C 
ATOM     26  C   UNL     1      91.705  30.999  17.759  1.00  0.00     0.014 C 
ATOM     27  C   UNL     1      92.297  28.608  18.125  1.00  0.00     0.014 C 
BRANCH  25  28
ATOM     28  O   UNL     1      94.423  31.116  17.826  1.00  0.00    -0.393 OA
ATOM     29  H   UNL     1      94.568  31.919  17.262  1.00  0.00     0.210 HD
ENDBRANCH  25  28
ENDBRANCH   2   6
ENDBRANCH   1   2
BRANCH   1  30
ATOM     30  C   UNL     1      91.180  30.452   6.867  1.00  0.00     0.028 C 
BRANCH  30  31
ATOM     31  C   UNL     1      92.557  29.860   7.032  1.00  0.00    -0.028 C 
ATOM     32  C   UNL     1      93.606  30.511   7.584  1.00  0.00    -0.080 C 
ATOM     33  C   UNL     1      94.930  29.798   7.666  1.00  0.00     0.039 C 
ATOM     34  C   UNL     1      93.479  31.911   8.138  1.00  0.00     0.039 C 
ENDBRANCH  30  31
ENDBRANCH   1  30
TORSDOF 6
ENDMDL
MODEL 9
REMARK VINA RESULT:     0.548      2.659      7.319
REMARK INTER + INTRA:          -1.572
REMARK INTER:                   0.545
REMARK INTRA:                  -2.117
REMARK UNBOUND:                -2.296
REMARK SMILES CC(C)=CCC[C@H](C(=O)[O-])[C@H]1CC[C@]2(C)C3=C(CC[C@]12C)[C@]1(C)CC[C@@H](O)C(C)(C)[C@H]1CC3
REMARK SMILES IDX 6 1 7 2 8 3 9 4 10 5 11 6 12 7 20 8 13 9 14 10 19 11 21 12
REMARK SMILES IDX 15 13 16 14 18 15 17 16 33 17 22 18 32 19 31 20 24 21 23 22
REMARK SMILES IDX 28 23 25 24 26 25 29 26 30 27 27 28 5 30 4 31 2 32 1 33 3 34
REMARK H PARENT 27 29
REMARK Flexibility Score: inf
ROOT
ATOM      1  C   UNL     1      90.177  29.183  15.449  1.00  0.00     0.014 C 
ENDROOT
BRANCH   1   2
ATOM      2  C   UNL     1      89.818  27.901  14.653  1.00  0.00     0.039 C 
BRANCH   2   3
ATOM      3  C   UNL     1      89.516  26.746  15.584  1.00  0.00     0.045 C 
ATOM      4  O   UNL     1      88.527  26.000  15.354  1.00  0.00    -0.550 OA
ATOM      5  O   UNL     1      90.271  26.526  16.728  1.00  0.00    -0.550 OA
ENDBRANCH   2   3
BRANCH   2   6
ATOM      6  C   UNL     1      90.817  27.577  13.485  1.00  0.00     0.004 C 
ATOM      7  C   UNL     1      91.409  26.177  13.461  1.00  0.00     0.006 C 
ATOM      8  C   UNL     1      90.314  27.803  12.018  1.00  0.00    -0.020 C 
ATOM      9  C   UNL     1      92.180  26.156  12.159  1.00  0.00     0.012 C 
ATOM     10  C   UNL     1      91.313  26.926  11.122  1.00  0.00    -0.006 C 
ATOM     11  C   UNL     1      90.406  29.315  11.675  1.00  0.00     0.012 C 
ATOM     12  C   UNL     1      88.823  27.364  11.869  1.00  0.00     0.012 C 
ATOM     13  C   UNL     1      90.607  25.875  10.222  1.00  0.00     0.017 C 
ATOM     14  C   UNL     1      92.190  27.765  10.162  1.00  0.00    -0.064 C 
ATOM     15  C   UNL     1      90.452  29.544  10.170  1.00  0.00     0.032 C 
ATOM     16  C   UNL     1      91.683  28.894   9.572  1.00  0.00    -0.064 C 
ATOM     17  C   UNL     1      93.575  27.230   9.761  1.00  0.00     0.032 C 
ATOM     18  C   UNL     1      92.409  29.517   8.360  1.00  0.00    -0.008 C 
ATOM     19  C   UNL     1      94.040  27.540   8.317  1.00  0.00     0.009 C 
ATOM     20  C   UNL     1      92.966  28.302   7.523  1.00  0.00     0.007 C 
ATOM     21  C   UNL     1      91.492  30.399   7.434  1.00  0.00     0.014 C 
ATOM     22  C   UNL     1      93.509  30.440   8.954  1.00  0.00     0.016 C 
ATOM     23  C   UNL     1      93.268  28.595   6.004  1.00  0.00    -0.006 C 
ATOM     24  C   UNL     1      90.864  29.614   6.281  1.00  0.00     0.033 C 
ATOM     25  C   UNL     1      91.929  29.065   5.302  1.00  0.00     0.120 C 
ATOM     26  C   UNL     1      94.401  29.640   5.821  1.00  0.00     0.014 C 
ATOM     27  C   UNL     1      93.739  27.296   5.299  1.00  0.00     0.014 C 
BRANCH  25  28
ATOM     28  O   UNL     1      92.174  30.027   4.306  1.00  0.00    -0.393 OA
ATOM     29  H   UNL     1      91.297  30.428   4.069  1.00  0.00     0.210 HD
ENDBRANCH  25  28
ENDBRANCH   2   6
ENDBRANCH   1   2
BRANCH   1  30
ATOM     30  C   UNL     1      91.644  29.633  15.349  1.00  0.00     0.028 C 
BRANCH  30  31
ATOM     31  C   UNL     1      91.746  30.991  14.702  1.00  0.00    -0.028 C 
ATOM     32  C   UNL     1      92.597  31.295  13.697  1.00  0.00    -0.080 C 
ATOM     33  C   UNL     1      92.601  32.703  13.161  1.00  0.00     0.039 C 
ATOM     34  C   UNL     1      93.518  30.264  13.087  1.00  0.00     0.039 C 
ENDBRANCH  30  31
ENDBRANCH   1  30
TORSDOF 6
ENDMDL
