MODEL 1
REMARK VINA RESULT:    -4.614      0.000      0.000
REMARK INTER + INTRA:          -7.016
REMARK INTER:                  -6.503
REMARK INTRA:                  -0.514
REMARK UNBOUND:                -0.514
REMARK SMILES CCCCCCCCC(=O)[O-]
REMARK SMILES IDX 6 1 7 2 8 3 9 4 10 5 11 6 5 7 4 8 3 9 2 10 1 11
REMARK H PARENT
REMARK Flexibility Score: inf
ROOT
ATOM      1  C   UNL     1      45.386 -46.153 163.482  1.00  0.00     0.000 C 
ENDROOT
BRANCH   1   2
ATOM      2  C   UNL     1      44.342 -47.160 162.980  1.00  0.00     0.006 C 
BRANCH   2   3
ATOM      3  C   UNL     1      44.999 -48.259 162.140  1.00  0.00     0.053 C 
BRANCH   3   4
ATOM      4  C   UNL     1      45.792 -49.182 163.010  1.00  0.00     0.041 C 
ATOM      5  O   UNL     1      46.918 -49.599 162.630  1.00  0.00    -0.550 OA
ATOM      6  O   UNL     1      45.267 -49.623 164.218  1.00  0.00    -0.550 OA
ENDBRANCH   3   4
ENDBRANCH   2   3
ENDBRANCH   1   2
BRANCH   1   7
ATOM      7  C   UNL     1      45.399 -46.026 165.014  1.00  0.00     0.000 C 
BRANCH   7   8
ATOM      8  C   UNL     1      46.810 -45.794 165.577  1.00  0.00    -0.000 C 
BRANCH   8   9
ATOM      9  C   UNL     1      47.858 -46.564 164.764  1.00  0.00    -0.000 C 
BRANCH   9  10
ATOM     10  C   UNL     1      49.085 -45.689 164.478  1.00  0.00    -0.003 C 
ATOM     11  C   UNL     1      50.360 -46.336 165.010  1.00  0.00     0.004 C 
ENDBRANCH   9  10
ENDBRANCH   8   9
ENDBRANCH   7   8
ENDBRANCH   1   7
TORSDOF 7
ENDMDL
MODEL 2
REMARK VINA RESULT:    -4.573      3.273      5.532
REMARK INTER + INTRA:          -6.957
REMARK INTER:                  -6.339
REMARK INTRA:                  -0.618
REMARK UNBOUND:                -0.514
REMARK SMILES CCCCCCCCC(=O)[O-]
REMARK SMILES IDX 6 1 7 2 8 3 9 4 10 5 11 6 5 7 4 8 3 9 2 10 1 11
REMARK H PARENT
REMARK Flexibility Score: inf
ROOT
ATOM      1  C   UNL     1      44.192 -49.467 164.381  1.00  0.00     0.000 C 
ENDROOT
BRANCH   1   2
ATOM      2  C   UNL     1      45.651 -49.027 164.191  1.00  0.00     0.006 C 
BRANCH   2   3
ATOM      3  C   UNL     1      45.978 -48.842 162.706  1.00  0.00     0.053 C 
BRANCH   3   4
ATOM      4  C   UNL     1      45.135 -47.757 162.114  1.00  0.00     0.041 C 
ATOM      5  O   UNL     1      45.139 -46.604 162.622  1.00  0.00    -0.550 OA
ATOM      6  O   UNL     1      44.306 -48.030 161.033  1.00  0.00    -0.550 OA
ENDBRANCH   3   4
ENDBRANCH   2   3
ENDBRANCH   1   2
BRANCH   1   7
ATOM      7  C   UNL     1      43.462 -48.647 165.457  1.00  0.00     0.000 C 
BRANCH   7   8
ATOM      8  C   UNL     1      42.012 -48.319 165.067  1.00  0.00    -0.000 C 
BRANCH   8   9
ATOM      9  C   UNL     1      41.811 -48.435 163.551  1.00  0.00    -0.000 C 
BRANCH   9  10
ATOM     10  C   UNL     1      40.489 -49.140 163.223  1.00  0.00    -0.003 C 
ATOM     11  C   UNL     1      40.534 -50.611 163.628  1.00  0.00     0.004 C 
ENDBRANCH   9  10
ENDBRANCH   8   9
ENDBRANCH   7   8
ENDBRANCH   1   7
TORSDOF 7
ENDMDL
MODEL 3
REMARK VINA RESULT:    -4.568      3.351      4.643
REMARK INTER + INTRA:          -6.951
REMARK INTER:                  -6.223
REMARK INTRA:                  -0.729
REMARK UNBOUND:                -0.514
REMARK SMILES CCCCCCCCC(=O)[O-]
REMARK SMILES IDX 6 1 7 2 8 3 9 4 10 5 11 6 5 7 4 8 3 9 2 10 1 11
REMARK H PARENT
REMARK Flexibility Score: inf
ROOT
ATOM      1  C   UNL     1      43.515 -48.661 165.420  1.00  0.00     0.000 C 
ENDROOT
BRANCH   1   2
ATOM      2  C   UNL     1      42.033 -48.404 165.113  1.00  0.00     0.006 C 
BRANCH   2   3
ATOM      3  C   UNL     1      41.767 -48.470 163.606  1.00  0.00     0.053 C 
BRANCH   3   4
ATOM      4  C   UNL     1      40.627 -49.394 163.314  1.00  0.00     0.041 C 
ATOM      5  O   UNL     1      40.687 -50.603 163.665  1.00  0.00    -0.550 OA
ATOM      6  O   UNL     1      39.522 -48.936 162.609  1.00  0.00    -0.550 OA
ENDBRANCH   3   4
ENDBRANCH   2   3
ENDBRANCH   1   2
BRANCH   1   7
ATOM      7  C   UNL     1      44.194 -49.550 164.367  1.00  0.00     0.000 C 
BRANCH   7   8
ATOM      8  C   UNL     1      45.498 -48.942 163.830  1.00  0.00    -0.000 C 
BRANCH   8   9
ATOM      9  C   UNL     1      45.353 -48.544 162.356  1.00  0.00    -0.000 C 
BRANCH   9  10
ATOM     10  C   UNL     1      44.934 -47.076 162.220  1.00  0.00    -0.003 C 
ATOM     11  C   UNL     1      45.476 -46.238 163.374  1.00  0.00     0.004 C 
ENDBRANCH   9  10
ENDBRANCH   8   9
ENDBRANCH   7   8
ENDBRANCH   1   7
TORSDOF 7
ENDMDL
MODEL 4
REMARK VINA RESULT:    -4.478      5.933      8.408
REMARK INTER + INTRA:          -6.824
REMARK INTER:                  -6.401
REMARK INTRA:                  -0.423
REMARK UNBOUND:                -0.514
REMARK SMILES CCCCCCCCC(=O)[O-]
REMARK SMILES IDX 6 1 7 2 8 3 9 4 10 5 11 6 5 7 4 8 3 9 2 10 1 11
REMARK H PARENT
REMARK Flexibility Score: inf
ROOT
ATOM      1  C   UNL     1      53.300 -45.720 166.548  1.00  0.00     0.000 C 
ENDROOT
BRANCH   1   2
ATOM      2  C   UNL     1      54.286 -44.781 165.839  1.00  0.00     0.006 C 
BRANCH   2   3
ATOM      3  C   UNL     1      53.556 -43.864 164.853  1.00  0.00     0.053 C 
BRANCH   3   4
ATOM      4  C   UNL     1      53.913 -42.433 165.105  1.00  0.00     0.041 C 
ATOM      5  O   UNL     1      53.823 -41.952 166.265  1.00  0.00    -0.550 OA
ATOM      6  O   UNL     1      54.295 -41.615 164.049  1.00  0.00    -0.550 OA
ENDBRANCH   3   4
ENDBRANCH   2   3
ENDBRANCH   1   2
BRANCH   1   7
ATOM      7  C   UNL     1      53.328 -47.148 165.980  1.00  0.00     0.000 C 
BRANCH   7   8
ATOM      8  C   UNL     1      51.948 -47.619 165.497  1.00  0.00    -0.000 C 
BRANCH   8   9
ATOM      9  C   UNL     1      50.972 -46.440 165.387  1.00  0.00    -0.000 C 
BRANCH   9  10
ATOM     10  C   UNL     1      49.615 -46.898 164.841  1.00  0.00    -0.003 C 
ATOM     11  C   UNL     1      49.327 -48.346 165.222  1.00  0.00     0.004 C 
ENDBRANCH   9  10
ENDBRANCH   8   9
ENDBRANCH   7   8
ENDBRANCH   1   7
TORSDOF 7
ENDMDL
MODEL 5
REMARK VINA RESULT:    -4.460      5.317      7.975
REMARK INTER + INTRA:          -6.799
REMARK INTER:                  -6.357
REMARK INTRA:                  -0.441
REMARK UNBOUND:                -0.514
REMARK SMILES CCCCCCCCC(=O)[O-]
REMARK SMILES IDX 6 1 7 2 8 3 9 4 10 5 11 6 5 7 4 8 3 9 2 10 1 11
REMARK H PARENT
REMARK Flexibility Score: inf
ROOT
ATOM      1  C   UNL     1      53.939 -48.134 165.590  1.00  0.00     0.000 C 
ENDROOT
BRANCH   1   2
ATOM      2  C   UNL     1      54.736 -48.938 166.627  1.00  0.00     0.006 C 
BRANCH   2   3
ATOM      3  C   UNL     1      53.800 -49.632 167.620  1.00  0.00     0.053 C 
BRANCH   3   4
ATOM      4  C   UNL     1      54.095 -51.097 167.685  1.00  0.00     0.041 C 
ATOM      5  O   UNL     1      54.671 -51.670 166.722  1.00  0.00    -0.550 OA
ATOM      6  O   UNL     1      53.687 -51.841 168.785  1.00  0.00    -0.550 OA
ENDBRANCH   3   4
ENDBRANCH   2   3
ENDBRANCH   1   2
BRANCH   1   7
ATOM      7  C   UNL     1      53.403 -46.808 166.152  1.00  0.00     0.000 C 
BRANCH   7   8
ATOM      8  C   UNL     1      51.925 -46.572 165.804  1.00  0.00    -0.000 C 
BRANCH   8   9
ATOM      9  C   UNL     1      51.203 -47.901 165.547  1.00  0.00    -0.000 C 
BRANCH   9  10
ATOM     10  C   UNL     1      49.753 -47.663 165.107  1.00  0.00    -0.003 C 
ATOM     11  C   UNL     1      49.546 -46.223 164.647  1.00  0.00     0.004 C 
ENDBRANCH   9  10
ENDBRANCH   8   9
ENDBRANCH   7   8
ENDBRANCH   1   7
TORSDOF 7
ENDMDL
MODEL 6
REMARK VINA RESULT:    -4.451      2.595      5.468
REMARK INTER + INTRA:          -6.786
REMARK INTER:                  -6.209
REMARK INTRA:                  -0.576
REMARK UNBOUND:                -0.514
REMARK SMILES CCCCCCCCC(=O)[O-]
REMARK SMILES IDX 6 1 7 2 8 3 9 4 10 5 11 6 5 7 4 8 3 9 2 10 1 11
REMARK H PARENT
REMARK Flexibility Score: inf
ROOT
ATOM      1  C   UNL     1      44.604 -46.605 162.662  1.00  0.00     0.000 C 
ENDROOT
BRANCH   1   2
ATOM      2  C   UNL     1      45.515 -47.063 163.810  1.00  0.00     0.006 C 
BRANCH   2   3
ATOM      3  C   UNL     1      44.750 -47.095 165.137  1.00  0.00     0.053 C 
BRANCH   3   4
ATOM      4  C   UNL     1      44.013 -48.388 165.287  1.00  0.00     0.041 C 
ATOM      5  O   UNL     1      44.475 -49.444 164.779  1.00  0.00    -0.550 OA
ATOM      6  O   UNL     1      42.789 -48.419 165.945  1.00  0.00    -0.550 OA
ENDBRANCH   3   4
ENDBRANCH   2   3
ENDBRANCH   1   2
BRANCH   1   7
ATOM      7  C   UNL     1      44.543 -47.623 161.512  1.00  0.00     0.000 C 
BRANCH   7   8
ATOM      8  C   UNL     1      43.103 -47.988 161.121  1.00  0.00    -0.000 C 
BRANCH   8   9
ATOM      9  C   UNL     1      42.138 -47.742 162.288  1.00  0.00    -0.000 C 
BRANCH   9  10
ATOM     10  C   UNL     1      40.715 -47.484 161.781  1.00  0.00    -0.003 C 
ATOM     11  C   UNL     1      40.548 -46.041 161.316  1.00  0.00     0.004 C 
ENDBRANCH   9  10
ENDBRANCH   8   9
ENDBRANCH   7   8
ENDBRANCH   1   7
TORSDOF 7
ENDMDL
MODEL 7
REMARK VINA RESULT:    -4.437      2.339      3.374
REMARK INTER + INTRA:          -6.766
REMARK INTER:                  -6.251
REMARK INTRA:                  -0.515
REMARK UNBOUND:                -0.514
REMARK SMILES CCCCCCCCC(=O)[O-]
REMARK SMILES IDX 6 1 7 2 8 3 9 4 10 5 11 6 5 7 4 8 3 9 2 10 1 11
REMARK H PARENT
REMARK Flexibility Score: inf
ROOT
ATOM      1  C   UNL     1      45.581 -49.465 164.278  1.00  0.00     0.000 C 
ENDROOT
BRANCH   1   2
ATOM      2  C   UNL     1      44.247 -48.715 164.157  1.00  0.00     0.006 C 
BRANCH   2   3
ATOM      3  C   UNL     1      44.169 -47.569 165.171  1.00  0.00     0.053 C 
BRANCH   3   4
ATOM      4  C   UNL     1      45.005 -46.413 164.723  1.00  0.00     0.041 C 
ATOM      5  O   UNL     1      45.045 -46.094 163.505  1.00  0.00    -0.550 OA
ATOM      6  O   UNL     1      45.782 -45.718 165.642  1.00  0.00    -0.550 OA
ENDBRANCH   3   4
ENDBRANCH   2   3
ENDBRANCH   1   2
BRANCH   1   7
ATOM      7  C   UNL     1      46.401 -49.429 162.978  1.00  0.00     0.000 C 
BRANCH   7   8
ATOM      8  C   UNL     1      47.911 -49.304 163.235  1.00  0.00    -0.000 C 
BRANCH   8   9
ATOM      9  C   UNL     1      48.192 -48.356 164.408  1.00  0.00    -0.000 C 
BRANCH   9  10
ATOM     10  C   UNL     1      49.218 -48.963 165.372  1.00  0.00    -0.003 C 
ATOM     11  C   UNL     1      50.484 -48.115 165.436  1.00  0.00     0.004 C 
ENDBRANCH   9  10
ENDBRANCH   8   9
ENDBRANCH   7   8
ENDBRANCH   1   7
TORSDOF 7
ENDMDL
MODEL 8
REMARK VINA RESULT:    -4.397      2.754      4.933
REMARK INTER + INTRA:          -6.710
REMARK INTER:                  -6.328
REMARK INTRA:                  -0.382
REMARK UNBOUND:                -0.514
REMARK SMILES CCCCCCCCC(=O)[O-]
REMARK SMILES IDX 6 1 7 2 8 3 9 4 10 5 11 6 5 7 4 8 3 9 2 10 1 11
REMARK H PARENT
REMARK Flexibility Score: inf
ROOT
ATOM      1  C   UNL     1      50.796 -46.425 165.127  1.00  0.00     0.000 C 
ENDROOT
BRANCH   1   2
ATOM      2  C   UNL     1      49.344 -46.778 164.773  1.00  0.00     0.006 C 
BRANCH   2   3
ATOM      3  C   UNL     1      49.050 -48.251 165.071  1.00  0.00     0.053 C 
BRANCH   3   4
ATOM      4  C   UNL     1      47.991 -48.772 164.152  1.00  0.00     0.041 C 
ATOM      5  O   UNL     1      46.775 -48.559 164.401  1.00  0.00    -0.550 OA
ATOM      6  O   UNL     1      48.344 -49.537 163.047  1.00  0.00    -0.550 OA
ENDBRANCH   3   4
ENDBRANCH   2   3
ENDBRANCH   1   2
BRANCH   1   7
ATOM      7  C   UNL     1      51.631 -47.658 165.503  1.00  0.00     0.000 C 
BRANCH   7   8
ATOM      8  C   UNL     1      53.075 -47.300 165.888  1.00  0.00    -0.000 C 
BRANCH   8   9
ATOM      9  C   UNL     1      53.177 -45.838 166.338  1.00  0.00    -0.000 C 
BRANCH   9  10
ATOM     10  C   UNL     1      54.223 -45.079 165.513  1.00  0.00    -0.003 C 
ATOM     11  C   UNL     1      53.722 -43.690 165.130  1.00  0.00     0.004 C 
ENDBRANCH   9  10
ENDBRANCH   8   9
ENDBRANCH   7   8
ENDBRANCH   1   7
TORSDOF 7
ENDMDL
MODEL 9
REMARK VINA RESULT:    -4.373      2.941      5.386
REMARK INTER + INTRA:          -6.676
REMARK INTER:                  -5.991
REMARK INTRA:                  -0.684
REMARK UNBOUND:                -0.514
REMARK SMILES CCCCCCCCC(=O)[O-]
REMARK SMILES IDX 6 1 7 2 8 3 9 4 10 5 11 6 5 7 4 8 3 9 2 10 1 11
REMARK H PARENT
REMARK Flexibility Score: inf
ROOT
ATOM      1  C   UNL     1      44.365 -49.037 164.478  1.00  0.00     0.000 C 
ENDROOT
BRANCH   1   2
ATOM      2  C   UNL     1      45.394 -48.067 163.881  1.00  0.00     0.006 C 
BRANCH   2   3
ATOM      3  C   UNL     1      45.161 -46.641 164.389  1.00  0.00     0.053 C 
BRANCH   3   4
ATOM      4  C   UNL     1      46.336 -46.169 165.187  1.00  0.00     0.041 C 
ATOM      5  O   UNL     1      46.162 -45.443 166.202  1.00  0.00    -0.550 OA
ATOM      6  O   UNL     1      47.626 -46.487 164.781  1.00  0.00    -0.550 OA
ENDBRANCH   3   4
ENDBRANCH   2   3
ENDBRANCH   1   2
BRANCH   1   7
ATOM      7  C   UNL     1      43.467 -48.374 165.534  1.00  0.00     0.000 C 
BRANCH   7   8
ATOM      8  C   UNL     1      41.981 -48.395 165.145  1.00  0.00    -0.000 C 
BRANCH   8   9
ATOM      9  C   UNL     1      41.765 -49.182 163.846  1.00  0.00    -0.000 C 
BRANCH   9  10
ATOM     10  C   UNL     1      41.061 -48.320 162.791  1.00  0.00    -0.003 C 
ATOM     11  C   UNL     1      42.064 -47.480 162.007  1.00  0.00     0.004 C 
ENDBRANCH   9  10
ENDBRANCH   8   9
ENDBRANCH   7   8
ENDBRANCH   1   7
TORSDOF 7
ENDMDL
