MODEL 1
REMARK VINA RESULT:    -6.570      0.000      0.000
REMARK INTER + INTRA:          -8.415
REMARK INTER:                  -8.107
REMARK INTRA:                  -0.309
REMARK UNBOUND:                -0.309
REMARK SMILES Oc1cc(O)c2cc(O)c(-c3cc(O)c(O)c(O)c3)[o+]c2c1
REMARK SMILES IDX 10 1 20 2 21 3 22 4 2 5 3 6 4 7 6 8 7 9 8 10 11 11 12 12
REMARK SMILES IDX 13 13 19 14 15 15 17 16 14 17 16 19 18 21 9 23 1 25 5 27
REMARK H PARENT 14 18 16 20 18 22 9 24 1 26 5 28
REMARK Flexibility Score: inf
ROOT
ATOM      1  C   UNL     1      11.642  40.989   0.431  1.00  0.00     0.402 A 
ATOM      2  O   UNL     1      12.757  41.369   1.047  1.00  0.00    -0.202 OA
ATOM      3  C   UNL     1      13.190  40.819   2.178  1.00  0.00     0.368 A 
ATOM      4  C   UNL     1      14.374  41.288   2.753  1.00  0.00     0.162 A 
ATOM      5  C   UNL     1      14.850  40.733   3.941  1.00  0.00     0.128 A 
ATOM      6  C   UNL     1      14.138  39.701   4.561  1.00  0.00     0.093 A 
ATOM      7  C   UNL     1      12.949  39.213   4.006  1.00  0.00     0.136 A 
ATOM      8  C   UNL     1      12.462  39.774   2.796  1.00  0.00     0.125 A 
ATOM      9  C   UNL     1      11.288  39.339   2.161  1.00  0.00     0.078 A 
ATOM     10  C   UNL     1      10.874  39.938   0.966  1.00  0.00     0.223 A 
ENDROOT
BRANCH   1  11
ATOM     11  C   UNL     1      11.260  41.686  -0.818  1.00  0.00     0.091 A 
ATOM     12  C   UNL     1      12.050  41.526  -1.967  1.00  0.00     0.068 A 
ATOM     13  C   UNL     1      11.726  42.187  -3.155  1.00  0.00     0.162 A 
ATOM     14  C   UNL     1      10.153  42.550  -0.867  1.00  0.00     0.068 A 
ATOM     15  C   UNL     1      10.605  43.034  -3.204  1.00  0.00     0.200 A 
ATOM     16  C   UNL     1       9.820  43.218  -2.053  1.00  0.00     0.162 A 
BRANCH  13  17
ATOM     17  O   UNL     1      12.529  41.990  -4.279  1.00  0.00    -0.504 OA
ATOM     18  H   UNL     1      13.093  42.732  -4.675  1.00  0.00     0.293 HD
ENDBRANCH  13  17
BRANCH  15  19
ATOM     19  O   UNL     1      10.286  43.688  -4.395  1.00  0.00    -0.502 OA
ATOM     20  H   UNL     1       9.606  44.437  -4.435  1.00  0.00     0.293 HD
ENDBRANCH  15  19
BRANCH  16  21
ATOM     21  O   UNL     1       8.716  44.068  -2.090  1.00  0.00    -0.504 OA
ATOM     22  H   UNL     1       8.104  44.179  -1.290  1.00  0.00     0.293 HD
ENDBRANCH  16  21
ENDBRANCH   1  11
BRANCH  10  23
ATOM     23  O   UNL     1       9.735  39.474   0.309  1.00  0.00    -0.500 OA
ATOM     24  H   UNL     1       8.868  39.999   0.311  1.00  0.00     0.294 HD
ENDBRANCH  10  23
BRANCH   5  25
ATOM     25  O   UNL     1      16.033  41.214   4.497  1.00  0.00    -0.507 OA
ATOM     26  H   UNL     1      16.151  42.194   4.726  1.00  0.00     0.293 HD
ENDBRANCH   5  25
BRANCH   7  27
ATOM     27  O   UNL     1      12.294  38.183   4.687  1.00  0.00    -0.507 OA
ATOM     28  H   UNL     1      11.527  37.647   4.311  1.00  0.00     0.293 HD
ENDBRANCH   7  27
TORSDOF 7
ENDMDL
MODEL 2
REMARK VINA RESULT:    -6.187      1.731      7.024
REMARK INTER + INTRA:          -7.942
REMARK INTER:                  -7.874
REMARK INTRA:                  -0.068
REMARK UNBOUND:                -0.309
REMARK SMILES Oc1cc(O)c2cc(O)c(-c3cc(O)c(O)c(O)c3)[o+]c2c1
REMARK SMILES IDX 10 1 20 2 21 3 22 4 2 5 3 6 4 7 6 8 7 9 8 10 11 11 12 12
REMARK SMILES IDX 13 13 19 14 15 15 17 16 14 17 16 19 18 21 9 23 1 25 5 27
REMARK H PARENT 14 18 16 20 18 22 9 24 1 26 5 28
REMARK Flexibility Score: inf
ROOT
ATOM      1  C   UNL     1      11.452  41.520  -0.945  1.00  0.00     0.402 A 
ATOM      2  O   UNL     1      12.564  41.669  -1.660  1.00  0.00    -0.202 OA
ATOM      3  C   UNL     1      12.601  42.299  -2.830  1.00  0.00     0.368 A 
ATOM      4  C   UNL     1      13.818  42.402  -3.509  1.00  0.00     0.162 A 
ATOM      5  C   UNL     1      13.886  43.054  -4.741  1.00  0.00     0.128 A 
ATOM      6  C   UNL     1      12.729  43.606  -5.301  1.00  0.00     0.093 A 
ATOM      7  C   UNL     1      11.497  43.516  -4.641  1.00  0.00     0.136 A 
ATOM      8  C   UNL     1      11.424  42.856  -3.387  1.00  0.00     0.125 A 
ATOM      9  C   UNL     1      10.236  42.729  -2.649  1.00  0.00     0.078 A 
ATOM     10  C   UNL     1      10.245  42.068  -1.416  1.00  0.00     0.223 A 
ENDROOT
BRANCH   1  11
ATOM     11  C   UNL     1      11.538  40.791   0.339  1.00  0.00     0.091 A 
ATOM     12  C   UNL     1      10.638  39.747   0.602  1.00  0.00     0.068 A 
ATOM     13  C   UNL     1      10.682  39.052   1.814  1.00  0.00     0.162 A 
ATOM     14  C   UNL     1      12.468  41.154   1.329  1.00  0.00     0.068 A 
ATOM     15  C   UNL     1      11.627  39.407   2.793  1.00  0.00     0.200 A 
ATOM     16  C   UNL     1      12.520  40.465   2.548  1.00  0.00     0.162 A 
BRANCH  13  17
ATOM     17  O   UNL     1       9.778  38.012   2.031  1.00  0.00    -0.504 OA
ATOM     18  H   UNL     1       8.838  38.177   2.371  1.00  0.00     0.293 HD
ENDBRANCH  13  17
BRANCH  15  19
ATOM     19  O   UNL     1      11.667  38.706   3.999  1.00  0.00    -0.502 OA
ATOM     20  H   UNL     1      10.836  38.313   4.423  1.00  0.00     0.293 HD
ENDBRANCH  15  19
BRANCH  16  21
ATOM     21  O   UNL     1      13.450  40.832   3.519  1.00  0.00    -0.504 OA
ATOM     22  H   UNL     1      13.515  40.343   4.404  1.00  0.00     0.293 HD
ENDBRANCH  16  21
ENDBRANCH   1  11
BRANCH  10  23
ATOM     23  O   UNL     1       9.076  41.984  -0.660  1.00  0.00    -0.500 OA
ATOM     24  H   UNL     1       8.630  42.809  -0.275  1.00  0.00     0.294 HD
ENDBRANCH  10  23
BRANCH   5  25
ATOM     25  O   UNL     1      15.109  43.147  -5.401  1.00  0.00    -0.507 OA
ATOM     26  H   UNL     1      15.253  42.727  -6.312  1.00  0.00     0.293 HD
ENDBRANCH   5  25
BRANCH   7  27
ATOM     27  O   UNL     1      10.387  44.090  -5.268  1.00  0.00    -0.507 OA
ATOM     28  H   UNL     1       9.820  44.821  -4.867  1.00  0.00     0.293 HD
ENDBRANCH   7  27
TORSDOF 7
ENDMDL
MODEL 3
REMARK VINA RESULT:    -5.476     10.578     13.193
REMARK INTER + INTRA:          -7.065
REMARK INTER:                  -6.746
REMARK INTRA:                  -0.319
REMARK UNBOUND:                -0.309
REMARK SMILES Oc1cc(O)c2cc(O)c(-c3cc(O)c(O)c(O)c3)[o+]c2c1
REMARK SMILES IDX 10 1 20 2 21 3 22 4 2 5 3 6 4 7 6 8 7 9 8 10 11 11 12 12
REMARK SMILES IDX 13 13 19 14 15 15 17 16 14 17 16 19 18 21 9 23 1 25 5 27
REMARK H PARENT 14 18 16 20 18 22 9 24 1 26 5 28
REMARK Flexibility Score: inf
ROOT
ATOM      1  C   UNL     1       5.602  33.947  -6.092  1.00  0.00     0.402 A 
ATOM      2  O   UNL     1       4.734  34.722  -5.448  1.00  0.00    -0.202 OA
ATOM      3  C   UNL     1       4.793  36.050  -5.459  1.00  0.00     0.368 A 
ATOM      4  C   UNL     1       3.836  36.780  -4.748  1.00  0.00     0.162 A 
ATOM      5  C   UNL     1       3.875  38.174  -4.739  1.00  0.00     0.128 A 
ATOM      6  C   UNL     1       4.879  38.847  -5.444  1.00  0.00     0.093 A 
ATOM      7  C   UNL     1       5.849  38.140  -6.165  1.00  0.00     0.136 A 
ATOM      8  C   UNL     1       5.811  36.721  -6.178  1.00  0.00     0.125 A 
ATOM      9  C   UNL     1       6.734  35.931  -6.882  1.00  0.00     0.078 A 
ATOM     10  C   UNL     1       6.629  34.536  -6.852  1.00  0.00     0.223 A 
ENDROOT
BRANCH   1  11
ATOM     11  C   UNL     1       5.436  32.480  -5.995  1.00  0.00     0.091 A 
ATOM     12  C   UNL     1       4.878  31.775  -7.072  1.00  0.00     0.068 A 
ATOM     13  C   UNL     1       4.692  30.391  -7.001  1.00  0.00     0.162 A 
ATOM     14  C   UNL     1       5.775  31.780  -4.824  1.00  0.00     0.068 A 
ATOM     15  C   UNL     1       5.052  29.693  -5.836  1.00  0.00     0.200 A 
ATOM     16  C   UNL     1       5.591  30.393  -4.743  1.00  0.00     0.162 A 
BRANCH  13  17
ATOM     17  O   UNL     1       4.147  29.725  -8.100  1.00  0.00    -0.504 OA
ATOM     18  H   UNL     1       3.645  30.213  -8.831  1.00  0.00     0.293 HD
ENDBRANCH  13  17
BRANCH  15  19
ATOM     19  O   UNL     1       4.866  28.311  -5.774  1.00  0.00    -0.502 OA
ATOM     20  H   UNL     1       4.170  27.834  -6.335  1.00  0.00     0.293 HD
ENDBRANCH  15  19
BRANCH  16  21
ATOM     21  O   UNL     1       5.936  29.709  -3.578  1.00  0.00    -0.504 OA
ATOM     22  H   UNL     1       5.233  29.305  -2.971  1.00  0.00     0.293 HD
ENDBRANCH  16  21
ENDBRANCH   1  11
BRANCH  10  23
ATOM     23  O   UNL     1       7.516  33.752  -7.590  1.00  0.00    -0.500 OA
ATOM     24  H   UNL     1       8.190  34.164  -8.224  1.00  0.00     0.294 HD
ENDBRANCH  10  23
BRANCH   5  25
ATOM     25  O   UNL     1       2.912  38.883  -4.026  1.00  0.00    -0.507 OA
ATOM     26  H   UNL     1       3.102  39.804  -3.648  1.00  0.00     0.293 HD
ENDBRANCH   5  25
BRANCH   7  27
ATOM     27  O   UNL     1       6.820  38.885  -6.841  1.00  0.00    -0.507 OA
ATOM     28  H   UNL     1       7.457  38.505  -7.524  1.00  0.00     0.293 HD
ENDBRANCH   7  27
TORSDOF 7
ENDMDL
MODEL 4
REMARK VINA RESULT:    -5.466      2.078      3.987
REMARK INTER + INTRA:          -7.053
REMARK INTER:                  -6.939
REMARK INTRA:                  -0.114
REMARK UNBOUND:                -0.309
REMARK SMILES Oc1cc(O)c2cc(O)c(-c3cc(O)c(O)c(O)c3)[o+]c2c1
REMARK SMILES IDX 10 1 20 2 21 3 22 4 2 5 3 6 4 7 6 8 7 9 8 10 11 11 12 12
REMARK SMILES IDX 13 13 19 14 15 15 17 16 14 17 16 19 18 21 9 23 1 25 5 27
REMARK H PARENT 14 18 16 20 18 22 9 24 1 26 5 28
REMARK Flexibility Score: inf
ROOT
ATOM      1  C   UNL     1      12.442  41.851  -0.938  1.00  0.00     0.402 A 
ATOM      2  O   UNL     1      11.576  40.850  -0.807  1.00  0.00    -0.202 OA
ATOM      3  C   UNL     1      11.347  40.229   0.346  1.00  0.00     0.368 A 
ATOM      4  C   UNL     1      10.418  39.186   0.384  1.00  0.00     0.162 A 
ATOM      5  C   UNL     1      10.161  38.513   1.579  1.00  0.00     0.128 A 
ATOM      6  C   UNL     1      10.837  38.883   2.746  1.00  0.00     0.093 A 
ATOM      7  C   UNL     1      11.773  39.925   2.735  1.00  0.00     0.136 A 
ATOM      8  C   UNL     1      12.036  40.613   1.522  1.00  0.00     0.125 A 
ATOM      9  C   UNL     1      12.947  41.677   1.419  1.00  0.00     0.078 A 
ATOM     10  C   UNL     1      13.149  42.311   0.189  1.00  0.00     0.223 A 
ENDROOT
BRANCH   1  11
ATOM     11  C   UNL     1      12.616  42.456  -2.277  1.00  0.00     0.091 A 
ATOM     12  C   UNL     1      11.484  42.829  -3.018  1.00  0.00     0.068 A 
ATOM     13  C   UNL     1      11.616  43.385  -4.294  1.00  0.00     0.162 A 
ATOM     14  C   UNL     1      13.889  42.615  -2.851  1.00  0.00     0.068 A 
ATOM     15  C   UNL     1      12.893  43.561  -4.855  1.00  0.00     0.200 A 
ATOM     16  C   UNL     1      14.032  43.170  -4.130  1.00  0.00     0.162 A 
BRANCH  13  17
ATOM     17  O   UNL     1      10.466  43.756  -4.992  1.00  0.00    -0.504 OA
ATOM     18  H   UNL     1       9.763  43.083  -5.269  1.00  0.00     0.293 HD
ENDBRANCH  13  17
BRANCH  15  19
ATOM     19  O   UNL     1      13.017  44.120  -6.128  1.00  0.00    -0.502 OA
ATOM     20  H   UNL     1      12.211  44.351  -6.696  1.00  0.00     0.293 HD
ENDBRANCH  15  19
BRANCH  16  21
ATOM     21  O   UNL     1      15.300  43.328  -4.685  1.00  0.00    -0.504 OA
ATOM     22  H   UNL     1      15.637  44.233  -4.993  1.00  0.00     0.293 HD
ENDBRANCH  16  21
ENDBRANCH   1  11
BRANCH  10  23
ATOM     23  O   UNL     1      14.017  43.399   0.097  1.00  0.00    -0.500 OA
ATOM     24  H   UNL     1      14.320  43.909   0.918  1.00  0.00     0.294 HD
ENDBRANCH  10  23
BRANCH   5  25
ATOM     25  O   UNL     1       9.230  37.477   1.596  1.00  0.00    -0.507 OA
ATOM     26  H   UNL     1       8.242  37.654   1.741  1.00  0.00     0.293 HD
ENDBRANCH   5  25
BRANCH   7  27
ATOM     27  O   UNL     1      12.409  40.233   3.941  1.00  0.00    -0.507 OA
ATOM     28  H   UNL     1      12.446  39.618   4.740  1.00  0.00     0.293 HD
ENDBRANCH   7  27
TORSDOF 7
ENDMDL
MODEL 5
REMARK VINA RESULT:    -5.315     11.316     12.825
REMARK INTER + INTRA:          -6.866
REMARK INTER:                  -6.623
REMARK INTRA:                  -0.244
REMARK UNBOUND:                -0.309
REMARK SMILES Oc1cc(O)c2cc(O)c(-c3cc(O)c(O)c(O)c3)[o+]c2c1
REMARK SMILES IDX 10 1 20 2 21 3 22 4 2 5 3 6 4 7 6 8 7 9 8 10 11 11 12 12
REMARK SMILES IDX 13 13 19 14 15 15 17 16 14 17 16 19 18 21 9 23 1 25 5 27
REMARK H PARENT 14 18 16 20 18 22 9 24 1 26 5 28
REMARK Flexibility Score: inf
ROOT
ATOM      1  C   UNL     1       8.401  30.720   5.470  1.00  0.00     0.402 A 
ATOM      2  O   UNL     1       9.560  31.088   6.008  1.00  0.00    -0.202 OA
ATOM      3  C   UNL     1       9.684  32.114   6.844  1.00  0.00     0.368 A 
ATOM      4  C   UNL     1      10.947  32.425   7.356  1.00  0.00     0.162 A 
ATOM      5  C   UNL     1      11.107  33.499   8.232  1.00  0.00     0.128 A 
ATOM      6  C   UNL     1       9.999  34.271   8.598  1.00  0.00     0.093 A 
ATOM      7  C   UNL     1       8.724  33.980   8.099  1.00  0.00     0.136 A 
ATOM      8  C   UNL     1       8.556  32.887   7.209  1.00  0.00     0.125 A 
ATOM      9  C   UNL     1       7.314  32.514   6.669  1.00  0.00     0.078 A 
ATOM     10  C   UNL     1       7.227  31.420   5.802  1.00  0.00     0.223 A 
ENDROOT
BRANCH   1  11
ATOM     11  C   UNL     1       8.394  29.565   4.545  1.00  0.00     0.091 A 
ATOM     12  C   UNL     1       7.777  28.368   4.940  1.00  0.00     0.068 A 
ATOM     13  C   UNL     1       7.770  27.254   4.095  1.00  0.00     0.162 A 
ATOM     14  C   UNL     1       9.040  29.619   3.298  1.00  0.00     0.068 A 
ATOM     15  C   UNL     1       8.400  27.320   2.841  1.00  0.00     0.200 A 
ATOM     16  C   UNL     1       9.041  28.508   2.445  1.00  0.00     0.162 A 
BRANCH  13  17
ATOM     17  O   UNL     1       7.133  26.087   4.520  1.00  0.00    -0.504 OA
ATOM     18  H   UNL     1       6.935  25.321   3.889  1.00  0.00     0.293 HD
ENDBRANCH  13  17
BRANCH  15  19
ATOM     19  O   UNL     1       8.387  26.205   2.002  1.00  0.00    -0.502 OA
ATOM     20  H   UNL     1       8.080  26.257   1.039  1.00  0.00     0.293 HD
ENDBRANCH  15  19
BRANCH  16  21
ATOM     21  O   UNL     1       9.680  28.576   1.208  1.00  0.00    -0.504 OA
ATOM     22  H   UNL     1      10.532  29.109   1.080  1.00  0.00     0.293 HD
ENDBRANCH  16  21
ENDBRANCH   1  11
BRANCH  10  23
ATOM     23  O   UNL     1       5.987  31.020   5.305  1.00  0.00    -0.500 OA
ATOM     24  H   UNL     1       5.738  30.042   5.218  1.00  0.00     0.294 HD
ENDBRANCH  10  23
BRANCH   5  25
ATOM     25  O   UNL     1      12.373  33.792   8.733  1.00  0.00    -0.507 OA
ATOM     26  H   UNL     1      12.804  34.699   8.591  1.00  0.00     0.293 HD
ENDBRANCH   5  25
BRANCH   7  27
ATOM     27  O   UNL     1       7.669  34.800   8.510  1.00  0.00    -0.507 OA
ATOM     28  H   UNL     1       7.708  35.429   9.297  1.00  0.00     0.293 HD
ENDBRANCH   7  27
TORSDOF 7
ENDMDL
MODEL 6
REMARK VINA RESULT:    -5.268     11.179     14.068
REMARK INTER + INTRA:          -6.809
REMARK INTER:                  -6.442
REMARK INTRA:                  -0.367
REMARK UNBOUND:                -0.309
REMARK SMILES Oc1cc(O)c2cc(O)c(-c3cc(O)c(O)c(O)c3)[o+]c2c1
REMARK SMILES IDX 10 1 20 2 21 3 22 4 2 5 3 6 4 7 6 8 7 9 8 10 11 11 12 12
REMARK SMILES IDX 13 13 19 14 15 15 17 16 14 17 16 19 18 21 9 23 1 25 5 27
REMARK H PARENT 14 18 16 20 18 22 9 24 1 26 5 28
REMARK Flexibility Score: inf
ROOT
ATOM      1  C   UNL     1       9.037  30.271   5.490  1.00  0.00     0.402 A 
ATOM      2  O   UNL     1       8.472  29.192   6.025  1.00  0.00    -0.202 OA
ATOM      3  C   UNL     1       7.979  28.191   5.303  1.00  0.00     0.368 A 
ATOM      4  C   UNL     1       7.403  27.099   5.958  1.00  0.00     0.162 A 
ATOM      5  C   UNL     1       6.873  26.037   5.225  1.00  0.00     0.128 A 
ATOM      6  C   UNL     1       6.919  26.063   3.827  1.00  0.00     0.093 A 
ATOM      7  C   UNL     1       7.491  27.145   3.147  1.00  0.00     0.136 A 
ATOM      8  C   UNL     1       8.032  28.228   3.888  1.00  0.00     0.125 A 
ATOM      9  C   UNL     1       8.636  29.347   3.293  1.00  0.00     0.078 A 
ATOM     10  C   UNL     1       9.153  30.373   4.091  1.00  0.00     0.223 A 
ENDROOT
BRANCH   1  11
ATOM     11  C   UNL     1       9.540  31.323   6.400  1.00  0.00     0.091 A 
ATOM     12  C   UNL     1       8.665  32.324   6.849  1.00  0.00     0.068 A 
ATOM     13  C   UNL     1       9.116  33.342   7.695  1.00  0.00     0.162 A 
ATOM     14  C   UNL     1      10.891  31.376   6.784  1.00  0.00     0.068 A 
ATOM     15  C   UNL     1      10.464  33.379   8.092  1.00  0.00     0.200 A 
ATOM     16  C   UNL     1      11.353  32.393   7.630  1.00  0.00     0.162 A 
BRANCH  13  17
ATOM     17  O   UNL     1       8.211  34.311   8.129  1.00  0.00    -0.504 OA
ATOM     18  H   UNL     1       7.427  34.085   8.728  1.00  0.00     0.293 HD
ENDBRANCH  13  17
BRANCH  15  19
ATOM     19  O   UNL     1      10.906  34.396   8.939  1.00  0.00    -0.502 OA
ATOM     20  H   UNL     1      10.591  35.354   8.843  1.00  0.00     0.293 HD
ENDBRANCH  15  19
BRANCH  16  21
ATOM     21  O   UNL     1      12.694  32.431   8.008  1.00  0.00    -0.504 OA
ATOM     22  H   UNL     1      13.152  31.629   8.425  1.00  0.00     0.293 HD
ENDBRANCH  16  21
ENDBRANCH   1  11
BRANCH  10  23
ATOM     23  O   UNL     1       9.796  31.461   3.501  1.00  0.00    -0.500 OA
ATOM     24  H   UNL     1      10.460  32.029   4.014  1.00  0.00     0.294 HD
ENDBRANCH  10  23
BRANCH   5  25
ATOM     25  O   UNL     1       6.304  24.957   5.896  1.00  0.00    -0.507 OA
ATOM     26  H   UNL     1       5.772  24.248   5.404  1.00  0.00     0.293 HD
ENDBRANCH   5  25
BRANCH   7  27
ATOM     27  O   UNL     1       7.495  27.099   1.749  1.00  0.00    -0.507 OA
ATOM     28  H   UNL     1       6.670  26.995   1.179  1.00  0.00     0.293 HD
ENDBRANCH   7  27
TORSDOF 7
ENDMDL
MODEL 7
REMARK VINA RESULT:    -5.209     10.500     12.906
REMARK INTER + INTRA:          -6.736
REMARK INTER:                  -6.476
REMARK INTRA:                  -0.260
REMARK UNBOUND:                -0.309
REMARK SMILES Oc1cc(O)c2cc(O)c(-c3cc(O)c(O)c(O)c3)[o+]c2c1
REMARK SMILES IDX 10 1 20 2 21 3 22 4 2 5 3 6 4 7 6 8 7 9 8 10 11 11 12 12
REMARK SMILES IDX 13 13 19 14 15 15 17 16 14 17 16 19 18 21 9 23 1 25 5 27
REMARK H PARENT 14 18 16 20 18 22 9 24 1 26 5 28
REMARK Flexibility Score: inf
ROOT
ATOM      1  C   UNL     1       7.137  33.429   7.289  1.00  0.00     0.402 A 
ATOM      2  O   UNL     1       6.652  33.592   6.062  1.00  0.00    -0.202 OA
ATOM      3  C   UNL     1       5.360  33.772   5.805  1.00  0.00     0.368 A 
ATOM      4  C   UNL     1       4.945  33.933   4.480  1.00  0.00     0.162 A 
ATOM      5  C   UNL     1       3.595  34.119   4.182  1.00  0.00     0.128 A 
ATOM      6  C   UNL     1       2.651  34.145   5.213  1.00  0.00     0.093 A 
ATOM      7  C   UNL     1       3.040  33.987   6.549  1.00  0.00     0.136 A 
ATOM      8  C   UNL     1       4.413  33.799   6.857  1.00  0.00     0.125 A 
ATOM      9  C   UNL     1       4.896  33.645   8.167  1.00  0.00     0.078 A 
ATOM     10  C   UNL     1       6.265  33.469   8.393  1.00  0.00     0.223 A 
ENDROOT
BRANCH   1  11
ATOM     11  C   UNL     1       8.595  33.227   7.445  1.00  0.00     0.091 A 
ATOM     12  C   UNL     1       9.172  32.018   7.030  1.00  0.00     0.068 A 
ATOM     13  C   UNL     1      10.544  31.790   7.182  1.00  0.00     0.162 A 
ATOM     14  C   UNL     1       9.409  34.199   8.051  1.00  0.00     0.068 A 
ATOM     15  C   UNL     1      11.357  32.774   7.770  1.00  0.00     0.200 A 
ATOM     16  C   UNL     1      10.784  33.981   8.209  1.00  0.00     0.162 A 
BRANCH  13  17
ATOM     17  O   UNL     1      11.081  30.580   6.744  1.00  0.00    -0.504 OA
ATOM     18  H   UNL     1      10.896  30.211   5.819  1.00  0.00     0.293 HD
ENDBRANCH  13  17
BRANCH  15  19
ATOM     19  O   UNL     1      12.726  32.542   7.915  1.00  0.00    -0.502 OA
ATOM     20  H   UNL     1      13.092  31.867   8.576  1.00  0.00     0.293 HD
ENDBRANCH  15  19
BRANCH  16  21
ATOM     21  O   UNL     1      11.583  34.955   8.806  1.00  0.00    -0.504 OA
ATOM     22  H   UNL     1      11.627  35.901   8.445  1.00  0.00     0.293 HD
ENDBRANCH  16  21
ENDBRANCH   1  11
BRANCH  10  23
ATOM     23  O   UNL     1       6.750  33.364   9.696  1.00  0.00    -0.500 OA
ATOM     24  H   UNL     1       6.910  32.465  10.135  1.00  0.00     0.294 HD
ENDBRANCH  10  23
BRANCH   5  25
ATOM     25  O   UNL     1       3.203  34.279   2.855  1.00  0.00    -0.507 OA
ATOM     26  H   UNL     1       2.228  34.390   2.600  1.00  0.00     0.293 HD
ENDBRANCH   5  25
BRANCH   7  27
ATOM     27  O   UNL     1       2.036  34.021   7.521  1.00  0.00    -0.507 OA
ATOM     28  H   UNL     1       1.173  33.502   7.469  1.00  0.00     0.293 HD
ENDBRANCH   7  27
TORSDOF 7
ENDMDL
MODEL 8
REMARK VINA RESULT:    -5.172     10.541     12.216
REMARK INTER + INTRA:          -6.690
REMARK INTER:                  -6.343
REMARK INTRA:                  -0.347
REMARK UNBOUND:                -0.309
REMARK SMILES Oc1cc(O)c2cc(O)c(-c3cc(O)c(O)c(O)c3)[o+]c2c1
REMARK SMILES IDX 10 1 20 2 21 3 22 4 2 5 3 6 4 7 6 8 7 9 8 10 11 11 12 12
REMARK SMILES IDX 13 13 19 14 15 15 17 16 14 17 16 19 18 21 9 23 1 25 5 27
REMARK H PARENT 14 18 16 20 18 22 9 24 1 26 5 28
REMARK Flexibility Score: inf
ROOT
ATOM      1  C   UNL     1       8.991  30.594   5.887  1.00  0.00     0.402 A 
ATOM      2  O   UNL     1       9.468  31.834   5.956  1.00  0.00    -0.202 OA
ATOM      3  C   UNL     1      10.086  32.320   7.028  1.00  0.00     0.368 A 
ATOM      4  C   UNL     1      10.550  33.638   7.005  1.00  0.00     0.162 A 
ATOM      5  C   UNL     1      11.199  34.176   8.117  1.00  0.00     0.128 A 
ATOM      6  C   UNL     1      11.384  33.394   9.262  1.00  0.00     0.093 A 
ATOM      7  C   UNL     1      10.928  32.071   9.310  1.00  0.00     0.136 A 
ATOM      8  C   UNL     1      10.270  31.519   8.180  1.00  0.00     0.125 A 
ATOM      9  C   UNL     1       9.791  30.199   8.133  1.00  0.00     0.078 A 
ATOM     10  C   UNL     1       9.157  29.724   6.981  1.00  0.00     0.223 A 
ENDROOT
BRANCH   1  11
ATOM     11  C   UNL     1       8.313  30.172   4.641  1.00  0.00     0.091 A 
ATOM     12  C   UNL     1       9.025  29.431   3.685  1.00  0.00     0.068 A 
ATOM     13  C   UNL     1       8.417  29.035   2.490  1.00  0.00     0.162 A 
ATOM     14  C   UNL     1       6.987  30.545   4.366  1.00  0.00     0.068 A 
ATOM     15  C   UNL     1       7.083  29.392   2.229  1.00  0.00     0.200 A 
ATOM     16  C   UNL     1       6.369  30.154   3.170  1.00  0.00     0.162 A 
BRANCH  13  17
ATOM     17  O   UNL     1       9.154  28.286   1.572  1.00  0.00    -0.504 OA
ATOM     18  H   UNL     1       8.718  27.631   0.936  1.00  0.00     0.293 HD
ENDBRANCH  13  17
BRANCH  15  19
ATOM     19  O   UNL     1       6.482  28.991   1.035  1.00  0.00    -0.502 OA
ATOM     20  H   UNL     1       5.730  29.515   0.606  1.00  0.00     0.293 HD
ENDBRANCH  15  19
BRANCH  16  21
ATOM     21  O   UNL     1       5.050  30.525   2.911  1.00  0.00    -0.504 OA
ATOM     22  H   UNL     1       4.724  30.706   1.969  1.00  0.00     0.293 HD
ENDBRANCH  16  21
ENDBRANCH   1  11
BRANCH  10  23
ATOM     23  O   UNL     1       8.725  28.399   6.916  1.00  0.00    -0.500 OA
ATOM     24  H   UNL     1       9.304  27.669   6.518  1.00  0.00     0.294 HD
ENDBRANCH  10  23
BRANCH   5  25
ATOM     25  O   UNL     1      11.656  35.491   8.074  1.00  0.00    -0.507 OA
ATOM     26  H   UNL     1      12.602  35.733   8.346  1.00  0.00     0.293 HD
ENDBRANCH   5  25
BRANCH   7  27
ATOM     27  O   UNL     1      11.149  31.355  10.490  1.00  0.00    -0.507 OA
ATOM     28  H   UNL     1      10.713  30.473  10.713  1.00  0.00     0.293 HD
ENDBRANCH   7  27
TORSDOF 7
ENDMDL
MODEL 9
REMARK VINA RESULT:    -5.170     10.451     12.914
REMARK INTER + INTRA:          -6.688
REMARK INTER:                  -6.476
REMARK INTRA:                  -0.212
REMARK UNBOUND:                -0.309
REMARK SMILES Oc1cc(O)c2cc(O)c(-c3cc(O)c(O)c(O)c3)[o+]c2c1
REMARK SMILES IDX 10 1 20 2 21 3 22 4 2 5 3 6 4 7 6 8 7 9 8 10 11 11 12 12
REMARK SMILES IDX 13 13 19 14 15 15 17 16 14 17 16 19 18 21 9 23 1 25 5 27
REMARK H PARENT 14 18 16 20 18 22 9 24 1 26 5 28
REMARK Flexibility Score: inf
ROOT
ATOM      1  C   UNL     1       7.144  33.300   7.109  1.00  0.00     0.402 A 
ATOM      2  O   UNL     1       6.689  33.503   5.876  1.00  0.00    -0.202 OA
ATOM      3  C   UNL     1       5.407  33.717   5.597  1.00  0.00     0.368 A 
ATOM      4  C   UNL     1       5.024  33.918   4.268  1.00  0.00     0.162 A 
ATOM      5  C   UNL     1       3.685  34.140   3.945  1.00  0.00     0.128 A 
ATOM      6  C   UNL     1       2.719  34.161   4.956  1.00  0.00     0.093 A 
ATOM      7  C   UNL     1       3.076  33.962   6.296  1.00  0.00     0.136 A 
ATOM      8  C   UNL     1       4.437  33.738   6.629  1.00  0.00     0.125 A 
ATOM      9  C   UNL     1       4.889  33.542   7.944  1.00  0.00     0.078 A 
ATOM     10  C   UNL     1       6.249  33.332   8.194  1.00  0.00     0.223 A 
ENDROOT
BRANCH   1  11
ATOM     11  C   UNL     1       8.593  33.064   7.290  1.00  0.00     0.091 A 
ATOM     12  C   UNL     1       9.365  34.007   7.985  1.00  0.00     0.068 A 
ATOM     13  C   UNL     1      10.740  33.821   8.156  1.00  0.00     0.162 A 
ATOM     14  C   UNL     1       9.228  31.940   6.734  1.00  0.00     0.068 A 
ATOM     15  C   UNL     1      11.367  32.684   7.615  1.00  0.00     0.200 A 
ATOM     16  C   UNL     1      10.606  31.744   6.898  1.00  0.00     0.162 A 
BRANCH  13  17
ATOM     17  O   UNL     1      11.469  34.776   8.865  1.00  0.00    -0.504 OA
ATOM     18  H   UNL     1      12.206  34.521   9.511  1.00  0.00     0.293 HD
ENDBRANCH  13  17
BRANCH  15  19
ATOM     19  O   UNL     1      12.739  32.504   7.792  1.00  0.00    -0.502 OA
ATOM     20  H   UNL     1      13.409  33.242   7.615  1.00  0.00     0.293 HD
ENDBRANCH  15  19
BRANCH  16  21
ATOM     21  O   UNL     1      11.223  30.623   6.347  1.00  0.00    -0.504 OA
ATOM     22  H   UNL     1      11.035  29.689   6.692  1.00  0.00     0.293 HD
ENDBRANCH  16  21
ENDBRANCH   1  11
BRANCH  10  23
ATOM     23  O   UNL     1       6.704  33.186   9.505  1.00  0.00    -0.500 OA
ATOM     24  H   UNL     1       7.246  32.381   9.794  1.00  0.00     0.294 HD
ENDBRANCH  10  23
BRANCH   5  25
ATOM     25  O   UNL     1       3.325  34.339   2.614  1.00  0.00    -0.507 OA
ATOM     26  H   UNL     1       3.843  33.913   1.855  1.00  0.00     0.293 HD
ENDBRANCH   5  25
BRANCH   7  27
ATOM     27  O   UNL     1       2.052  33.995   7.247  1.00  0.00    -0.507 OA
ATOM     28  H   UNL     1       1.246  34.598   7.198  1.00  0.00     0.293 HD
ENDBRANCH   7  27
TORSDOF 7
ENDMDL
