MODEL 1
REMARK VINA RESULT:    -4.989      0.000      0.000
REMARK INTER + INTRA:          -6.018
REMARK INTER:                  -5.864
REMARK INTRA:                  -0.154
REMARK UNBOUND:                -0.154
REMARK SMILES O=C([O-])C=Cc1ccc(O)c(O)c1
REMARK SMILES IDX 6 1 13 2 7 3 11 4 8 5 9 6 5 7 4 8 2 9 1 10 3 11 12 12 10 14
REMARK H PARENT 12 13 10 15
REMARK Flexibility Score: inf
ROOT
ATOM      1  C   UNL     1     119.137 118.350 124.341  1.00  0.00    -0.022 A 
ATOM      2  C   UNL     1     118.349 118.459 125.504  1.00  0.00     0.058 A 
ATOM      3  C   UNL     1     118.624 118.836 123.126  1.00  0.00     0.012 A 
ATOM      4  C   UNL     1     117.064 119.021 125.444  1.00  0.00     0.157 A 
ATOM      5  C   UNL     1     117.344 119.394 123.067  1.00  0.00     0.051 A 
ATOM      6  C   UNL     1     116.561 119.485 124.224  1.00  0.00     0.157 A 
ENDROOT
BRANCH   1   7
ATOM      7  C   UNL     1     120.505 117.775 124.353  1.00  0.00     0.010 C 
ATOM      8  C   UNL     1     121.318 117.766 123.286  1.00  0.00     0.025 C 
BRANCH   8   9
ATOM      9  C   UNL     1     122.676 117.199 123.338  1.00  0.00     0.064 C 
ATOM     10  O   UNL     1     123.038 116.459 124.292  1.00  0.00    -0.545 OA
ATOM     11  O   UNL     1     123.573 117.482 122.318  1.00  0.00    -0.545 OA
ENDBRANCH   8   9
ENDBRANCH   1   7
BRANCH   4  12
ATOM     12  O   UNL     1     116.286 119.125 126.595  1.00  0.00    -0.504 OA
ATOM     13  H   UNL     1     115.811 118.321 126.990  1.00  0.00     0.293 HD
ENDBRANCH   4  12
BRANCH   6  14
ATOM     14  O   UNL     1     115.283 120.039 124.168  1.00  0.00    -0.504 OA
ATOM     15  H   UNL     1     114.673 119.887 123.373  1.00  0.00     0.293 HD
ENDBRANCH   6  14
TORSDOF 4
ENDMDL
MODEL 2
REMARK VINA RESULT:    -4.903      4.246      6.012
REMARK INTER + INTRA:          -5.917
REMARK INTER:                  -5.788
REMARK INTRA:                  -0.128
REMARK UNBOUND:                -0.154
REMARK SMILES O=C([O-])C=Cc1ccc(O)c(O)c1
REMARK SMILES IDX 6 1 13 2 7 3 11 4 8 5 9 6 5 7 4 8 2 9 1 10 3 11 12 12 10 14
REMARK H PARENT 12 13 10 15
REMARK Flexibility Score: inf
ROOT
ATOM      1  C   UNL     1     114.431 119.871 126.505  1.00  0.00    -0.022 A 
ATOM      2  C   UNL     1     114.645 120.686 127.635  1.00  0.00     0.058 A 
ATOM      3  C   UNL     1     113.151 119.333 126.290  1.00  0.00     0.012 A 
ATOM      4  C   UNL     1     113.603 120.933 128.543  1.00  0.00     0.157 A 
ATOM      5  C   UNL     1     112.115 119.578 127.195  1.00  0.00     0.051 A 
ATOM      6  C   UNL     1     112.339 120.376 128.323  1.00  0.00     0.157 A 
ENDROOT
BRANCH   1   7
ATOM      7  C   UNL     1     115.495 119.589 125.510  1.00  0.00     0.010 C 
ATOM      8  C   UNL     1     115.591 120.214 124.327  1.00  0.00     0.025 C 
BRANCH   8   9
ATOM      9  C   UNL     1     116.669 119.917 123.367  1.00  0.00     0.064 C 
ATOM     10  O   UNL     1     116.701 118.826 122.739  1.00  0.00    -0.545 OA
ATOM     11  O   UNL     1     117.666 120.858 123.151  1.00  0.00    -0.545 OA
ENDBRANCH   8   9
ENDBRANCH   1   7
BRANCH   4  12
ATOM     12  O   UNL     1     113.818 121.736 129.661  1.00  0.00    -0.504 OA
ATOM     13  H   UNL     1     113.056 122.022 130.265  1.00  0.00     0.293 HD
ENDBRANCH   4  12
BRANCH   6  14
ATOM     14  O   UNL     1     111.307 120.621 129.229  1.00  0.00    -0.504 OA
ATOM     15  H   UNL     1     110.890 119.875 129.773  1.00  0.00     0.293 HD
ENDBRANCH   6  14
TORSDOF 4
ENDMDL
MODEL 3
REMARK VINA RESULT:    -4.775      4.273      6.194
REMARK INTER + INTRA:          -5.766
REMARK INTER:                  -5.637
REMARK INTRA:                  -0.129
REMARK UNBOUND:                -0.154
REMARK SMILES O=C([O-])C=Cc1ccc(O)c(O)c1
REMARK SMILES IDX 6 1 13 2 7 3 11 4 8 5 9 6 5 7 4 8 2 9 1 10 3 11 12 12 10 14
REMARK H PARENT 12 13 10 15
REMARK Flexibility Score: inf
ROOT
ATOM      1  C   UNL     1     114.349 119.857 126.576  1.00  0.00    -0.022 A 
ATOM      2  C   UNL     1     113.019 119.393 126.638  1.00  0.00     0.058 A 
ATOM      3  C   UNL     1     114.824 120.691 127.603  1.00  0.00     0.012 A 
ATOM      4  C   UNL     1     112.179 119.779 127.694  1.00  0.00     0.157 A 
ATOM      5  C   UNL     1     113.986 121.075 128.653  1.00  0.00     0.051 A 
ATOM      6  C   UNL     1     112.662 120.624 128.699  1.00  0.00     0.157 A 
ENDROOT
BRANCH   1   7
ATOM      7  C   UNL     1     115.281 119.469 125.489  1.00  0.00     0.010 C 
ATOM      8  C   UNL     1     115.616 120.277 124.472  1.00  0.00     0.025 C 
BRANCH   8   9
ATOM      9  C   UNL     1     116.555 119.863 123.416  1.00  0.00     0.064 C 
ATOM     10  O   UNL     1     116.428 118.756 122.828  1.00  0.00    -0.545 OA
ATOM     11  O   UNL     1     117.598 120.708 123.061  1.00  0.00    -0.545 OA
ENDBRANCH   8   9
ENDBRANCH   1   7
BRANCH   4  12
ATOM     12  O   UNL     1     110.863 119.322 127.751  1.00  0.00    -0.504 OA
ATOM     13  H   UNL     1     110.454 118.786 126.994  1.00  0.00     0.293 HD
ENDBRANCH   4  12
BRANCH   6  14
ATOM     14  O   UNL     1     111.823 121.007 129.744  1.00  0.00    -0.504 OA
ATOM     15  H   UNL     1     111.493 120.340 130.432  1.00  0.00     0.293 HD
ENDBRANCH   6  14
TORSDOF 4
ENDMDL
MODEL 4
REMARK VINA RESULT:    -4.763      1.277      6.204
REMARK INTER + INTRA:          -5.752
REMARK INTER:                  -5.602
REMARK INTRA:                  -0.149
REMARK UNBOUND:                -0.154
REMARK SMILES O=C([O-])C=Cc1ccc(O)c(O)c1
REMARK SMILES IDX 6 1 13 2 7 3 11 4 8 5 9 6 5 7 4 8 2 9 1 10 3 11 12 12 10 14
REMARK H PARENT 12 13 10 15
REMARK Flexibility Score: inf
ROOT
ATOM      1  C   UNL     1     120.580 117.763 123.664  1.00  0.00    -0.022 A 
ATOM      2  C   UNL     1     121.633 117.481 122.770  1.00  0.00     0.058 A 
ATOM      3  C   UNL     1     120.760 117.494 125.031  1.00  0.00     0.012 A 
ATOM      4  C   UNL     1     122.830 116.917 123.237  1.00  0.00     0.157 A 
ATOM      5  C   UNL     1     121.953 116.932 125.494  1.00  0.00     0.051 A 
ATOM      6  C   UNL     1     122.988 116.639 124.599  1.00  0.00     0.157 A 
ENDROOT
BRANCH   1   7
ATOM      7  C   UNL     1     119.299 118.370 123.224  1.00  0.00     0.010 C 
ATOM      8  C   UNL     1     118.454 119.005 124.050  1.00  0.00     0.025 C 
BRANCH   8   9
ATOM      9  C   UNL     1     117.196 119.607 123.575  1.00  0.00     0.064 C 
ATOM     10  O   UNL     1     117.200 120.586 122.783  1.00  0.00    -0.545 OA
ATOM     11  O   UNL     1     115.985 119.086 124.009  1.00  0.00    -0.545 OA
ENDBRANCH   8   9
ENDBRANCH   1   7
BRANCH   4  12
ATOM     12  O   UNL     1     123.868 116.635 122.351  1.00  0.00    -0.504 OA
ATOM     13  H   UNL     1     124.423 117.372 121.930  1.00  0.00     0.293 HD
ENDBRANCH   4  12
BRANCH   6  14
ATOM     14  O   UNL     1     124.178 116.076 125.057  1.00  0.00    -0.504 OA
ATOM     15  H   UNL     1     124.460 115.140 124.790  1.00  0.00     0.293 HD
ENDBRANCH   6  14
TORSDOF 4
ENDMDL
MODEL 5
REMARK VINA RESULT:    -4.749      3.103      6.913
REMARK INTER + INTRA:          -5.736
REMARK INTER:                  -5.612
REMARK INTRA:                  -0.123
REMARK UNBOUND:                -0.154
REMARK SMILES O=C([O-])C=Cc1ccc(O)c(O)c1
REMARK SMILES IDX 6 1 13 2 7 3 11 4 8 5 9 6 5 7 4 8 2 9 1 10 3 11 12 12 10 14
REMARK H PARENT 12 13 10 15
REMARK Flexibility Score: inf
ROOT
ATOM      1  C   UNL     1     115.509 119.514 125.176  1.00  0.00    -0.022 A 
ATOM      2  C   UNL     1     116.630 118.930 125.799  1.00  0.00     0.058 A 
ATOM      3  C   UNL     1     115.600 119.886 123.824  1.00  0.00     0.012 A 
ATOM      4  C   UNL     1     117.826 118.748 125.086  1.00  0.00     0.157 A 
ATOM      5  C   UNL     1     116.791 119.706 123.116  1.00  0.00     0.051 A 
ATOM      6  C   UNL     1     117.907 119.140 123.745  1.00  0.00     0.157 A 
ENDROOT
BRANCH   1   7
ATOM      7  C   UNL     1     114.219 119.717 125.881  1.00  0.00     0.010 C 
ATOM      8  C   UNL     1     114.111 119.852 127.212  1.00  0.00     0.025 C 
BRANCH   8   9
ATOM      9  C   UNL     1     112.815 120.065 127.877  1.00  0.00     0.064 C 
ATOM     10  O   UNL     1     111.766 119.510 127.454  1.00  0.00    -0.545 OA
ATOM     11  O   UNL     1     112.748 120.890 128.991  1.00  0.00    -0.545 OA
ENDBRANCH   8   9
ENDBRANCH   1   7
BRANCH   4  12
ATOM     12  O   UNL     1     118.935 118.174 125.705  1.00  0.00    -0.504 OA
ATOM     13  H   UNL     1     119.388 117.350 125.325  1.00  0.00     0.293 HD
ENDBRANCH   4  12
BRANCH   6  14
ATOM     14  O   UNL     1     119.097 118.960 123.042  1.00  0.00    -0.504 OA
ATOM     15  H   UNL     1     119.455 118.035 122.833  1.00  0.00     0.293 HD
ENDBRANCH   6  14
TORSDOF 4
ENDMDL
MODEL 6
REMARK VINA RESULT:    -4.630      1.077      2.089
REMARK INTER + INTRA:          -5.596
REMARK INTER:                  -5.474
REMARK INTRA:                  -0.122
REMARK UNBOUND:                -0.154
REMARK SMILES O=C([O-])C=Cc1ccc(O)c(O)c1
REMARK SMILES IDX 6 1 13 2 7 3 11 4 8 5 9 6 5 7 4 8 2 9 1 10 3 11 12 12 10 14
REMARK H PARENT 12 13 10 15
REMARK Flexibility Score: inf
ROOT
ATOM      1  C   UNL     1     119.823 118.118 124.389  1.00  0.00    -0.022 A 
ATOM      2  C   UNL     1     119.034 118.744 123.402  1.00  0.00     0.058 A 
ATOM      3  C   UNL     1     119.283 117.936 125.673  1.00  0.00     0.012 A 
ATOM      4  C   UNL     1     117.742 119.200 123.706  1.00  0.00     0.157 A 
ATOM      5  C   UNL     1     117.996 118.391 125.975  1.00  0.00     0.051 A 
ATOM      6  C   UNL     1     117.225 119.026 124.995  1.00  0.00     0.157 A 
ENDROOT
BRANCH   1   7
ATOM      7  C   UNL     1     121.189 117.608 124.115  1.00  0.00     0.010 C 
ATOM      8  C   UNL     1     121.927 117.985 123.061  1.00  0.00     0.025 C 
BRANCH   8   9
ATOM      9  C   UNL     1     123.285 117.467 122.827  1.00  0.00     0.064 C 
ATOM     10  O   UNL     1     124.273 118.244 122.734  1.00  0.00    -0.545 OA
ATOM     11  O   UNL     1     123.482 116.098 122.708  1.00  0.00    -0.545 OA
ENDBRANCH   8   9
ENDBRANCH   1   7
BRANCH   4  12
ATOM     12  O   UNL     1     116.966 119.822 122.730  1.00  0.00    -0.504 OA
ATOM     13  H   UNL     1     117.387 120.322 121.955  1.00  0.00     0.293 HD
ENDBRANCH   4  12
BRANCH   6  14
ATOM     14  O   UNL     1     115.942 119.484 125.293  1.00  0.00    -0.504 OA
ATOM     15  H   UNL     1     115.767 120.453 125.532  1.00  0.00     0.293 HD
ENDBRANCH   6  14
TORSDOF 4
ENDMDL
MODEL 7
REMARK VINA RESULT:    -4.529      4.583      7.922
REMARK INTER + INTRA:          -5.477
REMARK INTER:                  -5.324
REMARK INTRA:                  -0.153
REMARK UNBOUND:                -0.154
REMARK SMILES O=C([O-])C=Cc1ccc(O)c(O)c1
REMARK SMILES IDX 6 1 13 2 7 3 11 4 8 5 9 6 5 7 4 8 2 9 1 10 3 11 12 12 10 14
REMARK H PARENT 12 13 10 15
REMARK Flexibility Score: inf
ROOT
ATOM      1  C   UNL     1     113.876 119.436 126.072  1.00  0.00    -0.022 A 
ATOM      2  C   UNL     1     113.393 118.823 124.898  1.00  0.00     0.058 A 
ATOM      3  C   UNL     1     115.205 119.891 126.101  1.00  0.00     0.012 A 
ATOM      4  C   UNL     1     114.234 118.646 123.788  1.00  0.00     0.157 A 
ATOM      5  C   UNL     1     116.042 119.713 124.996  1.00  0.00     0.051 A 
ATOM      6  C   UNL     1     115.560 119.089 123.840  1.00  0.00     0.157 A 
ENDROOT
BRANCH   1   7
ATOM      7  C   UNL     1     113.025 119.658 127.267  1.00  0.00     0.010 C 
ATOM      8  C   UNL     1     113.339 120.506 128.257  1.00  0.00     0.025 C 
BRANCH   8   9
ATOM      9  C   UNL     1     112.463 120.710 129.423  1.00  0.00     0.064 C 
ATOM     10  O   UNL     1     111.437 120.000 129.601  1.00  0.00    -0.545 OA
ATOM     11  O   UNL     1     112.773 121.701 130.344  1.00  0.00    -0.545 OA
ENDBRANCH   8   9
ENDBRANCH   1   7
BRANCH   4  12
ATOM     12  O   UNL     1     113.755 118.036 122.631  1.00  0.00    -0.504 OA
ATOM     13  H   UNL     1     113.965 118.404 121.710  1.00  0.00     0.293 HD
ENDBRANCH   4  12
BRANCH   6  14
ATOM     14  O   UNL     1     116.394 118.908 122.736  1.00  0.00    -0.504 OA
ATOM     15  H   UNL     1     117.395 119.051 122.799  1.00  0.00     0.293 HD
ENDBRANCH   6  14
TORSDOF 4
ENDMDL
MODEL 8
REMARK VINA RESULT:    -4.463      6.258      8.681
REMARK INTER + INTRA:          -5.399
REMARK INTER:                  -5.272
REMARK INTRA:                  -0.127
REMARK UNBOUND:                -0.154
REMARK SMILES O=C([O-])C=Cc1ccc(O)c(O)c1
REMARK SMILES IDX 6 1 13 2 7 3 11 4 8 5 9 6 5 7 4 8 2 9 1 10 3 11 12 12 10 14
REMARK H PARENT 12 13 10 15
REMARK Flexibility Score: inf
ROOT
ATOM      1  C   UNL     1     111.845 119.255 127.995  1.00  0.00    -0.022 A 
ATOM      2  C   UNL     1     110.990 120.375 127.989  1.00  0.00     0.058 A 
ATOM      3  C   UNL     1     111.511 118.151 128.796  1.00  0.00     0.012 A 
ATOM      4  C   UNL     1     109.838 120.396 128.790  1.00  0.00     0.157 A 
ATOM      5  C   UNL     1     110.364 118.173 129.595  1.00  0.00     0.051 A 
ATOM      6  C   UNL     1     109.528 119.295 129.596  1.00  0.00     0.157 A 
ENDROOT
BRANCH   1   7
ATOM      7  C   UNL     1     113.068 119.178 127.157  1.00  0.00     0.010 C 
ATOM      8  C   UNL     1     113.050 119.162 125.816  1.00  0.00     0.025 C 
BRANCH   8   9
ATOM      9  C   UNL     1     114.285 119.098 125.015  1.00  0.00     0.064 C 
ATOM     10  O   UNL     1     115.398 119.427 125.505  1.00  0.00    -0.545 OA
ATOM     11  O   UNL     1     114.222 118.666 123.698  1.00  0.00    -0.545 OA
ENDBRANCH   8   9
ENDBRANCH   1   7
BRANCH   4  12
ATOM     12  O   UNL     1     108.995 121.506 128.786  1.00  0.00    -0.504 OA
ATOM     13  H   UNL     1     108.785 122.009 127.931  1.00  0.00     0.293 HD
ENDBRANCH   4  12
BRANCH   6  14
ATOM     14  O   UNL     1     108.384 119.321 130.394  1.00  0.00    -0.504 OA
ATOM     15  H   UNL     1     108.284 118.711 131.197  1.00  0.00     0.293 HD
ENDBRANCH   6  14
TORSDOF 4
ENDMDL
MODEL 9
REMARK VINA RESULT:    -4.451      1.324      5.751
REMARK INTER + INTRA:          -5.386
REMARK INTER:                  -5.239
REMARK INTRA:                  -0.147
REMARK UNBOUND:                -0.154
REMARK SMILES O=C([O-])C=Cc1ccc(O)c(O)c1
REMARK SMILES IDX 6 1 13 2 7 3 11 4 8 5 9 6 5 7 4 8 2 9 1 10 3 11 12 12 10 14
REMARK H PARENT 12 13 10 15
REMARK Flexibility Score: inf
ROOT
ATOM      1  C   UNL     1     119.200 118.482 124.765  1.00  0.00    -0.022 A 
ATOM      2  C   UNL     1     120.068 118.383 125.872  1.00  0.00     0.058 A 
ATOM      3  C   UNL     1     119.671 118.096 123.499  1.00  0.00     0.012 A 
ATOM      4  C   UNL     1     121.386 117.932 125.706  1.00  0.00     0.157 A 
ATOM      5  C   UNL     1     120.984 117.648 123.334  1.00  0.00     0.051 A 
ATOM      6  C   UNL     1     121.845 117.567 124.435  1.00  0.00     0.157 A 
ENDROOT
BRANCH   1   7
ATOM      7  C   UNL     1     117.795 118.941 124.890  1.00  0.00     0.010 C 
ATOM      8  C   UNL     1     117.092 119.468 123.876  1.00  0.00     0.025 C 
BRANCH   8   9
ATOM      9  C   UNL     1     115.693 119.902 124.033  1.00  0.00     0.064 C 
ATOM     10  O   UNL     1     115.410 121.028 124.521  1.00  0.00    -0.545 OA
ATOM     11  O   UNL     1     114.668 119.055 123.634  1.00  0.00    -0.545 OA
ENDBRANCH   8   9
ENDBRANCH   1   7
BRANCH   4  12
ATOM     12  O   UNL     1     122.243 117.839 126.801  1.00  0.00    -0.504 OA
ATOM     13  H   UNL     1     122.905 117.077 126.895  1.00  0.00     0.293 HD
ENDBRANCH   4  12
BRANCH   6  14
ATOM     14  O   UNL     1     123.156 117.123 124.274  1.00  0.00    -0.504 OA
ATOM     15  H   UNL     1     123.571 117.017 123.356  1.00  0.00     0.293 HD
ENDBRANCH   6  14
TORSDOF 4
ENDMDL
