MODEL 1
REMARK VINA RESULT:    -5.132      0.000      0.000
REMARK INTER + INTRA:          -5.934
REMARK INTER:                  -5.883
REMARK INTRA:                  -0.051
REMARK UNBOUND:                -0.051
REMARK SMILES O=C([O-])c1cc(O)c(O)c(O)c1
REMARK SMILES IDX 4 1 5 2 12 3 6 4 10 5 8 6 2 7 1 8 3 9 7 10 11 12 9 14
REMARK H PARENT 7 11 11 13 9 15
REMARK Flexibility Score: inf
ROOT
ATOM      1  C   UNL     1     165.732 145.414 146.404  1.00  0.00     0.005 A 
ATOM      2  C   UNL     1     166.700 146.358 146.023  1.00  0.00     0.060 A 
ATOM      3  C   UNL     1     164.588 145.849 147.092  1.00  0.00     0.060 A 
ATOM      4  C   UNL     1     166.529 147.717 146.325  1.00  0.00     0.162 A 
ATOM      5  C   UNL     1     164.411 147.203 147.397  1.00  0.00     0.162 A 
ATOM      6  C   UNL     1     165.382 148.143 147.014  1.00  0.00     0.200 A 
ENDROOT
BRANCH   1   7
ATOM      7  C   UNL     1     165.912 143.980 146.086  1.00  0.00     0.072 C 
ATOM      8  O   UNL     1     167.061 143.508 145.876  1.00  0.00    -0.545 OA
ATOM      9  O   UNL     1     164.813 143.131 146.014  1.00  0.00    -0.545 OA
ENDBRANCH   1   7
BRANCH   4  10
ATOM     10  O   UNL     1     167.497 148.645 145.942  1.00  0.00    -0.504 OA
ATOM     11  H   UNL     1     167.337 149.298 145.184  1.00  0.00     0.293 HD
ENDBRANCH   4  10
BRANCH   5  12
ATOM     12  O   UNL     1     163.260 147.594 148.082  1.00  0.00    -0.504 OA
ATOM     13  H   UNL     1     162.484 146.962 148.239  1.00  0.00     0.293 HD
ENDBRANCH   5  12
BRANCH   6  14
ATOM     14  O   UNL     1     165.196 149.491 147.323  1.00  0.00    -0.502 OA
ATOM     15  H   UNL     1     165.249 149.840 148.271  1.00  0.00     0.293 HD
ENDBRANCH   6  14
TORSDOF 4
ENDMDL
MODEL 2
REMARK VINA RESULT:    -4.878     11.369     11.999
REMARK INTER + INTRA:          -5.642
REMARK INTER:                  -5.592
REMARK INTRA:                  -0.050
REMARK UNBOUND:                -0.051
REMARK SMILES O=C([O-])c1cc(O)c(O)c(O)c1
REMARK SMILES IDX 4 1 5 2 12 3 6 4 10 5 8 6 2 7 1 8 3 9 7 10 11 12 9 14
REMARK H PARENT 7 11 11 13 9 15
REMARK Flexibility Score: inf
ROOT
ATOM      1  C   UNL     1     169.525 143.954 157.268  1.00  0.00     0.005 A 
ATOM      2  C   UNL     1     169.501 143.420 155.968  1.00  0.00     0.060 A 
ATOM      3  C   UNL     1     168.628 143.456 158.227  1.00  0.00     0.060 A 
ATOM      4  C   UNL     1     168.596 142.405 155.631  1.00  0.00     0.162 A 
ATOM      5  C   UNL     1     167.721 142.443 157.897  1.00  0.00     0.162 A 
ATOM      6  C   UNL     1     167.702 141.913 156.596  1.00  0.00     0.200 A 
ENDROOT
BRANCH   1   7
ATOM      7  C   UNL     1     170.480 145.026 157.626  1.00  0.00     0.072 C 
ATOM      8  O   UNL     1     170.995 145.071 158.776  1.00  0.00    -0.545 OA
ATOM      9  O   UNL     1     170.825 146.002 156.698  1.00  0.00    -0.545 OA
ENDBRANCH   1   7
BRANCH   4  10
ATOM     10  O   UNL     1     168.581 141.884 154.337  1.00  0.00    -0.504 OA
ATOM     11  H   UNL     1     168.486 140.889 154.166  1.00  0.00     0.293 HD
ENDBRANCH   4  10
BRANCH   5  12
ATOM     12  O   UNL     1     166.847 141.975 158.878  1.00  0.00    -0.504 OA
ATOM     13  H   UNL     1     167.176 141.512 159.717  1.00  0.00     0.293 HD
ENDBRANCH   5  12
BRANCH   6  14
ATOM     14  O   UNL     1     166.793 140.903 156.277  1.00  0.00    -0.502 OA
ATOM     15  H   UNL     1     166.669 140.084 156.859  1.00  0.00     0.293 HD
ENDBRANCH   6  14
TORSDOF 4
ENDMDL
MODEL 3
REMARK VINA RESULT:    -4.868     11.396     12.182
REMARK INTER + INTRA:          -5.631
REMARK INTER:                  -5.582
REMARK INTRA:                  -0.049
REMARK UNBOUND:                -0.051
REMARK SMILES O=C([O-])c1cc(O)c(O)c(O)c1
REMARK SMILES IDX 4 1 5 2 12 3 6 4 10 5 8 6 2 7 1 8 3 9 7 10 11 12 9 14
REMARK H PARENT 7 11 11 13 9 15
REMARK Flexibility Score: inf
ROOT
ATOM      1  C   UNL     1     169.572 143.967 157.314  1.00  0.00     0.005 A 
ATOM      2  C   UNL     1     168.658 143.485 158.266  1.00  0.00     0.060 A 
ATOM      3  C   UNL     1     169.526 143.459 156.005  1.00  0.00     0.060 A 
ATOM      4  C   UNL     1     167.712 142.511 157.918  1.00  0.00     0.162 A 
ATOM      5  C   UNL     1     168.585 142.486 155.650  1.00  0.00     0.162 A 
ATOM      6  C   UNL     1     167.674 142.008 156.607  1.00  0.00     0.200 A 
ENDROOT
BRANCH   1   7
ATOM      7  C   UNL     1     170.571 144.996 157.680  1.00  0.00     0.072 C 
ATOM      8  O   UNL     1     171.146 144.962 158.801  1.00  0.00    -0.545 OA
ATOM      9  O   UNL     1     170.889 146.018 156.793  1.00  0.00    -0.545 OA
ENDBRANCH   1   7
BRANCH   4  10
ATOM     10  O   UNL     1     166.811 142.040 158.872  1.00  0.00    -0.504 OA
ATOM     11  H   UNL     1     165.810 142.165 158.765  1.00  0.00     0.293 HD
ENDBRANCH   4  10
BRANCH   5  12
ATOM     12  O   UNL     1     168.572 142.008 154.341  1.00  0.00    -0.504 OA
ATOM     13  H   UNL     1     167.987 141.232 154.055  1.00  0.00     0.293 HD
ENDBRANCH   5  12
BRANCH   6  14
ATOM     14  O   UNL     1     166.739 141.037 156.243  1.00  0.00    -0.502 OA
ATOM     15  H   UNL     1     166.481 140.871 155.279  1.00  0.00     0.293 HD
ENDBRANCH   6  14
TORSDOF 4
ENDMDL
MODEL 4
REMARK VINA RESULT:    -4.771     10.559     11.061
REMARK INTER + INTRA:          -5.520
REMARK INTER:                  -5.469
REMARK INTRA:                  -0.051
REMARK UNBOUND:                -0.051
REMARK SMILES O=C([O-])c1cc(O)c(O)c(O)c1
REMARK SMILES IDX 4 1 5 2 12 3 6 4 10 5 8 6 2 7 1 8 3 9 7 10 11 12 9 14
REMARK H PARENT 7 11 11 13 9 15
REMARK Flexibility Score: inf
ROOT
ATOM      1  C   UNL     1     168.728 143.842 155.361  1.00  0.00     0.005 A 
ATOM      2  C   UNL     1     169.194 144.297 156.606  1.00  0.00     0.060 A 
ATOM      3  C   UNL     1     167.920 142.694 155.314  1.00  0.00     0.060 A 
ATOM      4  C   UNL     1     168.860 143.618 157.786  1.00  0.00     0.162 A 
ATOM      5  C   UNL     1     167.582 142.011 156.487  1.00  0.00     0.162 A 
ATOM      6  C   UNL     1     168.052 142.470 157.728  1.00  0.00     0.200 A 
ENDROOT
BRANCH   1   7
ATOM      7  C   UNL     1     169.080 144.559 154.115  1.00  0.00     0.072 C 
ATOM      8  O   UNL     1     170.122 145.265 154.054  1.00  0.00    -0.545 OA
ATOM      9  O   UNL     1     168.265 144.465 152.993  1.00  0.00    -0.545 OA
ENDBRANCH   1   7
BRANCH   4  10
ATOM     10  O   UNL     1     169.330 144.079 159.015  1.00  0.00    -0.504 OA
ATOM     11  H   UNL     1     169.710 143.447 159.710  1.00  0.00     0.293 HD
ENDBRANCH   4  10
BRANCH   5  12
ATOM     12  O   UNL     1     166.777 140.875 156.397  1.00  0.00    -0.504 OA
ATOM     13  H   UNL     1     166.754 140.294 155.567  1.00  0.00     0.293 HD
ENDBRANCH   5  12
BRANCH   6  14
ATOM     14  O   UNL     1     167.709 141.781 158.893  1.00  0.00    -0.502 OA
ATOM     15  H   UNL     1     167.087 142.173 159.589  1.00  0.00     0.293 HD
ENDBRANCH   6  14
TORSDOF 4
ENDMDL
MODEL 5
REMARK VINA RESULT:    -4.766     10.566     11.164
REMARK INTER + INTRA:          -5.514
REMARK INTER:                  -5.463
REMARK INTRA:                  -0.051
REMARK UNBOUND:                -0.051
REMARK SMILES O=C([O-])c1cc(O)c(O)c(O)c1
REMARK SMILES IDX 4 1 5 2 12 3 6 4 10 5 8 6 2 7 1 8 3 9 7 10 11 12 9 14
REMARK H PARENT 7 11 11 13 9 15
REMARK Flexibility Score: inf
ROOT
ATOM      1  C   UNL     1     168.762 143.833 155.362  1.00  0.00     0.005 A 
ATOM      2  C   UNL     1     167.944 142.691 155.300  1.00  0.00     0.060 A 
ATOM      3  C   UNL     1     169.217 144.279 156.613  1.00  0.00     0.060 A 
ATOM      4  C   UNL     1     167.586 142.006 156.469  1.00  0.00     0.162 A 
ATOM      5  C   UNL     1     168.863 143.601 157.785  1.00  0.00     0.162 A 
ATOM      6  C   UNL     1     168.046 142.460 157.716  1.00  0.00     0.200 A 
ENDROOT
BRANCH   1   7
ATOM      7  C   UNL     1     169.140 144.557 154.128  1.00  0.00     0.072 C 
ATOM      8  O   UNL     1     170.219 145.206 154.070  1.00  0.00    -0.545 OA
ATOM      9  O   UNL     1     168.310 144.533 153.013  1.00  0.00    -0.545 OA
ENDBRANCH   1   7
BRANCH   4  10
ATOM     10  O   UNL     1     166.774 140.875 156.395  1.00  0.00    -0.504 OA
ATOM     11  H   UNL     1     167.019 140.013 156.869  1.00  0.00     0.293 HD
ENDBRANCH   4  10
BRANCH   5  12
ATOM     12  O   UNL     1     169.336 144.076 159.007  1.00  0.00    -0.504 OA
ATOM     13  H   UNL     1     169.744 143.463 159.704  1.00  0.00     0.293 HD
ENDBRANCH   5  12
BRANCH   6  14
ATOM     14  O   UNL     1     167.698 141.790 158.891  1.00  0.00    -0.502 OA
ATOM     15  H   UNL     1     167.342 140.843 158.886  1.00  0.00     0.293 HD
ENDBRANCH   6  14
TORSDOF 4
ENDMDL
MODEL 6
REMARK VINA RESULT:    -4.710     14.423     15.096
REMARK INTER + INTRA:          -5.450
REMARK INTER:                  -5.401
REMARK INTRA:                  -0.049
REMARK UNBOUND:                -0.051
REMARK SMILES O=C([O-])c1cc(O)c(O)c(O)c1
REMARK SMILES IDX 4 1 5 2 12 3 6 4 10 5 8 6 2 7 1 8 3 9 7 10 11 12 9 14
REMARK H PARENT 7 11 11 13 9 15
REMARK Flexibility Score: inf
ROOT
ATOM      1  C   UNL     1     165.646 159.778 152.821  1.00  0.00     0.005 A 
ATOM      2  C   UNL     1     164.363 160.230 152.466  1.00  0.00     0.060 A 
ATOM      3  C   UNL     1     166.663 159.784 151.852  1.00  0.00     0.060 A 
ATOM      4  C   UNL     1     164.099 160.679 151.165  1.00  0.00     0.162 A 
ATOM      5  C   UNL     1     166.407 160.231 150.551  1.00  0.00     0.162 A 
ATOM      6  C   UNL     1     165.123 160.681 150.203  1.00  0.00     0.200 A 
ENDROOT
BRANCH   1   7
ATOM      7  C   UNL     1     165.926 159.303 154.194  1.00  0.00     0.072 C 
ATOM      8  O   UNL     1     165.470 159.923 155.193  1.00  0.00    -0.545 OA
ATOM      9  O   UNL     1     166.697 158.166 154.404  1.00  0.00    -0.545 OA
ENDBRANCH   1   7
BRANCH   4  10
ATOM     10  O   UNL     1     162.822 161.124 150.825  1.00  0.00    -0.504 OA
ATOM     11  H   UNL     1     162.162 160.526 150.342  1.00  0.00     0.293 HD
ENDBRANCH   4  10
BRANCH   5  12
ATOM     12  O   UNL     1     167.444 160.221 149.619  1.00  0.00    -0.504 OA
ATOM     13  H   UNL     1     167.407 160.764 148.765  1.00  0.00     0.293 HD
ENDBRANCH   5  12
BRANCH   6  14
ATOM     14  O   UNL     1     164.877 161.125 148.903  1.00  0.00    -0.502 OA
ATOM     15  H   UNL     1     163.939 161.254 148.544  1.00  0.00     0.293 HD
ENDBRANCH   6  14
TORSDOF 4
ENDMDL
MODEL 7
REMARK VINA RESULT:    -4.636     14.588     15.071
REMARK INTER + INTRA:          -5.365
REMARK INTER:                  -5.317
REMARK INTRA:                  -0.048
REMARK UNBOUND:                -0.051
REMARK SMILES O=C([O-])c1cc(O)c(O)c(O)c1
REMARK SMILES IDX 4 1 5 2 12 3 6 4 10 5 8 6 2 7 1 8 3 9 7 10 11 12 9 14
REMARK H PARENT 7 11 11 13 9 15
REMARK Flexibility Score: inf
ROOT
ATOM      1  C   UNL     1     165.439 160.013 152.762  1.00  0.00     0.005 A 
ATOM      2  C   UNL     1     166.507 160.011 151.849  1.00  0.00     0.060 A 
ATOM      3  C   UNL     1     164.162 160.389 152.316  1.00  0.00     0.060 A 
ATOM      4  C   UNL     1     166.304 160.379 150.512  1.00  0.00     0.162 A 
ATOM      5  C   UNL     1     163.951 160.758 150.984  1.00  0.00     0.162 A 
ATOM      6  C   UNL     1     165.023 160.755 150.076  1.00  0.00     0.200 A 
ENDROOT
BRANCH   1   7
ATOM      7  C   UNL     1     165.653 159.624 154.174  1.00  0.00     0.072 C 
ATOM      8  O   UNL     1     165.244 160.359 155.112  1.00  0.00    -0.545 OA
ATOM      9  O   UNL     1     166.310 158.439 154.487  1.00  0.00    -0.545 OA
ENDBRANCH   1   7
BRANCH   4  10
ATOM     10  O   UNL     1     167.372 160.374 149.615  1.00  0.00    -0.504 OA
ATOM     11  H   UNL     1     167.864 159.520 149.380  1.00  0.00     0.293 HD
ENDBRANCH   4  10
BRANCH   5  12
ATOM     12  O   UNL     1     162.667 161.125 150.581  1.00  0.00    -0.504 OA
ATOM     13  H   UNL     1     161.976 161.474 151.235  1.00  0.00     0.293 HD
ENDBRANCH   5  12
BRANCH   6  14
ATOM     14  O   UNL     1     164.803 161.125 148.748  1.00  0.00    -0.502 OA
ATOM     15  H   UNL     1     164.125 161.831 148.489  1.00  0.00     0.293 HD
ENDBRANCH   6  14
TORSDOF 4
ENDMDL
MODEL 8
REMARK VINA RESULT:    -4.622      8.515      9.063
REMARK INTER + INTRA:          -5.349
REMARK INTER:                  -5.298
REMARK INTRA:                  -0.051
REMARK UNBOUND:                -0.051
REMARK SMILES O=C([O-])c1cc(O)c(O)c(O)c1
REMARK SMILES IDX 4 1 5 2 12 3 6 4 10 5 8 6 2 7 1 8 3 9 7 10 11 12 9 14
REMARK H PARENT 7 11 11 13 9 15
REMARK Flexibility Score: inf
ROOT
ATOM      1  C   UNL     1     169.263 143.889 153.099  1.00  0.00     0.005 A 
ATOM      2  C   UNL     1     168.804 142.721 153.732  1.00  0.00     0.060 A 
ATOM      3  C   UNL     1     169.162 145.116 153.774  1.00  0.00     0.060 A 
ATOM      4  C   UNL     1     168.252 142.778 155.019  1.00  0.00     0.162 A 
ATOM      5  C   UNL     1     168.611 145.180 155.058  1.00  0.00     0.162 A 
ATOM      6  C   UNL     1     168.154 144.010 155.686  1.00  0.00     0.200 A 
ENDROOT
BRANCH   1   7
ATOM      7  C   UNL     1     169.847 143.830 151.740  1.00  0.00     0.072 C 
ATOM      8  O   UNL     1     170.404 142.779 151.325  1.00  0.00    -0.545 OA
ATOM      9  O   UNL     1     169.790 144.936 150.900  1.00  0.00    -0.545 OA
ENDBRANCH   1   7
BRANCH   4  10
ATOM     10  O   UNL     1     167.799 141.612 155.637  1.00  0.00    -0.504 OA
ATOM     11  H   UNL     1     168.439 140.881 155.926  1.00  0.00     0.293 HD
ENDBRANCH   4  10
BRANCH   5  12
ATOM     12  O   UNL     1     168.528 146.419 155.695  1.00  0.00    -0.504 OA
ATOM     13  H   UNL     1     168.030 147.202 155.288  1.00  0.00     0.293 HD
ENDBRANCH   5  12
BRANCH   6  14
ATOM     14  O   UNL     1     167.606 144.084 156.968  1.00  0.00    -0.502 OA
ATOM     15  H   UNL     1     167.826 144.838 157.607  1.00  0.00     0.293 HD
ENDBRANCH   6  14
TORSDOF 4
ENDMDL
MODEL 9
REMARK VINA RESULT:    -4.608      8.486      8.932
REMARK INTER + INTRA:          -5.333
REMARK INTER:                  -5.281
REMARK INTRA:                  -0.052
REMARK UNBOUND:                -0.051
REMARK SMILES O=C([O-])c1cc(O)c(O)c(O)c1
REMARK SMILES IDX 4 1 5 2 12 3 6 4 10 5 8 6 2 7 1 8 3 9 7 10 11 12 9 14
REMARK H PARENT 7 11 11 13 9 15
REMARK Flexibility Score: inf
ROOT
ATOM      1  C   UNL     1     169.207 143.899 153.066  1.00  0.00     0.005 A 
ATOM      2  C   UNL     1     169.092 145.131 153.733  1.00  0.00     0.060 A 
ATOM      3  C   UNL     1     168.794 142.728 153.722  1.00  0.00     0.060 A 
ATOM      4  C   UNL     1     168.574 145.192 155.034  1.00  0.00     0.162 A 
ATOM      5  C   UNL     1     168.276 142.781 155.020  1.00  0.00     0.162 A 
ATOM      6  C   UNL     1     168.164 144.015 155.682  1.00  0.00     0.200 A 
ENDROOT
BRANCH   1   7
ATOM      7  C   UNL     1     169.754 143.833 151.693  1.00  0.00     0.072 C 
ATOM      8  O   UNL     1     169.791 144.862 150.966  1.00  0.00    -0.545 OA
ATOM      9  O   UNL     1     170.235 142.633 151.182  1.00  0.00    -0.545 OA
ENDBRANCH   1   7
BRANCH   4  10
ATOM     10  O   UNL     1     168.465 146.421 155.686  1.00  0.00    -0.504 OA
ATOM     11  H   UNL     1     167.894 146.534 156.515  1.00  0.00     0.293 HD
ENDBRANCH   4  10
BRANCH   5  12
ATOM     12  O   UNL     1     167.877 141.595 155.636  1.00  0.00    -0.504 OA
ATOM     13  H   UNL     1     166.938 141.462 155.993  1.00  0.00     0.293 HD
ENDBRANCH   5  12
BRANCH   6  14
ATOM     14  O   UNL     1     167.646 144.059 156.977  1.00  0.00    -0.502 OA
ATOM     15  H   UNL     1     166.815 144.589 157.209  1.00  0.00     0.293 HD
ENDBRANCH   6  14
TORSDOF 4
ENDMDL
