MODEL 1
REMARK VINA RESULT:    -3.965      0.000      0.000
REMARK INTER + INTRA:         -15.587
REMARK INTER:                 -10.456
REMARK INTRA:                  -5.131
REMARK UNBOUND:                -5.131
REMARK SMILES CCCCCCCCCCCCCCCCCCCCCCCCCCCCCC(=O)[O-]
REMARK SMILES IDX 16 1 17 2 18 3 19 4 20 5 21 6 22 7 23 8 24 9 25 10 26 11
REMARK SMILES IDX 27 12 28 13 29 14 30 15 31 16 32 17 15 18 14 19 13 20 12 21
REMARK SMILES IDX 11 22 10 23 9 24 8 25 7 26 6 27 5 28 4 29 3 30 2 31 1 32
REMARK H PARENT
REMARK Flexibility Score: inf
ROOT
ATOM      1  C   UNL     1      15.964 -16.064  16.324  1.00  0.00     0.000 C 
ENDROOT
BRANCH   1   2
ATOM      2  C   UNL     1      15.419 -15.105  15.248  1.00  0.00     0.000 C 
BRANCH   2   3
ATOM      3  C   UNL     1      14.577 -13.966  15.845  1.00  0.00     0.000 C 
BRANCH   3   4
ATOM      4  C   UNL     1      13.241 -14.462  16.424  1.00  0.00     0.000 C 
BRANCH   4   5
ATOM      5  C   UNL     1      13.015 -14.004  17.874  1.00  0.00     0.000 C 
BRANCH   5   6
ATOM      6  C   UNL     1      14.212 -13.233  18.449  1.00  0.00     0.000 C 
BRANCH   6   7
ATOM      7  C   UNL     1      13.766 -11.877  19.013  1.00  0.00     0.000 C 
BRANCH   7   8
ATOM      8  C   UNL     1      13.875 -10.774  17.954  1.00  0.00     0.000 C 
BRANCH   8   9
ATOM      9  C   UNL     1      12.585  -9.946  17.890  1.00  0.00     0.000 C 
BRANCH   9  10
ATOM     10  C   UNL     1      11.993  -9.950  16.473  1.00  0.00     0.000 C 
BRANCH  10  11
ATOM     11  C   UNL     1      11.252 -11.267  16.158  1.00  0.00     0.000 C 
BRANCH  11  12
ATOM     12  C   UNL     1      10.631 -11.302  14.751  1.00  0.00     0.000 C 
BRANCH  12  13
ATOM     13  C   UNL     1      10.929 -10.034  13.936  1.00  0.00     0.006 C 
BRANCH  13  14
ATOM     14  C   UNL     1      10.943 -10.305  12.425  1.00  0.00     0.053 C 
BRANCH  14  15
ATOM     15  C   UNL     1       9.722  -9.760  11.746  1.00  0.00     0.041 C 
ATOM     16  O   UNL     1       8.586 -10.233  12.012  1.00  0.00    -0.550 OA
ATOM     17  O   UNL     1       9.844  -8.758  10.793  1.00  0.00    -0.550 OA
ENDBRANCH  14  15
ENDBRANCH  13  14
ENDBRANCH  12  13
ENDBRANCH  11  12
ENDBRANCH  10  11
ENDBRANCH   9  10
ENDBRANCH   8   9
ENDBRANCH   7   8
ENDBRANCH   6   7
ENDBRANCH   5   6
ENDBRANCH   4   5
ENDBRANCH   3   4
ENDBRANCH   2   3
ENDBRANCH   1   2
BRANCH   1  18
ATOM     18  C   UNL     1      15.786 -17.542  15.941  1.00  0.00     0.000 C 
BRANCH  18  19
ATOM     19  C   UNL     1      14.999 -18.333  17.001  1.00  0.00     0.000 C 
BRANCH  19  20
ATOM     20  C   UNL     1      14.703 -17.506  18.263  1.00  0.00     0.000 C 
BRANCH  20  21
ATOM     21  C   UNL     1      13.396 -17.910  18.975  1.00  0.00     0.000 C 
BRANCH  21  22
ATOM     22  C   UNL     1      12.947 -16.855  20.001  1.00  0.00     0.000 C 
BRANCH  22  23
ATOM     23  C   UNL     1      14.127 -16.146  20.683  1.00  0.00     0.000 C 
BRANCH  23  24
ATOM     24  C   UNL     1      14.185 -16.417  22.196  1.00  0.00    -0.000 C 
BRANCH  24  25
ATOM     25  C   UNL     1      13.746 -15.205  23.033  1.00  0.00    -0.000 C 
BRANCH  25  26
ATOM     26  C   UNL     1      13.791 -13.869  22.260  1.00  0.00    -0.000 C 
BRANCH  26  27
ATOM     27  C   UNL     1      12.438 -13.138  22.280  1.00  0.00    -0.000 C 
BRANCH  27  28
ATOM     28  C   UNL     1      11.248 -14.101  22.471  1.00  0.00    -0.000 C 
BRANCH  28  29
ATOM     29  C   UNL     1      10.467 -14.395  21.176  1.00  0.00    -0.000 C 
BRANCH  29  30
ATOM     30  C   UNL     1      10.487 -13.268  20.126  1.00  0.00    -0.000 C 
BRANCH  30  31
ATOM     31  C   UNL     1       9.528 -12.097  20.413  1.00  0.00    -0.003 C 
ATOM     32  C   UNL     1       9.135 -11.324  19.154  1.00  0.00     0.004 C 
ENDBRANCH  30  31
ENDBRANCH  29  30
ENDBRANCH  28  29
ENDBRANCH  27  28
ENDBRANCH  26  27
ENDBRANCH  25  26
ENDBRANCH  24  25
ENDBRANCH  23  24
ENDBRANCH  22  23
ENDBRANCH  21  22
ENDBRANCH  20  21
ENDBRANCH  19  20
ENDBRANCH  18  19
ENDBRANCH   1  18
TORSDOF 28
ENDMDL
MODEL 2
REMARK VINA RESULT:    -3.878      1.369      4.569
REMARK INTER + INTRA:         -15.357
REMARK INTER:                 -10.267
REMARK INTRA:                  -5.091
REMARK UNBOUND:                -5.131
REMARK SMILES CCCCCCCCCCCCCCCCCCCCCCCCCCCCCC(=O)[O-]
REMARK SMILES IDX 16 1 17 2 18 3 19 4 20 5 21 6 22 7 23 8 24 9 25 10 26 11
REMARK SMILES IDX 27 12 28 13 29 14 30 15 31 16 32 17 15 18 14 19 13 20 12 21
REMARK SMILES IDX 11 22 10 23 9 24 8 25 7 26 6 27 5 28 4 29 3 30 2 31 1 32
REMARK H PARENT
REMARK Flexibility Score: inf
ROOT
ATOM      1  C   UNL     1      11.229 -14.949  20.360  1.00  0.00     0.000 C 
ENDROOT
BRANCH   1   2
ATOM      2  C   UNL     1      10.077 -14.390  21.216  1.00  0.00     0.000 C 
BRANCH   2   3
ATOM      3  C   UNL     1      10.565 -13.408  22.293  1.00  0.00     0.000 C 
BRANCH   3   4
ATOM      4  C   UNL     1       9.502 -12.359  22.660  1.00  0.00     0.000 C 
BRANCH   4   5
ATOM      5  C   UNL     1       8.461 -12.154  21.547  1.00  0.00     0.000 C 
BRANCH   5   6
ATOM      6  C   UNL     1       8.426 -10.711  21.021  1.00  0.00     0.000 C 
BRANCH   6   7
ATOM      7  C   UNL     1       9.510 -10.492  19.959  1.00  0.00     0.000 C 
BRANCH   7   8
ATOM      8  C   UNL     1       9.316 -11.436  18.766  1.00  0.00     0.000 C 
BRANCH   8   9
ATOM      9  C   UNL     1      10.658 -12.019  18.304  1.00  0.00     0.000 C 
BRANCH   9  10
ATOM     10  C   UNL     1      10.800 -11.941  16.777  1.00  0.00     0.000 C 
BRANCH  10  11
ATOM     11  C   UNL     1      11.369 -10.582  16.316  1.00  0.00     0.000 C 
BRANCH  11  12
ATOM     12  C   UNL     1      11.722 -10.538  14.820  1.00  0.00     0.000 C 
BRANCH  12  13
ATOM     13  C   UNL     1      10.482 -10.438  13.917  1.00  0.00     0.006 C 
BRANCH  13  14
ATOM     14  C   UNL     1      10.849 -10.121  12.461  1.00  0.00     0.053 C 
BRANCH  14  15
ATOM     15  C   UNL     1       9.648  -9.733  11.651  1.00  0.00     0.041 C 
ATOM     16  O   UNL     1       8.548 -10.316  11.834  1.00  0.00    -0.550 OA
ATOM     17  O   UNL     1       9.755  -8.757  10.670  1.00  0.00    -0.550 OA
ENDBRANCH  14  15
ENDBRANCH  13  14
ENDBRANCH  12  13
ENDBRANCH  11  12
ENDBRANCH  10  11
ENDBRANCH   9  10
ENDBRANCH   8   9
ENDBRANCH   7   8
ENDBRANCH   6   7
ENDBRANCH   5   6
ENDBRANCH   4   5
ENDBRANCH   3   4
ENDBRANCH   2   3
ENDBRANCH   1   2
BRANCH   1  18
ATOM     18  C   UNL     1      12.512 -15.182  21.175  1.00  0.00     0.000 C 
BRANCH  18  19
ATOM     19  C   UNL     1      13.272 -16.442  20.725  1.00  0.00     0.000 C 
BRANCH  19  20
ATOM     20  C   UNL     1      12.565 -17.189  19.584  1.00  0.00     0.000 C 
BRANCH  20  21
ATOM     21  C   UNL     1      13.318 -17.120  18.239  1.00  0.00     0.000 C 
BRANCH  21  22
ATOM     22  C   UNL     1      14.722 -16.509  18.395  1.00  0.00     0.000 C 
BRANCH  22  23
ATOM     23  C   UNL     1      15.059 -15.499  17.287  1.00  0.00     0.000 C 
BRANCH  23  24
ATOM     24  C   UNL     1      13.829 -14.708  16.814  1.00  0.00    -0.000 C 
BRANCH  24  25
ATOM     25  C   UNL     1      14.173 -13.268  16.400  1.00  0.00    -0.000 C 
BRANCH  25  26
ATOM     26  C   UNL     1      14.501 -12.342  17.591  1.00  0.00    -0.000 C 
BRANCH  26  27
ATOM     27  C   UNL     1      13.654 -12.667  18.833  1.00  0.00    -0.000 C 
BRANCH  27  28
ATOM     28  C   UNL     1      14.512 -12.849  20.103  1.00  0.00    -0.000 C 
BRANCH  28  29
ATOM     29  C   UNL     1      14.430 -11.666  21.088  1.00  0.00    -0.000 C 
BRANCH  29  30
ATOM     30  C   UNL     1      13.125 -10.849  21.027  1.00  0.00    -0.000 C 
BRANCH  30  31
ATOM     31  C   UNL     1      13.307  -9.362  20.667  1.00  0.00    -0.003 C 
ATOM     32  C   UNL     1      12.958  -9.053  19.212  1.00  0.00     0.004 C 
ENDBRANCH  30  31
ENDBRANCH  29  30
ENDBRANCH  28  29
ENDBRANCH  27  28
ENDBRANCH  26  27
ENDBRANCH  25  26
ENDBRANCH  24  25
ENDBRANCH  23  24
ENDBRANCH  22  23
ENDBRANCH  21  22
ENDBRANCH  20  21
ENDBRANCH  19  20
ENDBRANCH  18  19
ENDBRANCH   1  18
TORSDOF 28
ENDMDL
MODEL 3
REMARK VINA RESULT:    -3.835      3.040      5.526
REMARK INTER + INTRA:         -15.245
REMARK INTER:                  -8.544
REMARK INTRA:                  -6.701
REMARK UNBOUND:                -5.131
REMARK SMILES CCCCCCCCCCCCCCCCCCCCCCCCCCCCCC(=O)[O-]
REMARK SMILES IDX 16 1 17 2 18 3 19 4 20 5 21 6 22 7 23 8 24 9 25 10 26 11
REMARK SMILES IDX 27 12 28 13 29 14 30 15 31 16 32 17 15 18 14 19 13 20 12 21
REMARK SMILES IDX 11 22 10 23 9 24 8 25 7 26 6 27 5 28 4 29 3 30 2 31 1 32
REMARK H PARENT
REMARK Flexibility Score: inf
ROOT
ATOM      1  C   UNL     1      10.135 -14.021  21.319  1.00  0.00     0.000 C 
ENDROOT
BRANCH   1   2
ATOM      2  C   UNL     1      10.958 -13.931  22.618  1.00  0.00     0.000 C 
BRANCH   2   3
ATOM      3  C   UNL     1      10.863 -12.548  23.281  1.00  0.00     0.000 C 
BRANCH   3   4
ATOM      4  C   UNL     1       9.412 -12.050  23.399  1.00  0.00     0.000 C 
BRANCH   4   5
ATOM      5  C   UNL     1       9.251 -10.581  22.975  1.00  0.00     0.000 C 
BRANCH   5   6
ATOM      6  C   UNL     1       9.462 -10.368  21.469  1.00  0.00     0.000 C 
BRANCH   6   7
ATOM      7  C   UNL     1       8.258 -10.888  20.672  1.00  0.00     0.000 C 
BRANCH   7   8
ATOM      8  C   UNL     1       8.664 -11.273  19.244  1.00  0.00     0.000 C 
BRANCH   8   9
ATOM      9  C   UNL     1      10.128 -10.907  18.972  1.00  0.00     0.000 C 
BRANCH   9  10
ATOM     10  C   UNL     1      10.597 -11.465  17.620  1.00  0.00     0.000 C 
BRANCH  10  11
ATOM     11  C   UNL     1      11.603 -10.525  16.922  1.00  0.00     0.000 C 
BRANCH  11  12
ATOM     12  C   UNL     1      12.940 -11.200  16.578  1.00  0.00     0.000 C 
BRANCH  12  13
ATOM     13  C   UNL     1      13.040 -12.636  17.119  1.00  0.00     0.006 C 
BRANCH  13  14
ATOM     14  C   UNL     1      14.418 -13.260  16.857  1.00  0.00     0.053 C 
BRANCH  14  15
ATOM     15  C   UNL     1      14.326 -14.480  15.991  1.00  0.00     0.041 C 
ATOM     16  O   UNL     1      13.338 -15.255  16.093  1.00  0.00    -0.550 OA
ATOM     17  O   UNL     1      15.348 -14.782  15.102  1.00  0.00    -0.550 OA
ENDBRANCH  14  15
ENDBRANCH  13  14
ENDBRANCH  12  13
ENDBRANCH  11  12
ENDBRANCH  10  11
ENDBRANCH   9  10
ENDBRANCH   8   9
ENDBRANCH   7   8
ENDBRANCH   6   7
ENDBRANCH   5   6
ENDBRANCH   4   5
ENDBRANCH   3   4
ENDBRANCH   2   3
ENDBRANCH   1   2
BRANCH   1  18
ATOM     18  C   UNL     1      11.008 -14.315  20.087  1.00  0.00     0.000 C 
BRANCH  18  19
ATOM     19  C   UNL     1      11.924 -15.534  20.293  1.00  0.00     0.000 C 
BRANCH  19  20
ATOM     20  C   UNL     1      13.331 -15.327  19.710  1.00  0.00     0.000 C 
BRANCH  20  21
ATOM     21  C   UNL     1      14.464 -15.779  20.654  1.00  0.00     0.000 C 
BRANCH  21  22
ATOM     22  C   UNL     1      13.925 -16.514  21.894  1.00  0.00     0.000 C 
BRANCH  22  23
ATOM     23  C   UNL     1      14.207 -15.761  23.203  1.00  0.00     0.000 C 
BRANCH  23  24
ATOM     24  C   UNL     1      15.014 -14.472  22.981  1.00  0.00    -0.000 C 
BRANCH  24  25
ATOM     25  C   UNL     1      14.444 -13.273  23.757  1.00  0.00    -0.000 C 
BRANCH  25  26
ATOM     26  C   UNL     1      14.424 -11.961  22.942  1.00  0.00    -0.000 C 
BRANCH  26  27
ATOM     27  C   UNL     1      14.632 -12.205  21.437  1.00  0.00    -0.000 C 
BRANCH  27  28
ATOM     28  C   UNL     1      13.461 -11.674  20.585  1.00  0.00    -0.000 C 
BRANCH  28  29
ATOM     29  C   UNL     1      13.690 -10.258  20.021  1.00  0.00    -0.000 C 
BRANCH  29  30
ATOM     30  C   UNL     1      13.066  -9.114  20.842  1.00  0.00    -0.000 C 
BRANCH  30  31
ATOM     31  C   UNL     1      12.990  -7.759  20.114  1.00  0.00    -0.003 C 
ATOM     32  C   UNL     1      11.758  -7.630  19.219  1.00  0.00     0.004 C 
ENDBRANCH  30  31
ENDBRANCH  29  30
ENDBRANCH  28  29
ENDBRANCH  27  28
ENDBRANCH  26  27
ENDBRANCH  25  26
ENDBRANCH  24  25
ENDBRANCH  23  24
ENDBRANCH  22  23
ENDBRANCH  21  22
ENDBRANCH  20  21
ENDBRANCH  19  20
ENDBRANCH  18  19
ENDBRANCH   1  18
TORSDOF 28
ENDMDL
MODEL 4
REMARK VINA RESULT:    -3.834      3.073      6.697
REMARK INTER + INTRA:         -15.242
REMARK INTER:                  -8.819
REMARK INTRA:                  -6.422
REMARK UNBOUND:                -5.131
REMARK SMILES CCCCCCCCCCCCCCCCCCCCCCCCCCCCCC(=O)[O-]
REMARK SMILES IDX 16 1 17 2 18 3 19 4 20 5 21 6 22 7 23 8 24 9 25 10 26 11
REMARK SMILES IDX 27 12 28 13 29 14 30 15 31 16 32 17 15 18 14 19 13 20 12 21
REMARK SMILES IDX 11 22 10 23 9 24 8 25 7 26 6 27 5 28 4 29 3 30 2 31 1 32
REMARK H PARENT
REMARK Flexibility Score: inf
ROOT
ATOM      1  C   UNL     1      13.304 -10.566  17.144  1.00  0.00     0.000 C 
ENDROOT
BRANCH   1   2
ATOM      2  C   UNL     1      14.263  -9.894  18.145  1.00  0.00     0.000 C 
BRANCH   2   3
ATOM      3  C   UNL     1      13.767  -9.998  19.596  1.00  0.00     0.000 C 
BRANCH   3   4
ATOM      4  C   UNL     1      14.146 -11.335  20.254  1.00  0.00     0.000 C 
BRANCH   4   5
ATOM      5  C   UNL     1      13.928 -11.332  21.776  1.00  0.00     0.000 C 
BRANCH   5   6
ATOM      6  C   UNL     1      12.457 -11.123  22.167  1.00  0.00     0.000 C 
BRANCH   6   7
ATOM      7  C   UNL     1      12.021 -12.154  23.216  1.00  0.00     0.000 C 
BRANCH   7   8
ATOM      8  C   UNL     1      12.807 -13.462  23.069  1.00  0.00     0.000 C 
BRANCH   8   9
ATOM      9  C   UNL     1      11.953 -14.543  22.395  1.00  0.00     0.000 C 
BRANCH   9  10
ATOM     10  C   UNL     1      12.701 -15.187  21.218  1.00  0.00     0.000 C 
BRANCH  10  11
ATOM     11  C   UNL     1      14.233 -15.108  21.391  1.00  0.00     0.000 C 
BRANCH  11  12
ATOM     12  C   UNL     1      14.983 -14.779  20.090  1.00  0.00     0.000 C 
BRANCH  12  13
ATOM     13  C   UNL     1      14.099 -14.918  18.840  1.00  0.00     0.006 C 
BRANCH  13  14
ATOM     14  C   UNL     1      14.551 -13.990  17.704  1.00  0.00     0.053 C 
BRANCH  14  15
ATOM     15  C   UNL     1      14.185 -14.534  16.356  1.00  0.00     0.041 C 
ATOM     16  O   UNL     1      13.057 -15.063  16.173  1.00  0.00    -0.550 OA
ATOM     17  O   UNL     1      15.101 -14.491  15.315  1.00  0.00    -0.550 OA
ENDBRANCH  14  15
ENDBRANCH  13  14
ENDBRANCH  12  13
ENDBRANCH  11  12
ENDBRANCH  10  11
ENDBRANCH   9  10
ENDBRANCH   8   9
ENDBRANCH   7   8
ENDBRANCH   6   7
ENDBRANCH   5   6
ENDBRANCH   4   5
ENDBRANCH   3   4
ENDBRANCH   2   3
ENDBRANCH   1   2
BRANCH   1  18
ATOM     18  C   UNL     1      11.879  -9.992  17.215  1.00  0.00     0.000 C 
BRANCH  18  19
ATOM     19  C   UNL     1      10.814 -11.087  17.400  1.00  0.00     0.000 C 
BRANCH  19  20
ATOM     20  C   UNL     1      11.403 -12.412  17.910  1.00  0.00     0.000 C 
BRANCH  20  21
ATOM     21  C   UNL     1      10.884 -12.825  19.302  1.00  0.00     0.000 C 
BRANCH  21  22
ATOM     22  C   UNL     1       9.588 -12.085  19.678  1.00  0.00     0.000 C 
BRANCH  22  23
ATOM     23  C   UNL     1       9.038 -12.504  21.050  1.00  0.00     0.000 C 
BRANCH  23  24
ATOM     24  C   UNL     1       8.076 -11.463  21.644  1.00  0.00    -0.000 C 
BRANCH  24  25
ATOM     25  C   UNL     1       8.769 -10.506  22.628  1.00  0.00    -0.000 C 
BRANCH  25  26
ATOM     26  C   UNL     1       8.630  -9.016  22.245  1.00  0.00    -0.000 C 
BRANCH  26  27
ATOM     27  C   UNL     1       8.815  -8.782  20.736  1.00  0.00    -0.000 C 
BRANCH  27  28
ATOM     28  C   UNL     1      10.299  -8.787  20.315  1.00  0.00    -0.000 C 
BRANCH  28  29
ATOM     29  C   UNL     1      11.067  -7.512  20.714  1.00  0.00    -0.000 C 
BRANCH  29  30
ATOM     30  C   UNL     1      11.715  -6.743  19.546  1.00  0.00    -0.000 C 
BRANCH  30  31
ATOM     31  C   UNL     1      10.851  -6.644  18.275  1.00  0.00    -0.003 C 
ATOM     32  C   UNL     1      10.565  -5.202  17.858  1.00  0.00     0.004 C 
ENDBRANCH  30  31
ENDBRANCH  29  30
ENDBRANCH  28  29
ENDBRANCH  27  28
ENDBRANCH  26  27
ENDBRANCH  25  26
ENDBRANCH  24  25
ENDBRANCH  23  24
ENDBRANCH  22  23
ENDBRANCH  21  22
ENDBRANCH  20  21
ENDBRANCH  19  20
ENDBRANCH  18  19
ENDBRANCH   1  18
TORSDOF 28
ENDMDL
MODEL 5
REMARK VINA RESULT:    -3.819      3.665      5.307
REMARK INTER + INTRA:         -15.202
REMARK INTER:                  -9.289
REMARK INTRA:                  -5.913
REMARK UNBOUND:                -5.131
REMARK SMILES CCCCCCCCCCCCCCCCCCCCCCCCCCCCCC(=O)[O-]
REMARK SMILES IDX 16 1 17 2 18 3 19 4 20 5 21 6 22 7 23 8 24 9 25 10 26 11
REMARK SMILES IDX 27 12 28 13 29 14 30 15 31 16 32 17 15 18 14 19 13 20 12 21
REMARK SMILES IDX 11 22 10 23 9 24 8 25 7 26 6 27 5 28 4 29 3 30 2 31 1 32
REMARK H PARENT
REMARK Flexibility Score: inf
ROOT
ATOM      1  C   UNL     1      12.807 -13.881  17.225  1.00  0.00     0.000 C 
ENDROOT
BRANCH   1   2
ATOM      2  C   UNL     1      12.106 -12.818  16.357  1.00  0.00     0.000 C 
BRANCH   2   3
ATOM      3  C   UNL     1      12.729 -11.422  16.517  1.00  0.00     0.000 C 
BRANCH   3   4
ATOM      4  C   UNL     1      11.689 -10.295  16.388  1.00  0.00     0.000 C 
BRANCH   4   5
ATOM      5  C   UNL     1      11.859  -9.206  17.460  1.00  0.00     0.000 C 
BRANCH   5   6
ATOM      6  C   UNL     1      12.876  -9.589  18.545  1.00  0.00     0.000 C 
BRANCH   6   7
ATOM      7  C   UNL     1      12.944  -8.510  19.633  1.00  0.00     0.000 C 
BRANCH   7   8
ATOM      8  C   UNL     1      11.565  -8.260  20.254  1.00  0.00     0.000 C 
BRANCH   8   9
ATOM      9  C   UNL     1      11.205  -6.770  20.211  1.00  0.00     0.000 C 
BRANCH   9  10
ATOM     10  C   UNL     1      10.082  -6.499  19.198  1.00  0.00     0.000 C 
BRANCH  10  11
ATOM     11  C   UNL     1      10.586  -5.711  17.970  1.00  0.00     0.000 C 
BRANCH  11  12
ATOM     12  C   UNL     1      11.663  -4.667  18.309  1.00  0.00     0.000 C 
BRANCH  12  13
ATOM     13  C   UNL     1      12.029  -3.777  17.111  1.00  0.00     0.006 C 
BRANCH  13  14
ATOM     14  C   UNL     1      11.216  -2.475  17.085  1.00  0.00     0.053 C 
BRANCH  14  15
ATOM     15  C   UNL     1      10.168  -2.490  16.014  1.00  0.00     0.041 C 
ATOM     16  O   UNL     1       9.201  -1.685  16.064  1.00  0.00    -0.550 OA
ATOM     17  O   UNL     1      10.237  -3.418  14.983  1.00  0.00    -0.550 OA
ENDBRANCH  14  15
ENDBRANCH  13  14
ENDBRANCH  12  13
ENDBRANCH  11  12
ENDBRANCH  10  11
ENDBRANCH   9  10
ENDBRANCH   8   9
ENDBRANCH   7   8
ENDBRANCH   6   7
ENDBRANCH   5   6
ENDBRANCH   4   5
ENDBRANCH   3   4
ENDBRANCH   2   3
ENDBRANCH   1   2
BRANCH   1  18
ATOM     18  C   UNL     1      13.830 -13.269  18.196  1.00  0.00     0.000 C 
BRANCH  18  19
ATOM     19  C   UNL     1      14.311 -14.278  19.254  1.00  0.00     0.000 C 
BRANCH  19  20
ATOM     20  C   UNL     1      14.503 -13.643  20.640  1.00  0.00     0.000 C 
BRANCH  20  21
ATOM     21  C   UNL     1      14.384 -12.105  20.637  1.00  0.00     0.000 C 
BRANCH  21  22
ATOM     22  C   UNL     1      13.674 -11.579  21.898  1.00  0.00     0.000 C 
BRANCH  22  23
ATOM     23  C   UNL     1      12.882 -12.669  22.635  1.00  0.00     0.000 C 
BRANCH  23  24
ATOM     24  C   UNL     1      11.361 -12.499  22.483  1.00  0.00    -0.000 C 
BRANCH  24  25
ATOM     25  C   UNL     1      10.698 -13.693  21.776  1.00  0.00    -0.000 C 
BRANCH  25  26
ATOM     26  C   UNL     1      10.664 -13.561  20.238  1.00  0.00    -0.000 C 
BRANCH  26  27
ATOM     27  C   UNL     1      10.702 -12.094  19.777  1.00  0.00    -0.000 C 
BRANCH  27  28
ATOM     28  C   UNL     1       9.492 -11.719  18.896  1.00  0.00    -0.000 C 
BRANCH  28  29
ATOM     29  C   UNL     1       8.610 -10.602  19.488  1.00  0.00    -0.000 C 
BRANCH  29  30
ATOM     30  C   UNL     1       8.712 -10.423  21.015  1.00  0.00    -0.000 C 
BRANCH  30  31
ATOM     31  C   UNL     1       7.393 -10.635  21.782  1.00  0.00    -0.003 C 
ATOM     32  C   UNL     1       7.358 -11.950  22.560  1.00  0.00     0.004 C 
ENDBRANCH  30  31
ENDBRANCH  29  30
ENDBRANCH  28  29
ENDBRANCH  27  28
ENDBRANCH  26  27
ENDBRANCH  25  26
ENDBRANCH  24  25
ENDBRANCH  23  24
ENDBRANCH  22  23
ENDBRANCH  21  22
ENDBRANCH  20  21
ENDBRANCH  19  20
ENDBRANCH  18  19
ENDBRANCH   1  18
TORSDOF 28
ENDMDL
MODEL 6
REMARK VINA RESULT:    -3.790      4.197      8.371
REMARK INTER + INTRA:         -15.126
REMARK INTER:                  -9.952
REMARK INTRA:                  -5.174
REMARK UNBOUND:                -5.131
REMARK SMILES CCCCCCCCCCCCCCCCCCCCCCCCCCCCCC(=O)[O-]
REMARK SMILES IDX 16 1 17 2 18 3 19 4 20 5 21 6 22 7 23 8 24 9 25 10 26 11
REMARK SMILES IDX 27 12 28 13 29 14 30 15 31 16 32 17 15 18 14 19 13 20 12 21
REMARK SMILES IDX 11 22 10 23 9 24 8 25 7 26 6 27 5 28 4 29 3 30 2 31 1 32
REMARK H PARENT
REMARK Flexibility Score: inf
ROOT
ATOM      1  C   UNL     1      11.010 -11.425  16.912  1.00  0.00     0.000 C 
ENDROOT
BRANCH   1   2
ATOM      2  C   UNL     1      11.255 -12.325  18.138  1.00  0.00     0.000 C 
BRANCH   2   3
ATOM      3  C   UNL     1      10.167 -12.165  19.213  1.00  0.00     0.000 C 
BRANCH   3   4
ATOM      4  C   UNL     1       8.987 -11.302  18.733  1.00  0.00     0.000 C 
BRANCH   4   5
ATOM      5  C   UNL     1       8.028 -10.922  19.873  1.00  0.00     0.000 C 
BRANCH   5   6
ATOM      6  C   UNL     1       8.223 -11.783  21.129  1.00  0.00     0.000 C 
BRANCH   6   7
ATOM      7  C   UNL     1       8.082 -10.934  22.399  1.00  0.00     0.000 C 
BRANCH   7   8
ATOM      8  C   UNL     1       9.360 -10.987  23.246  1.00  0.00     0.000 C 
BRANCH   8   9
ATOM      9  C   UNL     1       9.750 -12.437  23.558  1.00  0.00     0.000 C 
BRANCH   9  10
ATOM     10  C   UNL     1      11.124 -12.781  22.963  1.00  0.00     0.000 C 
BRANCH  10  11
ATOM     11  C   UNL     1      11.117 -14.145  22.241  1.00  0.00     0.000 C 
BRANCH  11  12
ATOM     12  C   UNL     1      12.519 -14.643  21.853  1.00  0.00     0.000 C 
BRANCH  12  13
ATOM     13  C   UNL     1      13.271 -13.659  20.942  1.00  0.00     0.006 C 
BRANCH  13  14
ATOM     14  C   UNL     1      14.660 -14.180  20.546  1.00  0.00     0.053 C 
BRANCH  14  15
ATOM     15  C   UNL     1      14.650 -14.835  19.198  1.00  0.00     0.041 C 
ATOM     16  O   UNL     1      14.725 -14.136  18.154  1.00  0.00    -0.550 OA
ATOM     17  O   UNL     1      14.520 -16.213  19.094  1.00  0.00    -0.550 OA
ENDBRANCH  14  15
ENDBRANCH  13  14
ENDBRANCH  12  13
ENDBRANCH  11  12
ENDBRANCH  10  11
ENDBRANCH   9  10
ENDBRANCH   8   9
ENDBRANCH   7   8
ENDBRANCH   6   7
ENDBRANCH   5   6
ENDBRANCH   4   5
ENDBRANCH   3   4
ENDBRANCH   2   3
ENDBRANCH   1   2
BRANCH   1  18
ATOM     18  C   UNL     1      12.196 -10.490  16.620  1.00  0.00     0.000 C 
BRANCH  18  19
ATOM     19  C   UNL     1      13.503 -10.980  17.268  1.00  0.00     0.000 C 
BRANCH  19  20
ATOM     20  C   UNL     1      14.137  -9.932  18.197  1.00  0.00     0.000 C 
BRANCH  20  21
ATOM     21  C   UNL     1      14.024 -10.284  19.695  1.00  0.00     0.000 C 
BRANCH  21  22
ATOM     22  C   UNL     1      13.286  -9.192  20.490  1.00  0.00     0.000 C 
BRANCH  22  23
ATOM     23  C   UNL     1      11.827  -9.562  20.798  1.00  0.00     0.000 C 
BRANCH  23  24
ATOM     24  C   UNL     1      10.839  -8.456  20.392  1.00  0.00    -0.000 C 
BRANCH  24  25
ATOM     25  C   UNL     1      10.926  -8.101  18.899  1.00  0.00    -0.000 C 
BRANCH  25  26
ATOM     26  C   UNL     1      11.307  -6.628  18.634  1.00  0.00    -0.000 C 
BRANCH  26  27
ATOM     27  C   UNL     1      10.073  -5.734  18.425  1.00  0.00    -0.000 C 
BRANCH  27  28
ATOM     28  C   UNL     1      10.265  -4.722  17.276  1.00  0.00    -0.000 C 
BRANCH  28  29
ATOM     29  C   UNL     1      10.526  -3.279  17.750  1.00  0.00    -0.000 C 
BRANCH  29  30
ATOM     30  C   UNL     1      11.839  -2.650  17.249  1.00  0.00    -0.000 C 
BRANCH  30  31
ATOM     31  C   UNL     1      13.100  -3.502  17.490  1.00  0.00    -0.003 C 
ATOM     32  C   UNL     1      13.927  -3.021  18.681  1.00  0.00     0.004 C 
ENDBRANCH  30  31
ENDBRANCH  29  30
ENDBRANCH  28  29
ENDBRANCH  27  28
ENDBRANCH  26  27
ENDBRANCH  25  26
ENDBRANCH  24  25
ENDBRANCH  23  24
ENDBRANCH  22  23
ENDBRANCH  21  22
ENDBRANCH  20  21
ENDBRANCH  19  20
ENDBRANCH  18  19
ENDBRANCH   1  18
TORSDOF 28
ENDMDL
MODEL 7
REMARK VINA RESULT:    -3.753      3.258      7.046
REMARK INTER + INTRA:         -15.027
REMARK INTER:                  -8.782
REMARK INTRA:                  -6.245
REMARK UNBOUND:                -5.131
REMARK SMILES CCCCCCCCCCCCCCCCCCCCCCCCCCCCCC(=O)[O-]
REMARK SMILES IDX 16 1 17 2 18 3 19 4 20 5 21 6 22 7 23 8 24 9 25 10 26 11
REMARK SMILES IDX 27 12 28 13 29 14 30 15 31 16 32 17 15 18 14 19 13 20 12 21
REMARK SMILES IDX 11 22 10 23 9 24 8 25 7 26 6 27 5 28 4 29 3 30 2 31 1 32
REMARK H PARENT
REMARK Flexibility Score: inf
ROOT
ATOM      1  C   UNL     1      11.789 -10.478  17.067  1.00  0.00     0.000 C 
ENDROOT
BRANCH   1   2
ATOM      2  C   UNL     1      10.835 -11.667  17.293  1.00  0.00     0.000 C 
BRANCH   2   3
ATOM      3  C   UNL     1      10.376 -11.784  18.755  1.00  0.00     0.000 C 
BRANCH   3   4
ATOM      4  C   UNL     1      11.093 -12.918  19.509  1.00  0.00     0.000 C 
BRANCH   4   5
ATOM      5  C   UNL     1      10.227 -13.534  20.619  1.00  0.00     0.000 C 
BRANCH   5   6
ATOM      6  C   UNL     1      11.047 -14.335  21.641  1.00  0.00     0.000 C 
BRANCH   6   7
ATOM      7  C   UNL     1      10.973 -13.684  23.029  1.00  0.00     0.000 C 
BRANCH   7   8
ATOM      8  C   UNL     1      12.361 -13.597  23.675  1.00  0.00     0.000 C 
BRANCH   8   9
ATOM      9  C   UNL     1      13.362 -14.505  22.949  1.00  0.00     0.000 C 
BRANCH   9  10
ATOM     10  C   UNL     1      14.656 -13.748  22.616  1.00  0.00     0.000 C 
BRANCH  10  11
ATOM     11  C   UNL     1      14.680 -13.255  21.154  1.00  0.00     0.000 C 
BRANCH  11  12
ATOM     12  C   UNL     1      14.702 -14.394  20.121  1.00  0.00     0.000 C 
BRANCH  12  13
ATOM     13  C   UNL     1      14.408 -13.910  18.692  1.00  0.00     0.006 C 
BRANCH  13  14
ATOM     14  C   UNL     1      14.484 -15.049  17.666  1.00  0.00     0.053 C 
BRANCH  14  15
ATOM     15  C   UNL     1      13.145 -15.353  17.065  1.00  0.00     0.041 C 
ATOM     16  O   UNL     1      12.563 -14.497  16.349  1.00  0.00    -0.550 OA
ATOM     17  O   UNL     1      12.523 -16.566  17.328  1.00  0.00    -0.550 OA
ENDBRANCH  14  15
ENDBRANCH  13  14
ENDBRANCH  12  13
ENDBRANCH  11  12
ENDBRANCH  10  11
ENDBRANCH   9  10
ENDBRANCH   8   9
ENDBRANCH   7   8
ENDBRANCH   6   7
ENDBRANCH   5   6
ENDBRANCH   4   5
ENDBRANCH   3   4
ENDBRANCH   2   3
ENDBRANCH   1   2
BRANCH   1  18
ATOM     18  C   UNL     1      13.237 -10.925  16.805  1.00  0.00     0.000 C 
BRANCH  18  19
ATOM     19  C   UNL     1      14.241 -10.241  17.750  1.00  0.00     0.000 C 
BRANCH  19  20
ATOM     20  C   UNL     1      13.821 -10.323  19.227  1.00  0.00     0.000 C 
BRANCH  20  21
ATOM     21  C   UNL     1      13.882  -8.969  19.963  1.00  0.00     0.000 C 
BRANCH  21  22
ATOM     22  C   UNL     1      13.401  -9.083  21.421  1.00  0.00     0.000 C 
BRANCH  22  23
ATOM     23  C   UNL     1      12.556 -10.340  21.674  1.00  0.00     0.000 C 
BRANCH  23  24
ATOM     24  C   UNL     1      11.345 -10.066  22.581  1.00  0.00    -0.000 C 
BRANCH  24  25
ATOM     25  C   UNL     1      10.025  -9.977  21.798  1.00  0.00    -0.000 C 
BRANCH  25  26
ATOM     26  C   UNL     1       9.374  -8.577  21.840  1.00  0.00    -0.000 C 
BRANCH  26  27
ATOM     27  C   UNL     1      10.091  -7.572  20.923  1.00  0.00    -0.000 C 
BRANCH  27  28
ATOM     28  C   UNL     1       9.939  -7.923  19.429  1.00  0.00    -0.000 C 
BRANCH  28  29
ATOM     29  C   UNL     1      11.010  -7.283  18.524  1.00  0.00    -0.000 C 
BRANCH  29  30
ATOM     30  C   UNL     1      11.790  -6.113  19.155  1.00  0.00    -0.000 C 
BRANCH  30  31
ATOM     31  C   UNL     1      11.375  -4.715  18.659  1.00  0.00    -0.003 C 
ATOM     32  C   UNL     1      10.485  -4.760  17.418  1.00  0.00     0.004 C 
ENDBRANCH  30  31
ENDBRANCH  29  30
ENDBRANCH  28  29
ENDBRANCH  27  28
ENDBRANCH  26  27
ENDBRANCH  25  26
ENDBRANCH  24  25
ENDBRANCH  23  24
ENDBRANCH  22  23
ENDBRANCH  21  22
ENDBRANCH  20  21
ENDBRANCH  19  20
ENDBRANCH  18  19
ENDBRANCH   1  18
TORSDOF 28
ENDMDL
MODEL 8
REMARK VINA RESULT:    -3.680      3.389      6.159
REMARK INTER + INTRA:         -14.835
REMARK INTER:                  -8.319
REMARK INTRA:                  -6.516
REMARK UNBOUND:                -5.131
REMARK SMILES CCCCCCCCCCCCCCCCCCCCCCCCCCCCCC(=O)[O-]
REMARK SMILES IDX 16 1 17 2 18 3 19 4 20 5 21 6 22 7 23 8 24 9 25 10 26 11
REMARK SMILES IDX 27 12 28 13 29 14 30 15 31 16 32 17 15 18 14 19 13 20 12 21
REMARK SMILES IDX 11 22 10 23 9 24 8 25 7 26 6 27 5 28 4 29 3 30 2 31 1 32
REMARK H PARENT
REMARK Flexibility Score: inf
ROOT
ATOM      1  C   UNL     1      10.431 -11.542  17.330  1.00  0.00     0.000 C 
ENDROOT
BRANCH   1   2
ATOM      2  C   UNL     1      11.690 -12.093  16.633  1.00  0.00     0.000 C 
BRANCH   2   3
ATOM      3  C   UNL     1      12.767 -11.017  16.424  1.00  0.00     0.000 C 
BRANCH   3   4
ATOM      4  C   UNL     1      13.994 -11.229  17.328  1.00  0.00     0.000 C 
BRANCH   4   5
ATOM      5  C   UNL     1      14.153 -10.121  18.383  1.00  0.00     0.000 C 
BRANCH   5   6
ATOM      6  C   UNL     1      14.198 -10.666  19.818  1.00  0.00     0.000 C 
BRANCH   6   7
ATOM      7  C   UNL     1      13.561  -9.672  20.798  1.00  0.00     0.000 C 
BRANCH   7   8
ATOM      8  C   UNL     1      13.500  -8.263  20.197  1.00  0.00     0.000 C 
BRANCH   8   9
ATOM      9  C   UNL     1      13.030  -7.242  21.240  1.00  0.00     0.000 C 
BRANCH   9  10
ATOM     10  C   UNL     1      11.953  -7.841  22.156  1.00  0.00     0.000 C 
BRANCH  10  11
ATOM     11  C   UNL     1      10.553  -7.260  21.863  1.00  0.00     0.000 C 
BRANCH  11  12
ATOM     12  C   UNL     1      10.572  -6.071  20.889  1.00  0.00     0.000 C 
BRANCH  12  13
ATOM     13  C   UNL     1       9.842  -6.368  19.569  1.00  0.00     0.006 C 
BRANCH  13  14
ATOM     14  C   UNL     1      10.784  -6.305  18.359  1.00  0.00     0.053 C 
BRANCH  14  15
ATOM     15  C   UNL     1      10.763  -4.957  17.702  1.00  0.00     0.041 C 
ATOM     16  O   UNL     1      11.839  -4.332  17.508  1.00  0.00    -0.550 OA
ATOM     17  O   UNL     1       9.556  -4.376  17.340  1.00  0.00    -0.550 OA
ENDBRANCH  14  15
ENDBRANCH  13  14
ENDBRANCH  12  13
ENDBRANCH  11  12
ENDBRANCH  10  11
ENDBRANCH   9  10
ENDBRANCH   8   9
ENDBRANCH   7   8
ENDBRANCH   6   7
ENDBRANCH   5   6
ENDBRANCH   4   5
ENDBRANCH   3   4
ENDBRANCH   2   3
ENDBRANCH   1   2
BRANCH   1  18
ATOM     18  C   UNL     1      10.608 -11.414  18.852  1.00  0.00     0.000 C 
BRANCH  18  19
ATOM     19  C   UNL     1      10.210 -10.022  19.374  1.00  0.00     0.000 C 
BRANCH  19  20
ATOM     20  C   UNL     1       8.866 -10.028  20.120  1.00  0.00     0.000 C 
BRANCH  20  21
ATOM     21  C   UNL     1       8.240 -11.431  20.256  1.00  0.00     0.000 C 
BRANCH  21  22
ATOM     22  C   UNL     1       7.952 -11.795  21.723  1.00  0.00     0.000 C 
BRANCH  22  23
ATOM     23  C   UNL     1       8.655 -10.861  22.719  1.00  0.00     0.000 C 
BRANCH  23  24
ATOM     24  C   UNL     1       9.817 -11.548  23.455  1.00  0.00    -0.000 C 
BRANCH  24  25
ATOM     25  C   UNL     1      11.141 -11.472  22.675  1.00  0.00    -0.000 C 
BRANCH  25  26
ATOM     26  C   UNL     1      11.872 -12.827  22.565  1.00  0.00    -0.000 C 
BRANCH  26  27
ATOM     27  C   UNL     1      10.896 -14.008  22.428  1.00  0.00    -0.000 C 
BRANCH  27  28
ATOM     28  C   UNL     1      10.675 -14.425  20.959  1.00  0.00    -0.000 C 
BRANCH  28  29
ATOM     29  C   UNL     1      11.856 -15.199  20.344  1.00  0.00    -0.000 C 
BRANCH  29  30
ATOM     30  C   UNL     1      12.486 -14.555  19.094  1.00  0.00    -0.000 C 
BRANCH  30  31
ATOM     31  C   UNL     1      14.022 -14.441  19.126  1.00  0.00    -0.003 C 
ATOM     32  C   UNL     1      14.581 -14.304  20.542  1.00  0.00     0.004 C 
ENDBRANCH  30  31
ENDBRANCH  29  30
ENDBRANCH  28  29
ENDBRANCH  27  28
ENDBRANCH  26  27
ENDBRANCH  25  26
ENDBRANCH  24  25
ENDBRANCH  23  24
ENDBRANCH  22  23
ENDBRANCH  21  22
ENDBRANCH  20  21
ENDBRANCH  19  20
ENDBRANCH  18  19
ENDBRANCH   1  18
TORSDOF 28
ENDMDL
MODEL 9
REMARK VINA RESULT:    -3.654      3.607      6.985
REMARK INTER + INTRA:         -14.766
REMARK INTER:                  -8.694
REMARK INTRA:                  -6.072
REMARK UNBOUND:                -5.131
REMARK SMILES CCCCCCCCCCCCCCCCCCCCCCCCCCCCCC(=O)[O-]
REMARK SMILES IDX 16 1 17 2 18 3 19 4 20 5 21 6 22 7 23 8 24 9 25 10 26 11
REMARK SMILES IDX 27 12 28 13 29 14 30 15 31 16 32 17 15 18 14 19 13 20 12 21
REMARK SMILES IDX 11 22 10 23 9 24 8 25 7 26 6 27 5 28 4 29 3 30 2 31 1 32
REMARK H PARENT
REMARK Flexibility Score: inf
ROOT
ATOM      1  C   UNL     1      10.707 -12.872  19.598  1.00  0.00     0.000 C 
ENDROOT
BRANCH   1   2
ATOM      2  C   UNL     1      10.957 -14.197  20.343  1.00  0.00     0.000 C 
BRANCH   2   3
ATOM      3  C   UNL     1      10.819 -14.052  21.867  1.00  0.00     0.000 C 
BRANCH   3   4
ATOM      4  C   UNL     1      10.670 -12.586  22.308  1.00  0.00     0.000 C 
BRANCH   4   5
ATOM      5  C   UNL     1       9.792 -12.430  23.561  1.00  0.00     0.000 C 
BRANCH   5   6
ATOM      6  C   UNL     1       8.480 -11.683  23.280  1.00  0.00     0.000 C 
BRANCH   6   7
ATOM      7  C   UNL     1       8.032 -11.895  21.828  1.00  0.00     0.000 C 
BRANCH   7   8
ATOM      8  C   UNL     1       7.388 -10.627  21.256  1.00  0.00     0.000 C 
BRANCH   8   9
ATOM      9  C   UNL     1       8.083 -10.196  19.959  1.00  0.00     0.000 C 
BRANCH   9  10
ATOM     10  C   UNL     1       9.510  -9.698  20.233  1.00  0.00     0.000 C 
BRANCH  10  11
ATOM     11  C   UNL     1       9.521  -8.413  21.089  1.00  0.00     0.000 C 
BRANCH  11  12
ATOM     12  C   UNL     1      10.864  -8.155  21.792  1.00  0.00     0.000 C 
BRANCH  12  13
ATOM     13  C   UNL     1      11.338  -6.698  21.658  1.00  0.00     0.006 C 
BRANCH  13  14
ATOM     14  C   UNL     1      11.912  -6.400  20.267  1.00  0.00     0.053 C 
BRANCH  14  15
ATOM     15  C   UNL     1      13.274  -5.778  20.344  1.00  0.00     0.041 C 
ATOM     16  O   UNL     1      14.302  -6.483  20.168  1.00  0.00    -0.550 OA
ATOM     17  O   UNL     1      13.409  -4.430  20.647  1.00  0.00    -0.550 OA
ENDBRANCH  14  15
ENDBRANCH  13  14
ENDBRANCH  12  13
ENDBRANCH  11  12
ENDBRANCH  10  11
ENDBRANCH   9  10
ENDBRANCH   8   9
ENDBRANCH   7   8
ENDBRANCH   6   7
ENDBRANCH   5   6
ENDBRANCH   4   5
ENDBRANCH   3   4
ENDBRANCH   2   3
ENDBRANCH   1   2
BRANCH   1  18
ATOM     18  C   UNL     1      11.521 -12.762  18.298  1.00  0.00     0.000 C 
BRANCH  18  19
ATOM     19  C   UNL     1      10.924 -11.737  17.317  1.00  0.00     0.000 C 
BRANCH  19  20
ATOM     20  C   UNL     1      11.763 -10.453  17.214  1.00  0.00     0.000 C 
BRANCH  20  21
ATOM     21  C   UNL     1      13.278 -10.712  17.089  1.00  0.00     0.000 C 
BRANCH  21  22
ATOM     22  C   UNL     1      14.072 -10.060  18.234  1.00  0.00     0.000 C 
BRANCH  22  23
ATOM     23  C   UNL     1      13.190  -9.691  19.437  1.00  0.00     0.000 C 
BRANCH  23  24
ATOM     24  C   UNL     1      13.614 -10.415  20.725  1.00  0.00    -0.000 C 
BRANCH  24  25
ATOM     25  C   UNL     1      14.429 -11.690  20.449  1.00  0.00    -0.000 C 
BRANCH  25  26
ATOM     26  C   UNL     1      14.332 -12.742  21.575  1.00  0.00    -0.000 C 
BRANCH  26  27
ATOM     27  C   UNL     1      14.535 -14.175  21.054  1.00  0.00    -0.000 C 
BRANCH  27  28
ATOM     28  C   UNL     1      14.630 -14.236  19.515  1.00  0.00    -0.000 C 
BRANCH  28  29
ATOM     29  C   UNL     1      14.669 -15.669  18.948  1.00  0.00    -0.000 C 
BRANCH  29  30
ATOM     30  C   UNL     1      13.601 -15.984  17.883  1.00  0.00    -0.000 C 
BRANCH  30  31
ATOM     31  C   UNL     1      12.408 -16.819  18.388  1.00  0.00    -0.003 C 
ATOM     32  C   UNL     1      12.800 -17.828  19.466  1.00  0.00     0.004 C 
ENDBRANCH  30  31
ENDBRANCH  29  30
ENDBRANCH  28  29
ENDBRANCH  27  28
ENDBRANCH  26  27
ENDBRANCH  25  26
ENDBRANCH  24  25
ENDBRANCH  23  24
ENDBRANCH  22  23
ENDBRANCH  21  22
ENDBRANCH  20  21
ENDBRANCH  19  20
ENDBRANCH  18  19
ENDBRANCH   1  18
TORSDOF 28
ENDMDL
