MODEL 1
REMARK VINA RESULT:    -3.675      0.000      0.000
REMARK INTER + INTRA:          -5.834
REMARK INTER:                  -5.609
REMARK INTRA:                  -0.225
REMARK UNBOUND:                -0.225
REMARK SMILES CC1=CCC[C@H](C)C(=O)C[C@@H](C(C)C)C(=O)C1
REMARK SMILES IDX 8 1 9 2 6 3 7 4 5 5 4 6 3 7 2 8 1 9 10 11 11 12 15 13 16 14
REMARK SMILES IDX 17 15 12 17 13 18 14 19
REMARK H PARENT
REMARK Flexibility Score: 70.00
ROOT
ATOM      1  C   UNL     1       2.434  12.958  -8.033  1.00  0.00     0.136 C 
ATOM      2  O   UNL     1       1.998  13.426  -9.076  1.00  0.00    -0.299 OA
ENDROOT
BRANCH   1   3
ATOM      3  C   UNL     1       2.812  11.490  -7.974  1.00  0.00     0.053 C 
ATOM      4  C   UNL     1       1.554  10.611  -8.028  1.00  0.00     0.016 C 
BRANCH   3   5
ATOM      5  C   UNL     1       3.782  11.135  -9.125  1.00  0.00     0.015 C 
BRANCH   5   6
ATOM      6  C   UNL     1       5.121  11.885  -8.988  1.00  0.00     0.028 C 
BRANCH   6   7
ATOM      7  C   UNL     1       5.729  11.776  -7.611  1.00  0.00    -0.028 C 
ATOM      8  C   UNL     1       6.016  12.819  -6.792  1.00  0.00    -0.070 CG0
ATOM      9  C   UNL     1       6.525  12.500  -5.408  1.00  0.00     0.039 C 
ATOM     10  G   UNL     1       5.899  14.279  -7.210  1.00  0.00     0.000 G0
ENDBRANCH   6   7
ENDBRANCH   5   6
ENDBRANCH   3   5
ENDBRANCH   1   3
BRANCH   1  11
ATOM     11  C   UNL     1       2.574  13.861  -6.827  1.00  0.00     0.087 C 
BRANCH  11  12
ATOM     12  C   UNL     1       3.411  15.127  -7.141  1.00  0.00     0.066 C 
BRANCH  12  13
ATOM     13  C   UNL     1       4.791  15.046  -6.505  1.00  0.00     0.140 C 
ATOM     14  O   UNL     1       5.021  15.607  -5.443  1.00  0.00    -0.299 OA
BRANCH  13  15
ATOM     15  C   UNL     1       5.895  14.293  -7.206  1.00  0.00     0.106 CG0
ATOM     16  G   UNL     1       6.016  12.834  -6.786  1.00  0.00     0.000 G0
ENDBRANCH  13  15
ENDBRANCH  12  13
BRANCH  12  17
ATOM     17  C   UNL     1       2.637  16.447  -6.825  1.00  0.00    -0.006 C 
ATOM     18  C   UNL     1       2.097  17.185  -8.064  1.00  0.00     0.008 C 
ATOM     19  C   UNL     1       1.509  16.212  -5.808  1.00  0.00     0.008 C 
ENDBRANCH  12  17
ENDBRANCH  11  12
ENDBRANCH   1  11
TORSDOF 1
ENDMDL
MODEL 2
REMARK VINA RESULT:    -3.129      2.432      3.765
REMARK INTER + INTRA:          -5.000
REMARK INTER:                  -5.849
REMARK INTRA:                   0.850
REMARK UNBOUND:                -0.225
REMARK SMILES CC1=CCC[C@H](C)C(=O)C[C@@H](C(C)C)C(=O)C1
REMARK SMILES IDX 8 1 9 2 6 3 7 4 5 5 4 6 3 7 2 8 1 9 10 11 11 12 15 13 16 14
REMARK SMILES IDX 17 15 12 17 13 18 14 19
REMARK H PARENT
REMARK Flexibility Score: 70.00
ROOT
ATOM      1  C   UNL     1       4.475  15.429  -8.994  1.00  0.00     0.136 C 
ATOM      2  O   UNL     1       5.570  15.963  -9.111  1.00  0.00    -0.299 OA
ENDROOT
BRANCH   1   3
ATOM      3  C   UNL     1       4.367  13.919  -9.093  1.00  0.00     0.053 C 
ATOM      4  C   UNL     1       5.642  13.254  -8.555  1.00  0.00     0.016 C 
BRANCH   3   5
ATOM      5  C   UNL     1       3.119  13.415  -8.331  1.00  0.00     0.015 C 
BRANCH   5   6
ATOM      6  C   UNL     1       3.386  13.303  -6.818  1.00  0.00     0.028 C 
BRANCH   6   7
ATOM      7  C   UNL     1       2.454  14.146  -5.983  1.00  0.00    -0.028 C 
ATOM      8  C   UNL     1       2.649  15.448  -5.655  1.00  0.00    -0.070 CG0
ATOM      9  C   UNL     1       1.550  16.150  -4.897  1.00  0.00     0.039 C 
ATOM     10  G   UNL     1       3.927  16.215  -5.967  1.00  0.00     0.000 G0
ENDBRANCH   6   7
ENDBRANCH   5   6
ENDBRANCH   3   5
ENDBRANCH   1   3
BRANCH   1  11
ATOM     11  C   UNL     1       3.258  16.297  -8.763  1.00  0.00     0.087 C 
BRANCH  11  12
ATOM     12  C   UNL     1       3.628  17.665  -8.135  1.00  0.00     0.066 C 
BRANCH  12  13
ATOM     13  C   UNL     1       3.689  17.574  -6.617  1.00  0.00     0.140 C 
ATOM     14  O   UNL     1       3.568  18.577  -5.929  1.00  0.00    -0.299 OA
BRANCH  13  15
ATOM     15  C   UNL     1       3.934  16.240  -5.956  1.00  0.00     0.106 CG0
ATOM     16  G   UNL     1       2.663  15.459  -5.643  1.00  0.00     0.000 G0
ENDBRANCH  13  15
ENDBRANCH  12  13
BRANCH  12  17
ATOM     17  C   UNL     1       2.734  18.828  -8.672  1.00  0.00    -0.006 C 
ATOM     18  C   UNL     1       1.271  18.784  -8.196  1.00  0.00     0.008 C 
ATOM     19  C   UNL     1       3.353  20.202  -8.373  1.00  0.00     0.008 C 
ENDBRANCH  12  17
ENDBRANCH  11  12
ENDBRANCH   1  11
TORSDOF 1
ENDMDL
MODEL 3
REMARK VINA RESULT:    -2.989      2.649      5.833
REMARK INTER + INTRA:          -4.786
REMARK INTER:                  -4.891
REMARK INTRA:                   0.105
REMARK UNBOUND:                -0.225
REMARK SMILES CC1=CCC[C@H](C)C(=O)C[C@@H](C(C)C)C(=O)C1
REMARK SMILES IDX 8 1 9 2 6 3 7 4 5 5 4 6 3 7 2 8 1 9 10 11 11 12 15 13 16 14
REMARK SMILES IDX 17 15 12 17 13 18 14 19
REMARK H PARENT
REMARK Flexibility Score: 70.00
ROOT
ATOM      1  C   UNL     1       3.406  14.880  -5.463  1.00  0.00     0.136 C 
ATOM      2  O   UNL     1       3.921  13.911  -4.924  1.00  0.00    -0.299 OA
ENDROOT
BRANCH   1   3
ATOM      3  C   UNL     1       3.497  16.241  -4.797  1.00  0.00     0.053 C 
ATOM      4  C   UNL     1       4.886  16.854  -5.018  1.00  0.00     0.016 C 
BRANCH   3   5
ATOM      5  C   UNL     1       2.388  17.179  -5.331  1.00  0.00     0.015 C 
BRANCH   5   6
ATOM      6  C   UNL     1       2.961  18.542  -5.765  1.00  0.00     0.028 C 
BRANCH   6   7
ATOM      7  C   UNL     1       2.148  19.214  -6.845  1.00  0.00    -0.028 C 
ATOM      8  C   UNL     1       2.137  18.866  -8.156  1.00  0.00    -0.070 CG0
ATOM      9  C   UNL     1       1.177  19.594  -9.064  1.00  0.00     0.039 C 
ATOM     10  G   UNL     1       3.068  17.823  -8.761  1.00  0.00     0.000 G0
ENDBRANCH   6   7
ENDBRANCH   5   6
ENDBRANCH   3   5
ENDBRANCH   1   3
BRANCH   1  11
ATOM     11  C   UNL     1       2.682  14.689  -6.778  1.00  0.00     0.087 C 
BRANCH  11  12
ATOM     12  C   UNL     1       3.434  15.352  -7.959  1.00  0.00     0.066 C 
BRANCH  12  13
ATOM     13  C   UNL     1       2.568  16.398  -8.646  1.00  0.00     0.140 C 
ATOM     14  O   UNL     1       1.485  16.093  -9.123  1.00  0.00    -0.299 OA
BRANCH  13  15
ATOM     15  C   UNL     1       3.064  17.819  -8.766  1.00  0.00     0.106 CG0
ATOM     16  G   UNL     1       2.114  18.860  -8.187  1.00  0.00     0.000 G0
ENDBRANCH  13  15
ENDBRANCH  12  13
BRANCH  12  17
ATOM     17  C   UNL     1       4.061  14.302  -8.931  1.00  0.00    -0.006 C 
ATOM     18  C   UNL     1       5.558  14.028  -8.700  1.00  0.00     0.008 C 
ATOM     19  C   UNL     1       3.269  12.985  -8.929  1.00  0.00     0.008 C 
ENDBRANCH  12  17
ENDBRANCH  11  12
ENDBRANCH   1  11
TORSDOF 1
ENDMDL
MODEL 4
REMARK VINA RESULT:    -2.970      1.987      4.702
REMARK INTER + INTRA:          -4.757
REMARK INTER:                  -5.252
REMARK INTRA:                   0.495
REMARK UNBOUND:                -0.225
REMARK SMILES CC1=CCC[C@H](C)C(=O)C[C@@H](C(C)C)C(=O)C1
REMARK SMILES IDX 8 1 9 2 6 3 7 4 5 5 4 6 3 7 2 8 1 9 10 11 11 12 15 13 16 14
REMARK SMILES IDX 17 15 12 17 13 18 14 19
REMARK H PARENT
REMARK Flexibility Score: 70.00
ROOT
ATOM      1  C   UNL     1       2.258  16.920  -8.301  1.00  0.00     0.136 C 
ATOM      2  O   UNL     1       1.116  16.982  -7.866  1.00  0.00    -0.299 OA
ENDROOT
BRANCH   1   3
ATOM      3  C   UNL     1       3.228  18.050  -8.012  1.00  0.00     0.053 C 
ATOM      4  C   UNL     1       3.003  19.212  -8.990  1.00  0.00     0.016 C 
BRANCH   3   5
ATOM      5  C   UNL     1       3.083  18.526  -6.548  1.00  0.00     0.015 C 
BRANCH   5   6
ATOM      6  C   UNL     1       4.082  17.812  -5.618  1.00  0.00     0.028 C 
BRANCH   6   7
ATOM      7  C   UNL     1       3.591  16.470  -5.132  1.00  0.00    -0.028 C 
ATOM      8  C   UNL     1       4.136  15.268  -5.449  1.00  0.00    -0.070 CG0
ATOM      9  C   UNL     1       3.566  14.044  -4.778  1.00  0.00     0.039 C 
ATOM     10  G   UNL     1       5.250  15.090  -6.473  1.00  0.00     0.000 G0
ENDBRANCH   6   7
ENDBRANCH   5   6
ENDBRANCH   3   5
ENDBRANCH   1   3
BRANCH   1  11
ATOM     11  C   UNL     1       2.664  15.717  -9.124  1.00  0.00     0.087 C 
BRANCH  11  12
ATOM     12  C   UNL     1       3.399  14.650  -8.274  1.00  0.00     0.066 C 
BRANCH  12  13
ATOM     13  C   UNL     1       4.805  15.107  -7.914  1.00  0.00     0.140 C 
ATOM     14  O   UNL     1       5.580  15.478  -8.783  1.00  0.00    -0.299 OA
BRANCH  13  15
ATOM     15  C   UNL     1       5.259  15.070  -6.475  1.00  0.00     0.106 CG0
ATOM     16  G   UNL     1       4.135  15.259  -5.464  1.00  0.00     0.000 G0
ENDBRANCH  13  15
ENDBRANCH  12  13
BRANCH  12  17
ATOM     17  C   UNL     1       3.331  13.227  -8.915  1.00  0.00    -0.006 C 
ATOM     18  C   UNL     1       4.688  12.509  -9.024  1.00  0.00     0.008 C 
ATOM     19  C   UNL     1       2.307  12.332  -8.200  1.00  0.00     0.008 C 
ENDBRANCH  12  17
ENDBRANCH  11  12
ENDBRANCH   1  11
TORSDOF 1
ENDMDL
MODEL 5
REMARK VINA RESULT:    -2.580      2.507      4.245
REMARK INTER + INTRA:          -4.162
REMARK INTER:                  -5.983
REMARK INTRA:                   1.820
REMARK UNBOUND:                -0.225
REMARK SMILES CC1=CCC[C@H](C)C(=O)C[C@@H](C(C)C)C(=O)C1
REMARK SMILES IDX 8 1 9 2 6 3 7 4 5 5 4 6 3 7 2 8 1 9 10 11 11 12 15 13 16 14
REMARK SMILES IDX 17 15 12 17 13 18 14 19
REMARK H PARENT
REMARK Flexibility Score: 70.00
ROOT
ATOM      1  C   UNL     1       2.692  17.361  -6.048  1.00  0.00     0.136 C 
ATOM      2  O   UNL     1       2.709  18.452  -5.494  1.00  0.00    -0.299 OA
ENDROOT
BRANCH   1   3
ATOM      3  C   UNL     1       3.764  16.340  -5.716  1.00  0.00     0.053 C 
ATOM      4  C   UNL     1       4.797  16.941  -4.753  1.00  0.00     0.016 C 
BRANCH   3   5
ATOM      5  C   UNL     1       3.127  15.064  -5.116  1.00  0.00     0.015 C 
BRANCH   5   6
ATOM      6  C   UNL     1       2.814  14.021  -6.205  1.00  0.00     0.028 C 
BRANCH   6   7
ATOM      7  C   UNL     1       4.006  13.677  -7.064  1.00  0.00    -0.028 C 
ATOM      8  C   UNL     1       4.250  14.165  -8.307  1.00  0.00    -0.070 CG0
ATOM      9  C   UNL     1       5.552  13.782  -8.965  1.00  0.00     0.039 C 
ATOM     10  G   UNL     1       3.265  15.030  -9.083  1.00  0.00     0.000 G0
ENDBRANCH   6   7
ENDBRANCH   5   6
ENDBRANCH   3   5
ENDBRANCH   1   3
BRANCH   1  11
ATOM     11  C   UNL     1       1.604  17.069  -7.059  1.00  0.00     0.087 C 
BRANCH  11  12
ATOM     12  C   UNL     1       2.087  17.290  -8.514  1.00  0.00     0.066 C 
BRANCH  12  13
ATOM     13  C   UNL     1       3.357  16.501  -8.799  1.00  0.00     0.140 C 
ATOM     14  O   UNL     1       4.446  17.057  -8.807  1.00  0.00    -0.299 OA
BRANCH  13  15
ATOM     15  C   UNL     1       3.269  15.026  -9.104  1.00  0.00     0.106 CG0
ATOM     16  G   UNL     1       4.232  14.165  -8.295  1.00  0.00     0.000 G0
ENDBRANCH  13  15
ENDBRANCH  12  13
BRANCH  12  17
ATOM     17  C   UNL     1       2.176  18.804  -8.889  1.00  0.00    -0.006 C 
ATOM     18  C   UNL     1       0.985  19.654  -8.410  1.00  0.00     0.008 C 
ATOM     19  C   UNL     1       3.501  19.426  -8.421  1.00  0.00     0.008 C 
ENDBRANCH  12  17
ENDBRANCH  11  12
ENDBRANCH   1  11
TORSDOF 1
ENDMDL
MODEL 6
REMARK VINA RESULT:    -2.570      2.754      3.986
REMARK INTER + INTRA:          -4.147
REMARK INTER:                  -5.129
REMARK INTRA:                   0.983
REMARK UNBOUND:                -0.225
REMARK SMILES CC1=CCC[C@H](C)C(=O)C[C@@H](C(C)C)C(=O)C1
REMARK SMILES IDX 8 1 9 2 6 3 7 4 5 5 4 6 3 7 2 8 1 9 10 11 11 12 15 13 16 14
REMARK SMILES IDX 17 15 12 17 13 18 14 19
REMARK H PARENT
REMARK Flexibility Score: 70.00
ROOT
ATOM      1  C   UNL     1       2.542  16.741  -8.805  1.00  0.00     0.136 C 
ATOM      2  O   UNL     1       1.368  16.892  -9.117  1.00  0.00    -0.299 OA
ENDROOT
BRANCH   1   3
ATOM      3  C   UNL     1       3.031  15.368  -8.382  1.00  0.00     0.053 C 
ATOM      4  C   UNL     1       2.212  14.271  -9.076  1.00  0.00     0.016 C 
BRANCH   3   5
ATOM      5  C   UNL     1       4.538  15.212  -8.693  1.00  0.00     0.015 C 
BRANCH   5   6
ATOM      6  C   UNL     1       5.370  15.072  -7.404  1.00  0.00     0.028 C 
BRANCH   6   7
ATOM      7  C   UNL     1       4.540  14.734  -6.190  1.00  0.00    -0.028 C 
ATOM      8  C   UNL     1       3.918  15.632  -5.385  1.00  0.00    -0.070 CG0
ATOM      9  C   UNL     1       3.047  15.091  -4.278  1.00  0.00     0.039 C 
ATOM     10  G   UNL     1       4.091  17.140  -5.509  1.00  0.00     0.000 G0
ENDBRANCH   6   7
ENDBRANCH   5   6
ENDBRANCH   3   5
ENDBRANCH   1   3
BRANCH   1  11
ATOM     11  C   UNL     1       3.469  17.936  -8.842  1.00  0.00     0.087 C 
BRANCH  11  12
ATOM     12  C   UNL     1       3.456  18.724  -7.508  1.00  0.00     0.066 C 
BRANCH  12  13
ATOM     13  C   UNL     1       3.033  17.835  -6.347  1.00  0.00     0.140 C 
ATOM     14  O   UNL     1       1.850  17.683  -6.080  1.00  0.00    -0.299 OA
BRANCH  13  15
ATOM     15  C   UNL     1       4.083  17.161  -5.499  1.00  0.00     0.106 CG0
ATOM     16  G   UNL     1       3.925  15.649  -5.400  1.00  0.00     0.000 G0
ENDBRANCH  13  15
ENDBRANCH  12  13
BRANCH  12  17
ATOM     17  C   UNL     1       2.657  20.062  -7.614  1.00  0.00    -0.006 C 
ATOM     18  C   UNL     1       2.561  20.858  -6.299  1.00  0.00     0.008 C 
ATOM     19  C   UNL     1       3.195  20.955  -8.743  1.00  0.00     0.008 C 
ENDBRANCH  12  17
ENDBRANCH  11  12
ENDBRANCH   1  11
TORSDOF 1
ENDMDL
MODEL 7
REMARK VINA RESULT:    -2.551      3.168      6.649
REMARK INTER + INTRA:          -4.118
REMARK INTER:                  -4.676
REMARK INTRA:                   0.558
REMARK UNBOUND:                -0.225
REMARK SMILES CC1=CCC[C@H](C)C(=O)C[C@@H](C(C)C)C(=O)C1
REMARK SMILES IDX 8 1 9 2 6 3 7 4 5 5 4 6 3 7 2 8 1 9 10 11 11 12 15 13 16 14
REMARK SMILES IDX 17 15 12 17 13 18 14 19
REMARK H PARENT
REMARK Flexibility Score: 70.00
ROOT
ATOM      1  C   UNL     1       3.589  19.065  -6.157  1.00  0.00     0.136 C 
ATOM      2  O   UNL     1       2.904  19.738  -5.399  1.00  0.00    -0.299 OA
ENDROOT
BRANCH   1   3
ATOM      3  C   UNL     1       4.047  19.659  -7.476  1.00  0.00     0.053 C 
ATOM      4  C   UNL     1       4.470  18.548  -8.446  1.00  0.00     0.016 C 
BRANCH   3   5
ATOM      5  C   UNL     1       2.929  20.533  -8.092  1.00  0.00     0.015 C 
BRANCH   5   6
ATOM      6  C   UNL     1       2.094  19.744  -9.119  1.00  0.00     0.028 C 
BRANCH   6   7
ATOM      7  C   UNL     1       0.715  19.389  -8.620  1.00  0.00    -0.028 C 
ATOM      8  C   UNL     1       0.338  18.178  -8.137  1.00  0.00    -0.070 CG0
ATOM      9  C   UNL     1      -1.061  18.049  -7.589  1.00  0.00     0.039 C 
ATOM     10  G   UNL     1       1.230  16.943  -8.164  1.00  0.00     0.000 G0
ENDBRANCH   6   7
ENDBRANCH   5   6
ENDBRANCH   3   5
ENDBRANCH   1   3
BRANCH   1  11
ATOM     11  C   UNL     1       3.951  17.651  -5.757  1.00  0.00     0.087 C 
BRANCH  11  12
ATOM     12  C   UNL     1       3.414  16.605  -6.767  1.00  0.00     0.066 C 
BRANCH  12  13
ATOM     13  C   UNL     1       1.894  16.639  -6.839  1.00  0.00     0.140 C 
ATOM     14  O   UNL     1       1.219  16.406  -5.847  1.00  0.00    -0.299 OA
BRANCH  13  15
ATOM     15  C   UNL     1       1.215  16.932  -8.154  1.00  0.00     0.106 CG0
ATOM     16  G   UNL     1       0.338  18.178  -8.137  1.00  0.00     0.000 G0
ENDBRANCH  13  15
ENDBRANCH  12  13
BRANCH  12  17
ATOM     17  C   UNL     1       4.012  15.182  -6.524  1.00  0.00    -0.006 C 
ATOM     18  C   UNL     1       3.103  14.021  -6.968  1.00  0.00     0.008 C 
ATOM     19  C   UNL     1       5.408  15.040  -7.151  1.00  0.00     0.008 C 
ENDBRANCH  12  17
ENDBRANCH  11  12
ENDBRANCH   1  11
TORSDOF 1
ENDMDL
MODEL 8
REMARK VINA RESULT:    -2.312      2.370      4.991
REMARK INTER + INTRA:          -3.752
REMARK INTER:                  -5.499
REMARK INTRA:                   1.746
REMARK UNBOUND:                -0.225
REMARK SMILES CC1=CCC[C@H](C)C(=O)C[C@@H](C(C)C)C(=O)C1
REMARK SMILES IDX 8 1 9 2 6 3 7 4 5 5 4 6 3 7 2 8 1 9 10 11 11 12 15 13 16 14
REMARK SMILES IDX 17 15 12 17 13 18 14 19
REMARK H PARENT
REMARK Flexibility Score: 70.00
ROOT
ATOM      1  C   UNL     1       2.633  16.454  -8.834  1.00  0.00     0.136 C 
ATOM      2  O   UNL     1       3.821  16.470  -9.125  1.00  0.00    -0.299 OA
ENDROOT
BRANCH   1   3
ATOM      3  C   UNL     1       1.841  17.748  -8.863  1.00  0.00     0.053 C 
ATOM      4  C   UNL     1       0.457  17.543  -8.230  1.00  0.00     0.016 C 
BRANCH   3   5
ATOM      5  C   UNL     1       2.617  18.873  -8.140  1.00  0.00     0.015 C 
BRANCH   5   6
ATOM      6  C   UNL     1       2.301  18.901  -6.632  1.00  0.00     0.028 C 
BRANCH   6   7
ATOM      7  C   UNL     1       3.407  18.329  -5.779  1.00  0.00    -0.028 C 
ATOM      8  C   UNL     1       3.547  17.022  -5.443  1.00  0.00    -0.070 CG0
ATOM      9  C   UNL     1       4.780  16.628  -4.667  1.00  0.00     0.039 C 
ATOM     10  G   UNL     1       2.511  15.951  -5.762  1.00  0.00     0.000 G0
ENDBRANCH   6   7
ENDBRANCH   5   6
ENDBRANCH   3   5
ENDBRANCH   1   3
BRANCH   1  11
ATOM     11  C   UNL     1       1.992  15.141  -8.442  1.00  0.00     0.087 C 
BRANCH  11  12
ATOM     12  C   UNL     1       2.977  14.214  -7.686  1.00  0.00     0.066 C 
BRANCH  12  13
ATOM     13  C   UNL     1       3.112  14.627  -6.227  1.00  0.00     0.140 C 
ATOM     14  O   UNL     1       3.678  13.900  -5.425  1.00  0.00    -0.299 OA
BRANCH  13  15
ATOM     15  C   UNL     1       2.513  15.931  -5.761  1.00  0.00     0.106 CG0
ATOM     16  G   UNL     1       3.542  17.008  -5.439  1.00  0.00     0.000 G0
ENDBRANCH  13  15
ENDBRANCH  12  13
BRANCH  12  17
ATOM     17  C   UNL     1       4.339  14.055  -8.435  1.00  0.00    -0.006 C 
ATOM     18  C   UNL     1       5.576  14.441  -7.604  1.00  0.00     0.008 C 
ATOM     19  C   UNL     1       4.504  12.642  -9.016  1.00  0.00     0.008 C 
ENDBRANCH  12  17
ENDBRANCH  11  12
ENDBRANCH   1  11
TORSDOF 1
ENDMDL
MODEL 9
REMARK VINA RESULT:    -2.293      2.371      3.649
REMARK INTER + INTRA:          -3.724
REMARK INTER:                  -5.514
REMARK INTRA:                   1.790
REMARK UNBOUND:                -0.225
REMARK SMILES CC1=CCC[C@H](C)C(=O)C[C@@H](C(C)C)C(=O)C1
REMARK SMILES IDX 8 1 9 2 6 3 7 4 5 5 4 6 3 7 2 8 1 9 10 11 11 12 15 13 16 14
REMARK SMILES IDX 17 15 12 17 13 18 14 19
REMARK H PARENT
REMARK Flexibility Score: 70.00
ROOT
ATOM      1  C   UNL     1       3.183  15.323  -9.043  1.00  0.00     0.136 C 
ATOM      2  O   UNL     1       2.047  14.876  -9.125  1.00  0.00    -0.299 OA
ENDROOT
BRANCH   1   3
ATOM      3  C   UNL     1       4.362  14.366  -9.035  1.00  0.00     0.053 C 
ATOM      4  C   UNL     1       5.608  15.056  -8.463  1.00  0.00     0.016 C 
BRANCH   3   5
ATOM      5  C   UNL     1       4.018  13.092  -8.229  1.00  0.00     0.015 C 
BRANCH   5   6
ATOM      6  C   UNL     1       3.218  13.426  -6.955  1.00  0.00     0.028 C 
BRANCH   6   7
ATOM      7  C   UNL     1       3.979  14.293  -5.982  1.00  0.00    -0.028 C 
ATOM      8  C   UNL     1       3.479  15.372  -5.329  1.00  0.00    -0.070 CG0
ATOM      9  C   UNL     1       4.367  16.049  -4.316  1.00  0.00     0.039 C 
ATOM     10  G   UNL     1       2.099  15.959  -5.601  1.00  0.00     0.000 G0
ENDBRANCH   6   7
ENDBRANCH   5   6
ENDBRANCH   3   5
ENDBRANCH   1   3
BRANCH   1  11
ATOM     11  C   UNL     1       3.377  16.820  -8.942  1.00  0.00     0.087 C 
BRANCH  11  12
ATOM     12  C   UNL     1       3.339  17.314  -7.474  1.00  0.00     0.066 C 
BRANCH  12  13
ATOM     13  C   UNL     1       2.044  16.901  -6.788  1.00  0.00     0.140 C 
ATOM     14  O   UNL     1       0.969  17.328  -7.181  1.00  0.00    -0.299 OA
BRANCH  13  15
ATOM     15  C   UNL     1       2.092  15.981  -5.593  1.00  0.00     0.106 CG0
ATOM     16  G   UNL     1       3.465  15.377  -5.328  1.00  0.00     0.000 G0
ENDBRANCH  13  15
ENDBRANCH  12  13
BRANCH  12  17
ATOM     17  C   UNL     1       3.673  18.835  -7.349  1.00  0.00    -0.006 C 
ATOM     18  C   UNL     1       3.350  19.668  -8.603  1.00  0.00     0.008 C 
ATOM     19  C   UNL     1       3.016  19.459  -6.108  1.00  0.00     0.008 C 
ENDBRANCH  12  17
ENDBRANCH  11  12
ENDBRANCH   1  11
TORSDOF 1
ENDMDL
