MODEL 1
REMARK VINA RESULT:    -5.851      0.000      0.000
REMARK INTER + INTRA:          -6.022
REMARK INTER:                  -6.022
REMARK INTRA:                   0.000
REMARK UNBOUND:                 0.000
REMARK SMILES Oc1ccc2[nH]ccc2c1
REMARK SMILES IDX 3 1 4 2 5 3 9 4 8 5 7 6 6 7 10 8 2 9 1 11
REMARK H PARENT 6 10 1 12
REMARK Flexibility Score: inf
ROOT
ATOM      1  C   UNL     1      11.312 -10.527 -15.447  1.00  0.00     0.048 A 
ATOM      2  C   UNL     1      10.678 -11.615 -14.818  1.00  0.00     0.030 A 
ATOM      3  C   UNL     1      10.819 -11.741 -13.438  1.00  0.00     0.046 A 
ATOM      4  C   UNL     1      11.547 -10.844 -12.703  1.00  0.00     0.003 A 
ATOM      5  C   UNL     1      11.490 -11.246 -11.387  1.00  0.00     0.028 A 
ATOM      6  C   UNL     1      10.710 -12.399 -11.392  1.00  0.00     0.083 A 
ATOM      7  N   UNL     1      10.302 -12.697 -12.647  1.00  0.00    -0.361 N 
ATOM      8  C   UNL     1      12.186  -9.756 -13.293  1.00  0.00     0.056 A 
ATOM      9  C   UNL     1      12.064  -9.598 -14.690  1.00  0.00     0.116 A 
ATOM     10  H   UNL     1       9.708 -13.504 -12.938  1.00  0.00     0.166 HD
ENDROOT
BRANCH   9  11
ATOM     11  O   UNL     1      12.682  -8.529 -15.335  1.00  0.00    -0.508 OA
ATOM     12  H   UNL     1      13.388  -7.969 -14.874  1.00  0.00     0.293 HD
ENDBRANCH   9  11
TORSDOF 1
ENDMDL
MODEL 2
REMARK VINA RESULT:    -5.537      1.192      2.008
REMARK INTER + INTRA:          -5.698
REMARK INTER:                  -5.698
REMARK INTRA:                   0.000
REMARK UNBOUND:                 0.000
REMARK SMILES Oc1ccc2[nH]ccc2c1
REMARK SMILES IDX 3 1 4 2 5 3 9 4 8 5 7 6 6 7 10 8 2 9 1 11
REMARK H PARENT 6 10 1 12
REMARK Flexibility Score: inf
ROOT
ATOM      1  C   UNL     1      11.614  -9.464 -13.170  1.00  0.00     0.048 A 
ATOM      2  C   UNL     1      11.298 -10.379 -12.148  1.00  0.00     0.030 A 
ATOM      3  C   UNL     1      11.341 -11.738 -12.456  1.00  0.00     0.046 A 
ATOM      4  C   UNL     1      11.678 -12.183 -13.706  1.00  0.00     0.003 A 
ATOM      5  C   UNL     1      11.628 -13.560 -13.681  1.00  0.00     0.028 A 
ATOM      6  C   UNL     1      11.251 -13.886 -12.382  1.00  0.00     0.083 A 
ATOM      7  N   UNL     1      11.077 -12.770 -11.637  1.00  0.00    -0.361 N 
ATOM      8  C   UNL     1      11.997 -11.305 -14.739  1.00  0.00     0.056 A 
ATOM      9  C   UNL     1      11.963  -9.922 -14.462  1.00  0.00     0.116 A 
ATOM     10  H   UNL     1      10.796 -12.724 -10.633  1.00  0.00     0.166 HD
ENDROOT
BRANCH   9  11
ATOM     11  O   UNL     1      12.272  -8.995 -15.456  1.00  0.00    -0.508 OA
ATOM     12  H   UNL     1      13.134  -9.054 -15.984  1.00  0.00     0.293 HD
ENDBRANCH   9  11
TORSDOF 1
ENDMDL
MODEL 3
REMARK VINA RESULT:    -5.502     20.357     20.483
REMARK INTER + INTRA:          -5.663
REMARK INTER:                  -5.663
REMARK INTRA:                   0.000
REMARK UNBOUND:                 0.000
REMARK SMILES Oc1ccc2[nH]ccc2c1
REMARK SMILES IDX 3 1 4 2 5 3 9 4 8 5 7 6 6 7 10 8 2 9 1 11
REMARK H PARENT 6 10 1 12
REMARK Flexibility Score: inf
ROOT
ATOM      1  C   UNL     1      27.668 -23.763 -19.070  1.00  0.00     0.048 A 
ATOM      2  C   UNL     1      28.097 -23.642 -17.735  1.00  0.00     0.030 A 
ATOM      3  C   UNL     1      28.094 -22.372 -17.163  1.00  0.00     0.046 A 
ATOM      4  C   UNL     1      27.689 -21.267 -17.864  1.00  0.00     0.003 A 
ATOM      5  C   UNL     1      27.804 -20.181 -17.025  1.00  0.00     0.028 A 
ATOM      6  C   UNL     1      28.286 -20.697 -15.826  1.00  0.00     0.083 A 
ATOM      7  N   UNL     1      28.461 -22.036 -15.915  1.00  0.00    -0.361 N 
ATOM      8  C   UNL     1      27.259 -21.352 -19.186  1.00  0.00     0.056 A 
ATOM      9  C   UNL     1      27.249 -22.624 -19.796  1.00  0.00     0.116 A 
ATOM     10  H   UNL     1      28.811 -22.674 -15.167  1.00  0.00     0.166 HD
ENDROOT
BRANCH   9  11
ATOM     11  O   UNL     1      26.829 -22.770 -21.117  1.00  0.00    -0.508 OA
ATOM     12  H   UNL     1      27.234 -22.221 -21.864  1.00  0.00     0.293 HD
ENDBRANCH   9  11
TORSDOF 1
ENDMDL
MODEL 4
REMARK VINA RESULT:    -5.454      3.336      4.063
REMARK INTER + INTRA:          -5.614
REMARK INTER:                  -5.614
REMARK INTRA:                   0.000
REMARK UNBOUND:                 0.000
REMARK SMILES Oc1ccc2[nH]ccc2c1
REMARK SMILES IDX 3 1 4 2 5 3 9 4 8 5 7 6 6 7 10 8 2 9 1 11
REMARK H PARENT 6 10 1 12
REMARK Flexibility Score: inf
ROOT
ATOM      1  C   UNL     1      12.152 -14.251 -14.944  1.00  0.00     0.048 A 
ATOM      2  C   UNL     1      11.849 -12.944 -14.518  1.00  0.00     0.030 A 
ATOM      3  C   UNL     1      11.403 -12.774 -13.208  1.00  0.00     0.046 A 
ATOM      4  C   UNL     1      11.259 -13.834 -12.353  1.00  0.00     0.003 A 
ATOM      5  C   UNL     1      10.806 -13.335 -11.151  1.00  0.00     0.028 A 
ATOM      6  C   UNL     1      10.696 -11.962 -11.346  1.00  0.00     0.083 A 
ATOM      7  N   UNL     1      11.061 -11.624 -12.604  1.00  0.00    -0.361 N 
ATOM      8  C   UNL     1      11.550 -15.139 -12.743  1.00  0.00     0.056 A 
ATOM      9  C   UNL     1      12.005 -15.347 -14.062  1.00  0.00     0.116 A 
ATOM     10  H   UNL     1      11.074 -10.665 -13.018  1.00  0.00     0.166 HD
ENDROOT
BRANCH   9  11
ATOM     11  O   UNL     1      12.311 -16.631 -14.508  1.00  0.00    -0.508 OA
ATOM     12  H   UNL     1      12.541 -17.375 -13.861  1.00  0.00     0.293 HD
ENDBRANCH   9  11
TORSDOF 1
ENDMDL
MODEL 5
REMARK VINA RESULT:    -5.448     12.759     13.154
REMARK INTER + INTRA:          -5.608
REMARK INTER:                  -5.608
REMARK INTRA:                   0.000
REMARK UNBOUND:                 0.000
REMARK SMILES Oc1ccc2[nH]ccc2c1
REMARK SMILES IDX 3 1 4 2 5 3 9 4 8 5 7 6 6 7 10 8 2 9 1 11
REMARK H PARENT 6 10 1 12
REMARK Flexibility Score: inf
ROOT
ATOM      1  C   UNL     1      24.410 -16.908 -13.841  1.00  0.00     0.048 A 
ATOM      2  C   UNL     1      24.413 -16.302 -15.112  1.00  0.00     0.030 A 
ATOM      3  C   UNL     1      23.387 -15.408 -15.409  1.00  0.00     0.046 A 
ATOM      4  C   UNL     1      22.400 -15.118 -14.504  1.00  0.00     0.003 A 
ATOM      5  C   UNL     1      21.550 -14.211 -15.098  1.00  0.00     0.028 A 
ATOM      6  C   UNL     1      22.080 -13.993 -16.366  1.00  0.00     0.083 A 
ATOM      7  N   UNL     1      23.201 -14.726 -16.551  1.00  0.00    -0.361 N 
ATOM      8  C   UNL     1      22.367 -15.699 -13.239  1.00  0.00     0.056 A 
ATOM      9  C   UNL     1      23.393 -16.609 -12.905  1.00  0.00     0.116 A 
ATOM     10  H   UNL     1      23.798 -14.754 -17.408  1.00  0.00     0.166 HD
ENDROOT
BRANCH   9  11
ATOM     11  O   UNL     1      23.412 -17.222 -11.654  1.00  0.00    -0.508 OA
ATOM     12  H   UNL     1      23.989 -16.868 -10.901  1.00  0.00     0.293 HD
ENDBRANCH   9  11
TORSDOF 1
ENDMDL
MODEL 6
REMARK VINA RESULT:    -5.345     20.313     20.516
REMARK INTER + INTRA:          -5.501
REMARK INTER:                  -5.501
REMARK INTRA:                   0.000
REMARK UNBOUND:                 0.000
REMARK SMILES Oc1ccc2[nH]ccc2c1
REMARK SMILES IDX 3 1 4 2 5 3 9 4 8 5 7 6 6 7 10 8 2 9 1 11
REMARK H PARENT 6 10 1 12
REMARK Flexibility Score: inf
ROOT
ATOM      1  C   UNL     1      28.127 -20.470 -16.188  1.00  0.00     0.048 A 
ATOM      2  C   UNL     1      27.806 -20.289 -17.547  1.00  0.00     0.030 A 
ATOM      3  C   UNL     1      27.641 -21.428 -18.333  1.00  0.00     0.046 A 
ATOM      4  C   UNL     1      27.783 -22.687 -17.816  1.00  0.00     0.003 A 
ATOM      5  C   UNL     1      27.559 -23.582 -18.840  1.00  0.00     0.028 A 
ATOM      6  C   UNL     1      27.285 -22.796 -19.955  1.00  0.00     0.083 A 
ATOM      7  N   UNL     1      27.336 -21.481 -19.641  1.00  0.00    -0.361 N 
ATOM      8  C   UNL     1      28.101 -22.902 -16.477  1.00  0.00     0.056 A 
ATOM      9  C   UNL     1      28.274 -21.771 -15.651  1.00  0.00     0.116 A 
ATOM     10  H   UNL     1      27.172 -20.675 -20.284  1.00  0.00     0.166 HD
ENDROOT
BRANCH   9  11
ATOM     11  O   UNL     1      28.593 -21.923 -14.304  1.00  0.00    -0.508 OA
ATOM     12  H   UNL     1      27.975 -22.410 -13.666  1.00  0.00     0.293 HD
ENDBRANCH   9  11
TORSDOF 1
ENDMDL
MODEL 7
REMARK VINA RESULT:    -5.343      3.343      4.417
REMARK INTER + INTRA:          -5.499
REMARK INTER:                  -5.499
REMARK INTRA:                   0.000
REMARK UNBOUND:                 0.000
REMARK SMILES Oc1ccc2[nH]ccc2c1
REMARK SMILES IDX 3 1 4 2 5 3 9 4 8 5 7 6 6 7 10 8 2 9 1 11
REMARK H PARENT 6 10 1 12
REMARK Flexibility Score: inf
ROOT
ATOM      1  C   UNL     1      11.454 -15.174 -12.613  1.00  0.00     0.048 A 
ATOM      2  C   UNL     1      11.156 -13.896 -12.104  1.00  0.00     0.030 A 
ATOM      3  C   UNL     1      11.365 -12.799 -12.938  1.00  0.00     0.046 A 
ATOM      4  C   UNL     1      11.844 -12.944 -14.213  1.00  0.00     0.003 A 
ATOM      5  C   UNL     1      11.936 -11.685 -14.765  1.00  0.00     0.028 A 
ATOM      6  C   UNL     1      11.497 -10.819 -13.769  1.00  0.00     0.083 A 
ATOM      7  N   UNL     1      11.150 -11.504 -12.655  1.00  0.00    -0.361 N 
ATOM      8  C   UNL     1      12.148 -14.194 -14.747  1.00  0.00     0.056 A 
ATOM      9  C   UNL     1      11.948 -15.327 -13.930  1.00  0.00     0.116 A 
ATOM     10  H   UNL     1      10.789 -11.105 -11.760  1.00  0.00     0.166 HD
ENDROOT
BRANCH   9  11
ATOM     11  O   UNL     1      12.234 -16.603 -14.410  1.00  0.00    -0.508 OA
ATOM     12  H   UNL     1      12.969 -16.760 -15.088  1.00  0.00     0.293 HD
ENDBRANCH   9  11
TORSDOF 1
ENDMDL
MODEL 8
REMARK VINA RESULT:    -5.316      1.606      1.970
REMARK INTER + INTRA:          -5.472
REMARK INTER:                  -5.472
REMARK INTRA:                   0.000
REMARK UNBOUND:                 0.000
REMARK SMILES Oc1ccc2[nH]ccc2c1
REMARK SMILES IDX 3 1 4 2 5 3 9 4 8 5 7 6 6 7 10 8 2 9 1 11
REMARK H PARENT 6 10 1 12
REMARK Flexibility Score: inf
ROOT
ATOM      1  C   UNL     1      11.456 -10.357 -14.206  1.00  0.00     0.048 A 
ATOM      2  C   UNL     1      11.541 -11.724 -14.532  1.00  0.00     0.030 A 
ATOM      3  C   UNL     1      11.381 -12.649 -13.502  1.00  0.00     0.046 A 
ATOM      4  C   UNL     1      11.149 -12.257 -12.211  1.00  0.00     0.003 A 
ATOM      5  C   UNL     1      11.040 -13.397 -11.446  1.00  0.00     0.028 A 
ATOM      6  C   UNL     1      11.217 -14.451 -12.337  1.00  0.00     0.083 A 
ATOM      7  N   UNL     1      11.425 -13.989 -13.592  1.00  0.00    -0.361 N 
ATOM      8  C   UNL     1      11.059 -10.913 -11.854  1.00  0.00     0.056 A 
ATOM      9  C   UNL     1      11.215  -9.949 -12.873  1.00  0.00     0.116 A 
ATOM     10  H   UNL     1      11.586 -14.559 -14.451  1.00  0.00     0.166 HD
ENDROOT
BRANCH   9  11
ATOM     11  O   UNL     1      11.136  -8.590 -12.577  1.00  0.00    -0.508 OA
ATOM     12  H   UNL     1      10.268  -8.078 -12.670  1.00  0.00     0.293 HD
ENDBRANCH   9  11
TORSDOF 1
ENDMDL
MODEL 9
REMARK VINA RESULT:    -5.276      2.541      3.550
REMARK INTER + INTRA:          -5.431
REMARK INTER:                  -5.431
REMARK INTRA:                   0.000
REMARK UNBOUND:                 0.000
REMARK SMILES Oc1ccc2[nH]ccc2c1
REMARK SMILES IDX 3 1 4 2 5 3 9 4 8 5 7 6 6 7 10 8 2 9 1 11
REMARK H PARENT 6 10 1 12
REMARK Flexibility Score: inf
ROOT
ATOM      1  C   UNL     1      11.283  -9.968 -12.147  1.00  0.00     0.048 A 
ATOM      2  C   UNL     1      11.820 -10.118 -13.439  1.00  0.00     0.030 A 
ATOM      3  C   UNL     1      11.920 -11.409 -13.956  1.00  0.00     0.046 A 
ATOM      4  C   UNL     1      11.514 -12.504 -13.242  1.00  0.00     0.003 A 
ATOM      5  C   UNL     1      11.744 -13.615 -14.024  1.00  0.00     0.028 A 
ATOM      6  C   UNL     1      12.293 -13.121 -15.204  1.00  0.00     0.083 A 
ATOM      7  N   UNL     1      12.399 -11.773 -15.157  1.00  0.00    -0.361 N 
ATOM      8  C   UNL     1      10.978 -12.391 -11.961  1.00  0.00     0.056 A 
ATOM      9  C   UNL     1      10.862 -11.098 -11.407  1.00  0.00     0.116 A 
ATOM     10  H   UNL     1      12.776 -11.148 -15.903  1.00  0.00     0.166 HD
ENDROOT
BRANCH   9  11
ATOM     11  O   UNL     1      10.334 -10.922 -10.130  1.00  0.00    -0.508 OA
ATOM     12  H   UNL     1      10.902 -11.048  -9.301  1.00  0.00     0.293 HD
ENDBRANCH   9  11
TORSDOF 1
ENDMDL
