MODEL 1
REMARK VINA RESULT:    -1.116      0.000      0.000
REMARK INTER + INTRA:          -1.116
REMARK INTER:                  -1.116
REMARK INTRA:                   0.000
REMARK UNBOUND:                 0.000
REMARK SMILES CC1=CC[C@]23C[C@H]1C(C)(C)[C@H]2CC[C@H]3C
REMARK SMILES IDX 15 1 14 2 13 3 12 4 11 5 5 6 4 7 3 8 2 9 7 10 6 11 8 12 9 13
REMARK SMILES IDX 10 14 1 15
REMARK H PARENT
REMARK Flexibility Score: inf
ROOT
ATOM      1  C   UNL     1       5.341   5.153  12.337  1.00  0.00     0.008 C 
ATOM      2  C   UNL     1       5.899   6.514  12.782  1.00  0.00    -0.007 C 
ATOM      3  C   UNL     1       6.290   6.533  14.255  1.00  0.00     0.004 C 
ATOM      4  C   UNL     1       6.330   8.007  14.639  1.00  0.00     0.005 C 
ATOM      5  C   UNL     1       5.374   8.748  13.671  1.00  0.00     0.002 C 
ATOM      6  C   UNL     1       4.935   7.704  12.616  1.00  0.00    -0.020 C 
ATOM      7  C   UNL     1       4.958   8.319  11.187  1.00  0.00     0.035 C 
ATOM      8  C   UNL     1       3.878   9.377  11.010  1.00  0.00    -0.027 C 
ATOM      9  C   UNL     1       2.908   9.566  11.938  1.00  0.00    -0.074 C 
ATOM     10  C   UNL     1       2.959   8.806  13.268  1.00  0.00     0.021 C 
ATOM     11  C   UNL     1       3.471   7.403  12.972  1.00  0.00     0.016 C 
ATOM     12  C   UNL     1       4.045   9.370  14.233  1.00  0.00    -0.025 C 
ATOM     13  C   UNL     1       4.108  10.918  14.216  1.00  0.00     0.012 C 
ATOM     14  C   UNL     1       3.700   8.944  15.686  1.00  0.00     0.012 C 
ATOM     15  C   UNL     1       1.802  10.549  11.668  1.00  0.00     0.039 C 
ENDROOT
TORSDOF 0
ENDMDL
MODEL 2
REMARK VINA RESULT:     0.034      1.153      4.153
REMARK INTER + INTRA:           0.034
REMARK INTER:                   0.034
REMARK INTRA:                   0.000
REMARK UNBOUND:                 0.000
REMARK SMILES CC1=CC[C@]23C[C@H]1C(C)(C)[C@H]2CC[C@H]3C
REMARK SMILES IDX 15 1 14 2 13 3 12 4 11 5 5 6 4 7 3 8 2 9 7 10 6 11 8 12 9 13
REMARK SMILES IDX 10 14 1 15
REMARK H PARENT
REMARK Flexibility Score: inf
ROOT
ATOM      1  C   UNL     1       3.501   9.734  11.347  1.00  0.00     0.008 C 
ATOM      2  C   UNL     1       3.559   8.947  12.664  1.00  0.00    -0.007 C 
ATOM      3  C   UNL     1       3.835   9.839  13.868  1.00  0.00     0.004 C 
ATOM      4  C   UNL     1       4.349   8.900  14.953  1.00  0.00     0.005 C 
ATOM      5  C   UNL     1       4.976   7.682  14.230  1.00  0.00     0.002 C 
ATOM      6  C   UNL     1       4.644   7.855  12.727  1.00  0.00    -0.020 C 
ATOM      7  C   UNL     1       4.195   6.503  12.101  1.00  0.00     0.035 C 
ATOM      8  C   UNL     1       5.341   5.506  12.029  1.00  0.00    -0.027 C 
ATOM      9  C   UNL     1       6.621   5.870  12.288  1.00  0.00    -0.074 C 
ATOM     10  C   UNL     1       6.927   7.281  12.804  1.00  0.00     0.021 C 
ATOM     11  C   UNL     1       5.987   8.242  12.089  1.00  0.00     0.016 C 
ATOM     12  C   UNL     1       6.531   7.465  14.300  1.00  0.00    -0.025 C 
ATOM     13  C   UNL     1       6.879   6.226  15.163  1.00  0.00     0.012 C 
ATOM     14  C   UNL     1       7.321   8.666  14.887  1.00  0.00     0.012 C 
ATOM     15  C   UNL     1       7.732   4.875  12.099  1.00  0.00     0.039 C 
ENDROOT
TORSDOF 0
ENDMDL
MODEL 3
REMARK VINA RESULT:     0.508      1.434      3.261
REMARK INTER + INTRA:           0.508
REMARK INTER:                   0.508
REMARK INTRA:                   0.000
REMARK UNBOUND:                 0.000
REMARK SMILES CC1=CC[C@]23C[C@H]1C(C)(C)[C@H]2CC[C@H]3C
REMARK SMILES IDX 15 1 14 2 13 3 12 4 11 5 5 6 4 7 3 8 2 9 7 10 6 11 8 12 9 13
REMARK SMILES IDX 10 14 1 15
REMARK H PARENT
REMARK Flexibility Score: inf
ROOT
ATOM      1  C   UNL     1       8.799   7.596  12.752  1.00  0.00     0.008 C 
ATOM      2  C   UNL     1       7.748   6.723  13.453  1.00  0.00    -0.007 C 
ATOM      3  C   UNL     1       7.555   5.375  12.767  1.00  0.00     0.004 C 
ATOM      4  C   UNL     1       6.196   4.875  13.242  1.00  0.00     0.005 C 
ATOM      5  C   UNL     1       5.365   6.127  13.618  1.00  0.00     0.002 C 
ATOM      6  C   UNL     1       6.334   7.331  13.527  1.00  0.00    -0.020 C 
ATOM      7  C   UNL     1       6.140   8.290  14.736  1.00  0.00     0.035 C 
ATOM      8  C   UNL     1       4.795   9.000  14.684  1.00  0.00    -0.027 C 
ATOM      9  C   UNL     1       3.998   8.935  13.590  1.00  0.00    -0.074 C 
ATOM     10  C   UNL     1       4.373   8.019  12.420  1.00  0.00     0.021 C 
ATOM     11  C   UNL     1       5.886   8.078  12.261  1.00  0.00     0.016 C 
ATOM     12  C   UNL     1       4.121   6.514  12.740  1.00  0.00    -0.025 C 
ATOM     13  C   UNL     1       2.801   6.286  13.517  1.00  0.00     0.012 C 
ATOM     14  C   UNL     1       4.006   5.727  11.406  1.00  0.00     0.012 C 
ATOM     15  C   UNL     1       2.729   9.740  13.545  1.00  0.00     0.039 C 
ENDROOT
TORSDOF 0
ENDMDL
MODEL 4
REMARK VINA RESULT:     1.539      1.136      4.540
REMARK INTER + INTRA:           1.539
REMARK INTER:                   1.539
REMARK INTRA:                   0.000
REMARK UNBOUND:                 0.000
REMARK SMILES CC1=CC[C@]23C[C@H]1C(C)(C)[C@H]2CC[C@H]3C
REMARK SMILES IDX 15 1 14 2 13 3 12 4 11 5 5 6 4 7 3 8 2 9 7 10 6 11 8 12 9 13
REMARK SMILES IDX 10 14 1 15
REMARK H PARENT
REMARK Flexibility Score: inf
ROOT
ATOM      1  C   UNL     1       2.466  10.133  14.619  1.00  0.00     0.008 C 
ATOM      2  C   UNL     1       3.543  10.134  13.525  1.00  0.00    -0.007 C 
ATOM      3  C   UNL     1       2.951  10.133  12.120  1.00  0.00     0.004 C 
ATOM      4  C   UNL     1       4.071   9.636  11.214  1.00  0.00     0.005 C 
ATOM      5  C   UNL     1       5.004   8.766  12.092  1.00  0.00     0.002 C 
ATOM      6  C   UNL     1       4.502   8.929  13.547  1.00  0.00    -0.020 C 
ATOM      7  C   UNL     1       5.696   9.111  14.528  1.00  0.00     0.035 C 
ATOM      8  C   UNL     1       6.525   7.841  14.650  1.00  0.00    -0.027 C 
ATOM      9  C   UNL     1       6.108   6.664  14.122  1.00  0.00    -0.074 C 
ATOM     10  C   UNL     1       4.844   6.617  13.256  1.00  0.00     0.021 C 
ATOM     11  C   UNL     1       3.837   7.581  13.867  1.00  0.00     0.016 C 
ATOM     12  C   UNL     1       5.075   7.217  11.836  1.00  0.00    -0.025 C 
ATOM     13  C   UNL     1       6.446   6.816  11.237  1.00  0.00     0.012 C 
ATOM     14  C   UNL     1       3.982   6.675  10.875  1.00  0.00     0.012 C 
ATOM     15  C   UNL     1       6.909   5.415  14.362  1.00  0.00     0.039 C 
ENDROOT
TORSDOF 0
ENDMDL
