MODEL 1
REMARK VINA RESULT:    -4.539      0.000      0.000
REMARK INTER + INTRA:          -5.233
REMARK INTER:                  -5.336
REMARK INTRA:                   0.103
REMARK UNBOUND:                 0.103
REMARK SMILES O=C([O-])CCC(=O)[O-]
REMARK SMILES IDX 4 1 2 2 1 3 3 4 5 5 6 6 7 7 8 8
REMARK H PARENT
REMARK Flexibility Score: inf
ROOT
ATOM      1  C   UNL     1      -0.517   4.521  -4.067  1.00  0.00     0.059 C 
ENDROOT
BRANCH   1   2
ATOM      2  C   UNL     1       0.050   3.369  -4.839  1.00  0.00     0.042 C 
ATOM      3  O   UNL     1      -0.517   2.970  -5.890  1.00  0.00    -0.550 OA
ATOM      4  O   UNL     1       1.183   2.713  -4.375  1.00  0.00    -0.550 OA
ENDBRANCH   1   2
BRANCH   1   5
ATOM      5  C   UNL     1      -0.564   5.799  -4.912  1.00  0.00     0.059 C 
BRANCH   5   6
ATOM      6  C   UNL     1       0.751   6.068  -5.578  1.00  0.00     0.042 C 
ATOM      7  O   UNL     1       1.650   6.708  -4.971  1.00  0.00    -0.550 OA
ATOM      8  O   UNL     1       0.998   5.578  -6.854  1.00  0.00    -0.550 OA
ENDBRANCH   5   6
ENDBRANCH   1   5
TORSDOF 3
ENDMDL
MODEL 2
REMARK VINA RESULT:    -4.483      1.706      3.124
REMARK INTER + INTRA:          -5.167
REMARK INTER:                  -5.125
REMARK INTRA:                  -0.041
REMARK UNBOUND:                 0.103
REMARK SMILES O=C([O-])CCC(=O)[O-]
REMARK SMILES IDX 4 1 2 2 1 3 3 4 5 5 6 6 7 7 8 8
REMARK H PARENT
REMARK Flexibility Score: inf
ROOT
ATOM      1  C   UNL     1       1.166   3.695  -5.371  1.00  0.00     0.059 C 
ENDROOT
BRANCH   1   2
ATOM      2  C   UNL     1       1.407   5.051  -5.962  1.00  0.00     0.042 C 
ATOM      3  O   UNL     1       1.963   5.950  -5.279  1.00  0.00    -0.550 OA
ATOM      4  O   UNL     1       0.980   5.331  -7.254  1.00  0.00    -0.550 OA
ENDBRANCH   1   2
BRANCH   1   5
ATOM      5  C   UNL     1      -0.330   3.371  -5.293  1.00  0.00     0.059 C 
BRANCH   5   6
ATOM      6  C   UNL     1      -1.110   4.506  -4.702  1.00  0.00     0.042 C 
ATOM      7  O   UNL     1      -1.093   4.706  -3.459  1.00  0.00    -0.550 OA
ATOM      8  O   UNL     1      -1.822   5.365  -5.529  1.00  0.00    -0.550 OA
ENDBRANCH   5   6
ENDBRANCH   1   5
TORSDOF 3
ENDMDL
MODEL 3
REMARK VINA RESULT:    -4.469      1.692      2.554
REMARK INTER + INTRA:          -5.150
REMARK INTER:                  -5.144
REMARK INTRA:                  -0.006
REMARK UNBOUND:                 0.103
REMARK SMILES O=C([O-])CCC(=O)[O-]
REMARK SMILES IDX 4 1 2 2 1 3 3 4 5 5 6 6 7 7 8 8
REMARK H PARENT
REMARK Flexibility Score: inf
ROOT
ATOM      1  C   UNL     1      -0.326   3.377  -5.330  1.00  0.00     0.059 C 
ENDROOT
BRANCH   1   2
ATOM      2  C   UNL     1      -1.108   4.506  -4.731  1.00  0.00     0.042 C 
ATOM      3  O   UNL     1      -1.131   4.671  -3.484  1.00  0.00    -0.550 OA
ATOM      4  O   UNL     1      -1.845   5.352  -5.552  1.00  0.00    -0.550 OA
ENDBRANCH   1   2
BRANCH   1   5
ATOM      5  C   UNL     1       1.161   3.724  -5.454  1.00  0.00     0.059 C 
BRANCH   5   6
ATOM      6  C   UNL     1       1.362   5.097  -6.021  1.00  0.00     0.042 C 
ATOM      7  O   UNL     1       0.988   5.359  -7.194  1.00  0.00    -0.550 OA
ATOM      8  O   UNL     1       1.926   6.096  -5.238  1.00  0.00    -0.550 OA
ENDBRANCH   5   6
ENDBRANCH   1   5
TORSDOF 3
ENDMDL
MODEL 4
REMARK VINA RESULT:    -4.466      0.122      3.337
REMARK INTER + INTRA:          -5.146
REMARK INTER:                  -5.300
REMARK INTRA:                   0.154
REMARK UNBOUND:                 0.103
REMARK SMILES O=C([O-])CCC(=O)[O-]
REMARK SMILES IDX 4 1 2 2 1 3 3 4 5 5 6 6 7 7 8 8
REMARK H PARENT
REMARK Flexibility Score: inf
ROOT
ATOM      1  C   UNL     1      -0.611   5.789  -5.007  1.00  0.00     0.059 C 
ENDROOT
BRANCH   1   2
ATOM      2  C   UNL     1       0.748   6.053  -5.580  1.00  0.00     0.042 C 
ATOM      3  O   UNL     1       1.539   6.842  -4.999  1.00  0.00    -0.550 OA
ATOM      4  O   UNL     1       1.124   5.457  -6.777  1.00  0.00    -0.550 OA
ENDBRANCH   1   2
BRANCH   1   5
ATOM      5  C   UNL     1      -0.612   4.553  -4.101  1.00  0.00     0.059 C 
BRANCH   5   6
ATOM      6  C   UNL     1      -0.003   3.366  -4.786  1.00  0.00     0.042 C 
ATOM      7  O   UNL     1      -0.489   2.941  -5.867  1.00  0.00    -0.550 OA
ATOM      8  O   UNL     1       1.125   2.758  -4.250  1.00  0.00    -0.550 OA
ENDBRANCH   5   6
ENDBRANCH   1   5
TORSDOF 3
ENDMDL
MODEL 5
REMARK VINA RESULT:    -4.347      0.304      3.126
REMARK INTER + INTRA:          -5.007
REMARK INTER:                  -5.160
REMARK INTRA:                   0.153
REMARK UNBOUND:                 0.103
REMARK SMILES O=C([O-])CCC(=O)[O-]
REMARK SMILES IDX 4 1 2 2 1 3 3 4 5 5 6 6 7 7 8 8
REMARK H PARENT
REMARK Flexibility Score: inf
ROOT
ATOM      1  C   UNL     1      -0.435   5.858  -4.899  1.00  0.00     0.059 C 
ENDROOT
BRANCH   1   2
ATOM      2  C   UNL     1       0.944   6.174  -5.391  1.00  0.00     0.042 C 
ATOM      3  O   UNL     1       1.407   5.586  -6.403  1.00  0.00    -0.550 OA
ATOM      4  O   UNL     1       1.733   7.089  -4.705  1.00  0.00    -0.550 OA
ENDBRANCH   1   2
BRANCH   1   5
ATOM      5  C   UNL     1      -0.452   4.585  -4.046  1.00  0.00     0.059 C 
BRANCH   5   6
ATOM      6  C   UNL     1       0.090   3.408  -4.799  1.00  0.00     0.042 C 
ATOM      7  O   UNL     1       1.062   2.754  -4.337  1.00  0.00    -0.550 OA
ATOM      8  O   UNL     1      -0.504   3.010  -5.989  1.00  0.00    -0.550 OA
ENDBRANCH   5   6
ENDBRANCH   1   5
TORSDOF 3
ENDMDL
MODEL 6
REMARK VINA RESULT:    -4.291      0.828      1.270
REMARK INTER + INTRA:          -4.940
REMARK INTER:                  -5.201
REMARK INTRA:                   0.261
REMARK UNBOUND:                 0.103
REMARK SMILES O=C([O-])CCC(=O)[O-]
REMARK SMILES IDX 4 1 2 2 1 3 3 4 5 5 6 6 7 7 8 8
REMARK H PARENT
REMARK Flexibility Score: inf
ROOT
ATOM      1  C   UNL     1      -0.454   4.734  -4.169  1.00  0.00     0.059 C 
ENDROOT
BRANCH   1   2
ATOM      2  C   UNL     1      -0.072   3.451  -4.842  1.00  0.00     0.042 C 
ATOM      3  O   UNL     1      -0.512   3.182  -5.991  1.00  0.00    -0.550 OA
ATOM      4  O   UNL     1       0.737   2.535  -4.182  1.00  0.00    -0.550 OA
ENDBRANCH   1   2
BRANCH   1   5
ATOM      5  C   UNL     1      -0.063   5.952  -5.014  1.00  0.00     0.059 C 
BRANCH   5   6
ATOM      6  C   UNL     1       1.423   6.138  -5.062  1.00  0.00     0.042 C 
ATOM      7  O   UNL     1       2.166   5.200  -5.452  1.00  0.00    -0.550 OA
ATOM      8  O   UNL     1       1.982   7.361  -4.714  1.00  0.00    -0.550 OA
ENDBRANCH   5   6
ENDBRANCH   1   5
TORSDOF 3
ENDMDL
MODEL 7
REMARK VINA RESULT:    -4.050      1.492      3.178
REMARK INTER + INTRA:          -4.658
REMARK INTER:                  -4.573
REMARK INTRA:                  -0.085
REMARK UNBOUND:                 0.103
REMARK SMILES O=C([O-])CCC(=O)[O-]
REMARK SMILES IDX 4 1 2 2 1 3 3 4 5 5 6 6 7 7 8 8
REMARK H PARENT
REMARK Flexibility Score: inf
ROOT
ATOM      1  C   UNL     1      -0.643   4.402  -4.126  1.00  0.00     0.059 C 
ENDROOT
BRANCH   1   2
ATOM      2  C   UNL     1      -0.698   5.617  -5.000  1.00  0.00     0.042 C 
ATOM      3  O   UNL     1      -1.635   5.762  -5.827  1.00  0.00    -0.550 OA
ATOM      4  O   UNL     1       0.310   6.571  -4.926  1.00  0.00    -0.550 OA
ENDBRANCH   1   2
BRANCH   1   5
ATOM      5  C   UNL     1      -0.291   3.145  -4.929  1.00  0.00     0.059 C 
BRANCH   5   6
ATOM      6  C   UNL     1       1.181   2.862  -4.896  1.00  0.00     0.042 C 
ATOM      7  O   UNL     1       1.983   3.609  -5.516  1.00  0.00    -0.550 OA
ATOM      8  O   UNL     1       1.668   1.798  -4.148  1.00  0.00    -0.550 OA
ENDBRANCH   5   6
ENDBRANCH   1   5
TORSDOF 3
ENDMDL
MODEL 8
REMARK VINA RESULT:    -3.865      9.241     10.201
REMARK INTER + INTRA:          -4.441
REMARK INTER:                  -4.320
REMARK INTRA:                  -0.120
REMARK UNBOUND:                 0.103
REMARK SMILES O=C([O-])CCC(=O)[O-]
REMARK SMILES IDX 4 1 2 2 1 3 3 4 5 5 6 6 7 7 8 8
REMARK H PARENT
REMARK Flexibility Score: inf
ROOT
ATOM      1  C   UNL     1       7.174  -2.870  -7.722  1.00  0.00     0.059 C 
ENDROOT
BRANCH   1   2
ATOM      2  C   UNL     1       7.321  -1.517  -8.350  1.00  0.00     0.042 C 
ATOM      3  O   UNL     1       7.828  -0.567  -7.699  1.00  0.00    -0.550 OA
ATOM      4  O   UNL     1       6.862  -1.298  -9.643  1.00  0.00    -0.550 OA
ENDBRANCH   1   2
BRANCH   1   5
ATOM      5  C   UNL     1       5.857  -2.992  -6.948  1.00  0.00     0.059 C 
BRANCH   5   6
ATOM      6  C   UNL     1       4.725  -3.396  -7.844  1.00  0.00     0.042 C 
ATOM      7  O   UNL     1       4.700  -4.549  -8.351  1.00  0.00    -0.550 OA
ATOM      8  O   UNL     1       3.679  -2.515  -8.084  1.00  0.00    -0.550 OA
ENDBRANCH   5   6
ENDBRANCH   1   5
TORSDOF 3
ENDMDL
MODEL 9
REMARK VINA RESULT:    -3.862      9.280      9.743
REMARK INTER + INTRA:          -4.436
REMARK INTER:                  -4.314
REMARK INTRA:                  -0.122
REMARK UNBOUND:                 0.103
REMARK SMILES O=C([O-])CCC(=O)[O-]
REMARK SMILES IDX 4 1 2 2 1 3 3 4 5 5 6 6 7 7 8 8
REMARK H PARENT
REMARK Flexibility Score: inf
ROOT
ATOM      1  C   UNL     1       5.823  -3.052  -6.902  1.00  0.00     0.059 C 
ENDROOT
BRANCH   1   2
ATOM      2  C   UNL     1       4.727  -3.471  -7.834  1.00  0.00     0.042 C 
ATOM      3  O   UNL     1       4.756  -4.605  -8.379  1.00  0.00    -0.550 OA
ATOM      4  O   UNL     1       3.693  -2.591  -8.129  1.00  0.00    -0.550 OA
ENDBRANCH   1   2
BRANCH   1   5
ATOM      5  C   UNL     1       7.155  -2.880  -7.640  1.00  0.00     0.059 C 
BRANCH   5   6
ATOM      6  C   UNL     1       7.273  -1.520  -8.258  1.00  0.00     0.042 C 
ATOM      7  O   UNL     1       7.820  -0.581  -7.623  1.00  0.00    -0.550 OA
ATOM      8  O   UNL     1       6.814  -1.302  -9.551  1.00  0.00    -0.550 OA
ENDBRANCH   5   6
ENDBRANCH   1   5
TORSDOF 3
ENDMDL
