MODEL 1
REMARK VINA RESULT:    -5.211      0.000      0.000
REMARK INTER + INTRA:          -7.205
REMARK INTER:                  -6.734
REMARK INTRA:                  -0.470
REMARK UNBOUND:                -0.470
REMARK SMILES CCO[C@H]1O[C@@H](CO)[C@H](O)[C@@H](O)[C@H]1O
REMARK SMILES IDX 4 1 13 2 11 3 9 4 6 5 5 6 3 7 2 8 1 9 14 10 12 12 7 14 8 15
REMARK SMILES IDX 10 17
REMARK H PARENT 14 11 12 13 8 16 10 18
REMARK Flexibility Score: inf
ROOT
ATOM      1  C   UNL     1      40.382  39.323  22.790  1.00  0.00     0.281 C 
ATOM      2  C   UNL     1      41.893  39.513  22.571  1.00  0.00     0.202 C 
ATOM      3  C   UNL     1      42.667  38.223  22.875  1.00  0.00     0.179 C 
ATOM      4  C   UNL     1      42.270  37.675  24.259  1.00  0.00     0.177 C 
ATOM      5  C   UNL     1      40.731  37.645  24.468  1.00  0.00     0.178 C 
ATOM      6  O   UNL     1      40.078  38.858  24.101  1.00  0.00    -0.341 OA
ENDROOT
BRANCH   1   7
ATOM      7  O   UNL     1      39.839  38.472  21.796  1.00  0.00    -0.350 OA
BRANCH   7   8
ATOM      8  C   UNL     1      38.543  38.905  21.432  1.00  0.00     0.160 C 
ATOM      9  C   UNL     1      38.645  39.811  20.216  1.00  0.00     0.035 C 
ENDBRANCH   7   8
ENDBRANCH   1   7
BRANCH   2  10
ATOM     10  O   UNL     1      42.127  39.922  21.247  1.00  0.00    -0.385 OA
ATOM     11  H   UNL     1      41.253  40.220  20.881  1.00  0.00     0.211 HD
ENDBRANCH   2  10
BRANCH   3  12
ATOM     12  O   UNL     1      42.420  37.268  21.874  1.00  0.00    -0.387 OA
ATOM     13  H   UNL     1      43.224  37.245  21.292  1.00  0.00     0.211 HD
ENDBRANCH   3  12
BRANCH   5  14
ATOM     14  C   UNL     1      40.057  36.394  23.873  1.00  0.00     0.191 C 
BRANCH  14  15
ATOM     15  O   UNL     1      38.667  36.495  24.006  1.00  0.00    -0.394 OA
ATOM     16  H   UNL     1      38.287  36.298  23.110  1.00  0.00     0.210 HD
ENDBRANCH  14  15
ENDBRANCH   5  14
BRANCH   4  17
ATOM     17  O   UNL     1      42.901  38.415  25.276  1.00  0.00    -0.387 OA
ATOM     18  H   UNL     1      43.849  38.551  25.018  1.00  0.00     0.211 HD
ENDBRANCH   4  17
TORSDOF 7
ENDMDL
MODEL 2
REMARK VINA RESULT:    -5.077      1.589      2.802
REMARK INTER + INTRA:          -7.032
REMARK INTER:                  -6.542
REMARK INTRA:                  -0.490
REMARK UNBOUND:                -0.470
REMARK SMILES CCO[C@H]1O[C@@H](CO)[C@H](O)[C@@H](O)[C@H]1O
REMARK SMILES IDX 4 1 13 2 11 3 9 4 6 5 5 6 3 7 2 8 1 9 14 10 12 12 7 14 8 15
REMARK SMILES IDX 10 17
REMARK H PARENT 14 11 12 13 8 16 10 18
REMARK Flexibility Score: inf
ROOT
ATOM      1  C   UNL     1      41.101  39.163  24.507  1.00  0.00     0.281 C 
ATOM      2  C   UNL     1      41.973  37.923  24.242  1.00  0.00     0.202 C 
ATOM      3  C   UNL     1      41.348  37.022  23.168  1.00  0.00     0.179 C 
ATOM      4  C   UNL     1      39.876  36.726  23.509  1.00  0.00     0.177 C 
ATOM      5  C   UNL     1      39.088  38.005  23.907  1.00  0.00     0.178 C 
ATOM      6  O   UNL     1      39.765  38.822  24.860  1.00  0.00    -0.341 OA
ENDROOT
BRANCH   1   7
ATOM      7  O   UNL     1      41.139  40.043  23.398  1.00  0.00    -0.350 OA
BRANCH   7   8
ATOM      8  C   UNL     1      41.096  41.387  23.833  1.00  0.00     0.160 C 
ATOM      9  C   UNL     1      40.105  42.157  22.974  1.00  0.00     0.035 C 
ENDBRANCH   7   8
ENDBRANCH   1   7
BRANCH   2  10
ATOM     10  O   UNL     1      43.260  38.329  23.851  1.00  0.00    -0.385 OA
ATOM     11  H   UNL     1      43.536  37.732  23.108  1.00  0.00     0.211 HD
ENDBRANCH   2  10
BRANCH   3  12
ATOM     12  O   UNL     1      41.453  37.634  21.907  1.00  0.00    -0.387 OA
ATOM     13  H   UNL     1      42.417  37.810  21.751  1.00  0.00     0.211 HD
ENDBRANCH   3  12
BRANCH   5  14
ATOM     14  C   UNL     1      38.562  38.801  22.698  1.00  0.00     0.191 C 
BRANCH  14  15
ATOM     15  O   UNL     1      38.416  37.951  21.595  1.00  0.00    -0.394 OA
ATOM     16  H   UNL     1      37.757  37.259  21.865  1.00  0.00     0.210 HD
ENDBRANCH  14  15
ENDBRANCH   5  14
BRANCH   4  17
ATOM     17  O   UNL     1      39.794  35.751  24.520  1.00  0.00    -0.387 OA
ATOM     18  H   UNL     1      39.076  35.111  24.276  1.00  0.00     0.211 HD
ENDBRANCH   4  17
TORSDOF 7
ENDMDL
MODEL 3
REMARK VINA RESULT:    -5.010      1.679      3.629
REMARK INTER + INTRA:          -6.945
REMARK INTER:                  -6.670
REMARK INTRA:                  -0.274
REMARK UNBOUND:                -0.470
REMARK SMILES CCO[C@H]1O[C@@H](CO)[C@H](O)[C@@H](O)[C@H]1O
REMARK SMILES IDX 4 1 13 2 11 3 9 4 6 5 5 6 3 7 2 8 1 9 14 10 12 12 7 14 8 15
REMARK SMILES IDX 10 17
REMARK H PARENT 14 11 12 13 8 16 10 18
REMARK Flexibility Score: inf
ROOT
ATOM      1  C   UNL     1      39.458  38.039  23.278  1.00  0.00     0.281 C 
ATOM      2  C   UNL     1      40.473  36.886  23.371  1.00  0.00     0.202 C 
ATOM      3  C   UNL     1      41.902  37.415  23.548  1.00  0.00     0.179 C 
ATOM      4  C   UNL     1      42.215  38.477  22.478  1.00  0.00     0.177 C 
ATOM      5  C   UNL     1      41.083  39.531  22.335  1.00  0.00     0.178 C 
ATOM      6  O   UNL     1      39.778  38.962  22.242  1.00  0.00    -0.341 OA
ENDROOT
BRANCH   1   7
ATOM      7  O   UNL     1      39.325  38.687  24.531  1.00  0.00    -0.350 OA
BRANCH   7   8
ATOM      8  C   UNL     1      37.981  39.065  24.750  1.00  0.00     0.160 C 
ATOM      9  C   UNL     1      37.065  37.988  24.190  1.00  0.00     0.035 C 
ENDBRANCH   7   8
ENDBRANCH   1   7
BRANCH   2  10
ATOM     10  O   UNL     1      40.127  36.043  24.441  1.00  0.00    -0.385 OA
ATOM     11  H   UNL     1      39.936  36.631  25.219  1.00  0.00     0.211 HD
ENDBRANCH   2  10
BRANCH   3  12
ATOM     12  O   UNL     1      42.061  37.949  24.838  1.00  0.00    -0.387 OA
ATOM     13  H   UNL     1      41.214  37.777  25.327  1.00  0.00     0.211 HD
ENDBRANCH   3  12
BRANCH   5  14
ATOM     14  C   UNL     1      41.170  40.668  23.370  1.00  0.00     0.191 C 
BRANCH  14  15
ATOM     15  O   UNL     1      42.229  41.526  23.045  1.00  0.00    -0.394 OA
ATOM     16  H   UNL     1      41.837  42.435  22.976  1.00  0.00     0.210 HD
ENDBRANCH  14  15
ENDBRANCH   5  14
BRANCH   4  17
ATOM     17  O   UNL     1      42.486  37.861  21.242  1.00  0.00    -0.387 OA
ATOM     18  H   UNL     1      41.729  38.049  20.629  1.00  0.00     0.211 HD
ENDBRANCH   4  17
TORSDOF 7
ENDMDL
MODEL 4
REMARK VINA RESULT:    -4.756      1.352      3.448
REMARK INTER + INTRA:          -6.616
REMARK INTER:                  -6.340
REMARK INTRA:                  -0.277
REMARK UNBOUND:                -0.470
REMARK SMILES CCO[C@H]1O[C@@H](CO)[C@H](O)[C@@H](O)[C@H]1O
REMARK SMILES IDX 4 1 13 2 11 3 9 4 6 5 5 6 3 7 2 8 1 9 14 10 12 12 7 14 8 15
REMARK SMILES IDX 10 17
REMARK H PARENT 14 11 12 13 8 16 10 18
REMARK Flexibility Score: inf
ROOT
ATOM      1  C   UNL     1      39.274  38.470  22.462  1.00  0.00     0.281 C 
ATOM      2  C   UNL     1      39.657  37.353  23.448  1.00  0.00     0.202 C 
ATOM      3  C   UNL     1      41.063  37.575  24.022  1.00  0.00     0.179 C 
ATOM      4  C   UNL     1      42.072  37.819  22.884  1.00  0.00     0.177 C 
ATOM      5  C   UNL     1      41.560  38.853  21.845  1.00  0.00     0.178 C 
ATOM      6  O   UNL     1      40.222  38.616  21.410  1.00  0.00    -0.341 OA
ENDROOT
BRANCH   1   7
ATOM      7  O   UNL     1      39.067  39.691  23.150  1.00  0.00    -0.350 OA
BRANCH   7   8
ATOM      8  C   UNL     1      37.949  40.373  22.618  1.00  0.00     0.160 C 
ATOM      9  C   UNL     1      38.391  41.739  22.118  1.00  0.00     0.035 C 
ENDBRANCH   7   8
ENDBRANCH   1   7
BRANCH   2  10
ATOM     10  O   UNL     1      38.710  37.297  24.484  1.00  0.00    -0.385 OA
ATOM     11  H   UNL     1      38.417  38.230  24.656  1.00  0.00     0.211 HD
ENDBRANCH   2  10
BRANCH   3  12
ATOM     12  O   UNL     1      41.052  38.660  24.916  1.00  0.00    -0.387 OA
ATOM     13  H   UNL     1      41.721  38.460  25.621  1.00  0.00     0.211 HD
ENDBRANCH   3  12
BRANCH   5  14
ATOM     14  C   UNL     1      41.805  40.316  22.263  1.00  0.00     0.191 C 
BRANCH  14  15
ATOM     15  O   UNL     1      43.177  40.596  22.231  1.00  0.00    -0.394 OA
ATOM     16  H   UNL     1      43.381  41.077  23.075  1.00  0.00     0.210 HD
ENDBRANCH  14  15
ENDBRANCH   5  14
BRANCH   4  17
ATOM     17  O   UNL     1      42.408  36.604  22.259  1.00  0.00    -0.387 OA
ATOM     18  H   UNL     1      41.790  36.468  21.494  1.00  0.00     0.211 HD
ENDBRANCH   4  17
TORSDOF 7
ENDMDL
MODEL 5
REMARK VINA RESULT:    -4.728      1.978      3.830
REMARK INTER + INTRA:          -6.580
REMARK INTER:                  -6.165
REMARK INTRA:                  -0.415
REMARK UNBOUND:                -0.470
REMARK SMILES CCO[C@H]1O[C@@H](CO)[C@H](O)[C@@H](O)[C@H]1O
REMARK SMILES IDX 4 1 13 2 11 3 9 4 6 5 5 6 3 7 2 8 1 9 14 10 12 12 7 14 8 15
REMARK SMILES IDX 10 17
REMARK H PARENT 14 11 12 13 8 16 10 18
REMARK Flexibility Score: inf
ROOT
ATOM      1  C   UNL     1      40.016  39.167  24.101  1.00  0.00     0.281 C 
ATOM      2  C   UNL     1      39.492  40.612  24.031  1.00  0.00     0.202 C 
ATOM      3  C   UNL     1      39.918  41.297  22.725  1.00  0.00     0.179 C 
ATOM      4  C   UNL     1      41.435  41.140  22.510  1.00  0.00     0.177 C 
ATOM      5  C   UNL     1      41.921  39.682  22.736  1.00  0.00     0.178 C 
ATOM      6  O   UNL     1      41.429  39.093  23.939  1.00  0.00    -0.341 OA
ENDROOT
BRANCH   1   7
ATOM      7  O   UNL     1      39.340  38.347  23.163  1.00  0.00    -0.350 OA
BRANCH   7   8
ATOM      8  C   UNL     1      38.777  37.223  23.808  1.00  0.00     0.160 C 
ATOM      9  C   UNL     1      39.839  36.142  23.940  1.00  0.00     0.035 C 
ENDBRANCH   7   8
ENDBRANCH   1   7
BRANCH   2  10
ATOM     10  O   UNL     1      38.092  40.609  24.147  1.00  0.00    -0.385 OA
ATOM     11  H   UNL     1      37.872  41.087  24.989  1.00  0.00     0.211 HD
ENDBRANCH   2  10
BRANCH   3  12
ATOM     12  O   UNL     1      39.204  40.754  21.644  1.00  0.00    -0.387 OA
ATOM     13  H   UNL     1      39.513  41.228  20.828  1.00  0.00     0.211 HD
ENDBRANCH   3  12
BRANCH   5  14
ATOM     14  C   UNL     1      41.736  38.776  21.504  1.00  0.00     0.191 C 
BRANCH  14  15
ATOM     15  O   UNL     1      41.767  39.549  20.337  1.00  0.00    -0.394 OA
ATOM     16  H   UNL     1      42.506  39.184  19.783  1.00  0.00     0.210 HD
ENDBRANCH  14  15
ENDBRANCH   5  14
BRANCH   4  17
ATOM     17  O   UNL     1      42.141  42.038  23.332  1.00  0.00    -0.387 OA
ATOM     18  H   UNL     1      42.536  41.524  24.084  1.00  0.00     0.211 HD
ENDBRANCH   4  17
TORSDOF 7
ENDMDL
MODEL 6
REMARK VINA RESULT:    -4.707      1.769      4.127
REMARK INTER + INTRA:          -6.553
REMARK INTER:                  -6.046
REMARK INTRA:                  -0.506
REMARK UNBOUND:                -0.470
REMARK SMILES CCO[C@H]1O[C@@H](CO)[C@H](O)[C@@H](O)[C@H]1O
REMARK SMILES IDX 4 1 13 2 11 3 9 4 6 5 5 6 3 7 2 8 1 9 14 10 12 12 7 14 8 15
REMARK SMILES IDX 10 17
REMARK H PARENT 14 11 12 13 8 16 10 18
REMARK Flexibility Score: inf
ROOT
ATOM      1  C   UNL     1      40.406  38.091  23.599  1.00  0.00     0.281 C 
ATOM      2  C   UNL     1      39.428  37.150  24.324  1.00  0.00     0.202 C 
ATOM      3  C   UNL     1      37.994  37.335  23.810  1.00  0.00     0.179 C 
ATOM      4  C   UNL     1      37.606  38.825  23.833  1.00  0.00     0.177 C 
ATOM      5  C   UNL     1      38.702  39.735  23.215  1.00  0.00     0.178 C 
ATOM      6  O   UNL     1      40.016  39.457  23.694  1.00  0.00    -0.341 OA
ENDROOT
BRANCH   1   7
ATOM      7  O   UNL     1      40.576  37.690  22.251  1.00  0.00    -0.350 OA
BRANCH   7   8
ATOM      8  C   UNL     1      41.868  38.034  21.793  1.00  0.00     0.160 C 
ATOM      9  C   UNL     1      42.888  37.661  22.857  1.00  0.00     0.035 C 
ENDBRANCH   7   8
ENDBRANCH   1   7
BRANCH   2  10
ATOM     10  O   UNL     1      39.842  35.819  24.149  1.00  0.00    -0.385 OA
ATOM     11  H   UNL     1      39.508  35.309  24.932  1.00  0.00     0.211 HD
ENDBRANCH   2  10
BRANCH   3  12
ATOM     12  O   UNL     1      37.877  36.811  22.512  1.00  0.00    -0.387 OA
ATOM     13  H   UNL     1      37.042  36.275  22.491  1.00  0.00     0.211 HD
ENDBRANCH   3  12
BRANCH   5  14
ATOM     14  C   UNL     1      38.629  39.825  21.678  1.00  0.00     0.191 C 
BRANCH  14  15
ATOM     15  O   UNL     1      37.321  39.573  21.249  1.00  0.00    -0.394 OA
ATOM     16  H   UNL     1      37.337  39.634  20.259  1.00  0.00     0.210 HD
ENDBRANCH  14  15
ENDBRANCH   5  14
BRANCH   4  17
ATOM     17  O   UNL     1      37.298  39.231  25.145  1.00  0.00    -0.387 OA
ATOM     18  H   UNL     1      37.659  38.551  25.772  1.00  0.00     0.211 HD
ENDBRANCH   4  17
TORSDOF 7
ENDMDL
MODEL 7
REMARK VINA RESULT:    -4.701      2.165      3.754
REMARK INTER + INTRA:          -6.546
REMARK INTER:                  -6.054
REMARK INTRA:                  -0.491
REMARK UNBOUND:                -0.470
REMARK SMILES CCO[C@H]1O[C@@H](CO)[C@H](O)[C@@H](O)[C@H]1O
REMARK SMILES IDX 4 1 13 2 11 3 9 4 6 5 5 6 3 7 2 8 1 9 14 10 12 12 7 14 8 15
REMARK SMILES IDX 10 17
REMARK H PARENT 14 11 12 13 8 16 10 18
REMARK Flexibility Score: inf
ROOT
ATOM      1  C   UNL     1      40.793  39.269  22.671  1.00  0.00     0.281 C 
ATOM      2  C   UNL     1      41.502  40.559  22.221  1.00  0.00     0.202 C 
ATOM      3  C   UNL     1      41.125  41.744  23.121  1.00  0.00     0.179 C 
ATOM      4  C   UNL     1      39.595  41.850  23.252  1.00  0.00     0.177 C 
ATOM      5  C   UNL     1      38.927  40.483  23.565  1.00  0.00     0.178 C 
ATOM      6  O   UNL     1      39.378  39.419  22.729  1.00  0.00    -0.341 OA
ENDROOT
BRANCH   1   7
ATOM      7  O   UNL     1      41.320  38.816  23.905  1.00  0.00    -0.350 OA
BRANCH   7   8
ATOM      8  C   UNL     1      41.332  37.403  23.947  1.00  0.00     0.160 C 
ATOM      9  C   UNL     1      41.936  36.873  22.657  1.00  0.00     0.035 C 
ENDBRANCH   7   8
ENDBRANCH   1   7
BRANCH   2  10
ATOM     10  O   UNL     1      42.892  40.357  22.234  1.00  0.00    -0.385 OA
ATOM     11  H   UNL     1      43.069  39.619  22.873  1.00  0.00     0.211 HD
ENDBRANCH   2  10
BRANCH   3  12
ATOM     12  O   UNL     1      41.723  41.596  24.385  1.00  0.00    -0.387 OA
ATOM     13  H   UNL     1      42.661  41.313  24.229  1.00  0.00     0.211 HD
ENDBRANCH   3  12
BRANCH   5  14
ATOM     14  C   UNL     1      38.946  40.121  25.063  1.00  0.00     0.191 C 
BRANCH  14  15
ATOM     15  O   UNL     1      38.426  38.834  25.247  1.00  0.00    -0.394 OA
ATOM     16  H   UNL     1      39.156  38.295  25.650  1.00  0.00     0.210 HD
ENDBRANCH  14  15
ENDBRANCH   5  14
BRANCH   4  17
ATOM     17  O   UNL     1      39.043  42.424  22.091  1.00  0.00    -0.387 OA
ATOM     18  H   UNL     1      39.107  41.759  21.357  1.00  0.00     0.211 HD
ENDBRANCH   4  17
TORSDOF 7
ENDMDL
MODEL 8
REMARK VINA RESULT:    -4.642      1.749      2.546
REMARK INTER + INTRA:          -6.470
REMARK INTER:                  -6.221
REMARK INTRA:                  -0.249
REMARK UNBOUND:                -0.470
REMARK SMILES CCO[C@H]1O[C@@H](CO)[C@H](O)[C@@H](O)[C@H]1O
REMARK SMILES IDX 4 1 13 2 11 3 9 4 6 5 5 6 3 7 2 8 1 9 14 10 12 12 7 14 8 15
REMARK SMILES IDX 10 17
REMARK H PARENT 14 11 12 13 8 16 10 18
REMARK Flexibility Score: inf
ROOT
ATOM      1  C   UNL     1      40.883  39.564  24.188  1.00  0.00     0.281 C 
ATOM      2  C   UNL     1      41.470  40.135  22.886  1.00  0.00     0.202 C 
ATOM      3  C   UNL     1      41.393  39.112  21.744  1.00  0.00     0.179 C 
ATOM      4  C   UNL     1      41.986  37.764  22.194  1.00  0.00     0.177 C 
ATOM      5  C   UNL     1      41.459  37.315  23.584  1.00  0.00     0.178 C 
ATOM      6  O   UNL     1      41.502  38.341  24.573  1.00  0.00    -0.341 OA
ENDROOT
BRANCH   1   7
ATOM      7  O   UNL     1      39.477  39.424  24.080  1.00  0.00    -0.350 OA
BRANCH   7   8
ATOM      8  C   UNL     1      38.858  39.690  25.322  1.00  0.00     0.160 C 
ATOM      9  C   UNL     1      37.372  39.388  25.213  1.00  0.00     0.035 C 
ENDBRANCH   7   8
ENDBRANCH   1   7
BRANCH   2  10
ATOM     10  O   UNL     1      40.782  41.310  22.537  1.00  0.00    -0.385 OA
ATOM     11  H   UNL     1      41.329  41.768  21.847  1.00  0.00     0.211 HD
ENDBRANCH   2  10
BRANCH   3  12
ATOM     12  O   UNL     1      40.060  38.955  21.330  1.00  0.00    -0.387 OA
ATOM     13  H   UNL     1      39.647  39.857  21.338  1.00  0.00     0.211 HD
ENDBRANCH   3  12
BRANCH   5  14
ATOM     14  C   UNL     1      40.096  36.599  23.520  1.00  0.00     0.191 C 
BRANCH  14  15
ATOM     15  O   UNL     1      39.947  35.760  24.630  1.00  0.00    -0.394 OA
ATOM     16  H   UNL     1      40.120  36.323  25.429  1.00  0.00     0.210 HD
ENDBRANCH  14  15
ENDBRANCH   5  14
BRANCH   4  17
ATOM     17  O   UNL     1      43.393  37.821  22.185  1.00  0.00    -0.387 OA
ATOM     18  H   UNL     1      43.727  37.344  22.989  1.00  0.00     0.211 HD
ENDBRANCH   4  17
TORSDOF 7
ENDMDL
MODEL 9
REMARK VINA RESULT:    -4.611      1.782      2.476
REMARK INTER + INTRA:          -6.430
REMARK INTER:                  -6.192
REMARK INTRA:                  -0.238
REMARK UNBOUND:                -0.470
REMARK SMILES CCO[C@H]1O[C@@H](CO)[C@H](O)[C@@H](O)[C@H]1O
REMARK SMILES IDX 4 1 13 2 11 3 9 4 6 5 5 6 3 7 2 8 1 9 14 10 12 12 7 14 8 15
REMARK SMILES IDX 10 17
REMARK H PARENT 14 11 12 13 8 16 10 18
REMARK Flexibility Score: inf
ROOT
ATOM      1  C   UNL     1      41.017  40.206  23.345  1.00  0.00     0.281 C 
ATOM      2  C   UNL     1      42.387  39.979  22.681  1.00  0.00     0.202 C 
ATOM      3  C   UNL     1      42.278  39.004  21.500  1.00  0.00     0.179 C 
ATOM      4  C   UNL     1      41.538  37.724  21.930  1.00  0.00     0.177 C 
ATOM      5  C   UNL     1      40.236  38.025  22.722  1.00  0.00     0.178 C 
ATOM      6  O   UNL     1      40.406  38.989  23.759  1.00  0.00    -0.341 OA
ENDROOT
BRANCH   1   7
ATOM      7  O   UNL     1      40.168  40.952  22.490  1.00  0.00    -0.350 OA
BRANCH   7   8
ATOM      8  C   UNL     1      39.660  42.084  23.166  1.00  0.00     0.160 C 
ATOM      9  C   UNL     1      38.239  41.793  23.623  1.00  0.00     0.035 C 
ENDBRANCH   7   8
ENDBRANCH   1   7
BRANCH   2  10
ATOM     10  O   UNL     1      42.910  41.210  22.252  1.00  0.00    -0.385 OA
ATOM     11  H   UNL     1      43.763  41.012  21.784  1.00  0.00     0.211 HD
ENDBRANCH   2  10
BRANCH   3  12
ATOM     12  O   UNL     1      41.616  39.623  20.426  1.00  0.00    -0.387 OA
ATOM     13  H   UNL     1      42.132  40.440  20.201  1.00  0.00     0.211 HD
ENDBRANCH   3  12
BRANCH   5  14
ATOM     14  C   UNL     1      39.025  38.322  21.818  1.00  0.00     0.191 C 
BRANCH  14  15
ATOM     15  O   UNL     1      37.948  37.506  22.184  1.00  0.00    -0.394 OA
ATOM     16  H   UNL     1      38.239  37.008  22.992  1.00  0.00     0.210 HD
ENDBRANCH  14  15
ENDBRANCH   5  14
BRANCH   4  17
ATOM     17  O   UNL     1      42.395  36.890  22.673  1.00  0.00    -0.387 OA
ATOM     18  H   UNL     1      41.978  36.727  23.559  1.00  0.00     0.211 HD
ENDBRANCH   4  17
TORSDOF 7
ENDMDL
