MODEL 1
REMARK VINA RESULT:    -4.143      0.000      0.000
REMARK INTER + INTRA:          -5.010
REMARK INTER:                  -4.990
REMARK INTRA:                  -0.020
REMARK UNBOUND:                -0.020
REMARK SMILES OCC(O)CO
REMARK SMILES IDX 3 1 5 2 6 3 2 5 1 6 4 8
REMARK H PARENT 6 4 1 7 4 9
REMARK Flexibility Score: inf
ROOT
ATOM      1  C   UNL     1      35.248   8.543  46.000  1.00  0.00     0.165 C 
ENDROOT
BRANCH   1   2
ATOM      2  C   UNL     1      36.727   8.752  45.639  1.00  0.00     0.190 C 
BRANCH   2   3
ATOM      3  O   UNL     1      37.429   9.328  46.707  1.00  0.00    -0.394 OA
ATOM      4  H   UNL     1      37.908  10.116  46.340  1.00  0.00     0.210 HD
ENDBRANCH   2   3
ENDBRANCH   1   2
BRANCH   1   5
ATOM      5  C   UNL     1      34.942   7.055  46.234  1.00  0.00     0.190 C 
BRANCH   5   6
ATOM      6  O   UNL     1      34.741   6.804  47.599  1.00  0.00    -0.394 OA
ATOM      7  H   UNL     1      33.993   7.388  47.892  1.00  0.00     0.210 HD
ENDBRANCH   5   6
ENDBRANCH   1   5
BRANCH   1   8
ATOM      8  O   UNL     1      34.963   9.277  47.163  1.00  0.00    -0.388 OA
ATOM      9  H   UNL     1      34.875   8.624  47.905  1.00  0.00     0.211 HD
ENDBRANCH   1   8
TORSDOF 5
ENDMDL
MODEL 2
REMARK VINA RESULT:    -4.028      8.947      9.217
REMARK INTER + INTRA:          -4.872
REMARK INTER:                  -4.682
REMARK INTRA:                  -0.191
REMARK UNBOUND:                -0.020
REMARK SMILES OCC(O)CO
REMARK SMILES IDX 3 1 5 2 6 3 2 5 1 6 4 8
REMARK H PARENT 6 4 1 7 4 9
REMARK Flexibility Score: inf
ROOT
ATOM      1  C   UNL     1      32.016   2.141  42.187  1.00  0.00     0.165 C 
ENDROOT
BRANCH   1   2
ATOM      2  C   UNL     1      32.627   3.009  41.076  1.00  0.00     0.190 C 
BRANCH   2   3
ATOM      3  O   UNL     1      32.695   2.302  39.866  1.00  0.00    -0.394 OA
ATOM      4  H   UNL     1      33.652   2.278  39.605  1.00  0.00     0.210 HD
ENDBRANCH   2   3
ENDBRANCH   1   2
BRANCH   1   5
ATOM      5  C   UNL     1      30.495   2.345  42.274  1.00  0.00     0.190 C 
BRANCH   5   6
ATOM      6  O   UNL     1      29.866   1.833  41.129  1.00  0.00    -0.394 OA
ATOM      7  H   UNL     1      29.918   2.538  40.433  1.00  0.00     0.210 HD
ENDBRANCH   5   6
ENDBRANCH   1   5
BRANCH   1   8
ATOM      8  O   UNL     1      32.302   0.794  41.912  1.00  0.00    -0.388 OA
ATOM      9  H   UNL     1      32.782   0.770  41.044  1.00  0.00     0.211 HD
ENDBRANCH   1   8
TORSDOF 5
ENDMDL
MODEL 3
REMARK VINA RESULT:    -3.969      8.146      9.053
REMARK INTER + INTRA:          -4.801
REMARK INTER:                  -4.591
REMARK INTRA:                  -0.210
REMARK UNBOUND:                -0.020
REMARK SMILES OCC(O)CO
REMARK SMILES IDX 3 1 5 2 6 3 2 5 1 6 4 8
REMARK H PARENT 6 4 1 7 4 9
REMARK Flexibility Score: inf
ROOT
ATOM      1  C   UNL     1      31.507   3.576  41.887  1.00  0.00     0.165 C 
ENDROOT
BRANCH   1   2
ATOM      2  C   UNL     1      30.322   2.660  42.228  1.00  0.00     0.190 C 
BRANCH   2   3
ATOM      3  O   UNL     1      30.039   1.787  41.167  1.00  0.00    -0.394 OA
ATOM      4  H   UNL     1      30.905   1.589  40.724  1.00  0.00     0.210 HD
ENDBRANCH   2   3
ENDBRANCH   1   2
BRANCH   1   5
ATOM      5  C   UNL     1      32.637   2.787  41.207  1.00  0.00     0.190 C 
BRANCH   5   6
ATOM      6  O   UNL     1      32.549   2.906  39.812  1.00  0.00    -0.394 OA
ATOM      7  H   UNL     1      32.609   3.873  39.601  1.00  0.00     0.210 HD
ENDBRANCH   5   6
ENDBRANCH   1   5
BRANCH   1   8
ATOM      8  O   UNL     1      31.055   4.594  41.031  1.00  0.00    -0.388 OA
ATOM      9  H   UNL     1      31.824   4.861  40.464  1.00  0.00     0.211 HD
ENDBRANCH   1   8
TORSDOF 5
ENDMDL
MODEL 4
REMARK VINA RESULT:    -3.902      1.384      3.052
REMARK INTER + INTRA:          -4.721
REMARK INTER:                  -4.518
REMARK INTRA:                  -0.203
REMARK UNBOUND:                -0.020
REMARK SMILES OCC(O)CO
REMARK SMILES IDX 3 1 5 2 6 3 2 5 1 6 4 8
REMARK H PARENT 6 4 1 7 4 9
REMARK Flexibility Score: inf
ROOT
ATOM      1  C   UNL     1      36.328   8.579  45.478  1.00  0.00     0.165 C 
ENDROOT
BRANCH   1   2
ATOM      2  C   UNL     1      35.108   8.299  46.367  1.00  0.00     0.190 C 
BRANCH   2   3
ATOM      3  O   UNL     1      34.784   9.420  47.146  1.00  0.00    -0.394 OA
ATOM      4  H   UNL     1      35.639   9.763  47.518  1.00  0.00     0.210 HD
ENDBRANCH   2   3
ENDBRANCH   1   2
BRANCH   1   5
ATOM      5  C   UNL     1      35.972   9.548  44.340  1.00  0.00     0.190 C 
BRANCH   5   6
ATOM      6  O   UNL     1      36.119  10.878  44.764  1.00  0.00    -0.394 OA
ATOM      7  H   UNL     1      37.036  11.160  44.512  1.00  0.00     0.210 HD
ENDBRANCH   5   6
ENDBRANCH   1   5
BRANCH   1   8
ATOM      8  O   UNL     1      37.346   9.131  46.273  1.00  0.00    -0.388 OA
ATOM      9  H   UNL     1      38.099   9.354  45.668  1.00  0.00     0.211 HD
ENDBRANCH   1   8
TORSDOF 5
ENDMDL
MODEL 5
REMARK VINA RESULT:    -3.837      8.299      9.068
REMARK INTER + INTRA:          -4.642
REMARK INTER:                  -4.615
REMARK INTRA:                  -0.026
REMARK UNBOUND:                -0.020
REMARK SMILES OCC(O)CO
REMARK SMILES IDX 3 1 5 2 6 3 2 5 1 6 4 8
REMARK H PARENT 6 4 1 7 4 9
REMARK Flexibility Score: inf
ROOT
ATOM      1  C   UNL     1      32.148   1.901  42.506  1.00  0.00     0.165 C 
ENDROOT
BRANCH   1   2
ATOM      2  C   UNL     1      30.684   2.352  42.619  1.00  0.00     0.190 C 
BRANCH   2   3
ATOM      3  O   UNL     1      29.913   1.827  41.572  1.00  0.00    -0.394 OA
ATOM      4  H   UNL     1      29.856   2.535  40.879  1.00  0.00     0.210 HD
ENDBRANCH   2   3
ENDBRANCH   1   2
BRANCH   1   5
ATOM      5  C   UNL     1      32.707   1.491  43.877  1.00  0.00     0.190 C 
BRANCH   5   6
ATOM      6  O   UNL     1      31.669   1.090  44.731  1.00  0.00    -0.394 OA
ATOM      7  H   UNL     1      31.762   0.111  44.859  1.00  0.00     0.210 HD
ENDBRANCH   5   6
ENDBRANCH   1   5
BRANCH   1   8
ATOM      8  O   UNL     1      32.215   0.814  41.619  1.00  0.00    -0.388 OA
ATOM      9  H   UNL     1      32.364   1.188  40.712  1.00  0.00     0.211 HD
ENDBRANCH   1   8
TORSDOF 5
ENDMDL
MODEL 6
REMARK VINA RESULT:    -3.779      8.938      9.597
REMARK INTER + INTRA:          -4.572
REMARK INTER:                  -4.570
REMARK INTRA:                  -0.002
REMARK UNBOUND:                -0.020
REMARK SMILES OCC(O)CO
REMARK SMILES IDX 3 1 5 2 6 3 2 5 1 6 4 8
REMARK H PARENT 6 4 1 7 4 9
REMARK Flexibility Score: inf
ROOT
ATOM      1  C   UNL     1      31.564   1.836  41.420  1.00  0.00     0.165 C 
ENDROOT
BRANCH   1   2
ATOM      2  C   UNL     1      30.522   2.363  42.418  1.00  0.00     0.190 C 
BRANCH   2   3
ATOM      3  O   UNL     1      29.304   1.682  42.280  1.00  0.00    -0.394 OA
ATOM      4  H   UNL     1      28.588   2.368  42.333  1.00  0.00     0.210 HD
ENDBRANCH   2   3
ENDBRANCH   1   2
BRANCH   1   5
ATOM      5  C   UNL     1      32.498   2.962  40.949  1.00  0.00     0.190 C 
BRANCH   5   6
ATOM      6  O   UNL     1      32.730   2.862  39.569  1.00  0.00    -0.394 OA
ATOM      7  H   UNL     1      33.497   2.244  39.451  1.00  0.00     0.210 HD
ENDBRANCH   5   6
ENDBRANCH   1   5
BRANCH   1   8
ATOM      8  O   UNL     1      32.313   0.826  42.046  1.00  0.00    -0.388 OA
ATOM      9  H   UNL     1      31.968  -0.042  41.711  1.00  0.00     0.211 HD
ENDBRANCH   1   8
TORSDOF 5
ENDMDL
MODEL 7
REMARK VINA RESULT:    -3.753      8.750      9.191
REMARK INTER + INTRA:          -4.540
REMARK INTER:                  -4.332
REMARK INTRA:                  -0.209
REMARK UNBOUND:                -0.020
REMARK SMILES OCC(O)CO
REMARK SMILES IDX 3 1 5 2 6 3 2 5 1 6 4 8
REMARK H PARENT 6 4 1 7 4 9
REMARK Flexibility Score: inf
ROOT
ATOM      1  C   UNL     1      31.350   2.698  41.745  1.00  0.00     0.165 C 
ENDROOT
BRANCH   1   2
ATOM      2  C   UNL     1      31.901   1.976  42.983  1.00  0.00     0.190 C 
BRANCH   2   3
ATOM      3  O   UNL     1      32.567   0.795  42.623  1.00  0.00    -0.394 OA
ATOM      4  H   UNL     1      33.189   0.581  43.367  1.00  0.00     0.210 HD
ENDBRANCH   2   3
ENDBRANCH   1   2
BRANCH   1   5
ATOM      5  C   UNL     1      32.485   3.109  40.794  1.00  0.00     0.190 C 
BRANCH   5   6
ATOM      6  O   UNL     1      32.724   2.100  39.849  1.00  0.00    -0.394 OA
ATOM      7  H   UNL     1      31.973   2.130  39.202  1.00  0.00     0.210 HD
ENDBRANCH   5   6
ENDBRANCH   1   5
BRANCH   1   8
ATOM      8  O   UNL     1      30.462   1.836  41.082  1.00  0.00    -0.388 OA
ATOM      9  H   UNL     1      30.202   1.131  41.730  1.00  0.00     0.211 HD
ENDBRANCH   1   8
TORSDOF 5
ENDMDL
MODEL 8
REMARK VINA RESULT:    -3.698      1.579      2.496
REMARK INTER + INTRA:          -4.474
REMARK INTER:                  -4.299
REMARK INTRA:                  -0.176
REMARK UNBOUND:                -0.020
REMARK SMILES OCC(O)CO
REMARK SMILES IDX 3 1 5 2 6 3 2 5 1 6 4 8
REMARK H PARENT 6 4 1 7 4 9
REMARK Flexibility Score: inf
ROOT
ATOM      1  C   UNL     1      35.413   9.023  45.707  1.00  0.00     0.165 C 
ENDROOT
BRANCH   1   2
ATOM      2  C   UNL     1      35.262  10.193  44.723  1.00  0.00     0.190 C 
BRANCH   2   3
ATOM      3  O   UNL     1      36.372  10.277  43.868  1.00  0.00    -0.394 OA
ATOM      4  H   UNL     1      37.036  10.858  44.323  1.00  0.00     0.210 HD
ENDBRANCH   2   3
ENDBRANCH   1   2
BRANCH   1   5
ATOM      5  C   UNL     1      36.870   8.538  45.769  1.00  0.00     0.190 C 
BRANCH   5   6
ATOM      6  O   UNL     1      37.620   9.348  46.635  1.00  0.00    -0.394 OA
ATOM      7  H   UNL     1      36.996   9.683  47.329  1.00  0.00     0.210 HD
ENDBRANCH   5   6
ENDBRANCH   1   5
BRANCH   1   8
ATOM      8  O   UNL     1      34.999   9.452  46.979  1.00  0.00    -0.388 OA
ATOM      9  H   UNL     1      35.303  10.391  47.082  1.00  0.00     0.211 HD
ENDBRANCH   1   8
TORSDOF 5
ENDMDL
MODEL 9
REMARK VINA RESULT:    -3.509      1.927      2.833
REMARK INTER + INTRA:          -4.247
REMARK INTER:                  -4.027
REMARK INTRA:                  -0.220
REMARK UNBOUND:                -0.020
REMARK SMILES OCC(O)CO
REMARK SMILES IDX 3 1 5 2 6 3 2 5 1 6 4 8
REMARK H PARENT 6 4 1 7 4 9
REMARK Flexibility Score: inf
ROOT
ATOM      1  C   UNL     1      35.705   8.838  46.004  1.00  0.00     0.165 C 
ENDROOT
BRANCH   1   2
ATOM      2  C   UNL     1      35.288   7.392  45.694  1.00  0.00     0.190 C 
BRANCH   2   3
ATOM      3  O   UNL     1      36.379   6.643  45.227  1.00  0.00    -0.394 OA
ATOM      4  H   UNL     1      36.093   5.693  45.230  1.00  0.00     0.210 HD
ENDBRANCH   2   3
ENDBRANCH   1   2
BRANCH   1   5
ATOM      5  C   UNL     1      35.571   9.729  44.759  1.00  0.00     0.190 C 
BRANCH   5   6
ATOM      6  O   UNL     1      36.376   9.242  43.718  1.00  0.00    -0.394 OA
ATOM      7  H   UNL     1      36.524   8.278  43.896  1.00  0.00     0.210 HD
ENDBRANCH   5   6
ENDBRANCH   1   5
BRANCH   1   8
ATOM      8  O   UNL     1      34.885   9.330  47.033  1.00  0.00    -0.388 OA
ATOM      9  H   UNL     1      34.064   9.688  46.604  1.00  0.00     0.211 HD
ENDBRANCH   1   8
TORSDOF 5
ENDMDL
