MODEL 1
REMARK VINA RESULT:     3.301      0.000      0.000
REMARK INTER + INTRA:           5.256
REMARK INTER:                   4.556
REMARK INTRA:                   0.700
REMARK UNBOUND:                 0.700
REMARK SMILES CC[C@H](CC[C@H](C)[C@H]1CC[C@@H]2[C@H]3CC=C4C[C@H](O)CC[C@@]4(C)[C@@H]3CC[C@]21C)C(C)C
REMARK SMILES IDX 5 1 4 2 3 3 2 4 1 5 28 6 29 7 30 8 6 9 7 10 8 11 9 12 26 13
REMARK SMILES IDX 10 14 11 15 25 16 27 17 12 18 24 19 23 20 13 21 21 22 14 23
REMARK SMILES IDX 15 24 20 25 22 26 16 27 19 28 17 29 18 30
REMARK H PARENT 18 31
REMARK Flexibility Score: inf
ROOT
ATOM      1  C   UNL     1      87.719  33.426  64.242  1.00  0.00     0.004 C 
ENDROOT
BRANCH   1   2
ATOM      2  C   UNL     1      86.653  32.473  63.668  1.00  0.00     0.004 C 
BRANCH   2   3
ATOM      3  C   UNL     1      85.416  33.203  63.072  1.00  0.00    -0.009 C 
BRANCH   3   4
ATOM      4  C   UNL     1      84.260  33.437  64.092  1.00  0.00     0.000 C 
ATOM      5  C   UNL     1      83.299  32.266  64.305  1.00  0.00     0.004 C 
ENDBRANCH   3   4
BRANCH   3   6
ATOM      6  C   UNL     1      85.839  34.455  62.224  1.00  0.00    -0.014 C 
ATOM      7  C   UNL     1      85.254  34.441  60.804  1.00  0.00     0.007 C 
ATOM      8  C   UNL     1      85.585  35.817  62.898  1.00  0.00     0.007 C 
ENDBRANCH   3   6
ENDBRANCH   2   3
ENDBRANCH   1   2
BRANCH   1   9
ATOM      9  C   UNL     1      87.443  33.935  65.685  1.00  0.00    -0.011 C 
ATOM     10  C   UNL     1      88.462  35.018  66.104  1.00  0.00     0.008 C 
BRANCH   9  11
ATOM     11  C   UNL     1      87.199  32.769  66.718  1.00  0.00    -0.002 C 
ATOM     12  C   UNL     1      85.710  32.521  67.107  1.00  0.00     0.005 C 
ATOM     13  C   UNL     1      87.732  31.345  66.336  1.00  0.00    -0.026 C 
ATOM     14  C   UNL     1      85.352  31.085  66.699  1.00  0.00     0.005 C 
ATOM     15  C   UNL     1      86.478  30.666  65.771  1.00  0.00    -0.001 C 
ATOM     16  C   UNL     1      88.842  31.242  65.257  1.00  0.00     0.007 C 
ATOM     17  C   UNL     1      88.245  30.678  67.656  1.00  0.00     0.012 C 
ATOM     18  C   UNL     1      86.673  29.158  65.495  1.00  0.00     0.000 C 
ATOM     19  C   UNL     1      89.124  29.773  64.869  1.00  0.00     0.005 C 
ATOM     20  C   UNL     1      87.838  28.976  64.471  1.00  0.00     0.003 C 
ATOM     21  C   UNL     1      85.386  28.553  64.913  1.00  0.00     0.031 C 
ATOM     22  C   UNL     1      88.100  27.451  64.159  1.00  0.00    -0.008 C 
ATOM     23  C   UNL     1      85.589  27.171  64.359  1.00  0.00    -0.027 C 
ATOM     24  C   UNL     1      86.772  26.718  63.891  1.00  0.00    -0.065 C 
ATOM     25  C   UNL     1      88.994  27.345  62.883  1.00  0.00     0.014 C 
ATOM     26  C   UNL     1      88.812  26.744  65.344  1.00  0.00     0.016 C 
ATOM     27  C   UNL     1      86.812  25.351  63.234  1.00  0.00     0.063 C 
ATOM     28  C   UNL     1      89.084  25.923  62.307  1.00  0.00     0.033 C 
ATOM     29  C   UNL     1      87.693  25.375  61.978  1.00  0.00     0.118 C 
BRANCH  29  30
ATOM     30  O   UNL     1      87.822  24.078  61.460  1.00  0.00    -0.393 OA
ATOM     31  H   UNL     1      88.400  24.147  60.656  1.00  0.00     0.210 HD
ENDBRANCH  29  30
ENDBRANCH   9  11
ENDBRANCH   1   9
TORSDOF 7
ENDMDL
MODEL 2
REMARK VINA RESULT:     3.576      0.501      1.662
REMARK INTER + INTRA:           5.635
REMARK INTER:                   4.866
REMARK INTRA:                   0.769
REMARK UNBOUND:                 0.700
REMARK SMILES CC[C@H](CC[C@H](C)[C@H]1CC[C@@H]2[C@H]3CC=C4C[C@H](O)CC[C@@]4(C)[C@@H]3CC[C@]21C)C(C)C
REMARK SMILES IDX 5 1 4 2 3 3 2 4 1 5 28 6 29 7 30 8 6 9 7 10 8 11 9 12 26 13
REMARK SMILES IDX 10 14 11 15 25 16 27 17 12 18 24 19 23 20 13 21 21 22 14 23
REMARK SMILES IDX 15 24 20 25 22 26 16 27 19 28 17 29 18 30
REMARK H PARENT 18 31
REMARK Flexibility Score: inf
ROOT
ATOM      1  C   UNL     1      87.343  33.474  64.280  1.00  0.00     0.004 C 
ENDROOT
BRANCH   1   2
ATOM      2  C   UNL     1      86.097  32.654  63.892  1.00  0.00     0.004 C 
BRANCH   2   3
ATOM      3  C   UNL     1      84.788  33.491  63.839  1.00  0.00    -0.009 C 
BRANCH   3   4
ATOM      4  C   UNL     1      84.671  34.415  62.588  1.00  0.00     0.000 C 
ATOM      5  C   UNL     1      85.621  35.613  62.541  1.00  0.00     0.004 C 
ENDBRANCH   3   4
BRANCH   3   6
ATOM      6  C   UNL     1      83.527  32.611  64.154  1.00  0.00    -0.014 C 
ATOM      7  C   UNL     1      83.695  31.147  63.720  1.00  0.00     0.007 C 
ATOM      8  C   UNL     1      83.024  32.687  65.609  1.00  0.00     0.007 C 
ENDBRANCH   3   6
ENDBRANCH   2   3
ENDBRANCH   1   2
BRANCH   1   9
ATOM      9  C   UNL     1      87.384  33.954  65.758  1.00  0.00    -0.011 C 
ATOM     10  C   UNL     1      88.576  34.905  66.007  1.00  0.00     0.008 C 
BRANCH   9  11
ATOM     11  C   UNL     1      87.196  32.783  66.797  1.00  0.00    -0.002 C 
ATOM     12  C   UNL     1      85.726  32.507  67.234  1.00  0.00     0.005 C 
ATOM     13  C   UNL     1      87.744  31.370  66.395  1.00  0.00    -0.026 C 
ATOM     14  C   UNL     1      85.382  31.064  66.836  1.00  0.00     0.005 C 
ATOM     15  C   UNL     1      86.485  30.668  65.871  1.00  0.00    -0.001 C 
ATOM     16  C   UNL     1      88.819  31.289  65.279  1.00  0.00     0.007 C 
ATOM     17  C   UNL     1      88.312  30.712  67.696  1.00  0.00     0.012 C 
ATOM     18  C   UNL     1      86.699  29.164  65.585  1.00  0.00     0.000 C 
ATOM     19  C   UNL     1      89.116  29.826  64.880  1.00  0.00     0.005 C 
ATOM     20  C   UNL     1      87.832  29.005  64.524  1.00  0.00     0.003 C 
ATOM     21  C   UNL     1      85.405  28.535  65.045  1.00  0.00     0.031 C 
ATOM     22  C   UNL     1      88.112  27.486  64.200  1.00  0.00    -0.008 C 
ATOM     23  C   UNL     1      85.615  27.158  64.482  1.00  0.00    -0.027 C 
ATOM     24  C   UNL     1      86.791  26.728  63.976  1.00  0.00    -0.065 C 
ATOM     25  C   UNL     1      88.966  27.397  62.895  1.00  0.00     0.014 C 
ATOM     26  C   UNL     1      88.876  26.791  65.361  1.00  0.00     0.016 C 
ATOM     27  C   UNL     1      86.835  25.363  63.315  1.00  0.00     0.063 C 
ATOM     28  C   UNL     1      89.064  25.978  62.315  1.00  0.00     0.033 C 
ATOM     29  C   UNL     1      87.673  25.404  62.031  1.00  0.00     0.118 C 
BRANCH  29  30
ATOM     30  O   UNL     1      87.810  24.110  61.507  1.00  0.00    -0.393 OA
ATOM     31  H   UNL     1      87.230  23.518  62.054  1.00  0.00     0.210 HD
ENDBRANCH  29  30
ENDBRANCH   9  11
ENDBRANCH   1   9
TORSDOF 7
ENDMDL
MODEL 3
REMARK VINA RESULT:     4.748      0.812      1.617
REMARK INTER + INTRA:           7.252
REMARK INTER:                   6.424
REMARK INTRA:                   0.828
REMARK UNBOUND:                 0.700
REMARK SMILES CC[C@H](CC[C@H](C)[C@H]1CC[C@@H]2[C@H]3CC=C4C[C@H](O)CC[C@@]4(C)[C@@H]3CC[C@]21C)C(C)C
REMARK SMILES IDX 5 1 4 2 3 3 2 4 1 5 28 6 29 7 30 8 6 9 7 10 8 11 9 12 26 13
REMARK SMILES IDX 10 14 11 15 25 16 27 17 12 18 24 19 23 20 13 21 21 22 14 23
REMARK SMILES IDX 15 24 20 25 22 26 16 27 19 28 17 29 18 30
REMARK H PARENT 18 31
REMARK Flexibility Score: inf
ROOT
ATOM      1  C   UNL     1      87.202  33.597  63.823  1.00  0.00     0.004 C 
ENDROOT
BRANCH   1   2
ATOM      2  C   UNL     1      85.849  33.492  63.094  1.00  0.00     0.004 C 
BRANCH   2   3
ATOM      3  C   UNL     1      85.396  34.817  62.419  1.00  0.00    -0.009 C 
BRANCH   3   4
ATOM      4  C   UNL     1      86.283  36.050  62.775  1.00  0.00     0.000 C 
ATOM      5  C   UNL     1      87.648  36.122  62.088  1.00  0.00     0.004 C 
ENDBRANCH   3   4
BRANCH   3   6
ATOM      6  C   UNL     1      85.095  34.614  60.892  1.00  0.00    -0.014 C 
ATOM      7  C   UNL     1      85.599  35.775  60.023  1.00  0.00     0.007 C 
ATOM      8  C   UNL     1      85.557  33.265  60.309  1.00  0.00     0.007 C 
ENDBRANCH   3   6
ENDBRANCH   2   3
ENDBRANCH   1   2
BRANCH   1   9
ATOM      9  C   UNL     1      87.130  34.147  65.276  1.00  0.00    -0.011 C 
ATOM     10  C   UNL     1      88.152  35.284  65.497  1.00  0.00     0.008 C 
BRANCH   9  11
ATOM     11  C   UNL     1      87.101  33.011  66.369  1.00  0.00    -0.002 C 
ATOM     12  C   UNL     1      85.689  32.654  66.924  1.00  0.00     0.005 C 
ATOM     13  C   UNL     1      87.718  31.623  65.981  1.00  0.00    -0.026 C 
ATOM     14  C   UNL     1      85.421  31.175  66.608  1.00  0.00     0.005 C 
ATOM     15  C   UNL     1      86.478  30.814  65.579  1.00  0.00    -0.001 C 
ATOM     16  C   UNL     1      88.713  31.568  64.792  1.00  0.00     0.007 C 
ATOM     17  C   UNL     1      88.424  31.062  67.260  1.00  0.00     0.012 C 
ATOM     18  C   UNL     1      86.778  29.318  65.335  1.00  0.00     0.000 C 
ATOM     19  C   UNL     1      89.085  30.113  64.427  1.00  0.00     0.005 C 
ATOM     20  C   UNL     1      87.841  29.192  64.199  1.00  0.00     0.003 C 
ATOM     21  C   UNL     1      85.497  28.580  64.916  1.00  0.00     0.031 C 
ATOM     22  C   UNL     1      88.205  27.683  63.913  1.00  0.00    -0.008 C 
ATOM     23  C   UNL     1      85.764  27.198  64.392  1.00  0.00    -0.027 C 
ATOM     24  C   UNL     1      86.929  26.828  63.816  1.00  0.00    -0.065 C 
ATOM     25  C   UNL     1      88.967  27.597  62.552  1.00  0.00     0.014 C 
ATOM     26  C   UNL     1      89.097  27.092  65.038  1.00  0.00     0.016 C 
ATOM     27  C   UNL     1      87.022  25.441  63.206  1.00  0.00     0.063 C 
ATOM     28  C   UNL     1      89.125  26.165  62.020  1.00  0.00     0.033 C 
ATOM     29  C   UNL     1      87.761  25.485  61.862  1.00  0.00     0.118 C 
BRANCH  29  30
ATOM     30  O   UNL     1      87.952  24.182  61.379  1.00  0.00    -0.393 OA
ATOM     31  H   UNL     1      88.828  23.873  61.729  1.00  0.00     0.210 HD
ENDBRANCH  29  30
ENDBRANCH   9  11
ENDBRANCH   1   9
TORSDOF 7
ENDMDL
