MODEL 1
REMARK VINA RESULT:    -1.027      0.000      0.000
REMARK INTER + INTRA:          -4.819
REMARK INTER:                  -1.867
REMARK INTRA:                  -2.952
REMARK UNBOUND:                -2.952
REMARK SMILES CCCCCCCCCCCCCCCC(=O)[O-]
REMARK SMILES IDX 9 1 10 2 11 3 12 4 13 5 14 6 15 7 16 8 17 9 18 10 8 11 7 12
REMARK SMILES IDX 6 13 5 14 4 15 3 16 2 17 1 18
REMARK H PARENT
REMARK Flexibility Score: inf
ROOT
ATOM      1  C   UNL     1      27.388  -9.475  19.300  1.00  0.00     0.000 C 
ENDROOT
BRANCH   1   2
ATOM      2  C   UNL     1      27.133  -8.922  17.885  1.00  0.00     0.000 C 
BRANCH   2   3
ATOM      3  C   UNL     1      27.262  -7.391  17.745  1.00  0.00     0.000 C 
BRANCH   3   4
ATOM      4  C   UNL     1      28.112  -6.914  16.551  1.00  0.00     0.000 C 
BRANCH   4   5
ATOM      5  C   UNL     1      28.626  -8.036  15.628  1.00  0.00     0.000 C 
BRANCH   5   6
ATOM      6  C   UNL     1      29.885  -7.683  14.815  1.00  0.00     0.006 C 
BRANCH   6   7
ATOM      7  C   UNL     1      30.771  -8.902  14.530  1.00  0.00     0.053 C 
BRANCH   7   8
ATOM      8  C   UNL     1      30.002  -9.940  13.774  1.00  0.00     0.041 C 
ATOM      9  O   UNL     1      29.804 -11.075  14.281  1.00  0.00    -0.550 OA
ATOM     10  O   UNL     1      29.548  -9.671  12.489  1.00  0.00    -0.550 OA
ENDBRANCH   7   8
ENDBRANCH   6   7
ENDBRANCH   5   6
ENDBRANCH   4   5
ENDBRANCH   3   4
ENDBRANCH   2   3
ENDBRANCH   1   2
BRANCH   1  11
ATOM     11  C   UNL     1      28.467 -10.570  19.327  1.00  0.00     0.000 C 
BRANCH  11  12
ATOM     12  C   UNL     1      29.041 -10.878  17.931  1.00  0.00    -0.000 C 
BRANCH  12  13
ATOM     13  C   UNL     1      30.521 -10.496  17.727  1.00  0.00    -0.000 C 
BRANCH  13  14
ATOM     14  C   UNL     1      31.112  -9.567  18.803  1.00  0.00    -0.000 C 
BRANCH  14  15
ATOM     15  C   UNL     1      31.125  -8.091  18.375  1.00  0.00    -0.000 C 
BRANCH  15  16
ATOM     16  C   UNL     1      30.508  -7.200  19.463  1.00  0.00    -0.000 C 
BRANCH  16  17
ATOM     17  C   UNL     1      30.541  -7.855  20.852  1.00  0.00    -0.003 C 
ATOM     18  C   UNL     1      29.333  -7.480  21.711  1.00  0.00     0.004 C 
ENDBRANCH  16  17
ENDBRANCH  15  16
ENDBRANCH  14  15
ENDBRANCH  13  14
ENDBRANCH  12  13
ENDBRANCH  11  12
ENDBRANCH   1  11
TORSDOF 14
ENDMDL
MODEL 2
REMARK VINA RESULT:    -0.878      3.084      5.810
REMARK INTER + INTRA:          -4.548
REMARK INTER:                  -1.891
REMARK INTRA:                  -2.657
REMARK UNBOUND:                -2.952
REMARK SMILES CCCCCCCCCCCCCCCC(=O)[O-]
REMARK SMILES IDX 9 1 10 2 11 3 12 4 13 5 14 6 15 7 16 8 17 9 18 10 8 11 7 12
REMARK SMILES IDX 6 13 5 14 4 15 3 16 2 17 1 18
REMARK H PARENT
REMARK Flexibility Score: inf
ROOT
ATOM      1  C   UNL     1      29.312  -7.137  18.207  1.00  0.00     0.000 C 
ENDROOT
BRANCH   1   2
ATOM      2  C   UNL     1      30.572  -7.375  17.355  1.00  0.00     0.000 C 
BRANCH   2   3
ATOM      3  C   UNL     1      30.908  -8.856  17.079  1.00  0.00     0.000 C 
BRANCH   3   4
ATOM      4  C   UNL     1      30.586  -9.824  18.233  1.00  0.00     0.000 C 
BRANCH   4   5
ATOM      5  C   UNL     1      29.577 -10.938  17.887  1.00  0.00     0.000 C 
BRANCH   5   6
ATOM      6  C   UNL     1      28.413 -11.091  18.881  1.00  0.00     0.006 C 
BRANCH   6   7
ATOM      7  C   UNL     1      28.786 -10.667  20.307  1.00  0.00     0.053 C 
BRANCH   7   8
ATOM      8  C   UNL     1      27.775  -9.706  20.848  1.00  0.00     0.041 C 
ATOM      9  O   UNL     1      26.552 -10.004  20.845  1.00  0.00    -0.550 OA
ATOM     10  O   UNL     1      28.179  -8.459  21.309  1.00  0.00    -0.550 OA
ENDBRANCH   7   8
ENDBRANCH   6   7
ENDBRANCH   5   6
ENDBRANCH   4   5
ENDBRANCH   3   4
ENDBRANCH   2   3
ENDBRANCH   1   2
BRANCH   1  11
ATOM     11  C   UNL     1      28.089  -6.741  17.365  1.00  0.00     0.000 C 
BRANCH  11  12
ATOM     12  C   UNL     1      26.862  -7.632  17.637  1.00  0.00    -0.000 C 
BRANCH  12  13
ATOM     13  C   UNL     1      26.715  -8.854  16.707  1.00  0.00    -0.000 C 
BRANCH  13  14
ATOM     14  C   UNL     1      27.008  -8.583  15.220  1.00  0.00    -0.000 C 
BRANCH  14  15
ATOM     15  C   UNL     1      28.009  -9.582  14.618  1.00  0.00    -0.000 C 
BRANCH  15  16
ATOM     16  C   UNL     1      29.118  -8.850  13.848  1.00  0.00    -0.000 C 
BRANCH  16  17
ATOM     17  C   UNL     1      30.302  -9.766  13.504  1.00  0.00    -0.003 C 
ATOM     18  C   UNL     1      30.219 -11.125  14.202  1.00  0.00     0.004 C 
ENDBRANCH  16  17
ENDBRANCH  15  16
ENDBRANCH  14  15
ENDBRANCH  13  14
ENDBRANCH  12  13
ENDBRANCH  11  12
ENDBRANCH   1  11
TORSDOF 14
ENDMDL
MODEL 3
REMARK VINA RESULT:    -0.816      2.996      6.117
REMARK INTER + INTRA:          -4.436
REMARK INTER:                  -1.964
REMARK INTRA:                  -2.473
REMARK UNBOUND:                -2.952
REMARK SMILES CCCCCCCCCCCCCCCC(=O)[O-]
REMARK SMILES IDX 9 1 10 2 11 3 12 4 13 5 14 6 15 7 16 8 17 9 18 10 8 11 7 12
REMARK SMILES IDX 6 13 5 14 4 15 3 16 2 17 1 18
REMARK H PARENT
REMARK Flexibility Score: inf
ROOT
ATOM      1  C   UNL     1      29.565  -7.376  16.086  1.00  0.00     0.000 C 
ENDROOT
BRANCH   1   2
ATOM      2  C   UNL     1      30.560  -8.438  15.581  1.00  0.00     0.000 C 
BRANCH   2   3
ATOM      3  C   UNL     1      29.919  -9.677  14.922  1.00  0.00     0.000 C 
BRANCH   3   4
ATOM      4  C   UNL     1      30.141 -11.005  15.672  1.00  0.00     0.000 C 
BRANCH   4   5
ATOM      5  C   UNL     1      30.439 -10.860  17.178  1.00  0.00     0.000 C 
BRANCH   5   6
ATOM      6  C   UNL     1      29.211 -10.983  18.097  1.00  0.00     0.006 C 
BRANCH   6   7
ATOM      7  C   UNL     1      28.996  -9.744  18.975  1.00  0.00     0.053 C 
BRANCH   7   8
ATOM      8  C   UNL     1      29.663  -9.923  20.303  1.00  0.00     0.041 C 
ATOM      9  O   UNL     1      30.825  -9.479  20.492  1.00  0.00    -0.550 OA
ATOM     10  O   UNL     1      29.020 -10.624  21.314  1.00  0.00    -0.550 OA
ENDBRANCH   7   8
ENDBRANCH   6   7
ENDBRANCH   5   6
ENDBRANCH   4   5
ENDBRANCH   3   4
ENDBRANCH   2   3
ENDBRANCH   1   2
BRANCH   1  11
ATOM     11  C   UNL     1      28.597  -6.898  14.991  1.00  0.00     0.000 C 
BRANCH  11  12
ATOM     12  C   UNL     1      27.123  -6.955  15.431  1.00  0.00    -0.000 C 
BRANCH  12  13
ATOM     13  C   UNL     1      26.864  -7.650  16.784  1.00  0.00    -0.000 C 
BRANCH  13  14
ATOM     14  C   UNL     1      25.890  -8.840  16.733  1.00  0.00    -0.000 C 
BRANCH  14  15
ATOM     15  C   UNL     1      26.454 -10.039  15.954  1.00  0.00    -0.000 C 
BRANCH  15  16
ATOM     16  C   UNL     1      25.415 -10.587  14.965  1.00  0.00    -0.000 C 
BRANCH  16  17
ATOM     17  C   UNL     1      26.018 -10.893  13.584  1.00  0.00    -0.003 C 
ATOM     18  C   UNL     1      26.749  -9.693  12.981  1.00  0.00     0.004 C 
ENDBRANCH  16  17
ENDBRANCH  15  16
ENDBRANCH  14  15
ENDBRANCH  13  14
ENDBRANCH  12  13
ENDBRANCH  11  12
ENDBRANCH   1  11
TORSDOF 14
ENDMDL
MODEL 4
REMARK VINA RESULT:    -0.770      4.219      6.492
REMARK INTER + INTRA:          -4.353
REMARK INTER:                  -2.149
REMARK INTRA:                  -2.204
REMARK UNBOUND:                -2.952
REMARK SMILES CCCCCCCCCCCCCCCC(=O)[O-]
REMARK SMILES IDX 9 1 10 2 11 3 12 4 13 5 14 6 15 7 16 8 17 9 18 10 8 11 7 12
REMARK SMILES IDX 6 13 5 14 4 15 3 16 2 17 1 18
REMARK H PARENT
REMARK Flexibility Score: inf
ROOT
ATOM      1  C   UNL     1      27.557  -7.414  20.172  1.00  0.00     0.000 C 
ENDROOT
BRANCH   1   2
ATOM      2  C   UNL     1      27.487  -8.932  20.421  1.00  0.00     0.000 C 
BRANCH   2   3
ATOM      3  C   UNL     1      27.039  -9.346  21.838  1.00  0.00     0.000 C 
BRANCH   3   4
ATOM      4  C   UNL     1      27.609 -10.687  22.338  1.00  0.00     0.000 C 
BRANCH   4   5
ATOM      5  C   UNL     1      28.947 -11.106  21.697  1.00  0.00     0.000 C 
BRANCH   5   6
ATOM      6  C   UNL     1      30.150 -11.122  22.657  1.00  0.00     0.006 C 
BRANCH   6   7
ATOM      7  C   UNL     1      30.861  -9.765  22.745  1.00  0.00     0.053 C 
BRANCH   7   8
ATOM      8  C   UNL     1      30.629  -9.140  24.084  1.00  0.00     0.041 C 
ATOM      9  O   UNL     1      30.941  -9.759  25.135  1.00  0.00    -0.550 OA
ATOM     10  O   UNL     1      30.022  -7.893  24.174  1.00  0.00    -0.550 OA
ENDBRANCH   7   8
ENDBRANCH   6   7
ENDBRANCH   5   6
ENDBRANCH   4   5
ENDBRANCH   3   4
ENDBRANCH   2   3
ENDBRANCH   1   2
BRANCH   1  11
ATOM     11  C   UNL     1      28.982  -6.853  20.309  1.00  0.00     0.000 C 
BRANCH  11  12
ATOM     12  C   UNL     1      29.890  -7.229  19.123  1.00  0.00    -0.000 C 
BRANCH  12  13
ATOM     13  C   UNL     1      31.124  -8.083  19.482  1.00  0.00    -0.000 C 
BRANCH  13  14
ATOM     14  C   UNL     1      31.049  -9.557  19.047  1.00  0.00    -0.000 C 
BRANCH  14  15
ATOM     15  C   UNL     1      30.438  -9.737  17.648  1.00  0.00    -0.000 C 
BRANCH  15  16
ATOM     16  C   UNL     1      29.175 -10.608  17.710  1.00  0.00    -0.000 C 
BRANCH  16  17
ATOM     17  C   UNL     1      28.056 -10.092  16.792  1.00  0.00    -0.003 C 
ATOM     18  C   UNL     1      26.659 -10.393  17.336  1.00  0.00     0.004 C 
ENDBRANCH  16  17
ENDBRANCH  15  16
ENDBRANCH  14  15
ENDBRANCH  13  14
ENDBRANCH  12  13
ENDBRANCH  11  12
ENDBRANCH   1  11
TORSDOF 14
ENDMDL
MODEL 5
REMARK VINA RESULT:    -0.727      3.584      5.761
REMARK INTER + INTRA:          -4.274
REMARK INTER:                  -2.015
REMARK INTRA:                  -2.259
REMARK UNBOUND:                -2.952
REMARK SMILES CCCCCCCCCCCCCCCC(=O)[O-]
REMARK SMILES IDX 9 1 10 2 11 3 12 4 13 5 14 6 15 7 16 8 17 9 18 10 8 11 7 12
REMARK SMILES IDX 6 13 5 14 4 15 3 16 2 17 1 18
REMARK H PARENT
REMARK Flexibility Score: inf
ROOT
ATOM      1  C   UNL     1      30.542  -7.461  16.520  1.00  0.00     0.000 C 
ENDROOT
BRANCH   1   2
ATOM      2  C   UNL     1      30.234  -6.423  17.615  1.00  0.00     0.000 C 
BRANCH   2   3
ATOM      3  C   UNL     1      29.608  -6.993  18.904  1.00  0.00     0.000 C 
BRANCH   3   4
ATOM      4  C   UNL     1      30.419  -6.745  20.190  1.00  0.00     0.000 C 
BRANCH   4   5
ATOM      5  C   UNL     1      31.116  -7.991  20.772  1.00  0.00     0.000 C 
BRANCH   5   6
ATOM      6  C   UNL     1      30.371  -8.667  21.936  1.00  0.00     0.006 C 
BRANCH   6   7
ATOM      7  C   UNL     1      30.643 -10.174  22.022  1.00  0.00     0.053 C 
BRANCH   7   8
ATOM      8  C   UNL     1      29.798 -10.797  23.089  1.00  0.00     0.041 C 
ATOM      9  O   UNL     1      28.608 -11.124  22.843  1.00  0.00    -0.550 OA
ATOM     10  O   UNL     1      30.310 -10.971  24.368  1.00  0.00    -0.550 OA
ENDBRANCH   7   8
ENDBRANCH   6   7
ENDBRANCH   5   6
ENDBRANCH   4   5
ENDBRANCH   3   4
ENDBRANCH   2   3
ENDBRANCH   1   2
BRANCH   1  11
ATOM     11  C   UNL     1      31.059  -8.792  17.090  1.00  0.00     0.000 C 
BRANCH  11  12
ATOM     12  C   UNL     1      30.541 -10.017  16.312  1.00  0.00    -0.000 C 
BRANCH  12  13
ATOM     13  C   UNL     1      29.785 -11.063  17.157  1.00  0.00    -0.000 C 
BRANCH  13  14
ATOM     14  C   UNL     1      29.528 -10.662  18.620  1.00  0.00    -0.000 C 
BRANCH  14  15
ATOM     15  C   UNL     1      28.095 -10.972  19.081  1.00  0.00    -0.000 C 
BRANCH  15  16
ATOM     16  C   UNL     1      27.258  -9.688  19.169  1.00  0.00    -0.000 C 
BRANCH  16  17
ATOM     17  C   UNL     1      26.540  -9.543  20.520  1.00  0.00    -0.003 C 
ATOM     18  C   UNL     1      26.852  -8.218  21.216  1.00  0.00     0.004 C 
ENDBRANCH  16  17
ENDBRANCH  15  16
ENDBRANCH  14  15
ENDBRANCH  13  14
ENDBRANCH  12  13
ENDBRANCH  11  12
ENDBRANCH   1  11
TORSDOF 14
ENDMDL
MODEL 6
REMARK VINA RESULT:    -0.726      2.111      3.794
REMARK INTER + INTRA:          -4.272
REMARK INTER:                  -1.797
REMARK INTRA:                  -2.475
REMARK UNBOUND:                -2.952
REMARK SMILES CCCCCCCCCCCCCCCC(=O)[O-]
REMARK SMILES IDX 9 1 10 2 11 3 12 4 13 5 14 6 15 7 16 8 17 9 18 10 8 11 7 12
REMARK SMILES IDX 6 13 5 14 4 15 3 16 2 17 1 18
REMARK H PARENT
REMARK Flexibility Score: inf
ROOT
ATOM      1  C   UNL     1      27.525  -7.037  19.711  1.00  0.00     0.000 C 
ENDROOT
BRANCH   1   2
ATOM      2  C   UNL     1      26.467  -7.909  20.412  1.00  0.00     0.000 C 
BRANCH   2   3
ATOM      3  C   UNL     1      25.910  -9.073  19.567  1.00  0.00     0.000 C 
BRANCH   3   4
ATOM      4  C   UNL     1      26.353 -10.479  20.020  1.00  0.00     0.000 C 
BRANCH   4   5
ATOM      5  C   UNL     1      27.630 -11.010  19.339  1.00  0.00     0.000 C 
BRANCH   5   6
ATOM      6  C   UNL     1      27.897 -10.449  17.931  1.00  0.00     0.006 C 
BRANCH   6   7
ATOM      7  C   UNL     1      29.361 -10.040  17.720  1.00  0.00     0.053 C 
BRANCH   7   8
ATOM      8  C   UNL     1      29.854 -10.534  16.397  1.00  0.00     0.041 C 
ATOM      9  O   UNL     1      29.119 -10.457  15.378  1.00  0.00    -0.550 OA
ATOM     10  O   UNL     1      31.108 -11.125  16.299  1.00  0.00    -0.550 OA
ENDBRANCH   7   8
ENDBRANCH   6   7
ENDBRANCH   5   6
ENDBRANCH   4   5
ENDBRANCH   3   4
ENDBRANCH   2   3
ENDBRANCH   1   2
BRANCH   1  11
ATOM     11  C   UNL     1      28.115  -5.957  20.633  1.00  0.00     0.000 C 
BRANCH  11  12
ATOM     12  C   UNL     1      29.602  -6.195  20.957  1.00  0.00    -0.000 C 
BRANCH  12  13
ATOM     13  C   UNL     1      30.252  -7.392  20.232  1.00  0.00    -0.000 C 
BRANCH  13  14
ATOM     14  C   UNL     1      31.125  -8.298  21.119  1.00  0.00    -0.000 C 
BRANCH  14  15
ATOM     15  C   UNL     1      30.614  -9.745  21.179  1.00  0.00    -0.000 C 
BRANCH  15  16
ATOM     16  C   UNL     1      30.054 -10.072  22.571  1.00  0.00    -0.000 C 
BRANCH  16  17
ATOM     17  C   UNL     1      28.616  -9.564  22.764  1.00  0.00    -0.003 C 
ATOM     18  C   UNL     1      28.523  -8.426  23.780  1.00  0.00     0.004 C 
ENDBRANCH  16  17
ENDBRANCH  15  16
ENDBRANCH  14  15
ENDBRANCH  13  14
ENDBRANCH  12  13
ENDBRANCH  11  12
ENDBRANCH   1  11
TORSDOF 14
ENDMDL
MODEL 7
REMARK VINA RESULT:    -0.717      1.653      3.176
REMARK INTER + INTRA:          -4.256
REMARK INTER:                  -2.205
REMARK INTRA:                  -2.051
REMARK UNBOUND:                -2.952
REMARK SMILES CCCCCCCCCCCCCCCC(=O)[O-]
REMARK SMILES IDX 9 1 10 2 11 3 12 4 13 5 14 6 15 7 16 8 17 9 18 10 8 11 7 12
REMARK SMILES IDX 6 13 5 14 4 15 3 16 2 17 1 18
REMARK H PARENT
REMARK Flexibility Score: inf
ROOT
ATOM      1  C   UNL     1      26.814  -9.587  18.362  1.00  0.00     0.000 C 
ENDROOT
BRANCH   1   2
ATOM      2  C   UNL     1      27.874 -10.060  17.350  1.00  0.00     0.000 C 
BRANCH   2   3
ATOM      3  C   UNL     1      28.919 -11.049  17.907  1.00  0.00     0.000 C 
BRANCH   3   4
ATOM      4  C   UNL     1      30.250 -11.098  17.132  1.00  0.00     0.000 C 
BRANCH   4   5
ATOM      5  C   UNL     1      30.807  -9.726  16.706  1.00  0.00     0.000 C 
BRANCH   5   6
ATOM      6  C   UNL     1      31.125  -9.591  15.206  1.00  0.00     0.006 C 
BRANCH   6   7
ATOM      7  C   UNL     1      29.996  -8.917  14.415  1.00  0.00     0.053 C 
BRANCH   7   8
ATOM      8  C   UNL     1      29.297  -9.917  13.550  1.00  0.00     0.041 C 
ATOM      9  O   UNL     1      29.652 -11.125  13.563  1.00  0.00    -0.550 OA
ATOM     10  O   UNL     1      28.285  -9.506  12.691  1.00  0.00    -0.550 OA
ENDBRANCH   7   8
ENDBRANCH   6   7
ENDBRANCH   5   6
ENDBRANCH   4   5
ENDBRANCH   3   4
ENDBRANCH   2   3
ENDBRANCH   1   2
BRANCH   1  11
ATOM     11  C   UNL     1      25.987 -10.746  18.944  1.00  0.00     0.000 C 
BRANCH  11  12
ATOM     12  C   UNL     1      26.050 -10.810  20.482  1.00  0.00    -0.000 C 
BRANCH  12  13
ATOM     13  C   UNL     1      26.901  -9.714  21.154  1.00  0.00    -0.000 C 
BRANCH  13  14
ATOM     14  C   UNL     1      27.426 -10.062  22.559  1.00  0.00    -0.000 C 
BRANCH  14  15
ATOM     15  C   UNL     1      28.959 -10.010  22.654  1.00  0.00    -0.000 C 
BRANCH  15  16
ATOM     16  C   UNL     1      29.603 -10.372  21.308  1.00  0.00    -0.000 C 
BRANCH  16  17
ATOM     17  C   UNL     1      30.663  -9.350  20.866  1.00  0.00    -0.003 C 
ATOM     18  C   UNL     1      30.071  -8.199  20.053  1.00  0.00     0.004 C 
ENDBRANCH  16  17
ENDBRANCH  15  16
ENDBRANCH  14  15
ENDBRANCH  13  14
ENDBRANCH  12  13
ENDBRANCH  11  12
ENDBRANCH   1  11
TORSDOF 14
ENDMDL
MODEL 8
REMARK VINA RESULT:    -0.706      2.918      5.543
REMARK INTER + INTRA:          -4.237
REMARK INTER:                  -1.732
REMARK INTRA:                  -2.505
REMARK UNBOUND:                -2.952
REMARK SMILES CCCCCCCCCCCCCCCC(=O)[O-]
REMARK SMILES IDX 9 1 10 2 11 3 12 4 13 5 14 6 15 7 16 8 17 9 18 10 8 11 7 12
REMARK SMILES IDX 6 13 5 14 4 15 3 16 2 17 1 18
REMARK H PARENT
REMARK Flexibility Score: inf
ROOT
ATOM      1  C   UNL     1      27.333 -10.349  17.673  1.00  0.00     0.000 C 
ENDROOT
BRANCH   1   2
ATOM      2  C   UNL     1      28.658 -10.334  16.889  1.00  0.00     0.000 C 
BRANCH   2   3
ATOM      3  C   UNL     1      29.884 -10.860  17.662  1.00  0.00     0.000 C 
BRANCH   3   4
ATOM      4  C   UNL     1      31.112  -9.929  17.651  1.00  0.00     0.000 C 
BRANCH   4   5
ATOM      5  C   UNL     1      30.800  -8.436  17.870  1.00  0.00     0.000 C 
BRANCH   5   6
ATOM      6  C   UNL     1      30.972  -7.942  19.317  1.00  0.00     0.006 C 
BRANCH   6   7
ATOM      7  C   UNL     1      29.716  -8.153  20.172  1.00  0.00     0.053 C 
BRANCH   7   8
ATOM      8  C   UNL     1      30.004  -9.092  21.300  1.00  0.00     0.041 C 
ATOM      9  O   UNL     1      30.988  -9.875  21.236  1.00  0.00    -0.550 OA
ATOM     10  O   UNL     1      29.157  -9.139  22.400  1.00  0.00    -0.550 OA
ENDBRANCH   7   8
ENDBRANCH   6   7
ENDBRANCH   5   6
ENDBRANCH   4   5
ENDBRANCH   3   4
ENDBRANCH   2   3
ENDBRANCH   1   2
BRANCH   1  11
ATOM     11  C   UNL     1      26.837  -8.938  18.033  1.00  0.00     0.000 C 
BRANCH  11  12
ATOM     12  C   UNL     1      27.019  -7.930  16.884  1.00  0.00    -0.000 C 
BRANCH  12  13
ATOM     13  C   UNL     1      27.699  -6.601  17.274  1.00  0.00    -0.000 C 
BRANCH  13  14
ATOM     14  C   UNL     1      28.033  -5.666  16.098  1.00  0.00    -0.000 C 
BRANCH  14  15
ATOM     15  C   UNL     1      29.460  -5.867  15.564  1.00  0.00    -0.000 C 
BRANCH  15  16
ATOM     16  C   UNL     1      29.443  -6.604  14.216  1.00  0.00    -0.000 C 
BRANCH  16  17
ATOM     17  C   UNL     1      30.005  -8.030  14.317  1.00  0.00    -0.003 C 
ATOM     18  C   UNL     1      29.205  -9.040  13.494  1.00  0.00     0.004 C 
ENDBRANCH  16  17
ENDBRANCH  15  16
ENDBRANCH  14  15
ENDBRANCH  13  14
ENDBRANCH  12  13
ENDBRANCH  11  12
ENDBRANCH   1  11
TORSDOF 14
ENDMDL
MODEL 9
REMARK VINA RESULT:    -0.700      3.219      4.800
REMARK INTER + INTRA:          -4.226
REMARK INTER:                  -1.645
REMARK INTRA:                  -2.581
REMARK UNBOUND:                -2.952
REMARK SMILES CCCCCCCCCCCCCCCC(=O)[O-]
REMARK SMILES IDX 9 1 10 2 11 3 12 4 13 5 14 6 15 7 16 8 17 9 18 10 8 11 7 12
REMARK SMILES IDX 6 13 5 14 4 15 3 16 2 17 1 18
REMARK H PARENT
REMARK Flexibility Score: inf
ROOT
ATOM      1  C   UNL     1      26.589  -6.744  16.875  1.00  0.00     0.000 C 
ENDROOT
BRANCH   1   2
ATOM      2  C   UNL     1      25.848  -7.204  18.144  1.00  0.00     0.000 C 
BRANCH   2   3
ATOM      3  C   UNL     1      26.492  -8.393  18.886  1.00  0.00     0.000 C 
BRANCH   3   4
ATOM      4  C   UNL     1      25.666  -9.695  18.875  1.00  0.00     0.000 C 
BRANCH   4   5
ATOM      5  C   UNL     1      26.039 -10.693  17.762  1.00  0.00     0.000 C 
BRANCH   5   6
ATOM      6  C   UNL     1      24.906 -11.016  16.772  1.00  0.00     0.006 C 
BRANCH   6   7
ATOM      7  C   UNL     1      24.647  -9.882  15.772  1.00  0.00     0.053 C 
BRANCH   7   8
ATOM      8  C   UNL     1      23.230  -9.413  15.870  1.00  0.00     0.041 C 
ATOM      9  O   UNL     1      22.934  -8.445  16.619  1.00  0.00    -0.550 OA
ATOM     10  O   UNL     1      22.228 -10.076  15.173  1.00  0.00    -0.550 OA
ENDBRANCH   7   8
ENDBRANCH   6   7
ENDBRANCH   5   6
ENDBRANCH   4   5
ENDBRANCH   3   4
ENDBRANCH   2   3
ENDBRANCH   1   2
BRANCH   1  11
ATOM     11  C   UNL     1      27.880  -7.538  16.618  1.00  0.00     0.000 C 
BRANCH  11  12
ATOM     12  C   UNL     1      27.891  -8.234  15.245  1.00  0.00    -0.000 C 
BRANCH  12  13
ATOM     13  C   UNL     1      28.483  -9.659  15.231  1.00  0.00    -0.000 C 
BRANCH  13  14
ATOM     14  C   UNL     1      29.936  -9.768  15.729  1.00  0.00    -0.000 C 
BRANCH  14  15
ATOM     15  C   UNL     1      30.225 -11.102  16.434  1.00  0.00    -0.000 C 
BRANCH  15  16
ATOM     16  C   UNL     1      29.607 -11.125  17.840  1.00  0.00    -0.000 C 
BRANCH  16  17
ATOM     17  C   UNL     1      29.951  -9.870  18.657  1.00  0.00    -0.003 C 
ATOM     18  C   UNL     1      29.531  -9.985  20.122  1.00  0.00     0.004 C 
ENDBRANCH  16  17
ENDBRANCH  15  16
ENDBRANCH  14  15
ENDBRANCH  13  14
ENDBRANCH  12  13
ENDBRANCH  11  12
ENDBRANCH   1  11
TORSDOF 14
ENDMDL
