MODEL 1
REMARK VINA RESULT:    -4.592      0.000      0.000
REMARK INTER + INTRA:          -5.934
REMARK INTER:                  -5.532
REMARK INTRA:                  -0.402
REMARK UNBOUND:                -0.402
REMARK SMILES CCCCc1oc(O)c2ccccc12
REMARK SMILES IDX 4 1 5 2 7 3 6 4 9 5 14 6 10 7 13 8 11 9 12 10 8 11 3 13 2 14
REMARK SMILES IDX 1 15
REMARK H PARENT 8 12
REMARK Flexibility Score: inf
ROOT
ATOM      1  C   UNL     1      47.640 -40.510  -5.336  1.00  0.00     0.076 C 
ENDROOT
BRANCH   1   2
ATOM      2  C   UNL     1      46.974 -41.621  -6.088  1.00  0.00     0.116 A 
ATOM      3  C   UNL     1      45.833 -43.398  -6.459  1.00  0.00     0.290 A 
ATOM      4  O   UNL     1      46.314 -42.611  -5.516  1.00  0.00    -0.430 OA
ATOM      5  C   UNL     1      46.184 -42.906  -7.699  1.00  0.00     0.066 A 
ATOM      6  C   UNL     1      46.911 -41.770  -7.463  1.00  0.00     0.027 A 
ATOM      7  C   UNL     1      45.919 -43.357  -8.991  1.00  0.00     0.016 A 
ATOM      8  C   UNL     1      47.424 -40.997  -8.505  1.00  0.00     0.012 A 
ATOM      9  C   UNL     1      46.426 -42.600 -10.063  1.00  0.00     0.001 A 
ATOM     10  C   UNL     1      47.174 -41.425  -9.821  1.00  0.00     0.001 A 
BRANCH   3  11
ATOM     11  O   UNL     1      45.084 -44.544  -6.205  1.00  0.00    -0.480 OA
ATOM     12  H   UNL     1      44.561 -45.003  -6.941  1.00  0.00     0.297 HD
ENDBRANCH   3  11
ENDBRANCH   1   2
BRANCH   1  13
ATOM     13  C   UNL     1      46.607 -39.477  -4.878  1.00  0.00     0.008 C 
BRANCH  13  14
ATOM     14  C   UNL     1      46.403 -38.394  -5.945  1.00  0.00    -0.003 C 
ATOM     15  C   UNL     1      47.293 -37.185  -5.678  1.00  0.00     0.004 C 
ENDBRANCH  13  14
ENDBRANCH   1  13
TORSDOF 4
ENDMDL
MODEL 2
REMARK VINA RESULT:    -4.551      2.421      3.639
REMARK INTER + INTRA:          -5.884
REMARK INTER:                  -5.514
REMARK INTRA:                  -0.371
REMARK UNBOUND:                -0.402
REMARK SMILES CCCCc1oc(O)c2ccccc12
REMARK SMILES IDX 4 1 5 2 7 3 6 4 9 5 14 6 10 7 13 8 11 9 12 10 8 11 3 13 2 14
REMARK SMILES IDX 1 15
REMARK H PARENT 8 12
REMARK Flexibility Score: inf
ROOT
ATOM      1  C   UNL     1      46.665 -41.245  -8.357  1.00  0.00     0.076 C 
ENDROOT
BRANCH   1   2
ATOM      2  C   UNL     1      46.778 -42.696  -8.708  1.00  0.00     0.116 A 
ATOM      3  C   UNL     1      47.354 -44.472  -9.764  1.00  0.00     0.290 A 
ATOM      4  O   UNL     1      47.425 -43.154  -9.764  1.00  0.00    -0.430 OA
ATOM      5  C   UNL     1      46.638 -44.898  -8.665  1.00  0.00     0.066 A 
ATOM      6  C   UNL     1      46.272 -43.765  -7.988  1.00  0.00     0.027 A 
ATOM      7  C   UNL     1      46.293 -46.171  -8.212  1.00  0.00     0.016 A 
ATOM      8  C   UNL     1      45.536 -43.822  -6.805  1.00  0.00     0.012 A 
ATOM      9  C   UNL     1      45.548 -46.261  -7.022  1.00  0.00     0.001 A 
ATOM     10  C   UNL     1      45.172 -45.092  -6.321  1.00  0.00     0.001 A 
BRANCH   3  11
ATOM     11  O   UNL     1      47.929 -45.279 -10.741  1.00  0.00    -0.480 OA
ATOM     12  H   UNL     1      48.794 -45.778 -10.569  1.00  0.00     0.297 HD
ENDBRANCH   3  11
ENDBRANCH   1   2
BRANCH   1  13
ATOM     13  C   UNL     1      47.704 -40.866  -7.298  1.00  0.00     0.008 C 
BRANCH  13  14
ATOM     14  C   UNL     1      47.028 -40.482  -5.977  1.00  0.00    -0.003 C 
ATOM     15  C   UNL     1      46.628 -39.009  -5.972  1.00  0.00     0.004 C 
ENDBRANCH  13  14
ENDBRANCH   1  13
TORSDOF 4
ENDMDL
MODEL 3
REMARK VINA RESULT:    -4.482      2.618      4.684
REMARK INTER + INTRA:          -5.801
REMARK INTER:                  -5.542
REMARK INTRA:                  -0.259
REMARK UNBOUND:                -0.402
REMARK SMILES CCCCc1oc(O)c2ccccc12
REMARK SMILES IDX 4 1 5 2 7 3 6 4 9 5 14 6 10 7 13 8 11 9 12 10 8 11 3 13 2 14
REMARK SMILES IDX 1 15
REMARK H PARENT 8 12
REMARK Flexibility Score: inf
ROOT
ATOM      1  C   UNL     1      46.850 -43.875  -9.516  1.00  0.00     0.076 C 
ENDROOT
BRANCH   1   2
ATOM      2  C   UNL     1      46.250 -44.432  -8.262  1.00  0.00     0.116 A 
ATOM      3  C   UNL     1      45.279 -44.493  -6.351  1.00  0.00     0.290 A 
ATOM      4  O   UNL     1      45.746 -43.693  -7.290  1.00  0.00    -0.430 OA
ATOM      5  C   UNL     1      45.478 -45.808  -6.719  1.00  0.00     0.066 A 
ATOM      6  C   UNL     1      46.096 -45.770  -7.940  1.00  0.00     0.027 A 
ATOM      7  C   UNL     1      45.163 -47.010  -6.089  1.00  0.00     0.016 A 
ATOM      8  C   UNL     1      46.440 -46.935  -8.625  1.00  0.00     0.012 A 
ATOM      9  C   UNL     1      45.500 -48.204  -6.753  1.00  0.00     0.001 A 
ATOM     10  C   UNL     1      46.136 -48.166  -8.015  1.00  0.00     0.001 A 
BRANCH   3  11
ATOM     11  O   UNL     1      44.679 -44.044  -5.178  1.00  0.00    -0.480 OA
ATOM     12  H   UNL     1      45.192 -44.005  -4.306  1.00  0.00     0.297 HD
ENDBRANCH   3  11
ENDBRANCH   1   2
BRANCH   1  13
ATOM     13  C   UNL     1      46.250 -42.503  -9.835  1.00  0.00     0.008 C 
BRANCH  13  14
ATOM     14  C   UNL     1      47.311 -41.402  -9.732  1.00  0.00    -0.003 C 
ATOM     15  C   UNL     1      47.420 -40.875  -8.304  1.00  0.00     0.004 C 
ENDBRANCH  13  14
ENDBRANCH   1  13
TORSDOF 4
ENDMDL
MODEL 4
REMARK VINA RESULT:    -4.435      2.293      4.894
REMARK INTER + INTRA:          -5.744
REMARK INTER:                  -5.429
REMARK INTRA:                  -0.315
REMARK UNBOUND:                -0.402
REMARK SMILES CCCCc1oc(O)c2ccccc12
REMARK SMILES IDX 4 1 5 2 7 3 6 4 9 5 14 6 10 7 13 8 11 9 12 10 8 11 3 13 2 14
REMARK SMILES IDX 1 15
REMARK H PARENT 8 12
REMARK Flexibility Score: inf
ROOT
ATOM      1  C   UNL     1      45.270 -44.228  -6.267  1.00  0.00     0.076 C 
ENDROOT
BRANCH   1   2
ATOM      2  C   UNL     1      45.807 -43.501  -7.462  1.00  0.00     0.116 A 
ATOM      3  C   UNL     1      46.156 -42.986  -9.514  1.00  0.00     0.290 A 
ATOM      4  O   UNL     1      45.557 -43.845  -8.712  1.00  0.00    -0.430 OA
ATOM      5  C   UNL     1      46.821 -42.037  -8.765  1.00  0.00     0.066 A 
ATOM      6  C   UNL     1      46.597 -42.364  -7.454  1.00  0.00     0.027 A 
ATOM      7  C   UNL     1      47.585 -40.930  -9.128  1.00  0.00     0.016 A 
ATOM      8  C   UNL     1      47.118 -41.603  -6.408  1.00  0.00     0.012 A 
ATOM      9  C   UNL     1      48.127 -40.143  -8.095  1.00  0.00     0.001 A 
ATOM     10  C   UNL     1      47.894 -40.478  -6.741  1.00  0.00     0.001 A 
BRANCH   3  11
ATOM     11  O   UNL     1      46.101 -43.054 -10.903  1.00  0.00    -0.480 OA
ATOM     12  H   UNL     1      46.943 -43.150 -11.458  1.00  0.00     0.297 HD
ENDBRANCH   3  11
ENDBRANCH   1   2
BRANCH   1  13
ATOM     13  C   UNL     1      45.950 -45.593  -6.119  1.00  0.00     0.008 C 
BRANCH  13  14
ATOM     14  C   UNL     1      45.091 -46.704  -6.734  1.00  0.00    -0.003 C 
ATOM     15  C   UNL     1      45.776 -47.318  -7.951  1.00  0.00     0.004 C 
ENDBRANCH  13  14
ENDBRANCH   1  13
TORSDOF 4
ENDMDL
MODEL 5
REMARK VINA RESULT:    -4.424      1.835      2.866
REMARK INTER + INTRA:          -5.731
REMARK INTER:                  -5.482
REMARK INTRA:                  -0.249
REMARK UNBOUND:                -0.402
REMARK SMILES CCCCc1oc(O)c2ccccc12
REMARK SMILES IDX 4 1 5 2 7 3 6 4 9 5 14 6 10 7 13 8 11 9 12 10 8 11 3 13 2 14
REMARK SMILES IDX 1 15
REMARK H PARENT 8 12
REMARK Flexibility Score: inf
ROOT
ATOM      1  C   UNL     1      47.665 -39.947  -6.805  1.00  0.00     0.076 C 
ENDROOT
BRANCH   1   2
ATOM      2  C   UNL     1      47.027 -41.139  -7.451  1.00  0.00     0.116 A 
ATOM      3  C   UNL     1      46.276 -42.434  -8.986  1.00  0.00     0.290 A 
ATOM      4  O   UNL     1      46.832 -41.261  -8.751  1.00  0.00    -0.430 OA
ATOM      5  C   UNL     1      46.101 -43.112  -7.797  1.00  0.00     0.066 A 
ATOM      6  C   UNL     1      46.583 -42.286  -6.816  1.00  0.00     0.027 A 
ATOM      7  C   UNL     1      45.573 -44.369  -7.509  1.00  0.00     0.016 A 
ATOM      8  C   UNL     1      46.576 -42.661  -5.473  1.00  0.00     0.012 A 
ATOM      9  C   UNL     1      45.549 -44.775  -6.162  1.00  0.00     0.001 A 
ATOM     10  C   UNL     1      46.049 -43.924  -5.149  1.00  0.00     0.001 A 
BRANCH   3  11
ATOM     11  O   UNL     1      45.932 -42.888 -10.256  1.00  0.00    -0.480 OA
ATOM     12  H   UNL     1      46.485 -42.646 -11.068  1.00  0.00     0.297 HD
ENDBRANCH   3  11
ENDBRANCH   1   2
BRANCH   1  13
ATOM     13  C   UNL     1      46.603 -39.047  -6.169  1.00  0.00     0.008 C 
BRANCH  13  14
ATOM     14  C   UNL     1      47.241 -38.039  -5.207  1.00  0.00    -0.003 C 
ATOM     15  C   UNL     1      47.562 -36.727  -5.918  1.00  0.00     0.004 C 
ENDBRANCH  13  14
ENDBRANCH   1  13
TORSDOF 4
ENDMDL
MODEL 6
REMARK VINA RESULT:    -4.385      3.052      4.601
REMARK INTER + INTRA:          -5.684
REMARK INTER:                  -5.156
REMARK INTRA:                  -0.528
REMARK UNBOUND:                -0.402
REMARK SMILES CCCCc1oc(O)c2ccccc12
REMARK SMILES IDX 4 1 5 2 7 3 6 4 9 5 14 6 10 7 13 8 11 9 12 10 8 11 3 13 2 14
REMARK SMILES IDX 1 15
REMARK H PARENT 8 12
REMARK Flexibility Score: inf
ROOT
ATOM      1  C   UNL     1      46.369 -43.267  -7.869  1.00  0.00     0.076 C 
ENDROOT
BRANCH   1   2
ATOM      2  C   UNL     1      46.200 -44.756  -7.856  1.00  0.00     0.116 A 
ATOM      3  C   UNL     1      45.415 -46.687  -7.354  1.00  0.00     0.290 A 
ATOM      4  O   UNL     1      45.320 -45.394  -7.107  1.00  0.00    -0.430 OA
ATOM      5  C   UNL     1      46.390 -46.908  -8.304  1.00  0.00     0.066 A 
ATOM      6  C   UNL     1      46.891 -45.675  -8.627  1.00  0.00     0.027 A 
ATOM      7  C   UNL     1      46.861 -48.075  -8.903  1.00  0.00     0.016 A 
ATOM      8  C   UNL     1      47.899 -45.518  -9.578  1.00  0.00     0.012 A 
ATOM      9  C   UNL     1      47.880 -47.950  -9.865  1.00  0.00     0.001 A 
ATOM     10  C   UNL     1      48.396 -46.677 -10.201  1.00  0.00     0.001 A 
BRANCH   3  11
ATOM     11  O   UNL     1      44.630 -47.654  -6.733  1.00  0.00    -0.480 OA
ATOM     12  H   UNL     1      44.378 -47.578  -5.755  1.00  0.00     0.297 HD
ENDBRANCH   3  11
ENDBRANCH   1   2
BRANCH   1  13
ATOM     13  C   UNL     1      45.506 -42.639  -8.966  1.00  0.00     0.008 C 
BRANCH  13  14
ATOM     14  C   UNL     1      46.374 -42.111 -10.114  1.00  0.00    -0.003 C 
ATOM     15  C   UNL     1      47.779 -41.768  -9.628  1.00  0.00     0.004 C 
ENDBRANCH  13  14
ENDBRANCH   1  13
TORSDOF 4
ENDMDL
MODEL 7
REMARK VINA RESULT:    -4.300      1.817      4.576
REMARK INTER + INTRA:          -5.582
REMARK INTER:                  -5.057
REMARK INTRA:                  -0.525
REMARK UNBOUND:                -0.402
REMARK SMILES CCCCc1oc(O)c2ccccc12
REMARK SMILES IDX 4 1 5 2 7 3 6 4 9 5 14 6 10 7 13 8 11 9 12 10 8 11 3 13 2 14
REMARK SMILES IDX 1 15
REMARK H PARENT 8 12
REMARK Flexibility Score: inf
ROOT
ATOM      1  C   UNL     1      45.112 -44.510  -6.065  1.00  0.00     0.076 C 
ENDROOT
BRANCH   1   2
ATOM      2  C   UNL     1      45.957 -43.303  -6.335  1.00  0.00     0.116 A 
ATOM      3  C   UNL     1      47.246 -41.628  -5.974  1.00  0.00     0.290 A 
ATOM      4  O   UNL     1      46.570 -42.603  -5.398  1.00  0.00    -0.430 OA
ATOM      5  C   UNL     1      47.076 -41.689  -7.341  1.00  0.00     0.066 A 
ATOM      6  C   UNL     1      46.255 -42.760  -7.573  1.00  0.00     0.027 A 
ATOM      7  C   UNL     1      47.577 -40.905  -8.380  1.00  0.00     0.016 A 
ATOM      8  C   UNL     1      45.877 -43.129  -8.864  1.00  0.00     0.012 A 
ATOM      9  C   UNL     1      47.211 -41.251  -9.694  1.00  0.00     0.001 A 
ATOM     10  C   UNL     1      46.365 -42.358  -9.934  1.00  0.00     0.001 A 
BRANCH   3  11
ATOM     11  O   UNL     1      48.009 -40.696  -5.276  1.00  0.00    -0.480 OA
ATOM     12  H   UNL     1      47.695 -39.740  -5.160  1.00  0.00     0.297 HD
ENDBRANCH   3  11
ENDBRANCH   1   2
BRANCH   1  13
ATOM     13  C   UNL     1      45.941 -45.789  -6.210  1.00  0.00     0.008 C 
BRANCH  13  14
ATOM     14  C   UNL     1      45.472 -46.613  -7.415  1.00  0.00    -0.003 C 
ATOM     15  C   UNL     1      46.586 -46.762  -8.446  1.00  0.00     0.004 C 
ENDBRANCH  13  14
ENDBRANCH   1  13
TORSDOF 4
ENDMDL
MODEL 8
REMARK VINA RESULT:    -4.167      2.576      4.339
REMARK INTER + INTRA:          -5.422
REMARK INTER:                  -4.931
REMARK INTRA:                  -0.491
REMARK UNBOUND:                -0.402
REMARK SMILES CCCCc1oc(O)c2ccccc12
REMARK SMILES IDX 4 1 5 2 7 3 6 4 9 5 14 6 10 7 13 8 11 9 12 10 8 11 3 13 2 14
REMARK SMILES IDX 1 15
REMARK H PARENT 8 12
REMARK Flexibility Score: inf
ROOT
ATOM      1  C   UNL     1      46.487 -42.488  -9.716  1.00  0.00     0.076 C 
ENDROOT
BRANCH   1   2
ATOM      2  C   UNL     1      46.544 -43.873  -9.150  1.00  0.00     0.116 A 
ATOM      3  C   UNL     1      46.992 -45.964  -8.989  1.00  0.00     0.290 A 
ATOM      4  O   UNL     1      47.084 -44.906  -9.771  1.00  0.00    -0.430 OA
ATOM      5  C   UNL     1      46.372 -45.616  -7.807  1.00  0.00     0.066 A 
ATOM      6  C   UNL     1      46.088 -44.280  -7.908  1.00  0.00     0.027 A 
ATOM      7  C   UNL     1      46.049 -46.355  -6.670  1.00  0.00     0.016 A 
ATOM      8  C   UNL     1      45.462 -43.583  -6.874  1.00  0.00     0.012 A 
ATOM      9  C   UNL     1      45.414 -45.680  -5.611  1.00  0.00     0.001 A 
ATOM     10  C   UNL     1      45.123 -44.300  -5.713  1.00  0.00     0.001 A 
BRANCH   3  11
ATOM     11  O   UNL     1      47.462 -47.227  -9.335  1.00  0.00    -0.480 OA
ATOM     12  H   UNL     1      48.402 -47.360  -9.688  1.00  0.00     0.297 HD
ENDBRANCH   3  11
ENDBRANCH   1   2
BRANCH   1  13
ATOM     13  C   UNL     1      47.858 -41.813  -9.623  1.00  0.00     0.008 C 
BRANCH  13  14
ATOM     14  C   UNL     1      47.814 -40.606  -8.678  1.00  0.00    -0.003 C 
ATOM     15  C   UNL     1      48.080 -41.027  -7.236  1.00  0.00     0.004 C 
ENDBRANCH  13  14
ENDBRANCH   1  13
TORSDOF 4
ENDMDL
MODEL 9
REMARK VINA RESULT:    -4.123      2.680      3.767
REMARK INTER + INTRA:          -5.369
REMARK INTER:                  -5.193
REMARK INTRA:                  -0.176
REMARK UNBOUND:                -0.402
REMARK SMILES CCCCc1oc(O)c2ccccc12
REMARK SMILES IDX 4 1 5 2 7 3 6 4 9 5 14 6 10 7 13 8 11 9 12 10 8 11 3 13 2 14
REMARK SMILES IDX 1 15
REMARK H PARENT 8 12
REMARK Flexibility Score: inf
ROOT
ATOM      1  C   UNL     1      48.541 -39.790  -8.225  1.00  0.00     0.076 C 
ENDROOT
BRANCH   1   2
ATOM      2  C   UNL     1      47.620 -40.917  -8.579  1.00  0.00     0.116 A 
ATOM      3  C   UNL     1      46.493 -42.294  -9.777  1.00  0.00     0.290 A 
ATOM      4  O   UNL     1      47.296 -41.248  -9.816  1.00  0.00    -0.430 OA
ATOM      5  C   UNL     1      46.283 -42.669  -8.466  1.00  0.00     0.066 A 
ATOM      6  C   UNL     1      47.004 -41.792  -7.701  1.00  0.00     0.027 A 
ATOM      7  C   UNL     1      45.534 -43.699  -7.899  1.00  0.00     0.016 A 
ATOM      8  C   UNL     1      47.032 -41.883  -6.309  1.00  0.00     0.012 A 
ATOM      9  C   UNL     1      45.540 -43.815  -6.497  1.00  0.00     0.001 A 
ATOM     10  C   UNL     1      46.286 -42.911  -5.706  1.00  0.00     0.001 A 
BRANCH   3  11
ATOM     11  O   UNL     1      45.959 -42.904 -10.908  1.00  0.00    -0.480 OA
ATOM     12  H   UNL     1      46.455 -42.901 -11.790  1.00  0.00     0.297 HD
ENDBRANCH   3  11
ENDBRANCH   1   2
BRANCH   1  13
ATOM     13  C   UNL     1      49.246 -39.259  -9.476  1.00  0.00     0.008 C 
BRANCH  13  14
ATOM     14  C   UNL     1      49.596 -37.775  -9.322  1.00  0.00    -0.003 C 
ATOM     15  C   UNL     1      49.445 -37.033 -10.646  1.00  0.00     0.004 C 
ENDBRANCH  13  14
ENDBRANCH   1  13
TORSDOF 4
ENDMDL
