MODEL 1
REMARK VINA RESULT:    -4.201      0.000      0.000
REMARK INTER + INTRA:         -12.683
REMARK INTER:                  -9.114
REMARK INTRA:                  -3.569
REMARK UNBOUND:                -3.569
REMARK SMILES CCCCCCCCCCCCCCCCCCCCCC(=O)[O-]
REMARK SMILES IDX 12 1 11 2 10 3 9 4 8 5 7 6 6 7 5 8 4 9 3 10 2 11 1 12 13 13
REMARK SMILES IDX 14 14 15 15 16 16 17 17 18 18 19 19 20 20 21 21 22 22 23 23
REMARK SMILES IDX 24 24
REMARK H PARENT
REMARK Flexibility Score: inf
ROOT
ATOM      1  C   UNL     1      -1.583  43.928  19.892  1.00  0.00     0.000 C 
ENDROOT
BRANCH   1   2
ATOM      2  C   UNL     1      -0.644  43.687  21.081  1.00  0.00     0.000 C 
BRANCH   2   3
ATOM      3  C   UNL     1      -1.440  43.367  22.356  1.00  0.00     0.000 C 
BRANCH   3   4
ATOM      4  C   UNL     1      -1.007  44.229  23.552  1.00  0.00    -0.000 C 
BRANCH   4   5
ATOM      5  C   UNL     1      -1.023  43.447  24.877  1.00  0.00    -0.000 C 
BRANCH   5   6
ATOM      6  C   UNL     1      -2.423  43.390  25.509  1.00  0.00    -0.000 C 
BRANCH   6   7
ATOM      7  C   UNL     1      -3.382  42.459  24.747  1.00  0.00    -0.000 C 
BRANCH   7   8
ATOM      8  C   UNL     1      -4.780  43.086  24.553  1.00  0.00    -0.000 C 
BRANCH   8   9
ATOM      9  C   UNL     1      -4.769  44.627  24.525  1.00  0.00    -0.000 C 
BRANCH   9  10
ATOM     10  C   UNL     1      -4.824  45.254  23.120  1.00  0.00    -0.000 C 
BRANCH  10  11
ATOM     11  C   UNL     1      -4.425  46.740  23.060  1.00  0.00    -0.003 C 
ATOM     12  C   UNL     1      -3.489  47.152  24.195  1.00  0.00     0.004 C 
ENDBRANCH  10  11
ENDBRANCH   9  10
ENDBRANCH   8   9
ENDBRANCH   7   8
ENDBRANCH   6   7
ENDBRANCH   5   6
ENDBRANCH   4   5
ENDBRANCH   3   4
ENDBRANCH   2   3
ENDBRANCH   1   2
BRANCH   1  13
ATOM     13  C   UNL     1      -2.883  44.605  20.350  1.00  0.00     0.000 C 
BRANCH  13  14
ATOM     14  C   UNL     1      -3.623  45.317  19.205  1.00  0.00     0.000 C 
BRANCH  14  15
ATOM     15  C   UNL     1      -4.675  44.459  18.476  1.00  0.00     0.000 C 
BRANCH  15  16
ATOM     16  C   UNL     1      -4.216  43.860  17.131  1.00  0.00     0.000 C 
BRANCH  16  17
ATOM     17  C   UNL     1      -3.858  42.363  17.174  1.00  0.00     0.000 C 
BRANCH  17  18
ATOM     18  C   UNL     1      -4.369  41.661  18.440  1.00  0.00     0.000 C 
BRANCH  18  19
ATOM     19  C   UNL     1      -3.210  41.023  19.220  1.00  0.00     0.000 C 
BRANCH  19  20
ATOM     20  C   UNL     1      -3.549  40.783  20.702  1.00  0.00     0.006 C 
BRANCH  20  21
ATOM     21  C   UNL     1      -4.850  41.454  21.168  1.00  0.00     0.053 C 
BRANCH  21  22
ATOM     22  C   UNL     1      -5.863  40.454  21.632  1.00  0.00     0.041 C 
ATOM     23  O   UNL     1      -6.125  39.441  20.929  1.00  0.00    -0.550 OA
ATOM     24  O   UNL     1      -6.515  40.636  22.846  1.00  0.00    -0.550 OA
ENDBRANCH  21  22
ENDBRANCH  20  21
ENDBRANCH  19  20
ENDBRANCH  18  19
ENDBRANCH  17  18
ENDBRANCH  16  17
ENDBRANCH  15  16
ENDBRANCH  14  15
ENDBRANCH  13  14
ENDBRANCH   1  13
TORSDOF 20
ENDMDL
MODEL 2
REMARK VINA RESULT:    -4.154      3.207      5.748
REMARK INTER + INTRA:         -12.579
REMARK INTER:                  -9.026
REMARK INTRA:                  -3.553
REMARK UNBOUND:                -3.569
REMARK SMILES CCCCCCCCCCCCCCCCCCCCCC(=O)[O-]
REMARK SMILES IDX 12 1 11 2 10 3 9 4 8 5 7 6 6 7 5 8 4 9 3 10 2 11 1 12 13 13
REMARK SMILES IDX 14 14 15 15 16 16 17 17 18 18 19 19 20 20 21 21 22 22 23 23
REMARK SMILES IDX 24 24
REMARK H PARENT
REMARK Flexibility Score: inf
ROOT
ATOM      1  C   UNL     1      -1.692  43.788  20.159  1.00  0.00     0.000 C 
ENDROOT
BRANCH   1   2
ATOM      2  C   UNL     1      -2.799  44.700  20.703  1.00  0.00     0.000 C 
BRANCH   2   3
ATOM      3  C   UNL     1      -4.045  44.648  19.805  1.00  0.00     0.000 C 
BRANCH   3   4
ATOM      4  C   UNL     1      -5.219  43.909  20.470  1.00  0.00    -0.000 C 
BRANCH   4   5
ATOM      5  C   UNL     1      -5.035  42.381  20.456  1.00  0.00    -0.000 C 
BRANCH   5   6
ATOM      6  C   UNL     1      -5.181  41.759  21.853  1.00  0.00    -0.000 C 
BRANCH   6   7
ATOM      7  C   UNL     1      -4.117  42.263  22.843  1.00  0.00    -0.000 C 
BRANCH   7   8
ATOM      8  C   UNL     1      -4.736  42.765  24.166  1.00  0.00    -0.000 C 
BRANCH   8   9
ATOM      9  C   UNL     1      -4.848  44.300  24.254  1.00  0.00    -0.000 C 
BRANCH   9  10
ATOM     10  C   UNL     1      -3.538  45.031  24.603  1.00  0.00    -0.000 C 
BRANCH  10  11
ATOM     11  C   UNL     1      -3.409  46.444  24.007  1.00  0.00    -0.003 C 
ATOM     12  C   UNL     1      -4.557  46.800  23.064  1.00  0.00     0.004 C 
ENDBRANCH  10  11
ENDBRANCH   9  10
ENDBRANCH   8   9
ENDBRANCH   7   8
ENDBRANCH   6   7
ENDBRANCH   5   6
ENDBRANCH   4   5
ENDBRANCH   3   4
ENDBRANCH   2   3
ENDBRANCH   1   2
BRANCH   1  13
ATOM     13  C   UNL     1      -0.814  43.253  21.302  1.00  0.00     0.000 C 
BRANCH  13  14
ATOM     14  C   UNL     1      -0.880  44.128  22.566  1.00  0.00     0.000 C 
BRANCH  14  15
ATOM     15  C   UNL     1      -0.013  43.638  23.743  1.00  0.00     0.000 C 
BRANCH  15  16
ATOM     16  C   UNL     1      -0.572  42.421  24.507  1.00  0.00     0.000 C 
BRANCH  16  17
ATOM     17  C   UNL     1      -1.189  42.742  25.880  1.00  0.00     0.000 C 
BRANCH  17  18
ATOM     18  C   UNL     1      -2.170  41.664  26.363  1.00  0.00     0.000 C 
BRANCH  18  19
ATOM     19  C   UNL     1      -2.011  40.372  25.549  1.00  0.00     0.000 C 
BRANCH  19  20
ATOM     20  C   UNL     1      -1.550  39.179  26.406  1.00  0.00     0.006 C 
BRANCH  20  21
ATOM     21  C   UNL     1      -2.494  38.836  27.568  1.00  0.00     0.053 C 
BRANCH  21  22
ATOM     22  C   UNL     1      -1.818  38.969  28.898  1.00  0.00     0.041 C 
ATOM     23  O   UNL     1      -0.713  39.567  28.992  1.00  0.00    -0.550 OA
ATOM     24  O   UNL     1      -2.413  38.438  30.036  1.00  0.00    -0.550 OA
ENDBRANCH  21  22
ENDBRANCH  20  21
ENDBRANCH  19  20
ENDBRANCH  18  19
ENDBRANCH  17  18
ENDBRANCH  16  17
ENDBRANCH  15  16
ENDBRANCH  14  15
ENDBRANCH  13  14
ENDBRANCH   1  13
TORSDOF 20
ENDMDL
MODEL 3
REMARK VINA RESULT:    -4.039      4.303      6.619
REMARK INTER + INTRA:         -12.330
REMARK INTER:                  -9.300
REMARK INTRA:                  -3.030
REMARK UNBOUND:                -3.569
REMARK SMILES CCCCCCCCCCCCCCCCCCCCCC(=O)[O-]
REMARK SMILES IDX 12 1 11 2 10 3 9 4 8 5 7 6 6 7 5 8 4 9 3 10 2 11 1 12 13 13
REMARK SMILES IDX 14 14 15 15 16 16 17 17 18 18 19 19 20 20 21 21 22 22 23 23
REMARK SMILES IDX 24 24
REMARK H PARENT
REMARK Flexibility Score: inf
ROOT
ATOM      1  C   UNL     1      -1.316  43.657  20.448  1.00  0.00     0.000 C 
ENDROOT
BRANCH   1   2
ATOM      2  C   UNL     1      -2.176  44.240  19.319  1.00  0.00     0.000 C 
BRANCH   2   3
ATOM      3  C   UNL     1      -3.416  44.952  19.882  1.00  0.00     0.000 C 
BRANCH   3   4
ATOM      4  C   UNL     1      -4.725  44.241  19.504  1.00  0.00    -0.000 C 
BRANCH   4   5
ATOM      5  C   UNL     1      -5.469  43.687  20.732  1.00  0.00    -0.000 C 
BRANCH   5   6
ATOM      6  C   UNL     1      -5.317  42.164  20.874  1.00  0.00    -0.000 C 
BRANCH   6   7
ATOM      7  C   UNL     1      -5.037  41.728  22.323  1.00  0.00    -0.000 C 
BRANCH   7   8
ATOM      8  C   UNL     1      -4.071  42.689  23.050  1.00  0.00    -0.000 C 
BRANCH   8   9
ATOM      9  C   UNL     1      -4.611  43.210  24.396  1.00  0.00    -0.000 C 
BRANCH   9  10
ATOM     10  C   UNL     1      -4.978  44.705  24.416  1.00  0.00    -0.000 C 
BRANCH  10  11
ATOM     11  C   UNL     1      -3.811  45.661  24.109  1.00  0.00    -0.003 C 
ATOM     12  C   UNL     1      -4.204  46.799  23.169  1.00  0.00     0.004 C 
ENDBRANCH  10  11
ENDBRANCH   9  10
ENDBRANCH   8   9
ENDBRANCH   7   8
ENDBRANCH   6   7
ENDBRANCH   5   6
ENDBRANCH   4   5
ENDBRANCH   3   4
ENDBRANCH   2   3
ENDBRANCH   1   2
BRANCH   1  13
ATOM     13  C   UNL     1      -1.592  44.382  21.774  1.00  0.00     0.000 C 
BRANCH  13  14
ATOM     14  C   UNL     1      -0.666  43.919  22.913  1.00  0.00     0.000 C 
BRANCH  14  15
ATOM     15  C   UNL     1      -0.208  42.450  22.822  1.00  0.00     0.000 C 
BRANCH  15  16
ATOM     16  C   UNL     1       1.320  42.240  22.790  1.00  0.00     0.000 C 
BRANCH  16  17
ATOM     17  C   UNL     1       2.040  42.889  21.595  1.00  0.00     0.000 C 
BRANCH  17  18
ATOM     18  C   UNL     1       2.929  44.073  22.002  1.00  0.00     0.000 C 
BRANCH  18  19
ATOM     19  C   UNL     1       3.201  44.063  23.513  1.00  0.00     0.000 C 
BRANCH  19  20
ATOM     20  C   UNL     1       4.688  43.849  23.850  1.00  0.00     0.006 C 
BRANCH  20  21
ATOM     21  C   UNL     1       5.005  42.473  24.454  1.00  0.00     0.053 C 
BRANCH  21  22
ATOM     22  C   UNL     1       5.021  41.394  23.415  1.00  0.00     0.041 C 
ATOM     23  O   UNL     1       5.800  41.474  22.428  1.00  0.00    -0.550 OA
ATOM     24  O   UNL     1       4.178  40.296  23.540  1.00  0.00    -0.550 OA
ENDBRANCH  21  22
ENDBRANCH  20  21
ENDBRANCH  19  20
ENDBRANCH  18  19
ENDBRANCH  17  18
ENDBRANCH  16  17
ENDBRANCH  15  16
ENDBRANCH  14  15
ENDBRANCH  13  14
ENDBRANCH   1  13
TORSDOF 20
ENDMDL
MODEL 4
REMARK VINA RESULT:    -4.004      3.900      6.254
REMARK INTER + INTRA:         -12.254
REMARK INTER:                  -9.885
REMARK INTRA:                  -2.368
REMARK UNBOUND:                -3.569
REMARK SMILES CCCCCCCCCCCCCCCCCCCCCC(=O)[O-]
REMARK SMILES IDX 12 1 11 2 10 3 9 4 8 5 7 6 6 7 5 8 4 9 3 10 2 11 1 12 13 13
REMARK SMILES IDX 14 14 15 15 16 16 17 17 18 18 19 19 20 20 21 21 22 22 23 23
REMARK SMILES IDX 24 24
REMARK H PARENT
REMARK Flexibility Score: inf
ROOT
ATOM      1  C   UNL     1       0.280  43.366  21.038  1.00  0.00     0.000 C 
ENDROOT
BRANCH   1   2
ATOM      2  C   UNL     1       0.078  43.196  22.549  1.00  0.00     0.000 C 
BRANCH   2   3
ATOM      3  C   UNL     1       1.347  43.586  23.322  1.00  0.00     0.000 C 
BRANCH   3   4
ATOM      4  C   UNL     1       2.633  43.264  22.542  1.00  0.00    -0.000 C 
BRANCH   4   5
ATOM      5  C   UNL     1       3.650  44.418  22.585  1.00  0.00    -0.000 C 
BRANCH   5   6
ATOM      6  C   UNL     1       3.928  45.008  21.193  1.00  0.00    -0.000 C 
BRANCH   6   7
ATOM      7  C   UNL     1       4.131  43.926  20.118  1.00  0.00    -0.000 C 
BRANCH   7   8
ATOM      8  C   UNL     1       3.235  44.152  18.881  1.00  0.00    -0.000 C 
BRANCH   8   9
ATOM      9  C   UNL     1       3.878  45.052  17.807  1.00  0.00    -0.000 C 
BRANCH   9  10
ATOM     10  C   UNL     1       2.912  46.030  17.113  1.00  0.00    -0.000 C 
BRANCH  10  11
ATOM     11  C   UNL     1       3.197  47.519  17.382  1.00  0.00    -0.003 C 
ATOM     12  C   UNL     1       4.001  47.750  18.661  1.00  0.00     0.004 C 
ENDBRANCH  10  11
ENDBRANCH   9  10
ENDBRANCH   8   9
ENDBRANCH   7   8
ENDBRANCH   6   7
ENDBRANCH   5   6
ENDBRANCH   4   5
ENDBRANCH   3   4
ENDBRANCH   2   3
ENDBRANCH   1   2
BRANCH   1  13
ATOM     13  C   UNL     1      -0.976  42.932  20.266  1.00  0.00     0.000 C 
BRANCH  13  14
ATOM     14  C   UNL     1      -1.408  43.957  19.203  1.00  0.00     0.000 C 
BRANCH  14  15
ATOM     15  C   UNL     1      -2.160  43.364  17.995  1.00  0.00     0.000 C 
BRANCH  15  16
ATOM     16  C   UNL     1      -3.637  43.787  17.869  1.00  0.00     0.000 C 
BRANCH  16  17
ATOM     17  C   UNL     1      -4.167  44.650  19.028  1.00  0.00     0.000 C 
BRANCH  17  18
ATOM     18  C   UNL     1      -4.982  43.845  20.050  1.00  0.00     0.000 C 
BRANCH  18  19
ATOM     19  C   UNL     1      -4.796  44.408  21.467  1.00  0.00     0.000 C 
BRANCH  19  20
ATOM     20  C   UNL     1      -3.526  45.266  21.607  1.00  0.00     0.006 C 
BRANCH  20  21
ATOM     21  C   UNL     1      -2.891  45.227  23.005  1.00  0.00     0.053 C 
BRANCH  21  22
ATOM     22  C   UNL     1      -3.726  45.943  24.021  1.00  0.00     0.041 C 
ATOM     23  O   UNL     1      -3.921  47.185  23.922  1.00  0.00    -0.550 OA
ATOM     24  O   UNL     1      -4.295  45.239  25.075  1.00  0.00    -0.550 OA
ENDBRANCH  21  22
ENDBRANCH  20  21
ENDBRANCH  19  20
ENDBRANCH  18  19
ENDBRANCH  17  18
ENDBRANCH  16  17
ENDBRANCH  15  16
ENDBRANCH  14  15
ENDBRANCH  13  14
ENDBRANCH   1  13
TORSDOF 20
ENDMDL
MODEL 5
REMARK VINA RESULT:    -3.996      2.167      4.408
REMARK INTER + INTRA:         -12.237
REMARK INTER:                  -7.768
REMARK INTRA:                  -4.468
REMARK UNBOUND:                -3.569
REMARK SMILES CCCCCCCCCCCCCCCCCCCCCC(=O)[O-]
REMARK SMILES IDX 12 1 11 2 10 3 9 4 8 5 7 6 6 7 5 8 4 9 3 10 2 11 1 12 13 13
REMARK SMILES IDX 14 14 15 15 16 16 17 17 18 18 19 19 20 20 21 21 22 22 23 23
REMARK SMILES IDX 24 24
REMARK H PARENT
REMARK Flexibility Score: inf
ROOT
ATOM      1  C   UNL     1      -4.817  45.352  22.827  1.00  0.00     0.000 C 
ENDROOT
BRANCH   1   2
ATOM      2  C   UNL     1      -4.420  44.855  24.223  1.00  0.00     0.000 C 
BRANCH   2   3
ATOM      3  C   UNL     1      -2.893  44.837  24.388  1.00  0.00     0.000 C 
BRANCH   3   4
ATOM      4  C   UNL     1      -2.391  43.555  25.072  1.00  0.00    -0.000 C 
BRANCH   4   5
ATOM      5  C   UNL     1      -0.887  43.317  24.845  1.00  0.00    -0.000 C 
BRANCH   5   6
ATOM      6  C   UNL     1      -0.390  43.923  23.522  1.00  0.00    -0.000 C 
BRANCH   6   7
ATOM      7  C   UNL     1       0.828  43.178  22.948  1.00  0.00    -0.000 C 
BRANCH   7   8
ATOM      8  C   UNL     1       0.632  42.786  21.467  1.00  0.00    -0.000 C 
BRANCH   8   9
ATOM      9  C   UNL     1      -0.507  43.554  20.768  1.00  0.00    -0.000 C 
BRANCH   9  10
ATOM     10  C   UNL     1      -1.016  42.919  19.461  1.00  0.00    -0.000 C 
BRANCH  10  11
ATOM     11  C   UNL     1      -1.132  43.892  18.273  1.00  0.00    -0.003 C 
ATOM     12  C   UNL     1      -2.274  43.536  17.322  1.00  0.00     0.004 C 
ENDBRANCH  10  11
ENDBRANCH   9  10
ENDBRANCH   8   9
ENDBRANCH   7   8
ENDBRANCH   6   7
ENDBRANCH   5   6
ENDBRANCH   4   5
ENDBRANCH   3   4
ENDBRANCH   2   3
ENDBRANCH   1   2
BRANCH   1  13
ATOM     13  C   UNL     1      -3.595  45.397  21.895  1.00  0.00     0.000 C 
BRANCH  13  14
ATOM     14  C   UNL     1      -3.920  44.947  20.460  1.00  0.00     0.000 C 
BRANCH  14  15
ATOM     15  C   UNL     1      -5.130  44.001  20.333  1.00  0.00     0.000 C 
BRANCH  15  16
ATOM     16  C   UNL     1      -4.790  42.552  19.927  1.00  0.00     0.000 C 
BRANCH  16  17
ATOM     17  C   UNL     1      -5.291  41.470  20.901  1.00  0.00     0.000 C 
BRANCH  17  18
ATOM     18  C   UNL     1      -4.731  41.636  22.321  1.00  0.00     0.000 C 
BRANCH  18  19
ATOM     19  C   UNL     1      -3.198  41.727  22.300  1.00  0.00     0.000 C 
BRANCH  19  20
ATOM     20  C   UNL     1      -2.522  40.359  22.093  1.00  0.00     0.006 C 
BRANCH  20  21
ATOM     21  C   UNL     1      -1.387  40.061  23.083  1.00  0.00     0.053 C 
BRANCH  21  22
ATOM     22  C   UNL     1      -1.906  39.672  24.432  1.00  0.00     0.041 C 
ATOM     23  O   UNL     1      -1.230  39.916  25.468  1.00  0.00    -0.550 OA
ATOM     24  O   UNL     1      -3.141  39.046  24.548  1.00  0.00    -0.550 OA
ENDBRANCH  21  22
ENDBRANCH  20  21
ENDBRANCH  19  20
ENDBRANCH  18  19
ENDBRANCH  17  18
ENDBRANCH  16  17
ENDBRANCH  15  16
ENDBRANCH  14  15
ENDBRANCH  13  14
ENDBRANCH   1  13
TORSDOF 20
ENDMDL
MODEL 6
REMARK VINA RESULT:    -3.988      4.659      7.401
REMARK INTER + INTRA:         -12.220
REMARK INTER:                  -9.977
REMARK INTRA:                  -2.243
REMARK UNBOUND:                -3.569
REMARK SMILES CCCCCCCCCCCCCCCCCCCCCC(=O)[O-]
REMARK SMILES IDX 12 1 11 2 10 3 9 4 8 5 7 6 6 7 5 8 4 9 3 10 2 11 1 12 13 13
REMARK SMILES IDX 14 14 15 15 16 16 17 17 18 18 19 19 20 20 21 21 22 22 23 23
REMARK SMILES IDX 24 24
REMARK H PARENT
REMARK Flexibility Score: inf
ROOT
ATOM      1  C   UNL     1      -4.835  41.406  21.773  1.00  0.00     0.000 C 
ENDROOT
BRANCH   1   2
ATOM      2  C   UNL     1      -5.445  41.975  20.485  1.00  0.00     0.000 C 
BRANCH   2   3
ATOM      3  C   UNL     1      -5.511  43.509  20.538  1.00  0.00     0.000 C 
BRANCH   3   4
ATOM      4  C   UNL     1      -4.647  44.173  19.453  1.00  0.00    -0.000 C 
BRANCH   4   5
ATOM      5  C   UNL     1      -3.497  45.006  20.046  1.00  0.00    -0.000 C 
BRANCH   5   6
ATOM      6  C   UNL     1      -2.166  44.239  20.070  1.00  0.00    -0.000 C 
BRANCH   6   7
ATOM      7  C   UNL     1      -1.948  43.467  21.383  1.00  0.00    -0.000 C 
BRANCH   7   8
ATOM      8  C   UNL     1      -1.167  44.293  22.428  1.00  0.00    -0.000 C 
BRANCH   8   9
ATOM      9  C   UNL     1      -2.022  44.736  23.632  1.00  0.00    -0.000 C 
BRANCH   9  10
ATOM     10  C   UNL     1      -3.495  44.292  23.584  1.00  0.00    -0.000 C 
BRANCH  10  11
ATOM     11  C   UNL     1      -4.518  45.426  23.786  1.00  0.00    -0.003 C 
ATOM     12  C   UNL     1      -4.072  46.747  23.161  1.00  0.00     0.004 C 
ENDBRANCH  10  11
ENDBRANCH   9  10
ENDBRANCH   8   9
ENDBRANCH   7   8
ENDBRANCH   6   7
ENDBRANCH   5   6
ENDBRANCH   4   5
ENDBRANCH   3   4
ENDBRANCH   2   3
ENDBRANCH   1   2
BRANCH   1  13
ATOM     13  C   UNL     1      -5.934  40.892  22.717  1.00  0.00     0.000 C 
BRANCH  13  14
ATOM     14  C   UNL     1      -5.609  41.135  24.201  1.00  0.00     0.000 C 
BRANCH  14  15
ATOM     15  C   UNL     1      -6.418  40.278  25.194  1.00  0.00     0.000 C 
BRANCH  15  16
ATOM     16  C   UNL     1      -7.941  40.518  25.179  1.00  0.00     0.000 C 
BRANCH  16  17
ATOM     17  C   UNL     1      -8.521  41.095  26.483  1.00  0.00     0.000 C 
BRANCH  17  18
ATOM     18  C   UNL     1      -9.719  40.294  27.011  1.00  0.00     0.000 C 
BRANCH  18  19
ATOM     19  C   UNL     1      -9.363  39.569  28.317  1.00  0.00     0.000 C 
BRANCH  19  20
ATOM     20  C   UNL     1      -8.612  40.470  29.314  1.00  0.00     0.006 C 
BRANCH  20  21
ATOM     21  C   UNL     1      -9.179  40.440  30.741  1.00  0.00     0.053 C 
BRANCH  21  22
ATOM     22  C   UNL     1      -8.443  39.474  31.617  1.00  0.00     0.041 C 
ATOM     23  O   UNL     1      -8.794  39.310  32.817  1.00  0.00    -0.550 OA
ATOM     24  O   UNL     1      -7.372  38.750  31.108  1.00  0.00    -0.550 OA
ENDBRANCH  21  22
ENDBRANCH  20  21
ENDBRANCH  19  20
ENDBRANCH  18  19
ENDBRANCH  17  18
ENDBRANCH  16  17
ENDBRANCH  15  16
ENDBRANCH  14  15
ENDBRANCH  13  14
ENDBRANCH   1  13
TORSDOF 20
ENDMDL
MODEL 7
REMARK VINA RESULT:    -3.927      3.335      5.637
REMARK INTER + INTRA:         -12.087
REMARK INTER:                  -8.360
REMARK INTRA:                  -3.726
REMARK UNBOUND:                -3.569
REMARK SMILES CCCCCCCCCCCCCCCCCCCCCC(=O)[O-]
REMARK SMILES IDX 12 1 11 2 10 3 9 4 8 5 7 6 6 7 5 8 4 9 3 10 2 11 1 12 13 13
REMARK SMILES IDX 14 14 15 15 16 16 17 17 18 18 19 19 20 20 21 21 22 22 23 23
REMARK SMILES IDX 24 24
REMARK H PARENT
REMARK Flexibility Score: inf
ROOT
ATOM      1  C   UNL     1      -4.355  42.916  19.391  1.00  0.00     0.000 C 
ENDROOT
BRANCH   1   2
ATOM      2  C   UNL     1      -4.429  44.358  18.871  1.00  0.00     0.000 C 
BRANCH   2   3
ATOM      3  C   UNL     1      -3.620  45.308  19.768  1.00  0.00     0.000 C 
BRANCH   3   4
ATOM      4  C   UNL     1      -2.459  44.597  20.482  1.00  0.00    -0.000 C 
BRANCH   4   5
ATOM      5  C   UNL     1      -2.518  44.764  22.011  1.00  0.00    -0.000 C 
BRANCH   5   6
ATOM      6  C   UNL     1      -3.644  45.712  22.455  1.00  0.00    -0.000 C 
BRANCH   6   7
ATOM      7  C   UNL     1      -4.455  45.158  23.639  1.00  0.00    -0.000 C 
BRANCH   7   8
ATOM      8  C   UNL     1      -3.829  43.876  24.231  1.00  0.00    -0.000 C 
BRANCH   8   9
ATOM      9  C   UNL     1      -3.177  44.086  25.612  1.00  0.00    -0.000 C 
BRANCH   9  10
ATOM     10  C   UNL     1      -2.041  43.104  25.954  1.00  0.00    -0.000 C 
BRANCH  10  11
ATOM     11  C   UNL     1      -1.224  42.618  24.743  1.00  0.00    -0.003 C 
ATOM     12  C   UNL     1      -0.043  43.531  24.416  1.00  0.00     0.004 C 
ENDBRANCH  10  11
ENDBRANCH   9  10
ENDBRANCH   8   9
ENDBRANCH   7   8
ENDBRANCH   6   7
ENDBRANCH   5   6
ENDBRANCH   4   5
ENDBRANCH   3   4
ENDBRANCH   2   3
ENDBRANCH   1   2
BRANCH   1  13
ATOM     13  C   UNL     1      -5.536  42.611  20.326  1.00  0.00     0.000 C 
BRANCH  13  14
ATOM     14  C   UNL     1      -5.098  41.957  21.648  1.00  0.00     0.000 C 
BRANCH  14  15
ATOM     15  C   UNL     1      -3.697  41.315  21.625  1.00  0.00     0.000 C 
BRANCH  15  16
ATOM     16  C   UNL     1      -3.365  40.421  22.837  1.00  0.00     0.000 C 
BRANCH  16  17
ATOM     17  C   UNL     1      -4.581  39.980  23.672  1.00  0.00     0.000 C 
BRANCH  17  18
ATOM     18  C   UNL     1      -4.328  40.052  25.184  1.00  0.00     0.000 C 
BRANCH  18  19
ATOM     19  C   UNL     1      -3.022  39.334  25.558  1.00  0.00     0.000 C 
BRANCH  19  20
ATOM     20  C   UNL     1      -2.517  39.708  26.963  1.00  0.00     0.006 C 
BRANCH  20  21
ATOM     21  C   UNL     1      -0.988  39.718  27.100  1.00  0.00     0.053 C 
BRANCH  21  22
ATOM     22  C   UNL     1      -0.540  39.198  28.432  1.00  0.00     0.041 C 
ATOM     23  O   UNL     1       0.415  39.751  29.042  1.00  0.00    -0.550 OA
ATOM     24  O   UNL     1      -1.181  38.106  29.003  1.00  0.00    -0.550 OA
ENDBRANCH  21  22
ENDBRANCH  20  21
ENDBRANCH  19  20
ENDBRANCH  18  19
ENDBRANCH  17  18
ENDBRANCH  16  17
ENDBRANCH  15  16
ENDBRANCH  14  15
ENDBRANCH  13  14
ENDBRANCH   1  13
TORSDOF 20
ENDMDL
MODEL 8
REMARK VINA RESULT:    -3.911      2.105      5.875
REMARK INTER + INTRA:         -12.052
REMARK INTER:                  -8.377
REMARK INTRA:                  -3.675
REMARK UNBOUND:                -3.569
REMARK SMILES CCCCCCCCCCCCCCCCCCCCCC(=O)[O-]
REMARK SMILES IDX 12 1 11 2 10 3 9 4 8 5 7 6 6 7 5 8 4 9 3 10 2 11 1 12 13 13
REMARK SMILES IDX 14 14 15 15 16 16 17 17 18 18 19 19 20 20 21 21 22 22 23 23
REMARK SMILES IDX 24 24
REMARK H PARENT
REMARK Flexibility Score: inf
ROOT
ATOM      1  C   UNL     1      -4.751  44.250  19.195  1.00  0.00     0.000 C 
ENDROOT
BRANCH   1   2
ATOM      2  C   UNL     1      -5.428  43.620  20.420  1.00  0.00     0.000 C 
BRANCH   2   3
ATOM      3  C   UNL     1      -5.392  42.086  20.341  1.00  0.00     0.000 C 
BRANCH   3   4
ATOM      4  C   UNL     1      -4.505  41.577  19.193  1.00  0.00    -0.000 C 
BRANCH   4   5
ATOM      5  C   UNL     1      -3.140  41.067  19.687  1.00  0.00    -0.000 C 
BRANCH   5   6
ATOM      6  C   UNL     1      -1.976  41.567  18.817  1.00  0.00    -0.000 C 
BRANCH   6   7
ATOM      7  C   UNL     1      -2.379  41.774  17.346  1.00  0.00    -0.000 C 
BRANCH   7   8
ATOM      8  C   UNL     1      -2.050  43.196  16.842  1.00  0.00    -0.000 C 
BRANCH   8   9
ATOM      9  C   UNL     1      -1.009  43.934  17.705  1.00  0.00    -0.000 C 
BRANCH   9  10
ATOM     10  C   UNL     1       0.316  44.262  16.991  1.00  0.00    -0.000 C 
BRANCH  10  11
ATOM     11  C   UNL     1       1.583  43.821  17.747  1.00  0.00    -0.003 C 
ATOM     12  C   UNL     1       1.290  43.329  19.164  1.00  0.00     0.004 C 
ENDBRANCH  10  11
ENDBRANCH   9  10
ENDBRANCH   8   9
ENDBRANCH   7   8
ENDBRANCH   6   7
ENDBRANCH   5   6
ENDBRANCH   4   5
ENDBRANCH   3   4
ENDBRANCH   2   3
ENDBRANCH   1   2
BRANCH   1  13
ATOM     13  C   UNL     1      -3.626  45.205  19.624  1.00  0.00     0.000 C 
BRANCH  13  14
ATOM     14  C   UNL     1      -3.186  44.996  21.083  1.00  0.00     0.000 C 
BRANCH  14  15
ATOM     15  C   UNL     1      -1.851  44.246  21.260  1.00  0.00     0.000 C 
BRANCH  15  16
ATOM     16  C   UNL     1      -1.292  44.231  22.697  1.00  0.00     0.000 C 
BRANCH  16  17
ATOM     17  C   UNL     1      -2.188  44.909  23.750  1.00  0.00     0.000 C 
BRANCH  17  18
ATOM     18  C   UNL     1      -2.811  43.912  24.737  1.00  0.00     0.000 C 
BRANCH  18  19
ATOM     19  C   UNL     1      -4.144  43.369  24.201  1.00  0.00     0.000 C 
BRANCH  19  20
ATOM     20  C   UNL     1      -4.022  41.944  23.631  1.00  0.00     0.006 C 
BRANCH  20  21
ATOM     21  C   UNL     1      -5.124  40.982  24.098  1.00  0.00     0.053 C 
BRANCH  21  22
ATOM     22  C   UNL     1      -4.626  40.018  25.130  1.00  0.00     0.041 C 
ATOM     23  O   UNL     1      -5.374  39.092  25.548  1.00  0.00    -0.550 OA
ATOM     24  O   UNL     1      -3.334  40.136  25.628  1.00  0.00    -0.550 OA
ENDBRANCH  21  22
ENDBRANCH  20  21
ENDBRANCH  19  20
ENDBRANCH  18  19
ENDBRANCH  17  18
ENDBRANCH  16  17
ENDBRANCH  15  16
ENDBRANCH  14  15
ENDBRANCH  13  14
ENDBRANCH   1  13
TORSDOF 20
ENDMDL
MODEL 9
REMARK VINA RESULT:    -3.902      2.305      4.612
REMARK INTER + INTRA:         -12.034
REMARK INTER:                  -8.500
REMARK INTRA:                  -3.533
REMARK UNBOUND:                -3.569
REMARK SMILES CCCCCCCCCCCCCCCCCCCCCC(=O)[O-]
REMARK SMILES IDX 12 1 11 2 10 3 9 4 8 5 7 6 6 7 5 8 4 9 3 10 2 11 1 12 13 13
REMARK SMILES IDX 14 14 15 15 16 16 17 17 18 18 19 19 20 20 21 21 22 22 23 23
REMARK SMILES IDX 24 24
REMARK H PARENT
REMARK Flexibility Score: inf
ROOT
ATOM      1  C   UNL     1      -4.177  42.201  22.623  1.00  0.00     0.000 C 
ENDROOT
BRANCH   1   2
ATOM      2  C   UNL     1      -4.695  42.329  24.061  1.00  0.00     0.000 C 
BRANCH   2   3
ATOM      3  C   UNL     1      -4.753  43.802  24.496  1.00  0.00     0.000 C 
BRANCH   3   4
ATOM      4  C   UNL     1      -4.259  44.759  23.399  1.00  0.00    -0.000 C 
BRANCH   4   5
ATOM      5  C   UNL     1      -2.974  45.502  23.803  1.00  0.00    -0.000 C 
BRANCH   5   6
ATOM      6  C   UNL     1      -1.702  44.762  23.359  1.00  0.00    -0.000 C 
BRANCH   6   7
ATOM      7  C   UNL     1      -1.119  43.865  24.464  1.00  0.00    -0.000 C 
BRANCH   7   8
ATOM      8  C   UNL     1       0.290  43.340  24.113  1.00  0.00    -0.000 C 
BRANCH   8   9
ATOM      9  C   UNL     1       0.671  43.532  22.632  1.00  0.00    -0.000 C 
BRANCH   9  10
ATOM     10  C   UNL     1       2.184  43.523  22.341  1.00  0.00    -0.000 C 
BRANCH  10  11
ATOM     11  C   UNL     1       3.055  44.165  23.437  1.00  0.00    -0.003 C 
ATOM     12  C   UNL     1       4.162  43.237  23.936  1.00  0.00     0.004 C 
ENDBRANCH  10  11
ENDBRANCH   9  10
ENDBRANCH   8   9
ENDBRANCH   7   8
ENDBRANCH   6   7
ENDBRANCH   5   6
ENDBRANCH   4   5
ENDBRANCH   3   4
ENDBRANCH   2   3
ENDBRANCH   1   2
BRANCH   1  13
ATOM     13  C   UNL     1      -5.150  41.378  21.763  1.00  0.00     0.000 C 
BRANCH  13  14
ATOM     14  C   UNL     1      -5.380  41.987  20.370  1.00  0.00     0.000 C 
BRANCH  14  15
ATOM     15  C   UNL     1      -5.521  43.522  20.345  1.00  0.00     0.000 C 
BRANCH  15  16
ATOM     16  C   UNL     1      -4.597  44.250  19.348  1.00  0.00     0.000 C 
BRANCH  16  17
ATOM     17  C   UNL     1      -3.417  45.005  19.987  1.00  0.00     0.000 C 
BRANCH  17  18
ATOM     18  C   UNL     1      -2.077  44.276  19.817  1.00  0.00     0.000 C 
BRANCH  18  19
ATOM     19  C   UNL     1      -2.092  43.383  18.568  1.00  0.00     0.000 C 
BRANCH  19  20
ATOM     20  C   UNL     1      -1.470  41.997  18.819  1.00  0.00     0.006 C 
BRANCH  20  21
ATOM     21  C   UNL     1      -1.493  41.553  20.289  1.00  0.00     0.053 C 
BRANCH  21  22
ATOM     22  C   UNL     1      -1.900  40.119  20.436  1.00  0.00     0.041 C 
ATOM     23  O   UNL     1      -1.426  39.417  21.369  1.00  0.00    -0.550 OA
ATOM     24  O   UNL     1      -2.809  39.559  19.546  1.00  0.00    -0.550 OA
ENDBRANCH  21  22
ENDBRANCH  20  21
ENDBRANCH  19  20
ENDBRANCH  18  19
ENDBRANCH  17  18
ENDBRANCH  16  17
ENDBRANCH  15  16
ENDBRANCH  14  15
ENDBRANCH  13  14
ENDBRANCH   1  13
TORSDOF 20
ENDMDL
