MODEL 1
REMARK VINA RESULT:    -3.666      0.000      0.000
REMARK INTER + INTRA:          -5.836
REMARK INTER:                  -5.166
REMARK INTRA:                  -0.670
REMARK UNBOUND:                -0.670
REMARK SMILES CCCCCCCCC(=O)[O-]
REMARK SMILES IDX 6 1 7 2 8 3 9 4 10 5 11 6 5 7 4 8 3 9 2 10 1 11
REMARK H PARENT
REMARK Flexibility Score: inf
ROOT
ATOM      1  C   UNL     1     162.111 162.642 182.909  1.00  0.00     0.000 C 
ENDROOT
BRANCH   1   2
ATOM      2  C   UNL     1     163.563 162.154 183.059  1.00  0.00     0.006 C 
BRANCH   2   3
ATOM      3  C   UNL     1     163.686 160.626 183.005  1.00  0.00     0.053 C 
BRANCH   3   4
ATOM      4  C   UNL     1     165.030 160.230 182.481  1.00  0.00     0.041 C 
ATOM      5  O   UNL     1     165.164 159.876 181.280  1.00  0.00    -0.550 OA
ATOM      6  O   UNL     1     166.127 160.204 183.332  1.00  0.00    -0.550 OA
ENDBRANCH   3   4
ENDBRANCH   2   3
ENDBRANCH   1   2
BRANCH   1   7
ATOM      7  C   UNL     1     161.051 161.769 183.610  1.00  0.00     0.000 C 
BRANCH   7   8
ATOM      8  C   UNL     1     160.236 160.855 182.677  1.00  0.00    -0.000 C 
BRANCH   8   9
ATOM      9  C   UNL     1     160.246 161.331 181.218  1.00  0.00    -0.000 C 
BRANCH   9  10
ATOM     10  C   UNL     1     160.847 160.263 180.297  1.00  0.00    -0.003 C 
ATOM     11  C   UNL     1     162.114 160.772 179.616  1.00  0.00     0.004 C 
ENDBRANCH   9  10
ENDBRANCH   8   9
ENDBRANCH   7   8
ENDBRANCH   1   7
TORSDOF 7
ENDMDL
MODEL 2
REMARK VINA RESULT:    -3.618      1.048      1.965
REMARK INTER + INTRA:          -5.768
REMARK INTER:                  -5.250
REMARK INTRA:                  -0.518
REMARK UNBOUND:                -0.670
REMARK SMILES CCCCCCCCC(=O)[O-]
REMARK SMILES IDX 6 1 7 2 8 3 9 4 10 5 11 6 5 7 4 8 3 9 2 10 1 11
REMARK H PARENT
REMARK Flexibility Score: inf
ROOT
ATOM      1  C   UNL     1     163.881 162.181 182.776  1.00  0.00     0.000 C 
ENDROOT
BRANCH   1   2
ATOM      2  C   UNL     1     163.763 160.649 182.701  1.00  0.00     0.006 C 
BRANCH   2   3
ATOM      3  C   UNL     1     165.079 159.933 183.030  1.00  0.00     0.053 C 
BRANCH   3   4
ATOM      4  C   UNL     1     165.982 159.929 181.838  1.00  0.00     0.041 C 
ATOM      5  O   UNL     1     167.230 160.018 181.988  1.00  0.00    -0.550 OA
ATOM      6  O   UNL     1     165.445 159.875 180.558  1.00  0.00    -0.550 OA
ENDBRANCH   3   4
ENDBRANCH   2   3
ENDBRANCH   1   2
BRANCH   1   7
ATOM      7  C   UNL     1     162.550 162.931 182.983  1.00  0.00     0.000 C 
BRANCH   7   8
ATOM      8  C   UNL     1     161.413 162.087 183.586  1.00  0.00    -0.000 C 
BRANCH   8   9
ATOM      9  C   UNL     1     160.199 161.966 182.654  1.00  0.00    -0.000 C 
BRANCH   9  10
ATOM     10  C   UNL     1     159.970 160.508 182.238  1.00  0.00    -0.003 C 
ATOM     11  C   UNL     1     160.240 160.310 180.750  1.00  0.00     0.004 C 
ENDBRANCH   9  10
ENDBRANCH   8   9
ENDBRANCH   7   8
ENDBRANCH   1   7
TORSDOF 7
ENDMDL
MODEL 3
REMARK VINA RESULT:    -3.579      3.302      4.561
REMARK INTER + INTRA:          -5.714
REMARK INTER:                  -5.018
REMARK INTRA:                  -0.696
REMARK UNBOUND:                -0.670
REMARK SMILES CCCCCCCCC(=O)[O-]
REMARK SMILES IDX 6 1 7 2 8 3 9 4 10 5 11 6 5 7 4 8 3 9 2 10 1 11
REMARK H PARENT
REMARK Flexibility Score: inf
ROOT
ATOM      1  C   UNL     1     159.928 160.687 180.992  1.00  0.00     0.000 C 
ENDROOT
BRANCH   1   2
ATOM      2  C   UNL     1     161.256 160.347 180.291  1.00  0.00     0.006 C 
BRANCH   2   3
ATOM      3  C   UNL     1     161.816 161.518 179.474  1.00  0.00     0.053 C 
BRANCH   3   4
ATOM      4  C   UNL     1     160.702 162.295 178.847  1.00  0.00     0.041 C 
ATOM      5  O   UNL     1     160.162 161.885 177.786  1.00  0.00    -0.550 OA
ATOM      6  O   UNL     1     160.294 163.499 179.406  1.00  0.00    -0.550 OA
ENDBRANCH   3   4
ENDBRANCH   2   3
ENDBRANCH   1   2
BRANCH   1   7
ATOM      7  C   UNL     1     159.875 160.345 182.494  1.00  0.00     0.000 C 
BRANCH   7   8
ATOM      8  C   UNL     1     160.772 161.215 183.394  1.00  0.00    -0.000 C 
BRANCH   8   9
ATOM      9  C   UNL     1     160.521 162.719 183.212  1.00  0.00    -0.000 C 
BRANCH   9  10
ATOM     10  C   UNL     1     161.782 163.427 182.704  1.00  0.00    -0.003 C 
ATOM     11  C   UNL     1     163.044 162.730 183.203  1.00  0.00     0.004 C 
ENDBRANCH   9  10
ENDBRANCH   8   9
ENDBRANCH   7   8
ENDBRANCH   1   7
TORSDOF 7
ENDMDL
MODEL 4
REMARK VINA RESULT:    -3.567      3.067      4.438
REMARK INTER + INTRA:          -5.698
REMARK INTER:                  -4.832
REMARK INTRA:                  -0.866
REMARK UNBOUND:                -0.670
REMARK SMILES CCCCCCCCC(=O)[O-]
REMARK SMILES IDX 6 1 7 2 8 3 9 4 10 5 11 6 5 7 4 8 3 9 2 10 1 11
REMARK H PARENT
REMARK Flexibility Score: inf
ROOT
ATOM      1  C   UNL     1     163.383 161.365 181.491  1.00  0.00     0.000 C 
ENDROOT
BRANCH   1   2
ATOM      2  C   UNL     1     162.553 160.802 180.323  1.00  0.00     0.006 C 
BRANCH   2   3
ATOM      3  C   UNL     1     162.089 161.887 179.344  1.00  0.00     0.053 C 
BRANCH   3   4
ATOM      4  C   UNL     1     160.633 161.728 179.040  1.00  0.00     0.041 C 
ATOM      5  O   UNL     1     159.904 161.017 179.782  1.00  0.00    -0.550 OA
ATOM      6  O   UNL     1     160.090 162.323 177.909  1.00  0.00    -0.550 OA
ENDBRANCH   3   4
ENDBRANCH   2   3
ENDBRANCH   1   2
BRANCH   1   7
ATOM      7  C   UNL     1     162.872 160.992 182.897  1.00  0.00     0.000 C 
BRANCH   7   8
ATOM      8  C   UNL     1     161.350 161.116 183.093  1.00  0.00    -0.000 C 
BRANCH   8   9
ATOM      9  C   UNL     1     160.926 162.494 183.618  1.00  0.00    -0.000 C 
BRANCH   9  10
ATOM     10  C   UNL     1     160.260 163.321 182.512  1.00  0.00    -0.003 C 
ATOM     11  C   UNL     1     161.166 164.459 182.054  1.00  0.00     0.004 C 
ENDBRANCH   9  10
ENDBRANCH   8   9
ENDBRANCH   7   8
ENDBRANCH   1   7
TORSDOF 7
ENDMDL
MODEL 5
REMARK VINA RESULT:    -3.516      2.310      4.224
REMARK INTER + INTRA:          -5.626
REMARK INTER:                  -4.898
REMARK INTRA:                  -0.728
REMARK UNBOUND:                -0.670
REMARK SMILES CCCCCCCCC(=O)[O-]
REMARK SMILES IDX 6 1 7 2 8 3 9 4 10 5 11 6 5 7 4 8 3 9 2 10 1 11
REMARK H PARENT
REMARK Flexibility Score: inf
ROOT
ATOM      1  C   UNL     1     160.252 161.501 182.316  1.00  0.00     0.000 C 
ENDROOT
BRANCH   1   2
ATOM      2  C   UNL     1     160.078 160.364 181.293  1.00  0.00     0.006 C 
BRANCH   2   3
ATOM      3  C   UNL     1     161.159 160.370 180.205  1.00  0.00     0.053 C 
BRANCH   3   4
ATOM      4  C   UNL     1     161.179 161.688 179.498  1.00  0.00     0.041 C 
ATOM      5  O   UNL     1     160.192 162.050 178.804  1.00  0.00    -0.550 OA
ATOM      6  O   UNL     1     162.307 162.495 179.564  1.00  0.00    -0.550 OA
ENDBRANCH   3   4
ENDBRANCH   2   3
ENDBRANCH   1   2
BRANCH   1   7
ATOM      7  C   UNL     1     161.447 161.338 183.277  1.00  0.00     0.000 C 
BRANCH   7   8
ATOM      8  C   UNL     1     162.455 162.501 183.268  1.00  0.00    -0.000 C 
BRANCH   8   9
ATOM      9  C   UNL     1     163.885 162.050 182.939  1.00  0.00    -0.000 C 
BRANCH   9  10
ATOM     10  C   UNL     1     163.923 160.557 182.593  1.00  0.00    -0.003 C 
ATOM     11  C   UNL     1     165.133 159.876 183.225  1.00  0.00     0.004 C 
ENDBRANCH   9  10
ENDBRANCH   8   9
ENDBRANCH   7   8
ENDBRANCH   1   7
TORSDOF 7
ENDMDL
MODEL 6
REMARK VINA RESULT:    -3.496      1.763      3.264
REMARK INTER + INTRA:          -5.596
REMARK INTER:                  -4.874
REMARK INTRA:                  -0.722
REMARK UNBOUND:                -0.670
REMARK SMILES CCCCCCCCC(=O)[O-]
REMARK SMILES IDX 6 1 7 2 8 3 9 4 10 5 11 6 5 7 4 8 3 9 2 10 1 11
REMARK H PARENT
REMARK Flexibility Score: inf
ROOT
ATOM      1  C   UNL     1     160.304 160.222 180.630  1.00  0.00     0.000 C 
ENDROOT
BRANCH   1   2
ATOM      2  C   UNL     1     161.189 161.201 179.838  1.00  0.00     0.006 C 
BRANCH   2   3
ATOM      3  C   UNL     1     162.558 160.610 179.480  1.00  0.00     0.053 C 
BRANCH   3   4
ATOM      4  C   UNL     1     163.589 161.044 180.472  1.00  0.00     0.041 C 
ATOM      5  O   UNL     1     163.635 162.242 180.858  1.00  0.00    -0.550 OA
ATOM      6  O   UNL     1     164.532 160.136 180.936  1.00  0.00    -0.550 OA
ENDBRANCH   3   4
ENDBRANCH   2   3
ENDBRANCH   1   2
BRANCH   1   7
ATOM      7  C   UNL     1     159.877 160.710 182.029  1.00  0.00     0.000 C 
BRANCH   7   8
ATOM      8  C   UNL     1     161.036 161.028 182.991  1.00  0.00    -0.000 C 
BRANCH   8   9
ATOM      9  C   UNL     1     160.944 162.437 183.593  1.00  0.00    -0.000 C 
BRANCH   9  10
ATOM     10  C   UNL     1     160.205 163.390 182.646  1.00  0.00    -0.003 C 
ATOM     11  C   UNL     1     161.155 164.429 182.058  1.00  0.00     0.004 C 
ENDBRANCH   9  10
ENDBRANCH   8   9
ENDBRANCH   7   8
ENDBRANCH   1   7
TORSDOF 7
ENDMDL
MODEL 7
REMARK VINA RESULT:    -3.452      2.720      4.815
REMARK INTER + INTRA:          -5.535
REMARK INTER:                  -5.053
REMARK INTRA:                  -0.482
REMARK UNBOUND:                -0.670
REMARK SMILES CCCCCCCCC(=O)[O-]
REMARK SMILES IDX 6 1 7 2 8 3 9 4 10 5 11 6 5 7 4 8 3 9 2 10 1 11
REMARK H PARENT
REMARK Flexibility Score: inf
ROOT
ATOM      1  C   UNL     1     162.698 162.954 183.442  1.00  0.00     0.000 C 
ENDROOT
BRANCH   1   2
ATOM      2  C   UNL     1     161.273 162.386 183.559  1.00  0.00     0.006 C 
BRANCH   2   3
ATOM      3  C   UNL     1     160.327 162.922 182.478  1.00  0.00     0.053 C 
BRANCH   3   4
ATOM      4  C   UNL     1     160.241 161.960 181.336  1.00  0.00     0.041 C 
ATOM      5  O   UNL     1     160.216 160.719 181.553  1.00  0.00    -0.550 OA
ATOM      6  O   UNL     1     160.238 162.430 180.030  1.00  0.00    -0.550 OA
ENDBRANCH   3   4
ENDBRANCH   2   3
ENDBRANCH   1   2
BRANCH   1   7
ATOM      7  C   UNL     1     163.688 162.077 182.649  1.00  0.00     0.000 C 
BRANCH   7   8
ATOM      8  C   UNL     1     163.538 160.561 182.868  1.00  0.00    -0.000 C 
BRANCH   8   9
ATOM      9  C   UNL     1     164.863 159.875 183.229  1.00  0.00    -0.000 C 
BRANCH   9  10
ATOM     10  C   UNL     1     166.014 160.887 183.258  1.00  0.00    -0.003 C 
ATOM     11  C   UNL     1     167.042 160.522 184.325  1.00  0.00     0.004 C 
ENDBRANCH   9  10
ENDBRANCH   8   9
ENDBRANCH   7   8
ENDBRANCH   1   7
TORSDOF 7
ENDMDL
MODEL 8
REMARK VINA RESULT:    -3.356      0.973      2.600
REMARK INTER + INTRA:          -5.400
REMARK INTER:                  -4.650
REMARK INTRA:                  -0.751
REMARK UNBOUND:                -0.670
REMARK SMILES CCCCCCCCC(=O)[O-]
REMARK SMILES IDX 6 1 7 2 8 3 9 4 10 5 11 6 5 7 4 8 3 9 2 10 1 11
REMARK H PARENT
REMARK Flexibility Score: inf
ROOT
ATOM      1  C   UNL     1     162.542 160.630 180.488  1.00  0.00     0.000 C 
ENDROOT
BRANCH   1   2
ATOM      2  C   UNL     1     163.633 161.505 181.132  1.00  0.00     0.006 C 
BRANCH   2   3
ATOM      3  C   UNL     1     164.002 161.051 182.549  1.00  0.00     0.053 C 
BRANCH   3   4
ATOM      4  C   UNL     1     165.345 160.393 182.554  1.00  0.00     0.041 C 
ATOM      5  O   UNL     1     165.794 159.875 183.610  1.00  0.00    -0.550 OA
ATOM      6  O   UNL     1     166.124 160.395 181.404  1.00  0.00    -0.550 OA
ENDBRANCH   3   4
ENDBRANCH   2   3
ENDBRANCH   1   2
BRANCH   1   7
ATOM      7  C   UNL     1     161.284 161.390 180.023  1.00  0.00     0.000 C 
BRANCH   7   8
ATOM      8  C   UNL     1     160.257 161.691 181.129  1.00  0.00    -0.000 C 
BRANCH   8   9
ATOM      9  C   UNL     1     160.118 160.547 182.143  1.00  0.00    -0.000 C 
BRANCH   9  10
ATOM     10  C   UNL     1     160.256 161.066 183.578  1.00  0.00    -0.003 C 
ATOM     11  C   UNL     1     160.814 162.486 183.599  1.00  0.00     0.004 C 
ENDBRANCH   9  10
ENDBRANCH   8   9
ENDBRANCH   7   8
ENDBRANCH   1   7
TORSDOF 7
ENDMDL
MODEL 9
REMARK VINA RESULT:    -1.562      2.988      4.597
REMARK INTER + INTRA:          -2.871
REMARK INTER:                  -2.376
REMARK INTRA:                  -0.495
REMARK UNBOUND:                -0.670
REMARK SMILES CCCCCCCCC(=O)[O-]
REMARK SMILES IDX 6 1 7 2 8 3 9 4 10 5 11 6 5 7 4 8 3 9 2 10 1 11
REMARK H PARENT
REMARK Flexibility Score: inf
ROOT
ATOM      1  C   UNL     1     160.617 162.034 183.514  1.00  0.00     0.000 C 
ENDROOT
BRANCH   1   2
ATOM      2  C   UNL     1     160.764 160.666 182.824  1.00  0.00     0.006 C 
BRANCH   2   3
ATOM      3  C   UNL     1     159.875 160.525 181.583  1.00  0.00     0.053 C 
BRANCH   3   4
ATOM      4  C   UNL     1     160.658 160.822 180.344  1.00  0.00     0.041 C 
ATOM      5  O   UNL     1     161.773 160.269 180.150  1.00  0.00    -0.550 OA
ATOM      6  O   UNL     1     160.181 161.748 179.425  1.00  0.00    -0.550 OA
ENDBRANCH   3   4
ENDBRANCH   2   3
ENDBRANCH   1   2
BRANCH   1   7
ATOM      7  C   UNL     1     161.765 163.028 183.246  1.00  0.00     0.000 C 
BRANCH   7   8
ATOM      8  C   UNL     1     161.580 163.920 182.006  1.00  0.00    -0.000 C 
BRANCH   8   9
ATOM      9  C   UNL     1     160.257 164.699 182.022  1.00  0.00    -0.000 C 
BRANCH   9  10
ATOM     10  C   UNL     1     160.435 166.094 181.412  1.00  0.00    -0.003 C 
ATOM     11  C   UNL     1     160.539 167.161 182.497  1.00  0.00     0.004 C 
ENDBRANCH   9  10
ENDBRANCH   8   9
ENDBRANCH   7   8
ENDBRANCH   1   7
TORSDOF 7
ENDMDL
