MODEL 1
REMARK VINA RESULT:    -2.752      0.000      0.000
REMARK INTER + INTRA:          -3.271
REMARK INTER:                  -3.234
REMARK INTRA:                  -0.037
REMARK UNBOUND:                -0.037
REMARK SMILES CCCCC(=O)[O-]
REMARK SMILES IDX 4 1 5 2 6 3 7 4 3 5 2 6 1 7
REMARK H PARENT
REMARK Flexibility Score: inf
ROOT
ATOM      1  C   UNL     1      42.348  34.074  48.557  1.00  0.00     0.053 C 
ENDROOT
BRANCH   1   2
ATOM      2  C   UNL     1      43.186  34.134  49.797  1.00  0.00     0.041 C 
ATOM      3  O   UNL     1      43.961  33.184  50.084  1.00  0.00    -0.550 OA
ATOM      4  O   UNL     1      43.088  35.224  50.653  1.00  0.00    -0.550 OA
ENDBRANCH   1   2
BRANCH   1   5
ATOM      5  C   UNL     1      41.255  35.151  48.556  1.00  0.00     0.006 C 
BRANCH   5   6
ATOM      6  C   UNL     1      40.521  35.233  47.211  1.00  0.00    -0.003 C 
ATOM      7  C   UNL     1      41.168  34.315  46.176  1.00  0.00     0.004 C 
ENDBRANCH   5   6
ENDBRANCH   1   5
TORSDOF 3
ENDMDL
MODEL 2
REMARK VINA RESULT:    -2.667      2.696      3.795
REMARK INTER + INTRA:          -3.172
REMARK INTER:                  -3.124
REMARK INTRA:                  -0.048
REMARK UNBOUND:                -0.037
REMARK SMILES CCCCC(=O)[O-]
REMARK SMILES IDX 4 1 5 2 6 3 7 4 3 5 2 6 1 7
REMARK H PARENT
REMARK Flexibility Score: inf
ROOT
ATOM      1  C   UNL     1      41.148  35.147  48.598  1.00  0.00     0.053 C 
ENDROOT
BRANCH   1   2
ATOM      2  C   UNL     1      40.882  35.016  47.129  1.00  0.00     0.041 C 
ATOM      3  O   UNL     1      41.173  33.950  46.525  1.00  0.00    -0.550 OA
ATOM      4  O   UNL     1      40.342  36.083  46.421  1.00  0.00    -0.550 OA
ENDBRANCH   1   2
BRANCH   1   5
ATOM      5  C   UNL     1      42.625  35.448  48.884  1.00  0.00     0.006 C 
BRANCH   5   6
ATOM      6  C   UNL     1      43.152  34.668  50.096  1.00  0.00    -0.003 C 
ATOM      7  C   UNL     1      43.840  33.376  49.660  1.00  0.00     0.004 C 
ENDBRANCH   5   6
ENDBRANCH   1   5
TORSDOF 3
ENDMDL
MODEL 3
REMARK VINA RESULT:    -2.648     11.002     11.689
REMARK INTER + INTRA:          -3.150
REMARK INTER:                  -3.047
REMARK INTRA:                  -0.103
REMARK UNBOUND:                -0.037
REMARK SMILES CCCCC(=O)[O-]
REMARK SMILES IDX 4 1 5 2 6 3 7 4 3 5 2 6 1 7
REMARK H PARENT
REMARK Flexibility Score: inf
ROOT
ATOM      1  C   UNL     1      49.583  31.490  56.056  1.00  0.00     0.053 C 
ENDROOT
BRANCH   1   2
ATOM      2  C   UNL     1      50.551  30.868  57.015  1.00  0.00     0.041 C 
ATOM      3  O   UNL     1      51.049  31.553  57.947  1.00  0.00    -0.550 OA
ATOM      4  O   UNL     1      50.929  29.540  56.860  1.00  0.00    -0.550 OA
ENDBRANCH   1   2
BRANCH   1   5
ATOM      5  C   UNL     1      50.284  32.438  55.074  1.00  0.00     0.006 C 
BRANCH   5   6
ATOM      6  C   UNL     1      49.860  33.900  55.276  1.00  0.00    -0.003 C 
ATOM      7  C   UNL     1      50.967  34.706  55.949  1.00  0.00     0.004 C 
ENDBRANCH   5   6
ENDBRANCH   1   5
TORSDOF 3
ENDMDL
MODEL 4
REMARK VINA RESULT:    -2.598      2.224      3.839
REMARK INTER + INTRA:          -3.091
REMARK INTER:                  -3.066
REMARK INTRA:                  -0.025
REMARK UNBOUND:                -0.037
REMARK SMILES CCCCC(=O)[O-]
REMARK SMILES IDX 4 1 5 2 6 3 7 4 3 5 2 6 1 7
REMARK H PARENT
REMARK Flexibility Score: inf
ROOT
ATOM      1  C   UNL     1      43.126  33.737  48.752  1.00  0.00     0.053 C 
ENDROOT
BRANCH   1   2
ATOM      2  C   UNL     1      42.417  34.868  49.430  1.00  0.00     0.041 C 
ATOM      3  O   UNL     1      42.743  35.210  50.598  1.00  0.00    -0.550 OA
ATOM      4  O   UNL     1      41.376  35.524  48.787  1.00  0.00    -0.550 OA
ENDBRANCH   1   2
BRANCH   1   5
ATOM      5  C   UNL     1      44.039  32.973  49.721  1.00  0.00     0.006 C 
BRANCH   5   6
ATOM      6  C   UNL     1      45.177  32.245  48.994  1.00  0.00    -0.003 C 
ATOM      7  C   UNL     1      45.372  30.836  49.550  1.00  0.00     0.004 C 
ENDBRANCH   5   6
ENDBRANCH   1   5
TORSDOF 3
ENDMDL
MODEL 5
REMARK VINA RESULT:    -2.573      1.578      1.993
REMARK INTER + INTRA:          -3.061
REMARK INTER:                  -2.978
REMARK INTRA:                  -0.083
REMARK UNBOUND:                -0.037
REMARK SMILES CCCCC(=O)[O-]
REMARK SMILES IDX 4 1 5 2 6 3 7 4 3 5 2 6 1 7
REMARK H PARENT
REMARK Flexibility Score: inf
ROOT
ATOM      1  C   UNL     1      43.134  34.282  49.726  1.00  0.00     0.053 C 
ENDROOT
BRANCH   1   2
ATOM      2  C   UNL     1      43.894  33.216  48.996  1.00  0.00     0.041 C 
ATOM      3  O   UNL     1      43.971  33.242  47.740  1.00  0.00    -0.550 OA
ATOM      4  O   UNL     1      44.489  32.178  49.702  1.00  0.00    -0.550 OA
ENDBRANCH   1   2
BRANCH   1   5
ATOM      5  C   UNL     1      42.571  35.338  48.766  1.00  0.00     0.006 C 
BRANCH   5   6
ATOM      6  C   UNL     1      41.046  35.237  48.622  1.00  0.00    -0.003 C 
ATOM      7  C   UNL     1      40.633  35.224  47.152  1.00  0.00     0.004 C 
ENDBRANCH   5   6
ENDBRANCH   1   5
TORSDOF 3
ENDMDL
MODEL 6
REMARK VINA RESULT:    -2.561      9.915     11.707
REMARK INTER + INTRA:          -3.047
REMARK INTER:                  -3.024
REMARK INTRA:                  -0.023
REMARK UNBOUND:                -0.037
REMARK SMILES CCCCC(=O)[O-]
REMARK SMILES IDX 4 1 5 2 6 3 7 4 3 5 2 6 1 7
REMARK H PARENT
REMARK Flexibility Score: inf
ROOT
ATOM      1  C   UNL     1      49.683  31.613  55.852  1.00  0.00     0.053 C 
ENDROOT
BRANCH   1   2
ATOM      2  C   UNL     1      49.672  32.768  54.897  1.00  0.00     0.041 C 
ATOM      3  O   UNL     1      49.546  33.944  55.328  1.00  0.00    -0.550 OA
ATOM      4  O   UNL     1      49.769  32.543  53.530  1.00  0.00    -0.550 OA
ENDBRANCH   1   2
BRANCH   1   5
ATOM      5  C   UNL     1      50.864  31.692  56.828  1.00  0.00     0.006 C 
BRANCH   5   6
ATOM      6  C   UNL     1      50.967  30.445  57.717  1.00  0.00    -0.003 C 
ATOM      7  C   UNL     1      51.216  29.193  56.880  1.00  0.00     0.004 C 
ENDBRANCH   5   6
ENDBRANCH   1   5
TORSDOF 3
ENDMDL
MODEL 7
REMARK VINA RESULT:    -2.542      1.402      2.022
REMARK INTER + INTRA:          -3.025
REMARK INTER:                  -2.935
REMARK INTRA:                  -0.090
REMARK UNBOUND:                -0.037
REMARK SMILES CCCCC(=O)[O-]
REMARK SMILES IDX 4 1 5 2 6 3 7 4 3 5 2 6 1 7
REMARK H PARENT
REMARK Flexibility Score: inf
ROOT
ATOM      1  C   UNL     1      43.329  34.142  49.748  1.00  0.00     0.053 C 
ENDROOT
BRANCH   1   2
ATOM      2  C   UNL     1      44.014  35.466  49.894  1.00  0.00     0.041 C 
ATOM      3  O   UNL     1      43.891  36.128  50.958  1.00  0.00    -0.550 OA
ATOM      4  O   UNL     1      44.760  35.983  48.843  1.00  0.00    -0.550 OA
ENDBRANCH   1   2
BRANCH   1   5
ATOM      5  C   UNL     1      42.386  34.119  48.537  1.00  0.00     0.006 C 
BRANCH   5   6
ATOM      6  C   UNL     1      41.291  35.190  48.633  1.00  0.00    -0.003 C 
ATOM      7  C   UNL     1      40.567  35.356  47.299  1.00  0.00     0.004 C 
ENDBRANCH   5   6
ENDBRANCH   1   5
TORSDOF 3
ENDMDL
MODEL 8
REMARK VINA RESULT:    -2.508     11.232     12.265
REMARK INTER + INTRA:          -2.985
REMARK INTER:                  -2.967
REMARK INTRA:                  -0.018
REMARK UNBOUND:                -0.037
REMARK SMILES CCCCC(=O)[O-]
REMARK SMILES IDX 4 1 5 2 6 3 7 4 3 5 2 6 1 7
REMARK H PARENT
REMARK Flexibility Score: inf
ROOT
ATOM      1  C   UNL     1      51.203  30.230  55.910  1.00  0.00     0.053 C 
ENDROOT
BRANCH   1   2
ATOM      2  C   UNL     1      51.364  28.993  56.738  1.00  0.00     0.041 C 
ATOM      3  O   UNL     1      51.464  29.077  57.990  1.00  0.00    -0.550 OA
ATOM      4  O   UNL     1      51.435  27.749  56.124  1.00  0.00    -0.550 OA
ENDBRANCH   1   2
BRANCH   1   5
ATOM      5  C   UNL     1      50.185  31.199  56.525  1.00  0.00     0.006 C 
BRANCH   5   6
ATOM      6  C   UNL     1      49.327  31.895  55.459  1.00  0.00    -0.003 C 
ATOM      7  C   UNL     1      49.711  33.366  55.318  1.00  0.00     0.004 C 
ENDBRANCH   5   6
ENDBRANCH   1   5
TORSDOF 3
ENDMDL
MODEL 9
REMARK VINA RESULT:    -2.454     10.307     11.360
REMARK INTER + INTRA:          -2.921
REMARK INTER:                  -2.903
REMARK INTRA:                  -0.018
REMARK UNBOUND:                -0.037
REMARK SMILES CCCCC(=O)[O-]
REMARK SMILES IDX 4 1 5 2 6 3 7 4 3 5 2 6 1 7
REMARK H PARENT
REMARK Flexibility Score: inf
ROOT
ATOM      1  C   UNL     1      49.800  33.841  55.270  1.00  0.00     0.053 C 
ENDROOT
BRANCH   1   2
ATOM      2  C   UNL     1      50.498  35.167  55.259  1.00  0.00     0.041 C 
ATOM      3  O   UNL     1      50.848  35.706  56.342  1.00  0.00    -0.550 OA
ATOM      4  O   UNL     1      50.732  35.821  54.057  1.00  0.00    -0.550 OA
ENDBRANCH   1   2
BRANCH   1   5
ATOM      5  C   UNL     1      50.691  32.733  55.847  1.00  0.00     0.006 C 
BRANCH   5   6
ATOM      6  C   UNL     1      49.897  31.460  56.171  1.00  0.00    -0.003 C 
ATOM      7  C   UNL     1      50.663  30.569  57.147  1.00  0.00     0.004 C 
ENDBRANCH   5   6
ENDBRANCH   1   5
TORSDOF 3
ENDMDL
