MODEL 1
REMARK VINA RESULT:     9.195      0.000      0.000
REMARK INTER + INTRA:          13.218
REMARK INTER:                  13.495
REMARK INTRA:                  -0.277
REMARK UNBOUND:                -0.277
REMARK SMILES O=C([O-])CCCCCCCC(=O)[O-]
REMARK SMILES IDX 7 1 6 2 5 3 4 4 2 5 1 6 3 7 8 8 9 9 10 10 11 11 12 12 13 13
REMARK H PARENT
REMARK Flexibility Score: inf
ROOT
ATOM      1  C   UNL     1      -6.193 -18.910  25.366  1.00  0.00     0.000 C 
ENDROOT
BRANCH   1   2
ATOM      2  C   UNL     1      -5.551 -18.621  24.000  1.00  0.00     0.000 C 
BRANCH   2   3
ATOM      3  C   UNL     1      -4.167 -19.274  23.848  1.00  0.00     0.006 C 
BRANCH   3   4
ATOM      4  C   UNL     1      -4.137 -20.346  22.751  1.00  0.00     0.053 C 
BRANCH   4   5
ATOM      5  C   UNL     1      -2.725 -20.702  22.408  1.00  0.00     0.041 C 
ATOM      6  O   UNL     1      -2.116 -20.072  21.504  1.00  0.00    -0.550 OA
ATOM      7  O   UNL     1      -2.098 -21.760  23.054  1.00  0.00    -0.550 OA
ENDBRANCH   4   5
ENDBRANCH   3   4
ENDBRANCH   2   3
ENDBRANCH   1   2
BRANCH   1   8
ATOM      8  C   UNL     1      -5.498 -18.116  26.478  1.00  0.00     0.000 C 
BRANCH   8   9
ATOM      9  C   UNL     1      -6.522 -17.491  27.432  1.00  0.00     0.006 C 
BRANCH   9  10
ATOM     10  C   UNL     1      -7.811 -17.124  26.691  1.00  0.00     0.053 C 
BRANCH  10  11
ATOM     11  C   UNL     1      -8.962 -17.059  27.644  1.00  0.00     0.041 C 
ATOM     12  O   UNL     1      -9.060 -17.896  28.579  1.00  0.00    -0.550 OA
ATOM     13  O   UNL     1      -9.956 -16.103  27.469  1.00  0.00    -0.550 OA
ENDBRANCH  10  11
ENDBRANCH   9  10
ENDBRANCH   8   9
ENDBRANCH   1   8
TORSDOF 8
ENDMDL
MODEL 2
REMARK VINA RESULT:     9.351      0.091      7.498
REMARK INTER + INTRA:          13.447
REMARK INTER:                  13.711
REMARK INTRA:                  -0.264
REMARK UNBOUND:                -0.277
REMARK SMILES O=C([O-])CCCCCCCC(=O)[O-]
REMARK SMILES IDX 7 1 6 2 5 3 4 4 2 5 1 6 3 7 8 8 9 9 10 10 11 11 12 12 13 13
REMARK H PARENT
REMARK Flexibility Score: inf
ROOT
ATOM      1  C   UNL     1      -6.155 -18.980  25.352  1.00  0.00     0.000 C 
ENDROOT
BRANCH   1   2
ATOM      2  C   UNL     1      -5.535 -18.143  26.482  1.00  0.00     0.000 C 
BRANCH   2   3
ATOM      3  C   UNL     1      -6.594 -17.475  27.373  1.00  0.00     0.006 C 
BRANCH   3   4
ATOM      4  C   UNL     1      -7.948 -17.322  26.667  1.00  0.00     0.053 C 
BRANCH   4   5
ATOM      5  C   UNL     1      -9.036 -17.101  27.670  1.00  0.00     0.041 C 
ATOM      6  O   UNL     1      -9.150 -17.870  28.660  1.00  0.00    -0.550 OA
ATOM      7  O   UNL     1      -9.953 -16.074  27.485  1.00  0.00    -0.550 OA
ENDBRANCH   4   5
ENDBRANCH   3   4
ENDBRANCH   2   3
ENDBRANCH   1   2
BRANCH   1   8
ATOM      8  C   UNL     1      -5.517 -18.635  24.001  1.00  0.00     0.000 C 
BRANCH   8   9
ATOM      9  C   UNL     1      -4.134 -19.282  23.863  1.00  0.00     0.006 C 
BRANCH   9  10
ATOM     10  C   UNL     1      -4.128 -20.336  22.752  1.00  0.00     0.053 C 
BRANCH  10  11
ATOM     11  C   UNL     1      -2.725 -20.708  22.391  1.00  0.00     0.041 C 
ATOM     12  O   UNL     1      -2.126 -20.099  21.465  1.00  0.00    -0.550 OA
ATOM     13  O   UNL     1      -2.094 -21.761  23.042  1.00  0.00    -0.550 OA
ENDBRANCH  10  11
ENDBRANCH   9  10
ENDBRANCH   8   9
ENDBRANCH   1   8
TORSDOF 8
ENDMDL
MODEL 3
REMARK VINA RESULT:     9.578      3.326      7.718
REMARK INTER + INTRA:          13.780
REMARK INTER:                  14.057
REMARK INTRA:                  -0.276
REMARK UNBOUND:                -0.277
REMARK SMILES O=C([O-])CCCCCCCC(=O)[O-]
REMARK SMILES IDX 7 1 6 2 5 3 4 4 2 5 1 6 3 7 8 8 9 9 10 10 11 11 12 12 13 13
REMARK H PARENT
REMARK Flexibility Score: inf
ROOT
ATOM      1  C   UNL     1      -9.665 -17.589  27.938  1.00  0.00     0.000 C 
ENDROOT
BRANCH   1   2
ATOM      2  C   UNL     1      -9.243 -17.925  29.377  1.00  0.00     0.000 C 
BRANCH   2   3
ATOM      3  C   UNL     1     -10.025 -17.118  30.427  1.00  0.00     0.006 C 
BRANCH   3   4
ATOM      4  C   UNL     1      -9.712 -17.557  31.862  1.00  0.00     0.053 C 
BRANCH   4   5
ATOM      5  C   UNL     1      -8.244 -17.793  32.028  1.00  0.00     0.041 C 
ATOM      6  O   UNL     1      -7.799 -18.967  32.123  1.00  0.00    -0.550 OA
ATOM      7  O   UNL     1      -7.374 -16.715  32.125  1.00  0.00    -0.550 OA
ENDBRANCH   4   5
ENDBRANCH   3   4
ENDBRANCH   2   3
ENDBRANCH   1   2
BRANCH   1   8
ATOM      8  C   UNL     1      -8.660 -16.638  27.279  1.00  0.00     0.000 C 
BRANCH   8   9
ATOM      9  C   UNL     1      -7.234 -17.195  27.368  1.00  0.00     0.006 C 
BRANCH   9  10
ATOM     10  C   UNL     1      -7.001 -18.278  26.310  1.00  0.00     0.053 C 
BRANCH  10  11
ATOM     11  C   UNL     1      -5.546 -18.381  25.978  1.00  0.00     0.041 C 
ATOM     12  O   UNL     1      -5.175 -18.978  24.933  1.00  0.00    -0.550 OA
ATOM     13  O   UNL     1      -4.595 -17.860  26.847  1.00  0.00    -0.550 OA
ENDBRANCH  10  11
ENDBRANCH   9  10
ENDBRANCH   8   9
ENDBRANCH   1   8
TORSDOF 8
ENDMDL
MODEL 4
REMARK VINA RESULT:    12.080     12.823     13.741
REMARK INTER + INTRA:          17.453
REMARK INTER:                  17.661
REMARK INTRA:                  -0.207
REMARK UNBOUND:                -0.277
REMARK SMILES O=C([O-])CCCCCCCC(=O)[O-]
REMARK SMILES IDX 7 1 6 2 5 3 4 4 2 5 1 6 3 7 8 8 9 9 10 10 11 11 12 12 13 13
REMARK H PARENT
REMARK Flexibility Score: inf
ROOT
ATOM      1  C   UNL     1      -1.326 -13.007  13.231  1.00  0.00     0.000 C 
ENDROOT
BRANCH   1   2
ATOM      2  C   UNL     1      -1.521 -14.506  13.504  1.00  0.00     0.000 C 
BRANCH   2   3
ATOM      3  C   UNL     1      -0.469 -15.073  14.471  1.00  0.00     0.006 C 
BRANCH   3   4
ATOM      4  C   UNL     1       0.720 -15.711  13.742  1.00  0.00     0.053 C 
BRANCH   4   5
ATOM      5  C   UNL     1       1.814 -16.032  14.711  1.00  0.00     0.041 C 
ATOM      6  O   UNL     1       2.573 -17.016  14.505  1.00  0.00    -0.550 OA
ATOM      7  O   UNL     1       1.964 -15.275  15.865  1.00  0.00    -0.550 OA
ENDBRANCH   4   5
ENDBRANCH   3   4
ENDBRANCH   2   3
ENDBRANCH   1   2
BRANCH   1   8
ATOM      8  C   UNL     1      -2.398 -12.481  12.269  1.00  0.00     0.000 C 
BRANCH   8   9
ATOM      9  C   UNL     1      -3.687 -12.126  13.021  1.00  0.00     0.006 C 
BRANCH   9  10
ATOM     10  C   UNL     1      -4.244 -10.780  12.550  1.00  0.00     0.053 C 
BRANCH  10  11
ATOM     11  C   UNL     1      -4.316  -9.815  13.691  1.00  0.00     0.041 C 
ATOM     12  O   UNL     1      -4.309  -8.575  13.475  1.00  0.00    -0.550 OA
ATOM     13  O   UNL     1      -4.341 -10.286  14.999  1.00  0.00    -0.550 OA
ENDBRANCH  10  11
ENDBRANCH   9  10
ENDBRANCH   8   9
ENDBRANCH   1   8
TORSDOF 8
ENDMDL
MODEL 5
REMARK VINA RESULT:    12.103     12.932     15.029
REMARK INTER + INTRA:          17.487
REMARK INTER:                  17.700
REMARK INTRA:                  -0.213
REMARK UNBOUND:                -0.277
REMARK SMILES O=C([O-])CCCCCCCC(=O)[O-]
REMARK SMILES IDX 7 1 6 2 5 3 4 4 2 5 1 6 3 7 8 8 9 9 10 10 11 11 12 12 13 13
REMARK H PARENT
REMARK Flexibility Score: inf
ROOT
ATOM      1  C   UNL     1      -1.410 -12.975  13.270  1.00  0.00     0.000 C 
ENDROOT
BRANCH   1   2
ATOM      2  C   UNL     1      -2.480 -12.537  12.259  1.00  0.00     0.000 C 
BRANCH   2   3
ATOM      3  C   UNL     1      -3.801 -12.133  12.933  1.00  0.00     0.006 C 
BRANCH   3   4
ATOM      4  C   UNL     1      -4.270 -10.732  12.522  1.00  0.00     0.053 C 
BRANCH   4   5
ATOM      5  C   UNL     1      -4.273  -9.816  13.704  1.00  0.00     0.041 C 
ATOM      6  O   UNL     1      -4.271 -10.289  14.871  1.00  0.00    -0.550 OA
ATOM      7  O   UNL     1      -4.326  -8.440  13.518  1.00  0.00    -0.550 OA
ENDBRANCH   4   5
ENDBRANCH   3   4
ENDBRANCH   2   3
ENDBRANCH   1   2
BRANCH   1   8
ATOM      8  C   UNL     1      -1.443 -14.493  13.481  1.00  0.00     0.000 C 
BRANCH   8   9
ATOM      9  C   UNL     1      -0.352 -14.938  14.463  1.00  0.00     0.006 C 
BRANCH   9  10
ATOM     10  C   UNL     1       0.779 -15.668  13.733  1.00  0.00     0.053 C 
BRANCH  10  11
ATOM     11  C   UNL     1       1.853 -16.065  14.696  1.00  0.00     0.041 C 
ATOM     12  O   UNL     1       2.137 -15.321  15.671  1.00  0.00    -0.550 OA
ATOM     13  O   UNL     1       2.575 -17.234  14.489  1.00  0.00    -0.550 OA
ENDBRANCH  10  11
ENDBRANCH   9  10
ENDBRANCH   8   9
ENDBRANCH   1   8
TORSDOF 8
ENDMDL
