MODEL 1
REMARK VINA RESULT:    -3.249      0.000      0.000
REMARK INTER + INTRA:          -8.398
REMARK INTER:                  -6.097
REMARK INTRA:                  -2.301
REMARK UNBOUND:                -2.301
REMARK SMILES O=C([O-])CCCCCCCCCCCCCCC(=O)[O-]
REMARK SMILES IDX 10 1 9 2 8 3 7 4 6 5 5 6 4 7 2 8 1 9 3 10 11 11 12 12 13 13
REMARK SMILES IDX 14 14 15 15 16 16 17 17 18 18 19 19 20 20
REMARK H PARENT
REMARK Flexibility Score: inf
ROOT
ATOM      1  C   UNL     1      88.729  29.277  25.383  1.00  0.00     0.000 C 
ENDROOT
BRANCH   1   2
ATOM      2  C   UNL     1      87.950  28.027  25.820  1.00  0.00     0.000 C 
BRANCH   2   3
ATOM      3  C   UNL     1      86.436  28.163  25.596  1.00  0.00     0.000 C 
BRANCH   3   4
ATOM      4  C   UNL     1      85.652  27.410  26.677  1.00  0.00     0.000 C 
BRANCH   4   5
ATOM      5  C   UNL     1      86.600  26.801  27.721  1.00  0.00     0.000 C 
BRANCH   5   6
ATOM      6  C   UNL     1      85.885  25.841  28.689  1.00  0.00     0.006 C 
BRANCH   6   7
ATOM      7  C   UNL     1      85.855  24.377  28.222  1.00  0.00     0.053 C 
BRANCH   7   8
ATOM      8  C   UNL     1      84.560  23.705  28.564  1.00  0.00     0.041 C 
ATOM      9  O   UNL     1      83.975  22.988  27.710  1.00  0.00    -0.550 OA
ATOM     10  O   UNL     1      83.985  23.898  29.812  1.00  0.00    -0.550 OA
ENDBRANCH   7   8
ENDBRANCH   6   7
ENDBRANCH   5   6
ENDBRANCH   4   5
ENDBRANCH   3   4
ENDBRANCH   2   3
ENDBRANCH   1   2
BRANCH   1  11
ATOM     11  C   UNL     1      89.613  29.846  26.503  1.00  0.00     0.000 C 
BRANCH  11  12
ATOM     12  C   UNL     1      89.681  28.879  27.693  1.00  0.00     0.000 C 
BRANCH  12  13
ATOM     13  C   UNL     1      89.018  29.443  28.962  1.00  0.00     0.000 C 
BRANCH  13  14
ATOM     14  C   UNL     1      88.072  30.631  28.690  1.00  0.00     0.000 C 
BRANCH  14  15
ATOM     15  C   UNL     1      86.617  30.314  29.077  1.00  0.00     0.000 C 
BRANCH  15  16
ATOM     16  C   UNL     1      85.598  30.908  28.091  1.00  0.00     0.006 C 
BRANCH  16  17
ATOM     17  C   UNL     1      86.260  31.490  26.836  1.00  0.00     0.053 C 
BRANCH  17  18
ATOM     18  C   UNL     1      85.324  32.423  26.136  1.00  0.00     0.041 C 
ATOM     19  O   UNL     1      85.709  33.065  25.123  1.00  0.00    -0.550 OA
ATOM     20  O   UNL     1      84.010  32.546  26.571  1.00  0.00    -0.550 OA
ENDBRANCH  17  18
ENDBRANCH  16  17
ENDBRANCH  15  16
ENDBRANCH  14  15
ENDBRANCH  13  14
ENDBRANCH  12  13
ENDBRANCH  11  12
ENDBRANCH   1  11
TORSDOF 15
ENDMDL
MODEL 2
REMARK VINA RESULT:    -3.236      2.010      3.242
REMARK INTER + INTRA:          -8.375
REMARK INTER:                  -5.869
REMARK INTRA:                  -2.506
REMARK UNBOUND:                -2.301
REMARK SMILES O=C([O-])CCCCCCCCCCCCCCC(=O)[O-]
REMARK SMILES IDX 10 1 9 2 8 3 7 4 6 5 5 6 4 7 2 8 1 9 3 10 11 11 12 12 13 13
REMARK SMILES IDX 14 14 15 15 16 16 17 17 18 18 19 19 20 20
REMARK H PARENT
REMARK Flexibility Score: inf
ROOT
ATOM      1  C   UNL     1      89.300  29.413  26.218  1.00  0.00     0.000 C 
ENDROOT
BRANCH   1   2
ATOM      2  C   UNL     1      89.652  28.888  27.619  1.00  0.00     0.000 C 
BRANCH   2   3
ATOM      3  C   UNL     1      89.129  29.797  28.742  1.00  0.00     0.000 C 
BRANCH   3   4
ATOM      4  C   UNL     1      87.820  29.252  29.325  1.00  0.00     0.000 C 
BRANCH   4   5
ATOM      5  C   UNL     1      87.741  27.725  29.166  1.00  0.00     0.000 C 
BRANCH   5   6
ATOM      6  C   UNL     1      86.320  27.233  28.837  1.00  0.00     0.006 C 
BRANCH   6   7
ATOM      7  C   UNL     1      86.228  26.370  27.568  1.00  0.00     0.053 C 
BRANCH   7   8
ATOM      8  C   UNL     1      85.438  25.118  27.796  1.00  0.00     0.041 C 
ATOM      9  O   UNL     1      85.944  24.159  28.436  1.00  0.00    -0.550 OA
ATOM     10  O   UNL     1      84.157  24.999  27.275  1.00  0.00    -0.550 OA
ENDBRANCH   7   8
ENDBRANCH   6   7
ENDBRANCH   5   6
ENDBRANCH   4   5
ENDBRANCH   3   4
ENDBRANCH   2   3
ENDBRANCH   1   2
BRANCH   1  11
ATOM     11  C   UNL     1      88.158  28.624  25.559  1.00  0.00     0.000 C 
BRANCH  11  12
ATOM     12  C   UNL     1      86.909  29.500  25.393  1.00  0.00     0.000 C 
BRANCH  12  13
ATOM     13  C   UNL     1      87.171  30.983  25.709  1.00  0.00     0.000 C 
BRANCH  13  14
ATOM     14  C   UNL     1      86.308  31.531  26.864  1.00  0.00     0.000 C 
BRANCH  14  15
ATOM     15  C   UNL     1      85.061  30.665  27.120  1.00  0.00     0.000 C 
BRANCH  15  16
ATOM     16  C   UNL     1      84.653  30.634  28.601  1.00  0.00     0.006 C 
BRANCH  16  17
ATOM     17  C   UNL     1      85.265  31.786  29.407  1.00  0.00     0.053 C 
BRANCH  17  18
ATOM     18  C   UNL     1      84.368  32.165  30.542  1.00  0.00     0.041 C 
ATOM     19  O   UNL     1      84.257  31.407  31.542  1.00  0.00    -0.550 OA
ATOM     20  O   UNL     1      83.692  33.378  30.519  1.00  0.00    -0.550 OA
ENDBRANCH  17  18
ENDBRANCH  16  17
ENDBRANCH  15  16
ENDBRANCH  14  15
ENDBRANCH  13  14
ENDBRANCH  12  13
ENDBRANCH  11  12
ENDBRANCH   1  11
TORSDOF 15
ENDMDL
MODEL 3
REMARK VINA RESULT:    -3.199      2.143      7.324
REMARK INTER + INTRA:          -8.306
REMARK INTER:                  -6.796
REMARK INTRA:                  -1.510
REMARK UNBOUND:                -2.301
REMARK SMILES O=C([O-])CCCCCCCCCCCCCCC(=O)[O-]
REMARK SMILES IDX 10 1 9 2 8 3 7 4 6 5 5 6 4 7 2 8 1 9 3 10 11 11 12 12 13 13
REMARK SMILES IDX 14 14 15 15 16 16 17 17 18 18 19 19 20 20
REMARK H PARENT
REMARK Flexibility Score: inf
ROOT
ATOM      1  C   UNL     1      85.487  28.862  27.273  1.00  0.00     0.000 C 
ENDROOT
BRANCH   1   2
ATOM      2  C   UNL     1      85.728  29.617  28.590  1.00  0.00     0.000 C 
BRANCH   2   3
ATOM      3  C   UNL     1      87.186  30.073  28.755  1.00  0.00     0.000 C 
BRANCH   3   4
ATOM      4  C   UNL     1      88.076  28.911  29.211  1.00  0.00     0.000 C 
BRANCH   4   5
ATOM      5  C   UNL     1      89.408  28.906  28.446  1.00  0.00     0.000 C 
BRANCH   5   6
ATOM      6  C   UNL     1      89.225  28.712  26.930  1.00  0.00     0.006 C 
BRANCH   6   7
ATOM      7  C   UNL     1      89.625  29.931  26.083  1.00  0.00     0.053 C 
BRANCH   7   8
ATOM      8  C   UNL     1      88.554  30.314  25.108  1.00  0.00     0.041 C 
ATOM      9  O   UNL     1      87.708  31.195  25.411  1.00  0.00    -0.550 OA
ATOM     10  O   UNL     1      88.471  29.673  23.879  1.00  0.00    -0.550 OA
ENDBRANCH   7   8
ENDBRANCH   6   7
ENDBRANCH   5   6
ENDBRANCH   4   5
ENDBRANCH   3   4
ENDBRANCH   2   3
ENDBRANCH   1   2
BRANCH   1  11
ATOM     11  C   UNL     1      84.933  27.447  27.495  1.00  0.00     0.000 C 
BRANCH  11  12
ATOM     12  C   UNL     1      86.057  26.403  27.448  1.00  0.00     0.000 C 
BRANCH  12  13
ATOM     13  C   UNL     1      85.948  25.354  28.569  1.00  0.00     0.000 C 
BRANCH  13  14
ATOM     14  C   UNL     1      85.949  23.898  28.057  1.00  0.00     0.000 C 
BRANCH  14  15
ATOM     15  C   UNL     1      84.617  23.182  28.341  1.00  0.00     0.000 C 
BRANCH  15  16
ATOM     16  C   UNL     1      83.699  23.984  29.277  1.00  0.00     0.006 C 
BRANCH  16  17
ATOM     17  C   UNL     1      82.952  23.092  30.277  1.00  0.00     0.053 C 
BRANCH  17  18
ATOM     18  C   UNL     1      82.879  23.756  31.615  1.00  0.00     0.041 C 
ATOM     19  O   UNL     1      83.327  23.172  32.637  1.00  0.00    -0.550 OA
ATOM     20  O   UNL     1      82.362  25.040  31.728  1.00  0.00    -0.550 OA
ENDBRANCH  17  18
ENDBRANCH  16  17
ENDBRANCH  15  16
ENDBRANCH  14  15
ENDBRANCH  13  14
ENDBRANCH  12  13
ENDBRANCH  11  12
ENDBRANCH   1  11
TORSDOF 15
ENDMDL
MODEL 4
REMARK VINA RESULT:    -3.191      2.448      2.808
REMARK INTER + INTRA:          -8.290
REMARK INTER:                  -6.392
REMARK INTRA:                  -1.898
REMARK UNBOUND:                -2.301
REMARK SMILES O=C([O-])CCCCCCCCCCCCCCC(=O)[O-]
REMARK SMILES IDX 10 1 9 2 8 3 7 4 6 5 5 6 4 7 2 8 1 9 3 10 11 11 12 12 13 13
REMARK SMILES IDX 14 14 15 15 16 16 17 17 18 18 19 19 20 20
REMARK H PARENT
REMARK Flexibility Score: inf
ROOT
ATOM      1  C   UNL     1      88.713  29.374  25.110  1.00  0.00     0.000 C 
ENDROOT
BRANCH   1   2
ATOM      2  C   UNL     1      87.779  28.206  25.463  1.00  0.00     0.000 C 
BRANCH   2   3
ATOM      3  C   UNL     1      86.328  28.656  25.694  1.00  0.00     0.000 C 
BRANCH   3   4
ATOM      4  C   UNL     1      85.696  27.891  26.862  1.00  0.00     0.000 C 
BRANCH   4   5
ATOM      5  C   UNL     1      86.599  26.732  27.314  1.00  0.00     0.000 C 
BRANCH   5   6
ATOM      6  C   UNL     1      86.200  26.167  28.690  1.00  0.00     0.006 C 
BRANCH   6   7
ATOM      7  C   UNL     1      85.491  24.804  28.632  1.00  0.00     0.053 C 
BRANCH   7   8
ATOM      8  C   UNL     1      84.121  24.859  29.235  1.00  0.00     0.041 C 
ATOM      9  O   UNL     1      83.732  23.946  30.009  1.00  0.00    -0.550 OA
ATOM     10  O   UNL     1      83.262  25.903  28.916  1.00  0.00    -0.550 OA
ENDBRANCH   7   8
ENDBRANCH   6   7
ENDBRANCH   5   6
ENDBRANCH   4   5
ENDBRANCH   3   4
ENDBRANCH   2   3
ENDBRANCH   1   2
BRANCH   1  11
ATOM     11  C   UNL     1      89.441  29.942  26.338  1.00  0.00     0.000 C 
BRANCH  11  12
ATOM     12  C   UNL     1      89.678  28.849  27.390  1.00  0.00     0.000 C 
BRANCH  12  13
ATOM     13  C   UNL     1      89.021  29.169  28.744  1.00  0.00     0.000 C 
BRANCH  13  14
ATOM     14  C   UNL     1      88.263  30.513  28.763  1.00  0.00     0.000 C 
BRANCH  14  15
ATOM     15  C   UNL     1      86.760  30.328  29.035  1.00  0.00     0.000 C 
BRANCH  15  16
ATOM     16  C   UNL     1      86.164  31.467  29.875  1.00  0.00     0.006 C 
BRANCH  16  17
ATOM     17  C   UNL     1      84.707  31.204  30.278  1.00  0.00     0.053 C 
BRANCH  17  18
ATOM     18  C   UNL     1      84.430  31.768  31.635  1.00  0.00     0.041 C 
ATOM     19  O   UNL     1      83.243  31.934  32.023  1.00  0.00    -0.550 OA
ATOM     20  O   UNL     1      85.482  32.062  32.494  1.00  0.00    -0.550 OA
ENDBRANCH  17  18
ENDBRANCH  16  17
ENDBRANCH  15  16
ENDBRANCH  14  15
ENDBRANCH  13  14
ENDBRANCH  12  13
ENDBRANCH  11  12
ENDBRANCH   1  11
TORSDOF 15
ENDMDL
MODEL 5
REMARK VINA RESULT:    -3.096      1.787      5.935
REMARK INTER + INTRA:          -8.111
REMARK INTER:                  -5.933
REMARK INTRA:                  -2.178
REMARK UNBOUND:                -2.301
REMARK SMILES O=C([O-])CCCCCCCCCCCCCCC(=O)[O-]
REMARK SMILES IDX 10 1 9 2 8 3 7 4 6 5 5 6 4 7 2 8 1 9 3 10 11 11 12 12 13 13
REMARK SMILES IDX 14 14 15 15 16 16 17 17 18 18 19 19 20 20
REMARK H PARENT
REMARK Flexibility Score: inf
ROOT
ATOM      1  C   UNL     1      89.406  28.608  27.184  1.00  0.00     0.000 C 
ENDROOT
BRANCH   1   2
ATOM      2  C   UNL     1      88.836  29.607  26.166  1.00  0.00     0.000 C 
BRANCH   2   3
ATOM      3  C   UNL     1      87.648  29.036  25.375  1.00  0.00     0.000 C 
BRANCH   3   4
ATOM      4  C   UNL     1      86.403  29.915  25.544  1.00  0.00     0.000 C 
BRANCH   4   5
ATOM      5  C   UNL     1      86.729  31.182  26.350  1.00  0.00     0.000 C 
BRANCH   5   6
ATOM      6  C   UNL     1      85.847  31.335  27.603  1.00  0.00     0.006 C 
BRANCH   6   7
ATOM      7  C   UNL     1      84.610  30.423  27.621  1.00  0.00     0.053 C 
BRANCH   7   8
ATOM      8  C   UNL     1      83.840  30.547  28.900  1.00  0.00     0.041 C 
ATOM      9  O   UNL     1      84.360  31.109  29.899  1.00  0.00    -0.550 OA
ATOM     10  O   UNL     1      82.562  30.013  28.997  1.00  0.00    -0.550 OA
ENDBRANCH   7   8
ENDBRANCH   6   7
ENDBRANCH   5   6
ENDBRANCH   4   5
ENDBRANCH   3   4
ENDBRANCH   2   3
ENDBRANCH   1   2
BRANCH   1  11
ATOM     11  C   UNL     1      89.257  29.091  28.635  1.00  0.00     0.000 C 
BRANCH  11  12
ATOM     12  C   UNL     1      87.815  28.911  29.129  1.00  0.00     0.000 C 
BRANCH  12  13
ATOM     13  C   UNL     1      87.399  27.434  29.237  1.00  0.00     0.000 C 
BRANCH  13  14
ATOM     14  C   UNL     1      86.060  27.115  28.539  1.00  0.00     0.000 C 
BRANCH  14  15
ATOM     15  C   UNL     1      86.258  26.303  27.247  1.00  0.00     0.000 C 
BRANCH  15  16
ATOM     16  C   UNL     1      85.359  25.059  27.184  1.00  0.00     0.006 C 
BRANCH  16  17
ATOM     17  C   UNL     1      85.563  24.121  28.380  1.00  0.00     0.053 C 
BRANCH  17  18
ATOM     18  C   UNL     1      84.247  23.615  28.878  1.00  0.00     0.041 C 
ATOM     19  O   UNL     1      83.533  22.878  28.147  1.00  0.00    -0.550 OA
ATOM     20  O   UNL     1      83.830  23.914  30.169  1.00  0.00    -0.550 OA
ENDBRANCH  17  18
ENDBRANCH  16  17
ENDBRANCH  15  16
ENDBRANCH  14  15
ENDBRANCH  13  14
ENDBRANCH  12  13
ENDBRANCH  11  12
ENDBRANCH   1  11
TORSDOF 15
ENDMDL
MODEL 6
REMARK VINA RESULT:    -3.082      2.209      6.225
REMARK INTER + INTRA:          -8.086
REMARK INTER:                  -5.966
REMARK INTRA:                  -2.120
REMARK UNBOUND:                -2.301
REMARK SMILES O=C([O-])CCCCCCCCCCCCCCC(=O)[O-]
REMARK SMILES IDX 10 1 9 2 8 3 7 4 6 5 5 6 4 7 2 8 1 9 3 10 11 11 12 12 13 13
REMARK SMILES IDX 14 14 15 15 16 16 17 17 18 18 19 19 20 20
REMARK H PARENT
REMARK Flexibility Score: inf
ROOT
ATOM      1  C   UNL     1      88.502  29.342  26.077  1.00  0.00     0.000 C 
ENDROOT
BRANCH   1   2
ATOM      2  C   UNL     1      89.562  28.842  27.070  1.00  0.00     0.000 C 
BRANCH   2   3
ATOM      3  C   UNL     1      89.196  29.146  28.531  1.00  0.00     0.000 C 
BRANCH   3   4
ATOM      4  C   UNL     1      88.278  30.370  28.624  1.00  0.00     0.000 C 
BRANCH   4   5
ATOM      5  C   UNL     1      87.030  30.059  29.465  1.00  0.00     0.000 C 
BRANCH   5   6
ATOM      6  C   UNL     1      85.727  30.539  28.801  1.00  0.00     0.006 C 
BRANCH   6   7
ATOM      7  C   UNL     1      85.298  31.959  29.204  1.00  0.00     0.053 C 
BRANCH   7   8
ATOM      8  C   UNL     1      85.114  32.090  30.685  1.00  0.00     0.041 C 
ATOM      9  O   UNL     1      85.804  32.915  31.338  1.00  0.00    -0.550 OA
ATOM     10  O   UNL     1      84.203  31.277  31.347  1.00  0.00    -0.550 OA
ENDBRANCH   7   8
ENDBRANCH   6   7
ENDBRANCH   5   6
ENDBRANCH   4   5
ENDBRANCH   3   4
ENDBRANCH   2   3
ENDBRANCH   1   2
BRANCH   1  11
ATOM     11  C   UNL     1      88.042  28.248  25.101  1.00  0.00     0.000 C 
BRANCH  11  12
ATOM     12  C   UNL     1      86.518  28.073  25.151  1.00  0.00     0.000 C 
BRANCH  12  13
ATOM     13  C   UNL     1      85.987  27.850  26.577  1.00  0.00     0.000 C 
BRANCH  13  14
ATOM     14  C   UNL     1      86.455  26.524  27.212  1.00  0.00     0.000 C 
BRANCH  14  15
ATOM     15  C   UNL     1      86.181  26.476  28.726  1.00  0.00     0.000 C 
BRANCH  15  16
ATOM     16  C   UNL     1      84.758  26.931  29.086  1.00  0.00     0.006 C 
BRANCH  16  17
ATOM     17  C   UNL     1      83.687  25.925  28.649  1.00  0.00     0.053 C 
BRANCH  17  18
ATOM     18  C   UNL     1      83.402  24.954  29.749  1.00  0.00     0.041 C 
ATOM     19  O   UNL     1      83.989  23.840  29.779  1.00  0.00    -0.550 OA
ATOM     20  O   UNL     1      82.526  25.298  30.772  1.00  0.00    -0.550 OA
ENDBRANCH  17  18
ENDBRANCH  16  17
ENDBRANCH  15  16
ENDBRANCH  14  15
ENDBRANCH  13  14
ENDBRANCH  12  13
ENDBRANCH  11  12
ENDBRANCH   1  11
TORSDOF 15
ENDMDL
MODEL 7
REMARK VINA RESULT:    -3.040      1.126      6.113
REMARK INTER + INTRA:          -8.007
REMARK INTER:                  -5.672
REMARK INTRA:                  -2.335
REMARK UNBOUND:                -2.301
REMARK SMILES O=C([O-])CCCCCCCCCCCCCCC(=O)[O-]
REMARK SMILES IDX 10 1 9 2 8 3 7 4 6 5 5 6 4 7 2 8 1 9 3 10 11 11 12 12 13 13
REMARK SMILES IDX 14 14 15 15 16 16 17 17 18 18 19 19 20 20
REMARK H PARENT
REMARK Flexibility Score: inf
ROOT
ATOM      1  C   UNL     1      89.681  28.509  26.293  1.00  0.00     0.000 C 
ENDROOT
BRANCH   1   2
ATOM      2  C   UNL     1      89.634  29.267  27.629  1.00  0.00     0.000 C 
BRANCH   2   3
ATOM      3  C   UNL     1      88.742  28.576  28.673  1.00  0.00     0.000 C 
BRANCH   3   4
ATOM      4  C   UNL     1      87.791  29.580  29.333  1.00  0.00     0.000 C 
BRANCH   4   5
ATOM      5  C   UNL     1      87.293  30.618  28.315  1.00  0.00     0.000 C 
BRANCH   5   6
ATOM      6  C   UNL     1      85.765  30.797  28.344  1.00  0.00     0.006 C 
BRANCH   6   7
ATOM      7  C   UNL     1      85.187  31.501  27.106  1.00  0.00     0.053 C 
BRANCH   7   8
ATOM      8  C   UNL     1      83.781  31.070  26.820  1.00  0.00     0.041 C 
ATOM      9  O   UNL     1      83.513  29.850  26.660  1.00  0.00    -0.550 OA
ATOM     10  O   UNL     1      82.773  32.017  26.701  1.00  0.00    -0.550 OA
ENDBRANCH   7   8
ENDBRANCH   6   7
ENDBRANCH   5   6
ENDBRANCH   4   5
ENDBRANCH   3   4
ENDBRANCH   2   3
ENDBRANCH   1   2
BRANCH   1  11
ATOM     11  C   UNL     1      88.777  29.139  25.223  1.00  0.00     0.000 C 
BRANCH  11  12
ATOM     12  C   UNL     1      87.703  28.146  24.758  1.00  0.00     0.000 C 
BRANCH  12  13
ATOM     13  C   UNL     1      86.456  28.146  25.659  1.00  0.00     0.000 C 
BRANCH  13  14
ATOM     14  C   UNL     1      86.269  26.837  26.456  1.00  0.00     0.000 C 
BRANCH  14  15
ATOM     15  C   UNL     1      85.497  27.063  27.768  1.00  0.00     0.000 C 
BRANCH  15  16
ATOM     16  C   UNL     1      85.756  25.960  28.807  1.00  0.00     0.006 C 
BRANCH  16  17
ATOM     17  C   UNL     1      85.926  24.576  28.168  1.00  0.00     0.053 C 
BRANCH  17  18
ATOM     18  C   UNL     1      84.737  23.716  28.460  1.00  0.00     0.041 C 
ATOM     19  O   UNL     1      84.175  23.773  29.586  1.00  0.00    -0.550 OA
ATOM     20  O   UNL     1      84.216  22.889  27.473  1.00  0.00    -0.550 OA
ENDBRANCH  17  18
ENDBRANCH  16  17
ENDBRANCH  15  16
ENDBRANCH  14  15
ENDBRANCH  13  14
ENDBRANCH  12  13
ENDBRANCH  11  12
ENDBRANCH   1  11
TORSDOF 15
ENDMDL
MODEL 8
REMARK VINA RESULT:    -3.034      2.571      3.954
REMARK INTER + INTRA:          -7.996
REMARK INTER:                  -5.798
REMARK INTRA:                  -2.198
REMARK UNBOUND:                -2.301
REMARK SMILES O=C([O-])CCCCCCCCCCCCCCC(=O)[O-]
REMARK SMILES IDX 10 1 9 2 8 3 7 4 6 5 5 6 4 7 2 8 1 9 3 10 11 11 12 12 13 13
REMARK SMILES IDX 14 14 15 15 16 16 17 17 18 18 19 19 20 20
REMARK H PARENT
REMARK Flexibility Score: inf
ROOT
ATOM      1  C   UNL     1      84.837  28.866  27.116  1.00  0.00     0.000 C 
ENDROOT
BRANCH   1   2
ATOM      2  C   UNL     1      86.131  28.487  26.379  1.00  0.00     0.000 C 
BRANCH   2   3
ATOM      3  C   UNL     1      86.600  27.060  26.700  1.00  0.00     0.000 C 
BRANCH   3   4
ATOM      4  C   UNL     1      86.429  26.748  28.191  1.00  0.00     0.000 C 
BRANCH   4   5
ATOM      5  C   UNL     1      85.920  25.313  28.398  1.00  0.00     0.000 C 
BRANCH   5   6
ATOM      6  C   UNL     1      84.387  25.234  28.509  1.00  0.00     0.006 C 
BRANCH   6   7
ATOM      7  C   UNL     1      83.772  26.235  29.500  1.00  0.00     0.053 C 
BRANCH   7   8
ATOM      8  C   UNL     1      82.662  25.624  30.300  1.00  0.00     0.041 C 
ATOM      9  O   UNL     1      82.254  24.464  30.032  1.00  0.00    -0.550 OA
ATOM     10  O   UNL     1      82.059  26.349  31.319  1.00  0.00    -0.550 OA
ENDBRANCH   7   8
ENDBRANCH   6   7
ENDBRANCH   5   6
ENDBRANCH   4   5
ENDBRANCH   3   4
ENDBRANCH   2   3
ENDBRANCH   1   2
BRANCH   1  11
ATOM     11  C   UNL     1      84.988  30.138  27.963  1.00  0.00     0.000 C 
BRANCH  11  12
ATOM     12  C   UNL     1      86.369  30.776  27.755  1.00  0.00     0.000 C 
BRANCH  12  13
ATOM     13  C   UNL     1      87.264  30.688  29.004  1.00  0.00     0.000 C 
BRANCH  13  14
ATOM     14  C   UNL     1      88.757  30.467  28.681  1.00  0.00     0.000 C 
BRANCH  14  15
ATOM     15  C   UNL     1      89.149  28.980  28.737  1.00  0.00     0.000 C 
BRANCH  15  16
ATOM     16  C   UNL     1      89.955  28.531  27.509  1.00  0.00     0.006 C 
BRANCH  16  17
ATOM     17  C   UNL     1      89.655  29.376  26.265  1.00  0.00     0.053 C 
BRANCH  17  18
ATOM     18  C   UNL     1      89.885  28.576  25.022  1.00  0.00     0.041 C 
ATOM     19  O   UNL     1      89.004  28.535  24.123  1.00  0.00    -0.550 OA
ATOM     20  O   UNL     1      91.093  27.916  24.833  1.00  0.00    -0.550 OA
ENDBRANCH  17  18
ENDBRANCH  16  17
ENDBRANCH  15  16
ENDBRANCH  14  15
ENDBRANCH  13  14
ENDBRANCH  12  13
ENDBRANCH  11  12
ENDBRANCH   1  11
TORSDOF 15
ENDMDL
MODEL 9
REMARK VINA RESULT:    -3.010      2.337      6.043
REMARK INTER + INTRA:          -7.949
REMARK INTER:                  -5.325
REMARK INTRA:                  -2.624
REMARK UNBOUND:                -2.301
REMARK SMILES O=C([O-])CCCCCCCCCCCCCCC(=O)[O-]
REMARK SMILES IDX 10 1 9 2 8 3 7 4 6 5 5 6 4 7 2 8 1 9 3 10 11 11 12 12 13 13
REMARK SMILES IDX 14 14 15 15 16 16 17 17 18 18 19 19 20 20
REMARK H PARENT
REMARK Flexibility Score: inf
ROOT
ATOM      1  C   UNL     1      87.536  30.688  29.001  1.00  0.00     0.000 C 
ENDROOT
BRANCH   1   2
ATOM      2  C   UNL     1      87.938  29.211  29.135  1.00  0.00     0.000 C 
BRANCH   2   3
ATOM      3  C   UNL     1      89.323  28.916  28.536  1.00  0.00     0.000 C 
BRANCH   3   4
ATOM      4  C   UNL     1      89.273  28.930  27.004  1.00  0.00     0.000 C 
BRANCH   4   5
ATOM      5  C   UNL     1      88.073  28.122  26.485  1.00  0.00     0.000 C 
BRANCH   5   6
ATOM      6  C   UNL     1      87.366  28.799  25.298  1.00  0.00     0.006 C 
BRANCH   6   7
ATOM      7  C   UNL     1      86.319  27.918  24.599  1.00  0.00     0.053 C 
BRANCH   7   8
ATOM      8  C   UNL     1      86.647  27.694  23.154  1.00  0.00     0.041 C 
ATOM      9  O   UNL     1      87.353  26.711  22.810  1.00  0.00    -0.550 OA
ATOM     10  O   UNL     1      86.199  28.591  22.193  1.00  0.00    -0.550 OA
ENDBRANCH   7   8
ENDBRANCH   6   7
ENDBRANCH   5   6
ENDBRANCH   4   5
ENDBRANCH   3   4
ENDBRANCH   2   3
ENDBRANCH   1   2
BRANCH   1  11
ATOM     11  C   UNL     1      86.157  30.869  28.349  1.00  0.00     0.000 C 
BRANCH  11  12
ATOM     12  C   UNL     1      85.186  29.771  28.804  1.00  0.00     0.000 C 
BRANCH  12  13
ATOM     13  C   UNL     1      84.466  29.084  27.631  1.00  0.00     0.000 C 
BRANCH  13  14
ATOM     14  C   UNL     1      84.379  27.550  27.771  1.00  0.00     0.000 C 
BRANCH  14  15
ATOM     15  C   UNL     1      85.073  27.043  29.048  1.00  0.00     0.000 C 
BRANCH  15  16
ATOM     16  C   UNL     1      86.106  25.941  28.766  1.00  0.00     0.006 C 
BRANCH  16  17
ATOM     17  C   UNL     1      85.883  25.255  27.412  1.00  0.00     0.053 C 
BRANCH  17  18
ATOM     18  C   UNL     1      85.418  23.848  27.610  1.00  0.00     0.041 C 
ATOM     19  O   UNL     1      86.253  22.928  27.818  1.00  0.00    -0.550 OA
ATOM     20  O   UNL     1      84.059  23.558  27.617  1.00  0.00    -0.550 OA
ENDBRANCH  17  18
ENDBRANCH  16  17
ENDBRANCH  15  16
ENDBRANCH  14  15
ENDBRANCH  13  14
ENDBRANCH  12  13
ENDBRANCH  11  12
ENDBRANCH   1  11
TORSDOF 15
ENDMDL
