MODEL 1
REMARK VINA RESULT:    -4.462      0.000      0.000
REMARK INTER + INTRA:          -4.068
REMARK INTER:                  -6.288
REMARK INTRA:                   2.220
REMARK UNBOUND:                 2.220
REMARK SMILES CC1=CCC(=C(C)C)C(=O)CC(C)=CCC1
REMARK SMILES IDX 12 1 14 2 13 3 15 4 16 5 2 6 1 7 3 8 11 10 9 11 10 12 5 13
REMARK SMILES IDX 6 14 7 15 8 16 4 17
REMARK H PARENT
REMARK Flexibility Score: 60.00
ROOT
ATOM      1  C   UNL     1       3.365 142.882  -8.195  1.00  0.00    -0.070 C 
ATOM      2  C   UNL     1       4.611 142.757  -8.722  1.00  0.00    -0.027 C 
ATOM      3  C   UNL     1       2.285 141.991  -8.758  1.00  0.00     0.039 C 
ENDROOT
BRANCH   2   4
ATOM      4  C   UNL     1       5.810 143.610  -8.385  1.00  0.00     0.032 C 
BRANCH   4   5
ATOM      5  C   UNL     1       5.534 144.637  -7.278  1.00  0.00     0.034 C 
BRANCH   5   6
ATOM      6  C   UNL     1       5.511 146.038  -7.856  1.00  0.00    -0.077 C 
ATOM      7  C   UNL     1       6.379 146.332  -9.053  1.00  0.00     0.039 C 
ATOM      8  C   UNL     1       4.694 147.018  -7.404  1.00  0.00    -0.023 CG0
ATOM      9  G   UNL     1       3.770 146.916  -6.214  1.00  0.00     0.000 G0
ENDBRANCH   5   6
ENDBRANCH   4   5
ENDBRANCH   2   4
BRANCH   1  10
ATOM     10  C   UNL     1       3.009 143.799  -7.028  1.00  0.00     0.111 C 
BRANCH  10  11
ATOM     11  C   UNL     1       2.359 145.095  -7.444  1.00  0.00     0.163 C 
ATOM     12  O   UNL     1       1.718 145.105  -8.531  1.00  0.00    -0.294 OA
BRANCH  11  13
ATOM     13  C   UNL     1       2.398 146.331  -6.594  1.00  0.00    -0.002 C 
ATOM     14  C   UNL     1       1.237 146.951  -6.208  1.00  0.00    -0.069 C 
ATOM     15  C   UNL     1       1.251 148.251  -5.434  1.00  0.00     0.039 C 
ATOM     16  C   UNL     1      -0.120 146.345  -6.490  1.00  0.00     0.039 C 
BRANCH  13  17
ATOM     17  C   UNL     1       3.755 146.919  -6.214  1.00  0.00     0.066 CG0
ATOM     18  G   UNL     1       4.689 147.008  -7.398  1.00  0.00     0.000 G0
ENDBRANCH  13  17
ENDBRANCH  11  13
ENDBRANCH  10  11
ENDBRANCH   1  10
TORSDOF 0
ENDMDL
MODEL 2
REMARK VINA RESULT:    -3.660      1.892      3.367
REMARK INTER + INTRA:          -2.937
REMARK INTER:                  -4.379
REMARK INTRA:                   1.442
REMARK UNBOUND:                 2.220
REMARK SMILES CC1=CCC(=C(C)C)C(=O)CC(C)=CCC1
REMARK SMILES IDX 12 1 14 2 13 3 15 4 16 5 2 6 1 7 3 8 11 10 9 11 10 12 5 13
REMARK SMILES IDX 6 14 7 15 8 16 4 17
REMARK H PARENT
REMARK Flexibility Score: 60.00
ROOT
ATOM      1  C   UNL     1       6.000 144.353  -6.465  1.00  0.00    -0.070 C 
ATOM      2  C   UNL     1       5.971 143.073  -6.920  1.00  0.00    -0.027 C 
ATOM      3  C   UNL     1       6.264 144.557  -4.993  1.00  0.00     0.039 C 
ENDROOT
BRANCH   2   4
ATOM      4  C   UNL     1       5.625 142.633  -8.322  1.00  0.00     0.032 C 
BRANCH   4   5
ATOM      5  C   UNL     1       4.869 143.701  -9.124  1.00  0.00     0.034 C 
BRANCH   5   6
ATOM      6  C   UNL     1       3.374 143.529  -8.947  1.00  0.00    -0.077 C 
ATOM      7  C   UNL     1       2.803 142.136  -9.005  1.00  0.00     0.039 C 
ATOM      8  C   UNL     1       2.534 144.552  -8.662  1.00  0.00    -0.023 CG0
ATOM      9  G   UNL     1       2.918 146.011  -8.578  1.00  0.00     0.000 G0
ENDBRANCH   5   6
ENDBRANCH   4   5
ENDBRANCH   2   4
BRANCH   1  10
ATOM     10  C   UNL     1       5.861 145.588  -7.351  1.00  0.00     0.111 C 
BRANCH  10  11
ATOM     11  C   UNL     1       4.823 146.571  -6.873  1.00  0.00     0.163 C 
ATOM     12  O   UNL     1       5.227 147.587  -6.242  1.00  0.00    -0.294 OA
BRANCH  11  13
ATOM     13  C   UNL     1       3.360 146.416  -7.172  1.00  0.00    -0.002 C 
ATOM     14  C   UNL     1       2.424 146.579  -6.184  1.00  0.00    -0.069 C 
ATOM     15  C   UNL     1       0.952 146.333  -6.437  1.00  0.00     0.039 C 
ATOM     16  C   UNL     1       2.801 147.061  -4.801  1.00  0.00     0.039 C 
BRANCH  13  17
ATOM     17  C   UNL     1       2.937 146.019  -8.585  1.00  0.00     0.066 CG0
ATOM     18  G   UNL     1       2.517 144.570  -8.668  1.00  0.00     0.000 G0
ENDBRANCH  13  17
ENDBRANCH  11  13
ENDBRANCH  10  11
ENDBRANCH   1  10
TORSDOF 0
ENDMDL
MODEL 3
REMARK VINA RESULT:    -3.191      1.997      4.871
REMARK INTER + INTRA:          -2.277
REMARK INTER:                  -2.829
REMARK INTRA:                   0.552
REMARK UNBOUND:                 2.220
REMARK SMILES CC1=CCC(=C(C)C)C(=O)CC(C)=CCC1
REMARK SMILES IDX 12 1 14 2 13 3 15 4 16 5 2 6 1 7 3 8 11 10 9 11 10 12 5 13
REMARK SMILES IDX 6 14 7 15 8 16 4 17
REMARK H PARENT
REMARK Flexibility Score: 60.00
ROOT
ATOM      1  C   UNL     1       4.780 146.881  -7.580  1.00  0.00    -0.070 C 
ATOM      2  C   UNL     1       3.783 147.516  -6.910  1.00  0.00    -0.027 C 
ATOM      3  C   UNL     1       4.754 146.952  -9.087  1.00  0.00     0.039 C 
ENDROOT
BRANCH   2   4
ATOM      4  C   UNL     1       3.554 147.490  -5.418  1.00  0.00     0.032 C 
BRANCH   4   5
ATOM      5  C   UNL     1       2.854 146.214  -4.933  1.00  0.00     0.034 C 
BRANCH   5   6
ATOM      6  C   UNL     1       1.974 145.649  -6.031  1.00  0.00    -0.077 C 
ATOM      7  C   UNL     1       0.802 146.471  -6.501  1.00  0.00     0.039 C 
ATOM      8  C   UNL     1       2.231 144.481  -6.665  1.00  0.00    -0.023 CG0
ATOM      9  G   UNL     1       3.345 143.519  -6.325  1.00  0.00     0.000 G0
ENDBRANCH   5   6
ENDBRANCH   4   5
ENDBRANCH   2   4
BRANCH   1  10
ATOM     10  C   UNL     1       5.955 146.174  -6.911  1.00  0.00     0.111 C 
BRANCH  10  11
ATOM     11  C   UNL     1       5.632 144.790  -6.409  1.00  0.00     0.163 C 
ATOM     12  O   UNL     1       6.181 144.414  -5.337  1.00  0.00    -0.294 OA
BRANCH  11  13
ATOM     13  C   UNL     1       4.650 143.886  -7.096  1.00  0.00    -0.002 C 
ATOM     14  C   UNL     1       4.881 143.446  -8.374  1.00  0.00    -0.069 C 
ATOM     15  C   UNL     1       3.862 142.615  -9.123  1.00  0.00     0.039 C 
ATOM     16  C   UNL     1       6.185 143.724  -9.088  1.00  0.00     0.039 C 
BRANCH  13  17
ATOM     17  C   UNL     1       3.362 143.510  -6.366  1.00  0.00     0.066 CG0
ATOM     18  G   UNL     1       2.243 144.485  -6.648  1.00  0.00     0.000 G0
ENDBRANCH  13  17
ENDBRANCH  11  13
ENDBRANCH  10  11
ENDBRANCH   1  10
TORSDOF 0
ENDMDL
MODEL 4
REMARK VINA RESULT:    -2.689      1.854      4.520
REMARK INTER + INTRA:          -1.569
REMARK INTER:                  -4.224
REMARK INTRA:                   2.655
REMARK UNBOUND:                 2.220
REMARK SMILES CC1=CCC(=C(C)C)C(=O)CC(C)=CCC1
REMARK SMILES IDX 12 1 14 2 13 3 15 4 16 5 2 6 1 7 3 8 11 10 9 11 10 12 5 13
REMARK SMILES IDX 6 14 7 15 8 16 4 17
REMARK H PARENT
REMARK Flexibility Score: 60.00
ROOT
ATOM      1  C   UNL     1       1.728 146.781  -6.777  1.00  0.00    -0.070 C 
ATOM      2  C   UNL     1       1.144 145.687  -7.332  1.00  0.00    -0.027 C 
ATOM      3  C   UNL     1       1.106 147.332  -5.518  1.00  0.00     0.039 C 
ENDROOT
BRANCH   2   4
ATOM      4  C   UNL     1       1.532 145.035  -8.638  1.00  0.00     0.032 C 
BRANCH   4   5
ATOM      5  C   UNL     1       3.047 144.843  -8.793  1.00  0.00     0.034 C 
BRANCH   5   6
ATOM      6  C   UNL     1       3.465 143.498  -8.233  1.00  0.00    -0.077 C 
ATOM      7  C   UNL     1       2.901 142.253  -8.866  1.00  0.00     0.039 C 
ATOM      8  C   UNL     1       4.380 143.354  -7.245  1.00  0.00    -0.023 CG0
ATOM      9  G   UNL     1       5.040 144.479  -6.483  1.00  0.00     0.000 G0
ENDBRANCH   5   6
ENDBRANCH   4   5
ENDBRANCH   2   4
BRANCH   1  10
ATOM     10  C   UNL     1       3.007 147.433  -7.296  1.00  0.00     0.111 C 
BRANCH  10  11
ATOM     11  C   UNL     1       4.263 146.938  -6.626  1.00  0.00     0.163 C 
ATOM     12  O   UNL     1       4.596 147.477  -5.535  1.00  0.00    -0.294 OA
BRANCH  11  13
ATOM     13  C   UNL     1       5.081 145.804  -7.173  1.00  0.00    -0.002 C 
ATOM     14  C   UNL     1       5.800 145.955  -8.330  1.00  0.00    -0.069 C 
ATOM     15  C   UNL     1       6.553 144.800  -8.954  1.00  0.00     0.039 C 
ATOM     16  C   UNL     1       5.922 147.295  -9.022  1.00  0.00     0.039 C 
BRANCH  13  17
ATOM     17  C   UNL     1       5.053 144.461  -6.446  1.00  0.00     0.066 CG0
ATOM     18  G   UNL     1       4.389 143.382  -7.269  1.00  0.00     0.000 G0
ENDBRANCH  13  17
ENDBRANCH  11  13
ENDBRANCH  10  11
ENDBRANCH   1  10
TORSDOF 0
ENDMDL
MODEL 5
REMARK VINA RESULT:    -2.649      1.672      3.515
REMARK INTER + INTRA:          -1.512
REMARK INTER:                  -2.709
REMARK INTRA:                   1.197
REMARK UNBOUND:                 2.220
REMARK SMILES CC1=CCC(=C(C)C)C(=O)CC(C)=CCC1
REMARK SMILES IDX 12 1 14 2 13 3 15 4 16 5 2 6 1 7 3 8 11 10 9 11 10 12 5 13
REMARK SMILES IDX 6 14 7 15 8 16 4 17
REMARK H PARENT
REMARK Flexibility Score: 60.00
ROOT
ATOM      1  C   UNL     1       5.654 146.156  -8.068  1.00  0.00    -0.070 C 
ATOM      2  C   UNL     1       5.654 144.960  -8.712  1.00  0.00    -0.027 C 
ATOM      3  C   UNL     1       6.149 147.355  -8.838  1.00  0.00     0.039 C 
ENDROOT
BRANCH   2   4
ATOM      4  C   UNL     1       5.301 143.622  -8.108  1.00  0.00     0.032 C 
BRANCH   4   5
ATOM      5  C   UNL     1       3.993 143.035  -8.656  1.00  0.00     0.034 C 
BRANCH   5   6
ATOM      6  C   UNL     1       2.903 143.112  -7.605  1.00  0.00    -0.077 C 
ATOM      7  C   UNL     1       2.594 141.875  -6.802  1.00  0.00     0.039 C 
ATOM      8  C   UNL     1       2.246 144.255  -7.296  1.00  0.00    -0.023 CG0
ATOM      9  G   UNL     1       2.408 145.583  -7.997  1.00  0.00     0.000 G0
ENDBRANCH   5   6
ENDBRANCH   4   5
ENDBRANCH   2   4
BRANCH   1  10
ATOM     10  C   UNL     1       5.117 146.376  -6.656  1.00  0.00     0.111 C 
BRANCH  10  11
ATOM     11  C   UNL     1       3.881 147.236  -6.598  1.00  0.00     0.163 C 
ATOM     12  O   UNL     1       4.030 148.457  -6.316  1.00  0.00    -0.294 OA
BRANCH  11  13
ATOM     13  C   UNL     1       2.511 146.711  -6.918  1.00  0.00    -0.002 C 
ATOM     14  C   UNL     1       1.408 147.187  -6.258  1.00  0.00    -0.069 C 
ATOM     15  C   UNL     1       0.030 146.607  -6.493  1.00  0.00     0.039 C 
ATOM     16  C   UNL     1       1.496 148.352  -5.297  1.00  0.00     0.039 C 
BRANCH  13  17
ATOM     17  C   UNL     1       2.376 145.596  -7.953  1.00  0.00     0.066 CG0
ATOM     18  G   UNL     1       2.240 144.236  -7.311  1.00  0.00     0.000 G0
ENDBRANCH  13  17
ENDBRANCH  11  13
ENDBRANCH  10  11
ENDBRANCH   1  10
TORSDOF 0
ENDMDL
MODEL 6
REMARK VINA RESULT:    -2.603      1.888      4.759
REMARK INTER + INTRA:          -1.448
REMARK INTER:                  -1.879
REMARK INTRA:                   0.431
REMARK UNBOUND:                 2.220
REMARK SMILES CC1=CCC(=C(C)C)C(=O)CC(C)=CCC1
REMARK SMILES IDX 12 1 14 2 13 3 15 4 16 5 2 6 1 7 3 8 11 10 9 11 10 12 5 13
REMARK SMILES IDX 6 14 7 15 8 16 4 17
REMARK H PARENT
REMARK Flexibility Score: 60.00
ROOT
ATOM      1  C   UNL     1       4.880 145.965  -5.731  1.00  0.00    -0.070 C 
ATOM      2  C   UNL     1       3.752 146.227  -5.020  1.00  0.00    -0.027 C 
ATOM      3  C   UNL     1       5.724 144.797  -5.283  1.00  0.00     0.039 C 
ENDROOT
BRANCH   2   4
ATOM      4  C   UNL     1       2.821 147.397  -5.225  1.00  0.00     0.032 C 
BRANCH   4   5
ATOM      5  C   UNL     1       2.294 147.509  -6.662  1.00  0.00     0.034 C 
BRANCH   5   6
ATOM      6  C   UNL     1       1.446 146.300  -7.005  1.00  0.00    -0.077 C 
ATOM      7  C   UNL     1       0.252 145.995  -6.139  1.00  0.00     0.039 C 
ATOM      8  C   UNL     1       1.660 145.525  -8.095  1.00  0.00    -0.023 CG0
ATOM      9  G   UNL     1       2.808 145.667  -9.067  1.00  0.00     0.000 G0
ENDBRANCH   5   6
ENDBRANCH   4   5
ENDBRANCH   2   4
BRANCH   1  10
ATOM     10  C   UNL     1       5.302 146.721  -6.988  1.00  0.00     0.111 C 
BRANCH  10  11
ATOM     11  C   UNL     1       5.274 145.886  -8.243  1.00  0.00     0.163 C 
ATOM     12  O   UNL     1       6.300 145.901  -8.979  1.00  0.00    -0.294 OA
BRANCH  11  13
ATOM     13  C   UNL     1       4.113 145.007  -8.607  1.00  0.00    -0.002 C 
ATOM     14  C   UNL     1       4.225 143.642  -8.553  1.00  0.00    -0.069 C 
ATOM     15  C   UNL     1       3.102 142.734  -9.007  1.00  0.00     0.039 C 
ATOM     16  C   UNL     1       5.455 142.966  -7.989  1.00  0.00     0.039 C 
BRANCH  13  17
ATOM     17  C   UNL     1       2.821 145.661  -9.094  1.00  0.00     0.066 CG0
ATOM     18  G   UNL     1       1.701 145.527  -8.089  1.00  0.00     0.000 G0
ENDBRANCH  13  17
ENDBRANCH  11  13
ENDBRANCH  10  11
ENDBRANCH   1  10
TORSDOF 0
ENDMDL
MODEL 7
REMARK VINA RESULT:    -2.593      1.591      3.700
REMARK INTER + INTRA:          -1.433
REMARK INTER:                  -4.027
REMARK INTRA:                   2.594
REMARK UNBOUND:                 2.220
REMARK SMILES CC1=CCC(=C(C)C)C(=O)CC(C)=CCC1
REMARK SMILES IDX 12 1 14 2 13 3 15 4 16 5 2 6 1 7 3 8 11 10 9 11 10 12 5 13
REMARK SMILES IDX 6 14 7 15 8 16 4 17
REMARK H PARENT
REMARK Flexibility Score: 60.00
ROOT
ATOM      1  C   UNL     1       2.984 143.316  -8.818  1.00  0.00    -0.070 C 
ATOM      2  C   UNL     1       1.945 144.159  -8.585  1.00  0.00    -0.027 C 
ATOM      3  C   UNL     1       2.651 141.876  -9.123  1.00  0.00     0.039 C 
ENDROOT
BRANCH   2   4
ATOM      4  C   UNL     1       2.047 145.606  -8.164  1.00  0.00     0.032 C 
BRANCH   4   5
ATOM      5  C   UNL     1       1.121 145.964  -6.994  1.00  0.00     0.034 C 
BRANCH   5   6
ATOM      6  C   UNL     1       1.814 146.928  -6.053  1.00  0.00    -0.077 C 
ATOM      7  C   UNL     1       1.140 148.242  -5.750  1.00  0.00     0.039 C 
ATOM      8  C   UNL     1       2.969 146.640  -5.407  1.00  0.00    -0.023 CG0
ATOM      9  G   UNL     1       3.793 145.387  -5.592  1.00  0.00     0.000 G0
ENDBRANCH   5   6
ENDBRANCH   4   5
ENDBRANCH   2   4
BRANCH   1  10
ATOM     10  C   UNL     1       4.448 143.744  -8.868  1.00  0.00     0.111 C 
BRANCH  10  11
ATOM     11  C   UNL     1       5.025 144.111  -7.524  1.00  0.00     0.163 C 
ATOM     12  O   UNL     1       5.846 143.308  -7.001  1.00  0.00    -0.294 OA
BRANCH  11  13
ATOM     13  C   UNL     1       4.707 145.404  -6.831  1.00  0.00    -0.002 C 
ATOM     14  C   UNL     1       5.242 146.586  -7.275  1.00  0.00    -0.069 C 
ATOM     15  C   UNL     1       5.015 147.887  -6.537  1.00  0.00     0.039 C 
ATOM     16  C   UNL     1       6.045 146.665  -8.555  1.00  0.00     0.039 C 
BRANCH  13  17
ATOM     17  C   UNL     1       3.823 145.372  -5.586  1.00  0.00     0.066 CG0
ATOM     18  G   UNL     1       3.008 146.635  -5.433  1.00  0.00     0.000 G0
ENDBRANCH  13  17
ENDBRANCH  11  13
ENDBRANCH  10  11
ENDBRANCH   1  10
TORSDOF 0
ENDMDL
MODEL 8
REMARK VINA RESULT:    -1.991      1.909      4.880
REMARK INTER + INTRA:          -0.586
REMARK INTER:                  -2.333
REMARK INTRA:                   1.748
REMARK UNBOUND:                 2.220
REMARK SMILES CC1=CCC(=C(C)C)C(=O)CC(C)=CCC1
REMARK SMILES IDX 12 1 14 2 13 3 15 4 16 5 2 6 1 7 3 8 11 10 9 11 10 12 5 13
REMARK SMILES IDX 6 14 7 15 8 16 4 17
REMARK H PARENT
REMARK Flexibility Score: 60.00
ROOT
ATOM      1  C   UNL     1       3.078 147.153  -6.237  1.00  0.00    -0.070 C 
ATOM      2  C   UNL     1       2.145 146.211  -6.534  1.00  0.00    -0.027 C 
ATOM      3  C   UNL     1       2.585 148.554  -5.970  1.00  0.00     0.039 C 
ENDROOT
BRANCH   2   4
ATOM      4  C   UNL     1       2.418 144.781  -6.934  1.00  0.00     0.032 C 
BRANCH   4   5
ATOM      5  C   UNL     1       2.349 144.550  -8.450  1.00  0.00     0.034 C 
BRANCH   5   6
ATOM      6  C   UNL     1       3.088 143.280  -8.821  1.00  0.00    -0.077 C 
ATOM      7  C   UNL     1       2.297 142.004  -8.951  1.00  0.00     0.039 C 
ATOM      8  C   UNL     1       4.409 143.246  -9.119  1.00  0.00    -0.023 CG0
ATOM      9  G   UNL     1       5.363 144.414  -9.032  1.00  0.00     0.000 G0
ENDBRANCH   5   6
ENDBRANCH   4   5
ENDBRANCH   2   4
BRANCH   1  10
ATOM     10  C   UNL     1       4.570 146.871  -6.081  1.00  0.00     0.111 C 
BRANCH  10  11
ATOM     11  C   UNL     1       5.240 146.397  -7.346  1.00  0.00     0.163 C 
ATOM     12  O   UNL     1       5.610 147.274  -8.175  1.00  0.00    -0.294 OA
BRANCH  11  13
ATOM     13  C   UNL     1       5.529 144.949  -7.618  1.00  0.00    -0.002 C 
ATOM     14  C   UNL     1       5.981 144.127  -6.618  1.00  0.00    -0.069 C 
ATOM     15  C   UNL     1       6.371 142.690  -6.888  1.00  0.00     0.039 C 
ATOM     16  C   UNL     1       6.067 144.593  -5.182  1.00  0.00     0.039 C 
BRANCH  13  17
ATOM     17  C   UNL     1       5.363 144.422  -9.041  1.00  0.00     0.066 CG0
ATOM     18  G   UNL     1       4.417 143.246  -9.107  1.00  0.00     0.000 G0
ENDBRANCH  13  17
ENDBRANCH  11  13
ENDBRANCH  10  11
ENDBRANCH   1  10
TORSDOF 0
ENDMDL
MODEL 9
REMARK VINA RESULT:    -1.837      1.198      4.087
REMARK INTER + INTRA:          -0.369
REMARK INTER:                  -0.610
REMARK INTRA:                   0.241
REMARK UNBOUND:                 2.220
REMARK SMILES CC1=CCC(=C(C)C)C(=O)CC(C)=CCC1
REMARK SMILES IDX 12 1 14 2 13 3 15 4 16 5 2 6 1 7 3 8 11 10 9 11 10 12 5 13
REMARK SMILES IDX 6 14 7 15 8 16 4 17
REMARK H PARENT
REMARK Flexibility Score: 60.00
ROOT
ATOM      1  C   UNL     1       1.176 146.302  -6.235  1.00  0.00    -0.070 C 
ATOM      2  C   UNL     1       1.838 147.424  -5.851  1.00  0.00    -0.027 C 
ATOM      3  C   UNL     1      -0.330 146.375  -6.299  1.00  0.00     0.039 C 
ENDROOT
BRANCH   2   4
ATOM      4  C   UNL     1       3.325 147.547  -5.621  1.00  0.00     0.032 C 
BRANCH   4   5
ATOM      5  C   UNL     1       4.134 147.659  -6.921  1.00  0.00     0.034 C 
BRANCH   5   6
ATOM      6  C   UNL     1       5.345 146.750  -6.865  1.00  0.00    -0.077 C 
ATOM      7  C   UNL     1       6.320 146.927  -5.729  1.00  0.00     0.039 C 
ATOM      8  C   UNL     1       5.558 145.735  -7.736  1.00  0.00    -0.023 CG0
ATOM      9  G   UNL     1       4.703 145.413  -8.939  1.00  0.00     0.000 G0
ENDBRANCH   5   6
ENDBRANCH   4   5
ENDBRANCH   2   4
BRANCH   1  10
ATOM     10  C   UNL     1       1.855 145.008  -6.677  1.00  0.00     0.111 C 
BRANCH  10  11
ATOM     11  C   UNL     1       2.261 144.994  -8.129  1.00  0.00     0.163 C 
ATOM     12  O   UNL     1       1.473 145.522  -8.961  1.00  0.00    -0.294 OA
BRANCH  11  13
ATOM     13  C   UNL     1       3.573 144.437  -8.599  1.00  0.00    -0.002 C 
ATOM     14  C   UNL     1       3.771 143.083  -8.678  1.00  0.00    -0.069 C 
ATOM     15  C   UNL     1       5.114 142.497  -9.055  1.00  0.00     0.039 C 
ATOM     16  C   UNL     1       2.646 142.100  -8.441  1.00  0.00     0.039 C 
BRANCH  13  17
ATOM     17  C   UNL     1       4.704 145.408  -8.935  1.00  0.00     0.066 CG0
ATOM     18  G   UNL     1       5.554 145.732  -7.729  1.00  0.00     0.000 G0
ENDBRANCH  13  17
ENDBRANCH  11  13
ENDBRANCH  10  11
ENDBRANCH   1  10
TORSDOF 0
ENDMDL
