MODEL 1
REMARK VINA RESULT:    -4.297      0.000      0.000
REMARK INTER + INTRA:         -10.875
REMARK INTER:                  -7.814
REMARK INTRA:                  -3.062
REMARK UNBOUND:                -3.062
REMARK SMILES CCCCCC=CCC=CCCCCCCCC(=O)[O-]
REMARK SMILES IDX 11 1 12 2 13 3 14 4 15 5 16 6 17 7 18 8 19 9 20 10 10 11
REMARK SMILES IDX 9 12 8 13 7 14 6 15 5 16 4 17 3 18 2 19 1 20
REMARK H PARENT
REMARK Flexibility Score: inf
ROOT
ATOM      1  C   UNL     1      95.549   5.631  24.178  1.00  0.00     0.027 C 
ENDROOT
BRANCH   1   2
ATOM      2  C   UNL     1      95.660   4.925  25.536  1.00  0.00     0.004 C 
BRANCH   2   3
ATOM      3  C   UNL     1      96.406   3.593  25.402  1.00  0.00     0.000 C 
BRANCH   3   4
ATOM      4  C   UNL     1      96.116   2.931  24.050  1.00  0.00     0.000 C 
BRANCH   4   5
ATOM      5  C   UNL     1      96.762   1.539  23.969  1.00  0.00     0.000 C 
BRANCH   5   6
ATOM      6  C   UNL     1      98.140   1.485  24.645  1.00  0.00     0.006 C 
BRANCH   6   7
ATOM      7  C   UNL     1      99.186   0.746  23.801  1.00  0.00     0.053 C 
BRANCH   7   8
ATOM      8  C   UNL     1     100.226   0.131  24.684  1.00  0.00     0.041 C 
ATOM      9  O   UNL     1     101.354   0.678  24.811  1.00  0.00    -0.550 OA
ATOM     10  O   UNL     1      99.972  -1.082  25.314  1.00  0.00    -0.550 OA
ENDBRANCH   7   8
ENDBRANCH   6   7
ENDBRANCH   5   6
ENDBRANCH   4   5
ENDBRANCH   3   4
ENDBRANCH   2   3
ENDBRANCH   1   2
BRANCH   1  11
ATOM     11  C   UNL     1      96.551   6.752  24.069  1.00  0.00    -0.031 C 
ATOM     12  C   UNL     1      97.645   6.735  23.282  1.00  0.00    -0.027 C 
BRANCH  12  13
ATOM     13  C   UNL     1      98.020   5.614  22.343  1.00  0.00     0.054 C 
BRANCH  13  14
ATOM     14  C   UNL     1      99.233   4.892  22.854  1.00  0.00    -0.027 C 
ATOM     15  C   UNL     1      99.484   4.785  24.168  1.00  0.00    -0.031 C 
BRANCH  15  16
ATOM     16  C   UNL     1     100.709   4.081  24.682  1.00  0.00     0.027 C 
BRANCH  16  17
ATOM     17  C   UNL     1     100.663   3.927  26.210  1.00  0.00     0.004 C 
BRANCH  17  18
ATOM     18  C   UNL     1      99.440   4.616  26.844  1.00  0.00     0.000 C 
BRANCH  18  19
ATOM     19  C   UNL     1      99.719   6.013  27.429  1.00  0.00    -0.003 C 
ATOM     20  C   UNL     1      98.556   6.987  27.235  1.00  0.00     0.004 C 
ENDBRANCH  18  19
ENDBRANCH  17  18
ENDBRANCH  16  17
ENDBRANCH  15  16
ENDBRANCH  13  14
ENDBRANCH  12  13
ENDBRANCH   1  11
TORSDOF 14
ENDMDL
MODEL 2
REMARK VINA RESULT:    -4.249      2.078      4.784
REMARK INTER + INTRA:         -10.789
REMARK INTER:                  -8.062
REMARK INTRA:                  -2.727
REMARK UNBOUND:                -3.062
REMARK SMILES CCCCCC=CCC=CCCCCCCCC(=O)[O-]
REMARK SMILES IDX 11 1 12 2 13 3 14 4 15 5 16 6 17 7 18 8 19 9 20 10 10 11
REMARK SMILES IDX 9 12 8 13 7 14 6 15 5 16 4 17 3 18 2 19 1 20
REMARK H PARENT
REMARK Flexibility Score: inf
ROOT
ATOM      1  C   UNL     1      99.316   3.940  26.753  1.00  0.00     0.027 C 
ENDROOT
BRANCH   1   2
ATOM      2  C   UNL     1      98.889   5.021  27.755  1.00  0.00     0.004 C 
BRANCH   2   3
ATOM      3  C   UNL     1      97.488   5.551  27.426  1.00  0.00     0.000 C 
BRANCH   3   4
ATOM      4  C   UNL     1      97.527   6.508  26.229  1.00  0.00     0.000 C 
BRANCH   4   5
ATOM      5  C   UNL     1      96.306   6.302  25.320  1.00  0.00     0.000 C 
BRANCH   5   6
ATOM      6  C   UNL     1      95.761   4.867  25.378  1.00  0.00     0.006 C 
BRANCH   6   7
ATOM      7  C   UNL     1      96.089   4.056  24.117  1.00  0.00     0.053 C 
BRANCH   7   8
ATOM      8  C   UNL     1      96.285   2.614  24.464  1.00  0.00     0.041 C 
ATOM      9  O   UNL     1      96.650   2.285  25.624  1.00  0.00    -0.550 OA
ATOM     10  O   UNL     1      96.129   1.637  23.487  1.00  0.00    -0.550 OA
ENDBRANCH   7   8
ENDBRANCH   6   7
ENDBRANCH   5   6
ENDBRANCH   4   5
ENDBRANCH   3   4
ENDBRANCH   2   3
ENDBRANCH   1   2
BRANCH   1  11
ATOM     11  C   UNL     1     100.623   4.300  26.094  1.00  0.00    -0.031 C 
ATOM     12  C   UNL     1     100.980   3.942  24.845  1.00  0.00    -0.027 C 
BRANCH  12  13
ATOM     13  C   UNL     1     100.113   3.165  23.884  1.00  0.00     0.054 C 
BRANCH  13  14
ATOM     14  C   UNL     1      99.705   4.036  22.731  1.00  0.00    -0.027 C 
ATOM     15  C   UNL     1      99.139   5.237  22.926  1.00  0.00    -0.031 C 
BRANCH  15  16
ATOM     16  C   UNL     1      98.710   6.103  21.774  1.00  0.00     0.027 C 
BRANCH  16  17
ATOM     17  C   UNL     1      98.046   7.398  22.267  1.00  0.00     0.004 C 
BRANCH  17  18
ATOM     18  C   UNL     1      96.775   7.758  21.476  1.00  0.00     0.000 C 
BRANCH  18  19
ATOM     19  C   UNL     1      95.675   6.680  21.501  1.00  0.00    -0.003 C 
ATOM     20  C   UNL     1      94.414   7.128  22.241  1.00  0.00     0.004 C 
ENDBRANCH  18  19
ENDBRANCH  17  18
ENDBRANCH  16  17
ENDBRANCH  15  16
ENDBRANCH  13  14
ENDBRANCH  12  13
ENDBRANCH   1  11
TORSDOF 14
ENDMDL
MODEL 3
REMARK VINA RESULT:    -4.202      1.560      4.160
REMARK INTER + INTRA:         -10.703
REMARK INTER:                  -8.006
REMARK INTRA:                  -2.697
REMARK UNBOUND:                -3.062
REMARK SMILES CCCCCC=CCC=CCCCCCCCC(=O)[O-]
REMARK SMILES IDX 11 1 12 2 13 3 14 4 15 5 16 6 17 7 18 8 19 9 20 10 10 11
REMARK SMILES IDX 9 12 8 13 7 14 6 15 5 16 4 17 3 18 2 19 1 20
REMARK H PARENT
REMARK Flexibility Score: inf
ROOT
ATOM      1  C   UNL     1      97.801   5.243  27.508  1.00  0.00     0.027 C 
ENDROOT
BRANCH   1   2
ATOM      2  C   UNL     1      99.131   4.516  27.748  1.00  0.00     0.004 C 
BRANCH   2   3
ATOM      3  C   UNL     1     100.299   5.291  27.128  1.00  0.00     0.000 C 
BRANCH   3   4
ATOM      4  C   UNL     1     101.593   4.471  27.177  1.00  0.00     0.000 C 
BRANCH   4   5
ATOM      5  C   UNL     1     102.019   4.030  25.768  1.00  0.00     0.000 C 
BRANCH   5   6
ATOM      6  C   UNL     1     102.593   2.606  25.741  1.00  0.00     0.006 C 
BRANCH   6   7
ATOM      7  C   UNL     1     103.048   2.176  24.340  1.00  0.00     0.053 C 
BRANCH   7   8
ATOM      8  C   UNL     1     102.536   0.805  24.026  1.00  0.00     0.041 C 
ATOM      9  O   UNL     1     103.161   0.066  23.218  1.00  0.00    -0.550 OA
ATOM     10  O   UNL     1     101.335   0.369  24.573  1.00  0.00    -0.550 OA
ENDBRANCH   7   8
ENDBRANCH   6   7
ENDBRANCH   5   6
ENDBRANCH   4   5
ENDBRANCH   3   4
ENDBRANCH   2   3
ENDBRANCH   1   2
BRANCH   1  11
ATOM     11  C   UNL     1      97.960   6.340  26.486  1.00  0.00    -0.031 C 
ATOM     12  C   UNL     1      97.042   6.666  25.555  1.00  0.00    -0.027 C 
BRANCH  12  13
ATOM     13  C   UNL     1      95.684   6.022  25.414  1.00  0.00     0.054 C 
BRANCH  13  14
ATOM     14  C   UNL     1      95.756   4.856  24.471  1.00  0.00    -0.027 C 
ATOM     15  C   UNL     1      96.055   3.622  24.903  1.00  0.00    -0.031 C 
BRANCH  15  16
ATOM     16  C   UNL     1      96.149   2.456  23.958  1.00  0.00     0.027 C 
BRANCH  16  17
ATOM     17  C   UNL     1      97.488   1.719  24.113  1.00  0.00     0.004 C 
BRANCH  17  18
ATOM     18  C   UNL     1      98.631   2.645  24.570  1.00  0.00     0.000 C 
BRANCH  18  19
ATOM     19  C   UNL     1      99.491   3.218  23.428  1.00  0.00    -0.003 C 
ATOM     20  C   UNL     1      99.234   4.703  23.171  1.00  0.00     0.004 C 
ENDBRANCH  18  19
ENDBRANCH  17  18
ENDBRANCH  16  17
ENDBRANCH  15  16
ENDBRANCH  13  14
ENDBRANCH  12  13
ENDBRANCH   1  11
TORSDOF 14
ENDMDL
MODEL 4
REMARK VINA RESULT:    -4.162      3.226      5.489
REMARK INTER + INTRA:         -10.630
REMARK INTER:                  -8.281
REMARK INTRA:                  -2.349
REMARK UNBOUND:                -3.062
REMARK SMILES CCCCCC=CCC=CCCCCCCCC(=O)[O-]
REMARK SMILES IDX 11 1 12 2 13 3 14 4 15 5 16 6 17 7 18 8 19 9 20 10 10 11
REMARK SMILES IDX 9 12 8 13 7 14 6 15 5 16 4 17 3 18 2 19 1 20
REMARK H PARENT
REMARK Flexibility Score: inf
ROOT
ATOM      1  C   UNL     1      98.307   3.790  26.481  1.00  0.00     0.027 C 
ENDROOT
BRANCH   1   2
ATOM      2  C   UNL     1      97.409   4.963  26.899  1.00  0.00     0.004 C 
BRANCH   2   3
ATOM      3  C   UNL     1      97.634   6.176  25.990  1.00  0.00     0.000 C 
BRANCH   3   4
ATOM      4  C   UNL     1      96.310   6.887  25.683  1.00  0.00     0.000 C 
BRANCH   4   5
ATOM      5  C   UNL     1      95.357   5.965  24.908  1.00  0.00     0.000 C 
BRANCH   5   6
ATOM      6  C   UNL     1      95.138   6.422  23.458  1.00  0.00     0.006 C 
BRANCH   6   7
ATOM      7  C   UNL     1      96.099   5.747  22.471  1.00  0.00     0.053 C 
BRANCH   7   8
ATOM      8  C   UNL     1      96.917   6.776  21.757  1.00  0.00     0.041 C 
ATOM      9  O   UNL     1      97.036   6.732  20.503  1.00  0.00    -0.550 OA
ATOM     10  O   UNL     1      97.603   7.745  22.481  1.00  0.00    -0.550 OA
ENDBRANCH   7   8
ENDBRANCH   6   7
ENDBRANCH   5   6
ENDBRANCH   4   5
ENDBRANCH   3   4
ENDBRANCH   2   3
ENDBRANCH   1   2
BRANCH   1  11
ATOM     11  C   UNL     1      97.667   2.986  25.377  1.00  0.00    -0.031 C 
ATOM     12  C   UNL     1      97.991   3.076  24.072  1.00  0.00    -0.027 C 
BRANCH  12  13
ATOM     13  C   UNL     1      99.079   3.956  23.507  1.00  0.00     0.054 C 
BRANCH  13  14
ATOM     14  C   UNL     1     100.314   3.146  23.236  1.00  0.00    -0.027 C 
ATOM     15  C   UNL     1     101.314   3.072  24.128  1.00  0.00    -0.031 C 
BRANCH  15  16
ATOM     16  C   UNL     1     102.561   2.279  23.851  1.00  0.00     0.027 C 
BRANCH  16  17
ATOM     17  C   UNL     1     102.422   0.832  24.347  1.00  0.00     0.004 C 
BRANCH  17  18
ATOM     18  C   UNL     1     101.887  -0.124  23.263  1.00  0.00     0.000 C 
BRANCH  18  19
ATOM     19  C   UNL     1     100.425  -0.565  23.458  1.00  0.00    -0.003 C 
ATOM     20  C   UNL     1      99.899  -0.293  24.868  1.00  0.00     0.004 C 
ENDBRANCH  18  19
ENDBRANCH  17  18
ENDBRANCH  16  17
ENDBRANCH  15  16
ENDBRANCH  13  14
ENDBRANCH  12  13
ENDBRANCH   1  11
TORSDOF 14
ENDMDL
MODEL 5
REMARK VINA RESULT:    -4.133      1.754      3.938
REMARK INTER + INTRA:         -10.577
REMARK INTER:                  -8.015
REMARK INTRA:                  -2.562
REMARK UNBOUND:                -3.062
REMARK SMILES CCCCCC=CCC=CCCCCCCCC(=O)[O-]
REMARK SMILES IDX 11 1 12 2 13 3 14 4 15 5 16 6 17 7 18 8 19 9 20 10 10 11
REMARK SMILES IDX 9 12 8 13 7 14 6 15 5 16 4 17 3 18 2 19 1 20
REMARK H PARENT
REMARK Flexibility Score: inf
ROOT
ATOM      1  C   UNL     1      97.285   5.810  26.612  1.00  0.00     0.027 C 
ENDROOT
BRANCH   1   2
ATOM      2  C   UNL     1      97.653   4.976  27.846  1.00  0.00     0.004 C 
BRANCH   2   3
ATOM      3  C   UNL     1      98.031   3.545  27.449  1.00  0.00     0.000 C 
BRANCH   3   4
ATOM      4  C   UNL     1      99.174   3.540  26.425  1.00  0.00     0.000 C 
BRANCH   4   5
ATOM      5  C   UNL     1      99.325   2.156  25.777  1.00  0.00     0.000 C 
BRANCH   5   6
ATOM      6  C   UNL     1      99.210   2.203  24.246  1.00  0.00     0.006 C 
BRANCH   6   7
ATOM      7  C   UNL     1     100.466   2.772  23.573  1.00  0.00     0.053 C 
BRANCH   7   8
ATOM      8  C   UNL     1     101.437   1.674  23.271  1.00  0.00     0.041 C 
ATOM      9  O   UNL     1     101.022   0.503  23.056  1.00  0.00    -0.550 OA
ATOM     10  O   UNL     1     102.803   1.929  23.292  1.00  0.00    -0.550 OA
ENDBRANCH   7   8
ENDBRANCH   6   7
ENDBRANCH   5   6
ENDBRANCH   4   5
ENDBRANCH   3   4
ENDBRANCH   2   3
ENDBRANCH   1   2
BRANCH   1  11
ATOM     11  C   UNL     1      95.821   5.668  26.280  1.00  0.00    -0.031 C 
ATOM     12  C   UNL     1      95.328   4.918  25.275  1.00  0.00    -0.027 C 
BRANCH  12  13
ATOM     13  C   UNL     1      96.152   4.059  24.348  1.00  0.00     0.054 C 
BRANCH  13  14
ATOM     14  C   UNL     1      96.608   4.860  23.164  1.00  0.00    -0.027 C 
ATOM     15  C   UNL     1      97.824   5.428  23.126  1.00  0.00    -0.031 C 
BRANCH  15  16
ATOM     16  C   UNL     1      98.275   6.249  21.950  1.00  0.00     0.027 C 
BRANCH  16  17
ATOM     17  C   UNL     1      97.076   6.768  21.141  1.00  0.00     0.004 C 
BRANCH  17  18
ATOM     18  C   UNL     1      96.650   8.190  21.549  1.00  0.00     0.000 C 
BRANCH  18  19
ATOM     19  C   UNL     1      95.445   8.252  22.507  1.00  0.00    -0.003 C 
ATOM     20  C   UNL     1      95.848   8.491  23.962  1.00  0.00     0.004 C 
ENDBRANCH  18  19
ENDBRANCH  17  18
ENDBRANCH  16  17
ENDBRANCH  15  16
ENDBRANCH  13  14
ENDBRANCH  12  13
ENDBRANCH   1  11
TORSDOF 14
ENDMDL
MODEL 6
REMARK VINA RESULT:    -4.131      3.363      5.124
REMARK INTER + INTRA:         -10.574
REMARK INTER:                  -8.099
REMARK INTRA:                  -2.475
REMARK UNBOUND:                -3.062
REMARK SMILES CCCCCC=CCC=CCCCCCCCC(=O)[O-]
REMARK SMILES IDX 11 1 12 2 13 3 14 4 15 5 16 6 17 7 18 8 19 9 20 10 10 11
REMARK SMILES IDX 9 12 8 13 7 14 6 15 5 16 4 17 3 18 2 19 1 20
REMARK H PARENT
REMARK Flexibility Score: inf
ROOT
ATOM      1  C   UNL     1     100.641   4.271  25.504  1.00  0.00     0.027 C 
ENDROOT
BRANCH   1   2
ATOM      2  C   UNL     1      99.587   4.587  26.574  1.00  0.00     0.004 C 
BRANCH   2   3
ATOM      3  C   UNL     1      98.752   3.346  26.906  1.00  0.00     0.000 C 
BRANCH   3   4
ATOM      4  C   UNL     1      97.274   3.568  26.563  1.00  0.00     0.000 C 
BRANCH   4   5
ATOM      5  C   UNL     1      96.842   2.675  25.389  1.00  0.00     0.000 C 
BRANCH   5   6
ATOM      6  C   UNL     1      96.159   3.467  24.264  1.00  0.00     0.006 C 
BRANCH   6   7
ATOM      7  C   UNL     1      96.141   4.978  24.528  1.00  0.00     0.053 C 
BRANCH   7   8
ATOM      8  C   UNL     1      96.070   5.730  23.236  1.00  0.00     0.041 C 
ATOM      9  O   UNL     1      97.064   5.754  22.461  1.00  0.00    -0.550 OA
ATOM     10  O   UNL     1      94.930   6.459  22.918  1.00  0.00    -0.550 OA
ENDBRANCH   7   8
ENDBRANCH   6   7
ENDBRANCH   5   6
ENDBRANCH   4   5
ENDBRANCH   3   4
ENDBRANCH   2   3
ENDBRANCH   1   2
BRANCH   1  11
ATOM     11  C   UNL     1     100.057   4.391  24.119  1.00  0.00    -0.031 C 
ATOM     12  C   UNL     1      99.785   3.352  23.305  1.00  0.00    -0.027 C 
BRANCH  12  13
ATOM     13  C   UNL     1      99.971   1.897  23.664  1.00  0.00     0.054 C 
BRANCH  13  14
ATOM     14  C   UNL     1     101.355   1.445  23.298  1.00  0.00    -0.027 C 
ATOM     15  C   UNL     1     102.263   1.137  24.237  1.00  0.00    -0.031 C 
BRANCH  15  16
ATOM     16  C   UNL     1     103.656   0.704  23.875  1.00  0.00     0.027 C 
BRANCH  16  17
ATOM     17  C   UNL     1     104.709   1.482  24.681  1.00  0.00     0.004 C 
BRANCH  17  18
ATOM     18  C   UNL     1     104.226   2.883  25.100  1.00  0.00     0.000 C 
BRANCH  18  19
ATOM     19  C   UNL     1     104.567   3.275  26.550  1.00  0.00    -0.003 C 
ATOM     20  C   UNL     1     103.390   3.103  27.510  1.00  0.00     0.004 C 
ENDBRANCH  18  19
ENDBRANCH  17  18
ENDBRANCH  16  17
ENDBRANCH  15  16
ENDBRANCH  13  14
ENDBRANCH  12  13
ENDBRANCH   1  11
TORSDOF 14
ENDMDL
MODEL 7
REMARK VINA RESULT:    -4.121      3.560      6.045
REMARK INTER + INTRA:         -10.556
REMARK INTER:                  -8.130
REMARK INTRA:                  -2.425
REMARK UNBOUND:                -3.062
REMARK SMILES CCCCCC=CCC=CCCCCCCCC(=O)[O-]
REMARK SMILES IDX 11 1 12 2 13 3 14 4 15 5 16 6 17 7 18 8 19 9 20 10 10 11
REMARK SMILES IDX 9 12 8 13 7 14 6 15 5 16 4 17 3 18 2 19 1 20
REMARK H PARENT
REMARK Flexibility Score: inf
ROOT
ATOM      1  C   UNL     1      99.675   4.309  24.731  1.00  0.00     0.027 C 
ENDROOT
BRANCH   1   2
ATOM      2  C   UNL     1      98.971   3.555  23.595  1.00  0.00     0.004 C 
BRANCH   2   3
ATOM      3  C   UNL     1      97.826   2.692  24.136  1.00  0.00     0.000 C 
BRANCH   3   4
ATOM      4  C   UNL     1      96.463   3.319  23.815  1.00  0.00     0.000 C 
BRANCH   4   5
ATOM      5  C   UNL     1      95.948   4.152  24.998  1.00  0.00     0.000 C 
BRANCH   5   6
ATOM      6  C   UNL     1      95.713   5.624  24.629  1.00  0.00     0.006 C 
BRANCH   6   7
ATOM      7  C   UNL     1      95.969   5.911  23.144  1.00  0.00     0.053 C 
BRANCH   7   8
ATOM      8  C   UNL     1      95.332   7.206  22.748  1.00  0.00     0.041 C 
ATOM      9  O   UNL     1      94.364   7.215  21.940  1.00  0.00    -0.550 OA
ATOM     10  O   UNL     1      95.849   8.408  23.218  1.00  0.00    -0.550 OA
ENDBRANCH   7   8
ENDBRANCH   6   7
ENDBRANCH   5   6
ENDBRANCH   4   5
ENDBRANCH   3   4
ENDBRANCH   2   3
ENDBRANCH   1   2
BRANCH   1  11
ATOM     11  C   UNL     1      99.626   3.520  26.015  1.00  0.00    -0.031 C 
ATOM     12  C   UNL     1     100.702   3.176  26.749  1.00  0.00    -0.027 C 
BRANCH  12  13
ATOM     13  C   UNL     1     102.127   3.566  26.437  1.00  0.00     0.054 C 
BRANCH  13  14
ATOM     14  C   UNL     1     102.822   2.453  25.707  1.00  0.00    -0.027 C 
ATOM     15  C   UNL     1     102.927   2.449  24.369  1.00  0.00    -0.031 C 
BRANCH  15  16
ATOM     16  C   UNL     1     103.604   1.326  23.635  1.00  0.00     0.027 C 
BRANCH  16  17
ATOM     17  C   UNL     1     102.653   0.136  23.437  1.00  0.00     0.004 C 
BRANCH  17  18
ATOM     18  C   UNL     1     101.220   0.569  23.074  1.00  0.00     0.000 C 
BRANCH  18  19
ATOM     19  C   UNL     1     100.117  -0.402  23.534  1.00  0.00    -0.003 C 
ATOM     20  C   UNL     1      99.791  -0.276  25.022  1.00  0.00     0.004 C 
ENDBRANCH  18  19
ENDBRANCH  17  18
ENDBRANCH  16  17
ENDBRANCH  15  16
ENDBRANCH  13  14
ENDBRANCH  12  13
ENDBRANCH   1  11
TORSDOF 14
ENDMDL
MODEL 8
REMARK VINA RESULT:    -4.099      2.953      5.221
REMARK INTER + INTRA:         -10.515
REMARK INTER:                  -7.667
REMARK INTRA:                  -2.848
REMARK UNBOUND:                -3.062
REMARK SMILES CCCCCC=CCC=CCCCCCCCC(=O)[O-]
REMARK SMILES IDX 11 1 12 2 13 3 14 4 15 5 16 6 17 7 18 8 19 9 20 10 10 11
REMARK SMILES IDX 9 12 8 13 7 14 6 15 5 16 4 17 3 18 2 19 1 20
REMARK H PARENT
REMARK Flexibility Score: inf
ROOT
ATOM      1  C   UNL     1      98.072   3.963  27.532  1.00  0.00     0.027 C 
ENDROOT
BRANCH   1   2
ATOM      2  C   UNL     1      97.390   3.347  26.303  1.00  0.00     0.004 C 
BRANCH   2   3
ATOM      3  C   UNL     1      98.393   2.550  25.462  1.00  0.00     0.000 C 
BRANCH   3   4
ATOM      4  C   UNL     1      98.390   3.024  24.003  1.00  0.00     0.000 C 
BRANCH   4   5
ATOM      5  C   UNL     1      99.181   4.332  23.849  1.00  0.00     0.000 C 
BRANCH   5   6
ATOM      6  C   UNL     1      98.450   5.367  22.980  1.00  0.00     0.006 C 
BRANCH   6   7
ATOM      7  C   UNL     1      96.933   5.367  23.207  1.00  0.00     0.053 C 
BRANCH   7   8
ATOM      8  C   UNL     1      96.563   6.382  24.242  1.00  0.00     0.041 C 
ATOM      9  O   UNL     1      97.244   7.435  24.370  1.00  0.00    -0.550 OA
ATOM     10  O   UNL     1      95.505   6.136  25.111  1.00  0.00    -0.550 OA
ENDBRANCH   7   8
ENDBRANCH   6   7
ENDBRANCH   5   6
ENDBRANCH   4   5
ENDBRANCH   3   4
ENDBRANCH   2   3
ENDBRANCH   1   2
BRANCH   1  11
ATOM     11  C   UNL     1      98.346   5.431  27.319  1.00  0.00    -0.031 C 
ATOM     12  C   UNL     1      99.545   6.023  27.488  1.00  0.00    -0.027 C 
BRANCH  12  13
ATOM     13  C   UNL     1     100.819   5.309  27.867  1.00  0.00     0.054 C 
BRANCH  13  14
ATOM     14  C   UNL     1     101.605   4.958  26.636  1.00  0.00    -0.027 C 
ATOM     15  C   UNL     1     101.772   3.684  26.250  1.00  0.00    -0.031 C 
BRANCH  15  16
ATOM     16  C   UNL     1     102.576   3.329  25.030  1.00  0.00     0.027 C 
BRANCH  16  17
ATOM     17  C   UNL     1     103.310   1.992  25.215  1.00  0.00     0.004 C 
BRANCH  17  18
ATOM     18  C   UNL     1     102.980   0.970  24.112  1.00  0.00     0.000 C 
BRANCH  18  19
ATOM     19  C   UNL     1     101.487   0.880  23.742  1.00  0.00    -0.003 C 
ATOM     20  C   UNL     1     100.742  -0.205  24.518  1.00  0.00     0.004 C 
ENDBRANCH  18  19
ENDBRANCH  17  18
ENDBRANCH  16  17
ENDBRANCH  15  16
ENDBRANCH  13  14
ENDBRANCH  12  13
ENDBRANCH   1  11
TORSDOF 14
ENDMDL
MODEL 9
REMARK VINA RESULT:    -4.092      1.872      4.952
REMARK INTER + INTRA:         -10.504
REMARK INTER:                  -8.526
REMARK INTRA:                  -1.978
REMARK UNBOUND:                -3.062
REMARK SMILES CCCCCC=CCC=CCCCCCCCC(=O)[O-]
REMARK SMILES IDX 11 1 12 2 13 3 14 4 15 5 16 6 17 7 18 8 19 9 20 10 10 11
REMARK SMILES IDX 9 12 8 13 7 14 6 15 5 16 4 17 3 18 2 19 1 20
REMARK H PARENT
REMARK Flexibility Score: inf
ROOT
ATOM      1  C   UNL     1     100.294   4.380  25.395  1.00  0.00     0.027 C 
ENDROOT
BRANCH   1   2
ATOM      2  C   UNL     1     101.752   4.168  25.821  1.00  0.00     0.004 C 
BRANCH   2   3
ATOM      3  C   UNL     1     102.091   2.675  25.897  1.00  0.00     0.000 C 
BRANCH   3   4
ATOM      4  C   UNL     1     103.598   2.443  25.735  1.00  0.00     0.000 C 
BRANCH   4   5
ATOM      5  C   UNL     1     103.881   1.413  24.630  1.00  0.00     0.000 C 
BRANCH   5   6
ATOM      6  C   UNL     1     102.695   1.236  23.670  1.00  0.00     0.006 C 
BRANCH   6   7
ATOM      7  C   UNL     1     102.441  -0.233  23.306  1.00  0.00     0.053 C 
BRANCH   7   8
ATOM      8  C   UNL     1     101.025  -0.606  23.613  1.00  0.00     0.041 C 
ATOM      9  O   UNL     1     100.284  -1.077  22.708  1.00  0.00    -0.550 OA
ATOM     10  O   UNL     1     100.503  -0.373  24.880  1.00  0.00    -0.550 OA
ENDBRANCH   7   8
ENDBRANCH   6   7
ENDBRANCH   5   6
ENDBRANCH   4   5
ENDBRANCH   3   4
ENDBRANCH   2   3
ENDBRANCH   1   2
BRANCH   1  11
ATOM     11  C   UNL     1      99.990   3.636  24.119  1.00  0.00    -0.031 C 
ATOM     12  C   UNL     1      99.012   2.720  23.975  1.00  0.00    -0.027 C 
BRANCH  12  13
ATOM     13  C   UNL     1      98.027   2.326  25.050  1.00  0.00     0.054 C 
BRANCH  13  14
ATOM     14  C   UNL     1      96.780   3.155  24.941  1.00  0.00    -0.027 C 
ATOM     15  C   UNL     1      96.659   4.327  25.584  1.00  0.00    -0.031 C 
BRANCH  15  16
ATOM     16  C   UNL     1      95.403   5.149  25.495  1.00  0.00     0.027 C 
BRANCH  16  17
ATOM     17  C   UNL     1      95.699   6.562  24.968  1.00  0.00     0.004 C 
BRANCH  17  18
ATOM     18  C   UNL     1      95.367   6.725  23.473  1.00  0.00     0.000 C 
BRANCH  18  19
ATOM     19  C   UNL     1      96.154   5.794  22.533  1.00  0.00    -0.003 C 
ATOM     20  C   UNL     1      97.648   6.115  22.483  1.00  0.00     0.004 C 
ENDBRANCH  18  19
ENDBRANCH  17  18
ENDBRANCH  16  17
ENDBRANCH  15  16
ENDBRANCH  13  14
ENDBRANCH  12  13
ENDBRANCH   1  11
TORSDOF 14
ENDMDL
