MODEL 1
REMARK VINA RESULT:    -3.326      0.000      0.000
REMARK INTER + INTRA:          -4.819
REMARK INTER:                  -4.493
REMARK INTRA:                  -0.326
REMARK UNBOUND:                -0.326
REMARK SMILES CCCCCCCC(=O)[O-]
REMARK SMILES IDX 5 1 6 2 7 3 8 4 9 5 10 6 4 7 3 8 2 9 1 10
REMARK H PARENT
REMARK Flexibility Score: inf
ROOT
ATOM      1  C   UNL     1     125.897  55.636  42.926  1.00  0.00     0.000 C 
ENDROOT
BRANCH   1   2
ATOM      2  C   UNL     1     126.579  54.370  43.458  1.00  0.00     0.006 C 
BRANCH   2   3
ATOM      3  C   UNL     1     125.628  53.171  43.407  1.00  0.00     0.053 C 
BRANCH   3   4
ATOM      4  C   UNL     1     125.625  52.448  44.716  1.00  0.00     0.041 C 
ATOM      5  O   UNL     1     126.232  52.931  45.708  1.00  0.00    -0.550 OA
ATOM      6  O   UNL     1     124.994  51.215  44.828  1.00  0.00    -0.550 OA
ENDBRANCH   3   4
ENDBRANCH   2   3
ENDBRANCH   1   2
BRANCH   1   7
ATOM      7  C   UNL     1     124.524  55.840  43.579  1.00  0.00     0.000 C 
BRANCH   7   8
ATOM      8  C   UNL     1     124.637  56.717  44.834  1.00  0.00    -0.000 C 
BRANCH   8   9
ATOM      9  C   UNL     1     124.279  58.187  44.561  1.00  0.00    -0.003 C 
ATOM     10  C   UNL     1     125.508  59.094  44.501  1.00  0.00     0.004 C 
ENDBRANCH   8   9
ENDBRANCH   7   8
ENDBRANCH   1   7
TORSDOF 6
ENDMDL
MODEL 2
REMARK VINA RESULT:    -3.275     12.591     13.246
REMARK INTER + INTRA:          -4.750
REMARK INTER:                  -4.411
REMARK INTRA:                  -0.339
REMARK UNBOUND:                -0.326
REMARK SMILES CCCCCCCC(=O)[O-]
REMARK SMILES IDX 5 1 6 2 7 3 8 4 9 5 10 6 4 7 3 8 2 9 1 10
REMARK H PARENT
REMARK Flexibility Score: inf
ROOT
ATOM      1  C   UNL     1     119.085  52.727  54.247  1.00  0.00     0.000 C 
ENDROOT
BRANCH   1   2
ATOM      2  C   UNL     1     117.937  51.735  54.031  1.00  0.00     0.006 C 
BRANCH   2   3
ATOM      3  C   UNL     1     116.606  52.321  54.512  1.00  0.00     0.053 C 
BRANCH   3   4
ATOM      4  C   UNL     1     115.662  52.488  53.365  1.00  0.00     0.041 C 
ATOM      5  O   UNL     1     115.228  53.632  53.062  1.00  0.00    -0.550 OA
ATOM      6  O   UNL     1     115.219  51.376  52.661  1.00  0.00    -0.550 OA
ENDBRANCH   3   4
ENDBRANCH   2   3
ENDBRANCH   1   2
BRANCH   1   7
ATOM      7  C   UNL     1     118.670  53.852  55.203  1.00  0.00     0.000 C 
BRANCH   7   8
ATOM      8  C   UNL     1     119.833  54.247  56.125  1.00  0.00    -0.000 C 
BRANCH   8   9
ATOM      9  C   UNL     1     120.977  53.221  56.104  1.00  0.00    -0.003 C 
ATOM     10  C   UNL     1     122.347  53.868  55.899  1.00  0.00     0.004 C 
ENDBRANCH   8   9
ENDBRANCH   7   8
ENDBRANCH   1   7
TORSDOF 6
ENDMDL
MODEL 3
REMARK VINA RESULT:    -3.198     12.228     13.118
REMARK INTER + INTRA:          -4.646
REMARK INTER:                  -4.330
REMARK INTRA:                  -0.316
REMARK UNBOUND:                -0.326
REMARK SMILES CCCCCCCC(=O)[O-]
REMARK SMILES IDX 5 1 6 2 7 3 8 4 9 5 10 6 4 7 3 8 2 9 1 10
REMARK H PARENT
REMARK Flexibility Score: inf
ROOT
ATOM      1  C   UNL     1     116.861  52.669  54.751  1.00  0.00     0.000 C 
ENDROOT
BRANCH   1   2
ATOM      2  C   UNL     1     115.783  52.235  53.751  1.00  0.00     0.006 C 
BRANCH   2   3
ATOM      3  C   UNL     1     115.258  53.433  52.953  1.00  0.00     0.053 C 
BRANCH   3   4
ATOM      4  C   UNL     1     115.453  53.211  51.487  1.00  0.00     0.041 C 
ATOM      5  O   UNL     1     116.024  52.167  51.073  1.00  0.00    -0.550 OA
ATOM      6  O   UNL     1     115.049  54.181  50.578  1.00  0.00    -0.550 OA
ENDBRANCH   3   4
ENDBRANCH   2   3
ENDBRANCH   1   2
BRANCH   1   7
ATOM      7  C   UNL     1     118.257  52.602  54.120  1.00  0.00     0.000 C 
BRANCH   7   8
ATOM      8  C   UNL     1     118.983  53.949  54.246  1.00  0.00    -0.000 C 
BRANCH   8   9
ATOM      9  C   UNL     1     119.362  54.282  55.698  1.00  0.00    -0.003 C 
ATOM     10  C   UNL     1     120.689  53.652  56.121  1.00  0.00     0.004 C 
ENDBRANCH   8   9
ENDBRANCH   7   8
ENDBRANCH   1   7
TORSDOF 6
ENDMDL
MODEL 4
REMARK VINA RESULT:    -3.194      2.221      4.531
REMARK INTER + INTRA:          -4.639
REMARK INTER:                  -4.183
REMARK INTRA:                  -0.457
REMARK UNBOUND:                -0.326
REMARK SMILES CCCCCCCC(=O)[O-]
REMARK SMILES IDX 5 1 6 2 7 3 8 4 9 5 10 6 4 7 3 8 2 9 1 10
REMARK H PARENT
REMARK Flexibility Score: inf
ROOT
ATOM      1  C   UNL     1     126.473  54.303  43.358  1.00  0.00     0.000 C 
ENDROOT
BRANCH   1   2
ATOM      2  C   UNL     1     125.906  55.658  42.922  1.00  0.00     0.006 C 
BRANCH   2   3
ATOM      3  C   UNL     1     124.502  55.876  43.493  1.00  0.00     0.053 C 
BRANCH   3   4
ATOM      4  C   UNL     1     124.562  56.731  44.719  1.00  0.00     0.041 C 
ATOM      5  O   UNL     1     124.680  57.981  44.615  1.00  0.00    -0.550 OA
ATOM      6  O   UNL     1     124.537  56.144  45.978  1.00  0.00    -0.550 OA
ENDBRANCH   3   4
ENDBRANCH   2   3
ENDBRANCH   1   2
BRANCH   1   7
ATOM      7  C   UNL     1     125.414  53.199  43.246  1.00  0.00     0.000 C 
BRANCH   7   8
ATOM      8  C   UNL     1     125.386  52.334  44.514  1.00  0.00    -0.000 C 
BRANCH   8   9
ATOM      9  C   UNL     1     126.184  52.956  45.671  1.00  0.00    -0.003 C 
ATOM     10  C   UNL     1     126.653  51.918  46.691  1.00  0.00     0.004 C 
ENDBRANCH   8   9
ENDBRANCH   7   8
ENDBRANCH   1   7
TORSDOF 6
ENDMDL
MODEL 5
REMARK VINA RESULT:    -3.153     11.772     12.583
REMARK INTER + INTRA:          -4.585
REMARK INTER:                  -4.138
REMARK INTRA:                  -0.447
REMARK UNBOUND:                -0.326
REMARK SMILES CCCCCCCC(=O)[O-]
REMARK SMILES IDX 5 1 6 2 7 3 8 4 9 5 10 6 4 7 3 8 2 9 1 10
REMARK H PARENT
REMARK Flexibility Score: inf
ROOT
ATOM      1  C   UNL     1     117.854  52.344  53.921  1.00  0.00     0.000 C 
ENDROOT
BRANCH   1   2
ATOM      2  C   UNL     1     116.445  52.164  54.500  1.00  0.00     0.006 C 
BRANCH   2   3
ATOM      3  C   UNL     1     115.395  52.835  53.611  1.00  0.00     0.053 C 
BRANCH   3   4
ATOM      4  C   UNL     1     115.400  52.227  52.245  1.00  0.00     0.041 C 
ATOM      5  O   UNL     1     115.452  52.962  51.223  1.00  0.00    -0.550 OA
ATOM      6  O   UNL     1     115.297  50.849  52.096  1.00  0.00    -0.550 OA
ENDBRANCH   3   4
ENDBRANCH   2   3
ENDBRANCH   1   2
BRANCH   1   7
ATOM      7  C   UNL     1     118.605  53.472  54.639  1.00  0.00     0.000 C 
BRANCH   7   8
ATOM      8  C   UNL     1     119.274  54.416  53.629  1.00  0.00    -0.000 C 
BRANCH   8   9
ATOM      9  C   UNL     1     118.430  54.616  52.360  1.00  0.00    -0.003 C 
ATOM     10  C   UNL     1     118.523  56.038  51.807  1.00  0.00     0.004 C 
ENDBRANCH   8   9
ENDBRANCH   7   8
ENDBRANCH   1   7
TORSDOF 6
ENDMDL
MODEL 6
REMARK VINA RESULT:    -3.150     12.138     13.011
REMARK INTER + INTRA:          -4.581
REMARK INTER:                  -4.105
REMARK INTRA:                  -0.476
REMARK UNBOUND:                -0.326
REMARK SMILES CCCCCCCC(=O)[O-]
REMARK SMILES IDX 5 1 6 2 7 3 8 4 9 5 10 6 4 7 3 8 2 9 1 10
REMARK H PARENT
REMARK Flexibility Score: inf
ROOT
ATOM      1  C   UNL     1     116.389  52.253  54.650  1.00  0.00     0.000 C 
ENDROOT
BRANCH   1   2
ATOM      2  C   UNL     1     117.829  52.159  54.132  1.00  0.00     0.006 C 
BRANCH   2   3
ATOM      3  C   UNL     1     118.376  53.543  53.773  1.00  0.00     0.053 C 
BRANCH   3   4
ATOM      4  C   UNL     1     119.435  53.956  54.744  1.00  0.00     0.041 C 
ATOM      5  O   UNL     1     120.644  53.990  54.389  1.00  0.00    -0.550 OA
ATOM      6  O   UNL     1     119.096  54.257  56.057  1.00  0.00    -0.550 OA
ENDBRANCH   3   4
ENDBRANCH   2   3
ENDBRANCH   1   2
BRANCH   1   7
ATOM      7  C   UNL     1     115.451  52.811  53.571  1.00  0.00     0.000 C 
BRANCH   7   8
ATOM      8  C   UNL     1     115.325  51.833  52.394  1.00  0.00    -0.000 C 
BRANCH   8   9
ATOM      9  C   UNL     1     115.618  52.498  51.040  1.00  0.00    -0.003 C 
ATOM     10  C   UNL     1     115.427  54.015  51.073  1.00  0.00     0.004 C 
ENDBRANCH   8   9
ENDBRANCH   7   8
ENDBRANCH   1   7
TORSDOF 6
ENDMDL
MODEL 7
REMARK VINA RESULT:    -3.142      1.452      2.186
REMARK INTER + INTRA:          -4.569
REMARK INTER:                  -3.972
REMARK INTRA:                  -0.597
REMARK UNBOUND:                -0.326
REMARK SMILES CCCCCCCC(=O)[O-]
REMARK SMILES IDX 5 1 6 2 7 3 8 4 9 5 10 6 4 7 3 8 2 9 1 10
REMARK H PARENT
REMARK Flexibility Score: inf
ROOT
ATOM      1  C   UNL     1     124.697  55.719  43.503  1.00  0.00     0.000 C 
ENDROOT
BRANCH   1   2
ATOM      2  C   UNL     1     125.998  55.193  42.884  1.00  0.00     0.006 C 
BRANCH   2   3
ATOM      3  C   UNL     1     126.563  54.027  43.700  1.00  0.00     0.053 C 
BRANCH   3   4
ATOM      4  C   UNL     1     125.553  52.931  43.817  1.00  0.00     0.041 C 
ATOM      5  O   UNL     1     125.224  52.490  44.950  1.00  0.00    -0.550 OA
ATOM      6  O   UNL     1     125.010  52.361  42.672  1.00  0.00    -0.550 OA
ENDBRANCH   3   4
ENDBRANCH   2   3
ENDBRANCH   1   2
BRANCH   1   7
ATOM      7  C   UNL     1     124.933  57.045  44.238  1.00  0.00     0.000 C 
BRANCH   7   8
ATOM      8  C   UNL     1     124.245  57.042  45.611  1.00  0.00    -0.000 C 
BRANCH   8   9
ATOM      9  C   UNL     1     124.087  55.626  46.189  1.00  0.00    -0.003 C 
ATOM     10  C   UNL     1     125.165  55.284  47.218  1.00  0.00     0.004 C 
ENDBRANCH   8   9
ENDBRANCH   7   8
ENDBRANCH   1   7
TORSDOF 6
ENDMDL
MODEL 8
REMARK VINA RESULT:    -3.082     11.854     12.789
REMARK INTER + INTRA:          -4.489
REMARK INTER:                  -4.072
REMARK INTRA:                  -0.417
REMARK UNBOUND:                -0.326
REMARK SMILES CCCCCCCC(=O)[O-]
REMARK SMILES IDX 5 1 6 2 7 3 8 4 9 5 10 6 4 7 3 8 2 9 1 10
REMARK H PARENT
REMARK Flexibility Score: inf
ROOT
ATOM      1  C   UNL     1     119.329  54.245  53.978  1.00  0.00     0.000 C 
ENDROOT
BRANCH   1   2
ATOM      2  C   UNL     1     119.268  54.094  55.503  1.00  0.00     0.006 C 
BRANCH   2   3
ATOM      3  C   UNL     1     120.660  54.238  56.125  1.00  0.00     0.053 C 
BRANCH   3   4
ATOM      4  C   UNL     1     121.572  53.165  55.621  1.00  0.00     0.041 C 
ATOM      5  O   UNL     1     121.313  51.953  55.849  1.00  0.00    -0.550 OA
ATOM      6  O   UNL     1     122.735  53.505  54.942  1.00  0.00    -0.550 OA
ENDBRANCH   3   4
ENDBRANCH   2   3
ENDBRANCH   1   2
BRANCH   1   7
ATOM      7  C   UNL     1     118.273  53.367  53.294  1.00  0.00     0.000 C 
BRANCH   7   8
ATOM      8  C   UNL     1     117.753  52.286  54.252  1.00  0.00    -0.000 C 
BRANCH   8   9
ATOM      9  C   UNL     1     116.231  52.354  54.449  1.00  0.00    -0.003 C 
ATOM     10  C   UNL     1     115.511  53.012  53.271  1.00  0.00     0.004 C 
ENDBRANCH   8   9
ENDBRANCH   7   8
ENDBRANCH   1   7
TORSDOF 6
ENDMDL
MODEL 9
REMARK VINA RESULT:    -2.987      2.255      4.267
REMARK INTER + INTRA:          -4.360
REMARK INTER:                  -3.813
REMARK INTRA:                  -0.548
REMARK UNBOUND:                -0.326
REMARK SMILES CCCCCCCC(=O)[O-]
REMARK SMILES IDX 5 1 6 2 7 3 8 4 9 5 10 6 4 7 3 8 2 9 1 10
REMARK H PARENT
REMARK Flexibility Score: inf
ROOT
ATOM      1  C   UNL     1     124.318  55.402  43.380  1.00  0.00     0.000 C 
ENDROOT
BRANCH   1   2
ATOM      2  C   UNL     1     123.761  56.731  43.904  1.00  0.00     0.006 C 
BRANCH   2   3
ATOM      3  C   UNL     1     124.569  57.232  45.104  1.00  0.00     0.053 C 
BRANCH   3   4
ATOM      4  C   UNL     1     124.200  56.473  46.338  1.00  0.00     0.041 C 
ATOM      5  O   UNL     1     125.094  56.096  47.143  1.00  0.00    -0.550 OA
ATOM      6  O   UNL     1     122.873  56.137  46.577  1.00  0.00    -0.550 OA
ENDBRANCH   3   4
ENDBRANCH   2   3
ENDBRANCH   1   2
BRANCH   1   7
ATOM      7  C   UNL     1     125.825  55.502  43.115  1.00  0.00     0.000 C 
BRANCH   7   8
ATOM      8  C   UNL     1     126.531  54.179  43.445  1.00  0.00    -0.000 C 
BRANCH   8   9
ATOM      9  C   UNL     1     125.647  53.230  44.270  1.00  0.00    -0.003 C 
ATOM     10  C   UNL     1     126.163  53.031  45.695  1.00  0.00     0.004 C 
ENDBRANCH   8   9
ENDBRANCH   7   8
ENDBRANCH   1   7
TORSDOF 6
ENDMDL
