MODEL 1
REMARK VINA RESULT:    24.030      0.000      0.000
REMARK INTER + INTRA:          27.963
REMARK INTER:                  28.245
REMARK INTRA:                  -0.282
REMARK UNBOUND:                -0.282
REMARK SMILES Oc1ccc(-c2[o+]c3cc(O)cc(O)c3cc2O)cc1
REMARK SMILES IDX 6 1 7 2 8 3 9 4 10 5 12 6 13 7 15 8 16 9 17 10 5 11 4 12
REMARK SMILES IDX 3 13 2 14 19 15 20 16 1 17 18 19 11 21 14 23
REMARK H PARENT 1 18 18 20 11 22 14 24
REMARK Flexibility Score: inf
ROOT
ATOM      1  C   UNL     1      20.033 -12.568 -15.452  1.00  0.00     0.401 A 
ATOM      2  O   UNL     1      20.073 -12.662 -16.778  1.00  0.00    -0.202 OA
ATOM      3  C   UNL     1      21.148 -12.363 -17.500  1.00  0.00     0.368 A 
ATOM      4  C   UNL     1      21.092 -12.491 -18.889  1.00  0.00     0.162 A 
ATOM      5  C   UNL     1      22.208 -12.179 -19.672  1.00  0.00     0.128 A 
ATOM      6  C   UNL     1      23.384 -11.738 -19.062  1.00  0.00     0.093 A 
ATOM      7  C   UNL     1      23.466 -11.601 -17.671  1.00  0.00     0.136 A 
ATOM      8  C   UNL     1      22.338 -11.919 -16.871  1.00  0.00     0.125 A 
ATOM      9  C   UNL     1      22.332 -11.825 -15.470  1.00  0.00     0.078 A 
ATOM     10  C   UNL     1      21.182 -12.159 -14.750  1.00  0.00     0.223 A 
ENDROOT
BRANCH   1  11
ATOM     11  C   UNL     1      18.771 -12.921 -14.762  1.00  0.00     0.084 A 
ATOM     12  C   UNL     1      17.937 -11.896 -14.282  1.00  0.00     0.022 A 
ATOM     13  C   UNL     1      16.751 -12.206 -13.608  1.00  0.00     0.047 A 
ATOM     14  C   UNL     1      16.393 -13.540 -13.392  1.00  0.00     0.115 A 
ATOM     15  C   UNL     1      18.414 -14.260 -14.523  1.00  0.00     0.022 A 
ATOM     16  C   UNL     1      17.229 -14.567 -13.849  1.00  0.00     0.047 A 
BRANCH  14  17
ATOM     17  O   UNL     1      15.208 -13.834 -12.719  1.00  0.00    -0.508 OA
ATOM     18  H   UNL     1      14.825 -13.205 -12.023  1.00  0.00     0.293 HD
ENDBRANCH  14  17
ENDBRANCH   1  11
BRANCH  10  19
ATOM     19  O   UNL     1      21.192 -12.113 -13.354  1.00  0.00    -0.500 OA
ATOM     20  H   UNL     1      20.828 -12.874 -12.794  1.00  0.00     0.294 HD
ENDBRANCH  10  19
BRANCH   5  21
ATOM     21  O   UNL     1      22.159 -12.305 -21.059  1.00  0.00    -0.507 OA
ATOM     22  H   UNL     1      21.524 -11.748 -21.620  1.00  0.00     0.293 HD
ENDBRANCH   5  21
BRANCH   7  23
ATOM     23  O   UNL     1      24.677 -11.151 -17.138  1.00  0.00    -0.507 OA
ATOM     24  H   UNL     1      25.587 -11.395 -17.502  1.00  0.00     0.293 HD
ENDBRANCH   7  23
TORSDOF 5
ENDMDL
MODEL 2
REMARK VINA RESULT:    24.475      1.080      2.870
REMARK INTER + INTRA:          28.486
REMARK INTER:                  28.736
REMARK INTRA:                  -0.251
REMARK UNBOUND:                -0.282
REMARK SMILES Oc1ccc(-c2[o+]c3cc(O)cc(O)c3cc2O)cc1
REMARK SMILES IDX 6 1 7 2 8 3 9 4 10 5 12 6 13 7 15 8 16 9 17 10 5 11 4 12
REMARK SMILES IDX 3 13 2 14 19 15 20 16 1 17 18 19 11 21 14 23
REMARK H PARENT 1 18 18 20 11 22 14 24
REMARK Flexibility Score: inf
ROOT
ATOM      1  C   UNL     1      19.898 -12.657 -16.222  1.00  0.00     0.401 A 
ATOM      2  O   UNL     1      21.054 -12.140 -15.816  1.00  0.00    -0.202 OA
ATOM      3  C   UNL     1      22.047 -11.833 -16.645  1.00  0.00     0.368 A 
ATOM      4  C   UNL     1      23.227 -11.296 -16.124  1.00  0.00     0.162 A 
ATOM      5  C   UNL     1      24.288 -10.967 -16.973  1.00  0.00     0.128 A 
ATOM      6  C   UNL     1      24.168 -11.176 -18.348  1.00  0.00     0.093 A 
ATOM      7  C   UNL     1      22.996 -11.712 -18.896  1.00  0.00     0.136 A 
ATOM      8  C   UNL     1      21.915 -12.045 -18.039  1.00  0.00     0.125 A 
ATOM      9  C   UNL     1      20.699 -12.574 -18.500  1.00  0.00     0.078 A 
ATOM     10  C   UNL     1      19.677 -12.875 -17.595  1.00  0.00     0.223 A 
ENDROOT
BRANCH   1  11
ATOM     11  C   UNL     1      18.872 -12.967 -15.199  1.00  0.00     0.084 A 
ATOM     12  C   UNL     1      18.608 -14.307 -14.870  1.00  0.00     0.022 A 
ATOM     13  C   UNL     1      17.629 -14.624 -13.923  1.00  0.00     0.047 A 
ATOM     14  C   UNL     1      16.891 -13.609 -13.307  1.00  0.00     0.115 A 
ATOM     15  C   UNL     1      18.113 -11.951 -14.590  1.00  0.00     0.022 A 
ATOM     16  C   UNL     1      17.133 -12.271 -13.644  1.00  0.00     0.047 A 
BRANCH  14  17
ATOM     17  O   UNL     1      15.919 -13.940 -12.365  1.00  0.00    -0.508 OA
ATOM     18  H   UNL     1      15.094 -13.367 -12.233  1.00  0.00     0.293 HD
ENDBRANCH  14  17
ENDBRANCH   1  11
BRANCH  10  19
ATOM     19  O   UNL     1      18.450 -13.354 -18.057  1.00  0.00    -0.500 OA
ATOM     20  H   UNL     1      18.057 -14.224 -17.719  1.00  0.00     0.294 HD
ENDBRANCH  10  19
BRANCH   5  21
ATOM     21  O   UNL     1      25.468 -10.432 -16.459  1.00  0.00    -0.507 OA
ATOM     22  H   UNL     1      25.483  -9.932 -15.578  1.00  0.00     0.293 HD
ENDBRANCH   5  21
BRANCH   7  23
ATOM     23  O   UNL     1      22.957 -11.893 -20.281  1.00  0.00    -0.507 OA
ATOM     24  H   UNL     1      23.078 -11.153 -20.958  1.00  0.00     0.293 HD
ENDBRANCH   7  23
TORSDOF 5
ENDMDL
MODEL 3
REMARK VINA RESULT:    25.441     10.827     12.518
REMARK INTER + INTRA:          29.621
REMARK INTER:                  29.455
REMARK INTRA:                   0.166
REMARK UNBOUND:                -0.282
REMARK SMILES Oc1ccc(-c2[o+]c3cc(O)cc(O)c3cc2O)cc1
REMARK SMILES IDX 6 1 7 2 8 3 9 4 10 5 12 6 13 7 15 8 16 9 17 10 5 11 4 12
REMARK SMILES IDX 3 13 2 14 19 15 20 16 1 17 18 19 11 21 14 23
REMARK H PARENT 1 18 18 20 11 22 14 24
REMARK Flexibility Score: inf
ROOT
ATOM      1  C   UNL     1      28.670 -14.177 -23.306  1.00  0.00     0.401 A 
ATOM      2  O   UNL     1      28.944 -14.798 -24.451  1.00  0.00    -0.202 OA
ATOM      3  C   UNL     1      29.248 -16.089 -24.526  1.00  0.00     0.368 A 
ATOM      4  C   UNL     1      29.523 -16.652 -25.775  1.00  0.00     0.162 A 
ATOM      5  C   UNL     1      29.849 -18.007 -25.882  1.00  0.00     0.128 A 
ATOM      6  C   UNL     1      29.900 -18.802 -24.735  1.00  0.00     0.093 A 
ATOM      7  C   UNL     1      29.629 -18.264 -23.472  1.00  0.00     0.136 A 
ATOM      8  C   UNL     1      29.294 -16.889 -23.358  1.00  0.00     0.125 A 
ATOM      9  C   UNL     1      28.994 -16.266 -22.136  1.00  0.00     0.078 A 
ATOM     10  C   UNL     1      28.670 -14.907 -22.103  1.00  0.00     0.223 A 
ENDROOT
BRANCH   1  11
ATOM     11  C   UNL     1      28.355 -12.731 -23.352  1.00  0.00     0.084 A 
ATOM     12  C   UNL     1      28.827 -11.889 -22.330  1.00  0.00     0.022 A 
ATOM     13  C   UNL     1      28.524 -10.524 -22.341  1.00  0.00     0.047 A 
ATOM     14  C   UNL     1      27.734  -9.987 -23.361  1.00  0.00     0.115 A 
ATOM     15  C   UNL     1      27.544 -12.187 -24.365  1.00  0.00     0.022 A 
ATOM     16  C   UNL     1      27.242 -10.822 -24.373  1.00  0.00     0.047 A 
BRANCH  14  17
ATOM     17  O   UNL     1      27.440  -8.624 -23.359  1.00  0.00    -0.508 OA
ATOM     18  H   UNL     1      28.102  -7.941 -23.012  1.00  0.00     0.293 HD
ENDBRANCH  14  17
ENDBRANCH   1  11
BRANCH  10  19
ATOM     19  O   UNL     1      28.323 -14.299 -20.895  1.00  0.00    -0.500 OA
ATOM     20  H   UNL     1      27.379 -14.344 -20.529  1.00  0.00     0.294 HD
ENDBRANCH  10  19
BRANCH   5  21
ATOM     21  O   UNL     1      30.125 -18.574 -27.125  1.00  0.00    -0.507 OA
ATOM     22  H   UNL     1      30.475 -19.522 -27.210  1.00  0.00     0.293 HD
ENDBRANCH   5  21
BRANCH   7  23
ATOM     23  O   UNL     1      29.704 -19.125 -22.374  1.00  0.00    -0.507 OA
ATOM     24  H   UNL     1      29.976 -20.096 -22.428  1.00  0.00     0.293 HD
ENDBRANCH   7  23
TORSDOF 5
ENDMDL
MODEL 4
REMARK VINA RESULT:    26.364      4.910      7.151
REMARK INTER + INTRA:          30.706
REMARK INTER:                  30.957
REMARK INTRA:                  -0.250
REMARK UNBOUND:                -0.282
REMARK SMILES Oc1ccc(-c2[o+]c3cc(O)cc(O)c3cc2O)cc1
REMARK SMILES IDX 6 1 7 2 8 3 9 4 10 5 12 6 13 7 15 8 16 9 17 10 5 11 4 12
REMARK SMILES IDX 3 13 2 14 19 15 20 16 1 17 18 19 11 21 14 23
REMARK H PARENT 1 18 18 20 11 22 14 24
REMARK Flexibility Score: inf
ROOT
ATOM      1  C   UNL     1      22.469  -7.913 -18.331  1.00  0.00     0.401 A 
ATOM      2  O   UNL     1      22.059  -8.950 -19.055  1.00  0.00    -0.202 OA
ATOM      3  C   UNL     1      22.400 -10.207 -18.788  1.00  0.00     0.368 A 
ATOM      4  C   UNL     1      21.920 -11.231 -19.608  1.00  0.00     0.162 A 
ATOM      5  C   UNL     1      22.267 -12.561 -19.351  1.00  0.00     0.128 A 
ATOM      6  C   UNL     1      23.095 -12.867 -18.270  1.00  0.00     0.093 A 
ATOM      7  C   UNL     1      23.588 -11.860 -17.432  1.00  0.00     0.136 A 
ATOM      8  C   UNL     1      23.238 -10.509 -17.687  1.00  0.00     0.125 A 
ATOM      9  C   UNL     1      23.674  -9.435 -16.894  1.00  0.00     0.078 A 
ATOM     10  C   UNL     1      23.284  -8.129 -17.205  1.00  0.00     0.223 A 
ENDROOT
BRANCH   1  11
ATOM     11  C   UNL     1      22.029  -6.557 -18.737  1.00  0.00     0.084 A 
ATOM     12  C   UNL     1      22.953  -5.679 -19.327  1.00  0.00     0.022 A 
ATOM     13  C   UNL     1      22.565  -4.388 -19.698  1.00  0.00     0.047 A 
ATOM     14  C   UNL     1      21.256  -3.953 -19.470  1.00  0.00     0.115 A 
ATOM     15  C   UNL     1      20.718  -6.108 -18.492  1.00  0.00     0.022 A 
ATOM     16  C   UNL     1      20.333  -4.816 -18.863  1.00  0.00     0.047 A 
BRANCH  14  17
ATOM     17  O   UNL     1      20.883  -2.664 -19.845  1.00  0.00    -0.508 OA
ATOM     18  H   UNL     1      21.010  -1.874 -19.224  1.00  0.00     0.293 HD
ENDBRANCH  14  17
ENDBRANCH   1  11
BRANCH  10  19
ATOM     19  O   UNL     1      23.676  -7.068 -16.387  1.00  0.00    -0.500 OA
ATOM     20  H   UNL     1      23.011  -6.562 -15.815  1.00  0.00     0.294 HD
ENDBRANCH  10  19
BRANCH   5  21
ATOM     21  O   UNL     1      21.792 -13.587 -20.166  1.00  0.00    -0.507 OA
ATOM     22  H   UNL     1      22.376 -14.375 -20.422  1.00  0.00     0.293 HD
ENDBRANCH   5  21
BRANCH   7  23
ATOM     23  O   UNL     1      24.414 -12.249 -16.374  1.00  0.00    -0.507 OA
ATOM     24  H   UNL     1      25.406 -12.067 -16.326  1.00  0.00     0.293 HD
ENDBRANCH   7  23
TORSDOF 5
ENDMDL
