MODEL 1
REMARK VINA RESULT:     0.815      0.000      0.000
REMARK INTER + INTRA:           5.874
REMARK INTER:                   1.197
REMARK INTRA:                   4.678
REMARK UNBOUND:                 4.678
REMARK SMILES Cc1cc2c(C(C)C)c(O)c(O)c(C=O)c2c(O)c1-c1c(C)cc2c(C(C)C)c(O)c(O)c(C=O)c2c1O
REMARK SMILES IDX 1 1 2 2 3 3 4 4 16 5 13 6 11 7 9 8 5 9 17 10 19 11 20 12
REMARK SMILES IDX 37 13 21 14 36 15 23 16 22 17 24 18 33 19 25 20 31 21 29 22
REMARK SMILES IDX 38 23 34 25 35 26 26 27 27 28 28 29 32 30 30 32 18 34 6 36
REMARK SMILES IDX 7 37 8 38 14 39 15 40 10 41 12 43
REMARK H PARENT 38 24 32 31 30 33 18 35 10 42 12 44
REMARK Flexibility Score: inf
ROOT
ATOM      1  C   UNL     1      10.545   3.946  57.112  1.00  0.00     0.045 C 
ATOM      2  C   UNL     1      11.937   3.522  56.710  1.00  0.00    -0.039 A 
ATOM      3  C   UNL     1      12.654   2.660  57.540  1.00  0.00     0.013 A 
ATOM      4  C   UNL     1      13.955   2.217  57.212  1.00  0.00    -0.006 A 
ATOM      5  C   UNL     1      14.580   2.733  56.037  1.00  0.00     0.039 A 
ATOM      6  C   UNL     1      15.903   2.308  55.717  1.00  0.00     0.072 A 
ATOM      7  C   UNL     1      16.637   1.542  56.641  1.00  0.00     0.169 A 
ATOM      8  C   UNL     1      16.043   1.118  57.843  1.00  0.00     0.162 A 
ATOM      9  C   UNL     1      14.661   1.307  58.060  1.00  0.00     0.008 A 
ATOM     10  C   UNL     1      13.880   3.691  55.245  1.00  0.00     0.132 A 
ATOM     11  C   UNL     1      12.551   4.045  55.559  1.00  0.00     0.031 A 
ENDROOT
BRANCH  11  12
ATOM     12  C   UNL     1      11.811   5.004  54.697  1.00  0.00     0.031 A 
ATOM     13  C   UNL     1      11.204   6.145  55.261  1.00  0.00     0.132 A 
ATOM     14  C   UNL     1      11.689   4.752  53.322  1.00  0.00    -0.039 A 
ATOM     15  C   UNL     1      10.533   7.089  54.430  1.00  0.00     0.039 A 
ATOM     16  C   UNL     1      10.935   5.618  52.528  1.00  0.00     0.013 A 
ATOM     17  C   UNL     1      12.305   3.523  52.699  1.00  0.00     0.045 C 
ATOM     18  C   UNL     1      10.366   6.800  53.040  1.00  0.00    -0.006 A 
ATOM     19  C   UNL     1       9.974   8.290  54.954  1.00  0.00     0.072 A 
ATOM     20  C   UNL     1       9.609   7.688  52.210  1.00  0.00     0.008 A 
ATOM     21  C   UNL     1       9.075   9.032  54.180  1.00  0.00     0.169 A 
ATOM     22  C   UNL     1       8.850   8.707  52.839  1.00  0.00     0.162 A 
BRANCH  13  23
ATOM     23  O   UNL     1      11.219   6.317  56.650  1.00  0.00    -0.507 OA
ATOM     24  H   UNL     1      10.402   6.545  57.200  1.00  0.00     0.293 HD
ENDBRANCH  13  23
BRANCH  19  25
ATOM     25  C   UNL     1      10.340   8.849  56.275  1.00  0.00     0.264 C 
ATOM     26  O   UNL     1      10.982   9.929  56.361  1.00  0.00    -0.298 OA
ENDBRANCH  19  25
BRANCH  20  27
ATOM     27  C   UNL     1       9.622   7.638  50.670  1.00  0.00     0.017 C 
ATOM     28  C   UNL     1      10.854   6.906  50.119  1.00  0.00     0.012 C 
ATOM     29  C   UNL     1       9.378   8.999  49.984  1.00  0.00     0.012 C 
ENDBRANCH  20  27
BRANCH  21  30
ATOM     30  O   UNL     1       8.416  10.125  54.754  1.00  0.00    -0.504 OA
ATOM     31  H   UNL     1       7.500  10.434  54.455  1.00  0.00     0.293 HD
ENDBRANCH  21  30
BRANCH  22  32
ATOM     32  O   UNL     1       7.863   9.427  52.155  1.00  0.00    -0.504 OA
ATOM     33  H   UNL     1       7.591   9.245  51.199  1.00  0.00     0.293 HD
ENDBRANCH  22  32
ENDBRANCH  11  12
BRANCH  10  34
ATOM     34  O   UNL     1      14.518   4.324  54.172  1.00  0.00    -0.507 OA
ATOM     35  H   UNL     1      14.043   4.901  53.491  1.00  0.00     0.293 HD
ENDBRANCH  10  34
BRANCH   9  36
ATOM     36  C   UNL     1      13.966   0.577  59.223  1.00  0.00     0.017 C 
ATOM     37  C   UNL     1      13.107   1.544  60.043  1.00  0.00     0.012 C 
ATOM     38  C   UNL     1      14.930  -0.217  60.125  1.00  0.00     0.012 C 
ENDBRANCH   9  36
BRANCH   6  39
ATOM     39  C   UNL     1      16.519   2.573  54.394  1.00  0.00     0.264 C 
ATOM     40  O   UNL     1      17.389   3.472  54.249  1.00  0.00    -0.298 OA
ENDBRANCH   6  39
BRANCH   8  41
ATOM     41  O   UNL     1      16.814   0.515  58.841  1.00  0.00    -0.504 OA
ATOM     42  H   UNL     1      16.463  -0.177  59.489  1.00  0.00     0.293 HD
ENDBRANCH   8  41
BRANCH   7  43
ATOM     43  O   UNL     1      17.946   1.169  56.317  1.00  0.00    -0.504 OA
ATOM     44  H   UNL     1      18.197   0.279  55.907  1.00  0.00     0.293 HD
ENDBRANCH   7  43
TORSDOF 11
ENDMDL
MODEL 2
REMARK VINA RESULT:     1.331      0.945      9.441
REMARK INTER + INTRA:           6.632
REMARK INTER:                  -0.357
REMARK INTRA:                   6.988
REMARK UNBOUND:                 4.678
REMARK SMILES Cc1cc2c(C(C)C)c(O)c(O)c(C=O)c2c(O)c1-c1c(C)cc2c(C(C)C)c(O)c(O)c(C=O)c2c1O
REMARK SMILES IDX 1 1 2 2 3 3 4 4 16 5 13 6 11 7 9 8 5 9 17 10 19 11 20 12
REMARK SMILES IDX 37 13 21 14 36 15 23 16 22 17 24 18 33 19 25 20 31 21 29 22
REMARK SMILES IDX 38 23 34 25 35 26 26 27 27 28 28 29 32 30 30 32 18 34 6 36
REMARK SMILES IDX 7 37 8 38 14 39 15 40 10 41 12 43
REMARK H PARENT 38 24 32 31 30 33 18 35 10 42 12 44
REMARK Flexibility Score: inf
ROOT
ATOM      1  C   UNL     1      12.594   4.158  52.459  1.00  0.00     0.045 C 
ATOM      2  C   UNL     1      11.646   5.182  53.035  1.00  0.00    -0.039 A 
ATOM      3  C   UNL     1      11.014   6.084  52.178  1.00  0.00     0.013 A 
ATOM      4  C   UNL     1      10.107   7.057  52.654  1.00  0.00    -0.006 A 
ATOM      5  C   UNL     1       9.896   7.168  54.061  1.00  0.00     0.039 A 
ATOM      6  C   UNL     1       9.001   8.167  54.548  1.00  0.00     0.072 A 
ATOM      7  C   UNL     1       8.485   9.135  53.667  1.00  0.00     0.169 A 
ATOM      8  C   UNL     1       8.776   9.073  52.293  1.00  0.00     0.162 A 
ATOM      9  C   UNL     1       9.444   7.951  51.756  1.00  0.00     0.008 A 
ATOM     10  C   UNL     1      10.621   6.308  54.940  1.00  0.00     0.132 A 
ATOM     11  C   UNL     1      11.455   5.295  54.422  1.00  0.00     0.031 A 
ENDROOT
BRANCH  11  12
ATOM     12  C   UNL     1      12.164   4.370  55.344  1.00  0.00     0.031 A 
ATOM     13  C   UNL     1      13.512   4.028  55.110  1.00  0.00     0.132 A 
ATOM     14  C   UNL     1      11.478   3.810  56.432  1.00  0.00    -0.039 A 
ATOM     15  C   UNL     1      14.209   3.178  56.017  1.00  0.00     0.039 A 
ATOM     16  C   UNL     1      12.127   2.888  57.255  1.00  0.00     0.013 A 
ATOM     17  C   UNL     1      10.027   4.137  56.688  1.00  0.00     0.045 C 
ATOM     18  C   UNL     1      13.490   2.569  57.092  1.00  0.00    -0.006 A 
ATOM     19  C   UNL     1      15.590   2.871  55.854  1.00  0.00     0.072 A 
ATOM     20  C   UNL     1      14.148   1.633  57.955  1.00  0.00     0.008 A 
ATOM     21  C   UNL     1      16.155   1.812  56.573  1.00  0.00     0.169 A 
ATOM     22  C   UNL     1      15.430   1.161  57.575  1.00  0.00     0.162 A 
BRANCH  13  23
ATOM     23  O   UNL     1      14.147   4.487  53.950  1.00  0.00    -0.507 OA
ATOM     24  H   UNL     1      14.476   5.435  53.825  1.00  0.00     0.293 HD
ENDBRANCH  13  23
BRANCH  19  25
ATOM     25  C   UNL     1      16.502   3.661  54.996  1.00  0.00     0.264 C 
ATOM     26  O   UNL     1      17.119   3.118  54.042  1.00  0.00    -0.298 OA
ENDBRANCH  19  25
BRANCH  20  27
ATOM     27  C   UNL     1      13.569   1.159  59.302  1.00  0.00     0.017 C 
ATOM     28  C   UNL     1      12.981   2.314  60.124  1.00  0.00     0.012 C 
ATOM     29  C   UNL     1      14.519   0.261  60.124  1.00  0.00     0.012 C 
ENDBRANCH  20  27
BRANCH  21  30
ATOM     30  O   UNL     1      17.471   1.422  56.297  1.00  0.00    -0.504 OA
ATOM     31  H   UNL     1      17.984   1.754  55.490  1.00  0.00     0.293 HD
ENDBRANCH  21  30
BRANCH  22  32
ATOM     32  O   UNL     1      16.021   0.046  58.182  1.00  0.00    -0.504 OA
ATOM     33  H   UNL     1      15.507  -0.654  58.699  1.00  0.00     0.293 HD
ENDBRANCH  22  32
ENDBRANCH  11  12
BRANCH  10  34
ATOM     34  O   UNL     1      10.549   6.490  56.326  1.00  0.00    -0.507 OA
ATOM     35  H   UNL     1      11.248   6.158  56.978  1.00  0.00     0.293 HD
ENDBRANCH  10  34
BRANCH   9  36
ATOM     36  C   UNL     1       9.485   7.747  50.231  1.00  0.00     0.017 C 
ATOM     37  C   UNL     1      10.592   6.763  49.839  1.00  0.00     0.012 C 
ATOM     38  C   UNL     1       9.594   9.058  49.430  1.00  0.00     0.012 C 
ENDBRANCH   9  36
BRANCH   6  39
ATOM     39  C   UNL     1       8.517   8.177  55.949  1.00  0.00     0.264 C 
ATOM     40  O   UNL     1       7.289   8.269  56.213  1.00  0.00    -0.298 OA
ENDBRANCH   6  39
BRANCH   8  41
ATOM     41  O   UNL     1       8.420  10.125  51.444  1.00  0.00    -0.504 OA
ATOM     42  H   UNL     1       7.582  10.681  51.550  1.00  0.00     0.293 HD
ENDBRANCH   8  41
BRANCH   7  43
ATOM     43  O   UNL     1       7.636  10.124  54.177  1.00  0.00    -0.504 OA
ATOM     44  H   UNL     1       6.682   9.959  54.466  1.00  0.00     0.293 HD
ENDBRANCH   7  43
TORSDOF 11
ENDMDL
MODEL 3
REMARK VINA RESULT:     1.852      1.647      3.032
REMARK INTER + INTRA:           7.396
REMARK INTER:                   0.436
REMARK INTRA:                   6.961
REMARK UNBOUND:                 4.678
REMARK SMILES Cc1cc2c(C(C)C)c(O)c(O)c(C=O)c2c(O)c1-c1c(C)cc2c(C(C)C)c(O)c(O)c(C=O)c2c1O
REMARK SMILES IDX 1 1 2 2 3 3 4 4 16 5 13 6 11 7 9 8 5 9 17 10 19 11 20 12
REMARK SMILES IDX 37 13 21 14 36 15 23 16 22 17 24 18 33 19 25 20 31 21 29 22
REMARK SMILES IDX 38 23 34 25 35 26 26 27 27 28 28 29 32 30 30 32 18 34 6 36
REMARK SMILES IDX 7 37 8 38 14 39 15 40 10 41 12 43
REMARK H PARENT 38 24 32 31 30 33 18 35 10 42 12 44
REMARK Flexibility Score: inf
ROOT
ATOM      1  C   UNL     1      14.024   4.742  52.998  1.00  0.00     0.045 C 
ATOM      2  C   UNL     1      13.694   4.266  54.393  1.00  0.00    -0.039 A 
ATOM      3  C   UNL     1      14.538   3.349  55.019  1.00  0.00     0.013 A 
ATOM      4  C   UNL     1      14.290   2.877  56.328  1.00  0.00    -0.006 A 
ATOM      5  C   UNL     1      13.097   3.292  56.991  1.00  0.00     0.039 A 
ATOM      6  C   UNL     1      12.829   2.796  58.302  1.00  0.00     0.072 A 
ATOM      7  C   UNL     1      13.635   1.779  58.845  1.00  0.00     0.169 A 
ATOM      8  C   UNL     1      14.757   1.308  58.140  1.00  0.00     0.162 A 
ATOM      9  C   UNL     1      15.185   1.961  56.965  1.00  0.00     0.008 A 
ATOM     10  C   UNL     1      12.187   4.152  56.307  1.00  0.00     0.132 A 
ATOM     11  C   UNL     1      12.510   4.668  55.035  1.00  0.00     0.031 A 
ENDROOT
BRANCH  11  12
ATOM     12  C   UNL     1      11.581   5.606  54.352  1.00  0.00     0.031 A 
ATOM     13  C   UNL     1      10.866   6.566  55.097  1.00  0.00     0.132 A 
ATOM     14  C   UNL     1      11.391   5.512  52.965  1.00  0.00    -0.039 A 
ATOM     15  C   UNL     1      10.009   7.497  54.440  1.00  0.00     0.039 A 
ATOM     16  C   UNL     1      10.466   6.348  52.338  1.00  0.00     0.013 A 
ATOM     17  C   UNL     1      12.123   4.473  52.149  1.00  0.00     0.045 C 
ATOM     18  C   UNL     1       9.780   7.361  53.036  1.00  0.00    -0.006 A 
ATOM     19  C   UNL     1       9.330   8.528  55.150  1.00  0.00     0.072 A 
ATOM     20  C   UNL     1       8.845   8.223  52.376  1.00  0.00     0.008 A 
ATOM     21  C   UNL     1       8.281   9.219  54.535  1.00  0.00     0.169 A 
ATOM     22  C   UNL     1       8.002   9.034  53.178  1.00  0.00     0.162 A 
BRANCH  13  23
ATOM     23  O   UNL     1      10.963   6.565  56.493  1.00  0.00    -0.507 OA
ATOM     24  H   UNL     1      10.491   7.230  57.092  1.00  0.00     0.293 HD
ENDBRANCH  13  23
BRANCH  19  25
ATOM     25  C   UNL     1       9.714   8.966  56.511  1.00  0.00     0.264 C 
ATOM     26  O   UNL     1      10.493   9.943  56.677  1.00  0.00    -0.298 OA
ENDBRANCH  19  25
BRANCH  20  27
ATOM     27  C   UNL     1       8.748   8.367  50.845  1.00  0.00     0.017 C 
ATOM     28  C   UNL     1       9.888   7.642  50.116  1.00  0.00     0.012 C 
ATOM     29  C   UNL     1       8.547   9.816  50.350  1.00  0.00     0.012 C 
ENDBRANCH  20  27
BRANCH  21  30
ATOM     30  O   UNL     1       7.522  10.123  55.287  1.00  0.00    -0.504 OA
ATOM     31  H   UNL     1       7.147   9.899  56.200  1.00  0.00     0.293 HD
ENDBRANCH  21  30
BRANCH  22  32
ATOM     32  O   UNL     1       6.875   9.679  52.654  1.00  0.00    -0.504 OA
ATOM     33  H   UNL     1       6.495   9.495  51.736  1.00  0.00     0.293 HD
ENDBRANCH  22  32
ENDBRANCH  11  12
BRANCH  10  34
ATOM     34  O   UNL     1      10.943   4.458  56.871  1.00  0.00    -0.507 OA
ATOM     35  H   UNL     1      10.058   4.309  56.404  1.00  0.00     0.293 HD
ENDBRANCH  10  34
BRANCH   9  36
ATOM     36  C   UNL     1      16.571   1.640  56.376  1.00  0.00     0.017 C 
ATOM     37  C   UNL     1      17.010   2.723  55.386  1.00  0.00     0.012 C 
ATOM     38  C   UNL     1      16.671   0.236  55.750  1.00  0.00     0.012 C 
ENDBRANCH   9  36
BRANCH   6  39
ATOM     39  C   UNL     1      11.772   3.376  59.164  1.00  0.00     0.264 C 
ATOM     40  O   UNL     1      11.900   4.522  59.669  1.00  0.00    -0.298 OA
ENDBRANCH   6  39
BRANCH   8  41
ATOM     41  O   UNL     1      15.454   0.181  58.586  1.00  0.00    -0.504 OA
ATOM     42  H   UNL     1      16.269  -0.201  58.127  1.00  0.00     0.293 HD
ENDBRANCH   8  41
BRANCH   7  43
ATOM     43  O   UNL     1      13.330   1.286  60.119  1.00  0.00    -0.504 OA
ATOM     44  H   UNL     1      13.662   0.402  60.480  1.00  0.00     0.293 HD
ENDBRANCH   7  43
TORSDOF 11
ENDMDL
MODEL 4
REMARK VINA RESULT:     3.520      1.582      8.917
REMARK INTER + INTRA:           9.844
REMARK INTER:                   3.613
REMARK INTRA:                   6.232
REMARK UNBOUND:                 4.678
REMARK SMILES Cc1cc2c(C(C)C)c(O)c(O)c(C=O)c2c(O)c1-c1c(C)cc2c(C(C)C)c(O)c(O)c(C=O)c2c1O
REMARK SMILES IDX 1 1 2 2 3 3 4 4 16 5 13 6 11 7 9 8 5 9 17 10 19 11 20 12
REMARK SMILES IDX 37 13 21 14 36 15 23 16 22 17 24 18 33 19 25 20 31 21 29 22
REMARK SMILES IDX 38 23 34 25 35 26 26 27 27 28 28 29 32 30 30 32 18 34 6 36
REMARK SMILES IDX 7 37 8 38 14 39 15 40 10 41 12 43
REMARK H PARENT 38 24 32 31 30 33 18 35 10 42 12 44
REMARK Flexibility Score: inf
ROOT
ATOM      1  C   UNL     1      10.487   5.993  57.750  1.00  0.00     0.045 C 
ATOM      2  C   UNL     1      10.520   6.189  56.253  1.00  0.00    -0.039 A 
ATOM      3  C   UNL     1       9.681   7.139  55.671  1.00  0.00     0.013 A 
ATOM      4  C   UNL     1       9.675   7.379  54.278  1.00  0.00    -0.006 A 
ATOM      5  C   UNL     1      10.495   6.565  53.439  1.00  0.00     0.039 A 
ATOM      6  C   UNL     1      10.472   6.786  52.030  1.00  0.00     0.072 A 
ATOM      7  C   UNL     1       9.523   7.662  51.473  1.00  0.00     0.169 A 
ATOM      8  C   UNL     1       8.652   8.389  52.304  1.00  0.00     0.162 A 
ATOM      9  C   UNL     1       8.830   8.380  53.704  1.00  0.00     0.008 A 
ATOM     10  C   UNL     1      11.277   5.529  54.031  1.00  0.00     0.132 A 
ATOM     11  C   UNL     1      11.319   5.376  55.432  1.00  0.00     0.031 A 
ENDROOT
BRANCH  11  12
ATOM     12  C   UNL     1      12.178   4.327  56.042  1.00  0.00     0.031 A 
ATOM     13  C   UNL     1      13.491   4.120  55.571  1.00  0.00     0.132 A 
ATOM     14  C   UNL     1      11.667   3.520  57.070  1.00  0.00    -0.039 A 
ATOM     15  C   UNL     1      14.332   3.147  56.184  1.00  0.00     0.039 A 
ATOM     16  C   UNL     1      12.453   2.491  57.593  1.00  0.00     0.013 A 
ATOM     17  C   UNL     1      10.256   3.702  57.574  1.00  0.00     0.045 C 
ATOM     18  C   UNL     1      13.789   2.292  57.193  1.00  0.00    -0.006 A 
ATOM     19  C   UNL     1      15.687   2.962  55.784  1.00  0.00     0.072 A 
ATOM     20  C   UNL     1      14.589   1.243  57.750  1.00  0.00     0.008 A 
ATOM     21  C   UNL     1      16.379   1.815  56.189  1.00  0.00     0.169 A 
ATOM     22  C   UNL     1      15.820   0.934  57.119  1.00  0.00     0.162 A 
BRANCH  13  23
ATOM     23  O   UNL     1      13.944   4.840  54.460  1.00  0.00    -0.507 OA
ATOM     24  H   UNL     1      14.919   5.035  54.272  1.00  0.00     0.293 HD
ENDBRANCH  13  23
BRANCH  19  25
ATOM     25  C   UNL     1      16.446   3.960  54.999  1.00  0.00     0.264 C 
ATOM     26  O   UNL     1      17.163   3.605  54.026  1.00  0.00    -0.298 OA
ENDBRANCH  19  25
BRANCH  20  27
ATOM     27  C   UNL     1      14.218   0.473  59.033  1.00  0.00     0.017 C 
ATOM     28  C   UNL     1      13.259   1.266  59.933  1.00  0.00     0.012 C 
ATOM     29  C   UNL     1      15.424  -0.103  59.804  1.00  0.00     0.012 C 
ENDBRANCH  20  27
BRANCH  21  30
ATOM     30  O   UNL     1      17.655   1.567  55.670  1.00  0.00    -0.504 OA
ATOM     31  H   UNL     1      17.879   0.739  55.133  1.00  0.00     0.293 HD
ENDBRANCH  21  30
BRANCH  22  32
ATOM     32  O   UNL     1      16.524  -0.244  57.399  1.00  0.00    -0.504 OA
ATOM     33  H   UNL     1      16.738  -0.951  56.710  1.00  0.00     0.293 HD
ENDBRANCH  22  32
ENDBRANCH  11  12
BRANCH  10  34
ATOM     34  O   UNL     1      11.976   4.623  53.225  1.00  0.00    -0.507 OA
ATOM     35  H   UNL     1      12.035   3.630  53.409  1.00  0.00     0.293 HD
ENDBRANCH  10  34
BRANCH   9  36
ATOM     36  C   UNL     1       8.082   9.405  54.574  1.00  0.00     0.017 C 
ATOM     37  C   UNL     1       9.044  10.124  55.524  1.00  0.00     0.012 C 
ATOM     38  C   UNL     1       6.880   8.816  55.337  1.00  0.00     0.012 C 
ENDBRANCH   9  36
BRANCH   6  39
ATOM     39  C   UNL     1      11.479   6.187  51.121  1.00  0.00     0.264 C 
ATOM     40  O   UNL     1      12.606   5.822  51.549  1.00  0.00    -0.298 OA
ENDBRANCH   6  39
BRANCH   8  41
ATOM     41  O   UNL     1       7.592   9.118  51.757  1.00  0.00    -0.504 OA
ATOM     42  H   UNL     1       7.386   9.165  50.769  1.00  0.00     0.293 HD
ENDBRANCH   8  41
BRANCH   7  43
ATOM     43  O   UNL     1       9.499   7.834  50.084  1.00  0.00    -0.504 OA
ATOM     44  H   UNL     1       8.758   7.497  49.484  1.00  0.00     0.293 HD
ENDBRANCH   7  43
TORSDOF 11
ENDMDL
