MODEL 1
REMARK VINA RESULT:    -4.626      0.000      0.000
REMARK INTER + INTRA:         -15.731
REMARK INTER:                 -12.197
REMARK INTRA:                  -3.534
REMARK UNBOUND:                -3.534
REMARK SMILES CCCCCCCCCCCCCCCCCCCCCCCCCCCCCC(=O)[O-]
REMARK SMILES IDX 16 1 17 2 18 3 19 4 20 5 21 6 22 7 23 8 24 9 25 10 26 11
REMARK SMILES IDX 27 12 28 13 29 14 30 15 31 16 32 17 15 18 14 19 13 20 12 21
REMARK SMILES IDX 11 22 10 23 9 24 8 25 7 26 6 27 5 28 4 29 3 30 2 31 1 32
REMARK H PARENT
REMARK Flexibility Score: inf
ROOT
ATOM      1  C   UNL     1      39.565  -6.264   8.439  1.00  0.00     0.000 C 
ENDROOT
BRANCH   1   2
ATOM      2  C   UNL     1      40.231  -7.019   7.272  1.00  0.00     0.000 C 
BRANCH   2   3
ATOM      3  C   UNL     1      41.523  -7.774   7.640  1.00  0.00     0.000 C 
BRANCH   3   4
ATOM      4  C   UNL     1      41.365  -9.299   7.806  1.00  0.00     0.000 C 
BRANCH   4   5
ATOM      5  C   UNL     1      42.666 -10.055   8.134  1.00  0.00     0.000 C 
BRANCH   5   6
ATOM      6  C   UNL     1      43.916  -9.169   8.001  1.00  0.00     0.000 C 
BRANCH   6   7
ATOM      7  C   UNL     1      44.952  -9.745   7.019  1.00  0.00     0.000 C 
BRANCH   7   8
ATOM      8  C   UNL     1      44.367 -10.648   5.917  1.00  0.00     0.000 C 
BRANCH   8   9
ATOM      9  C   UNL     1      44.348 -10.032   4.503  1.00  0.00     0.000 C 
BRANCH   9  10
ATOM     10  C   UNL     1      43.316  -8.897   4.331  1.00  0.00     0.000 C 
BRANCH  10  11
ATOM     11  C   UNL     1      41.875  -9.424   4.203  1.00  0.00     0.000 C 
BRANCH  11  12
ATOM     12  C   UNL     1      41.056  -8.663   3.149  1.00  0.00     0.000 C 
BRANCH  12  13
ATOM     13  C   UNL     1      41.507  -7.199   2.992  1.00  0.00     0.006 C 
BRANCH  13  14
ATOM     14  C   UNL     1      40.656  -6.238   3.833  1.00  0.00     0.053 C 
BRANCH  14  15
ATOM     15  C   UNL     1      40.603  -4.868   3.229  1.00  0.00     0.041 C 
ATOM     16  O   UNL     1      41.476  -4.011   3.525  1.00  0.00    -0.550 OA
ATOM     17  O   UNL     1      39.606  -4.546   2.315  1.00  0.00    -0.550 OA
ENDBRANCH  14  15
ENDBRANCH  13  14
ENDBRANCH  12  13
ENDBRANCH  11  12
ENDBRANCH  10  11
ENDBRANCH   9  10
ENDBRANCH   8   9
ENDBRANCH   7   8
ENDBRANCH   6   7
ENDBRANCH   5   6
ENDBRANCH   4   5
ENDBRANCH   3   4
ENDBRANCH   2   3
ENDBRANCH   1   2
BRANCH   1  18
ATOM     18  C   UNL     1      40.237  -6.469   9.811  1.00  0.00     0.000 C 
BRANCH  18  19
ATOM     19  C   UNL     1      39.515  -7.457  10.748  1.00  0.00     0.000 C 
BRANCH  19  20
ATOM     20  C   UNL     1      38.190  -8.031  10.203  1.00  0.00     0.000 C 
BRANCH  20  21
ATOM     21  C   UNL     1      38.252  -9.496   9.735  1.00  0.00     0.000 C 
BRANCH  21  22
ATOM     22  C   UNL     1      37.369 -10.434  10.576  1.00  0.00     0.000 C 
BRANCH  22  23
ATOM     23  C   UNL     1      37.862 -10.569  12.026  1.00  0.00     0.000 C 
BRANCH  23  24
ATOM     24  C   UNL     1      36.720 -10.515  13.053  1.00  0.00    -0.000 C 
BRANCH  24  25
ATOM     25  C   UNL     1      36.670  -9.144  13.745  1.00  0.00    -0.000 C 
BRANCH  25  26
ATOM     26  C   UNL     1      35.875  -8.102  12.943  1.00  0.00    -0.000 C 
BRANCH  26  27
ATOM     27  C   UNL     1      34.605  -7.637  13.674  1.00  0.00    -0.000 C 
BRANCH  27  28
ATOM     28  C   UNL     1      33.983  -8.738  14.550  1.00  0.00    -0.000 C 
BRANCH  28  29
ATOM     29  C   UNL     1      32.517  -8.459  14.944  1.00  0.00    -0.000 C 
BRANCH  29  30
ATOM     30  C   UNL     1      32.408  -7.728  16.290  1.00  0.00    -0.000 C 
BRANCH  30  31
ATOM     31  C   UNL     1      33.601  -8.060  17.193  1.00  0.00    -0.003 C 
ATOM     32  C   UNL     1      34.455  -6.823  17.456  1.00  0.00     0.004 C 
ENDBRANCH  30  31
ENDBRANCH  29  30
ENDBRANCH  28  29
ENDBRANCH  27  28
ENDBRANCH  26  27
ENDBRANCH  25  26
ENDBRANCH  24  25
ENDBRANCH  23  24
ENDBRANCH  22  23
ENDBRANCH  21  22
ENDBRANCH  20  21
ENDBRANCH  19  20
ENDBRANCH  18  19
ENDBRANCH   1  18
TORSDOF 28
ENDMDL
MODEL 2
REMARK VINA RESULT:    -4.587      1.242      2.133
REMARK INTER + INTRA:         -15.630
REMARK INTER:                 -12.715
REMARK INTRA:                  -2.916
REMARK UNBOUND:                -3.534
REMARK SMILES CCCCCCCCCCCCCCCCCCCCCCCCCCCCCC(=O)[O-]
REMARK SMILES IDX 16 1 17 2 18 3 19 4 20 5 21 6 22 7 23 8 24 9 25 10 26 11
REMARK SMILES IDX 27 12 28 13 29 14 30 15 31 16 32 17 15 18 14 19 13 20 12 21
REMARK SMILES IDX 11 22 10 23 9 24 8 25 7 26 6 27 5 28 4 29 3 30 2 31 1 32
REMARK H PARENT
REMARK Flexibility Score: inf
ROOT
ATOM      1  C   UNL     1      39.544  -6.496   7.796  1.00  0.00     0.000 C 
ENDROOT
BRANCH   1   2
ATOM      2  C   UNL     1      40.674  -7.415   7.291  1.00  0.00     0.000 C 
BRANCH   2   3
ATOM      3  C   UNL     1      41.723  -7.798   8.352  1.00  0.00     0.000 C 
BRANCH   3   4
ATOM      4  C   UNL     1      42.771  -8.832   7.891  1.00  0.00     0.000 C 
BRANCH   4   5
ATOM      5  C   UNL     1      43.993  -8.239   7.165  1.00  0.00     0.000 C 
BRANCH   5   6
ATOM      6  C   UNL     1      44.275  -8.925   5.819  1.00  0.00     0.000 C 
BRANCH   6   7
ATOM      7  C   UNL     1      43.315 -10.094   5.534  1.00  0.00     0.000 C 
BRANCH   7   8
ATOM      8  C   UNL     1      42.239  -9.804   4.469  1.00  0.00     0.000 C 
BRANCH   8   9
ATOM      9  C   UNL     1      42.157  -8.337   4.002  1.00  0.00     0.000 C 
BRANCH   9  10
ATOM     10  C   UNL     1      40.886  -8.011   3.189  1.00  0.00     0.000 C 
BRANCH  10  11
ATOM     11  C   UNL     1      41.199  -7.272   1.875  1.00  0.00     0.000 C 
BRANCH  11  12
ATOM     12  C   UNL     1      41.208  -5.745   2.040  1.00  0.00     0.000 C 
BRANCH  12  13
ATOM     13  C   UNL     1      40.500  -5.284   3.327  1.00  0.00     0.006 C 
BRANCH  13  14
ATOM     14  C   UNL     1      40.471  -3.755   3.456  1.00  0.00     0.053 C 
BRANCH  14  15
ATOM     15  C   UNL     1      39.758  -3.112   2.306  1.00  0.00     0.041 C 
ATOM     16  O   UNL     1      38.536  -3.345   2.110  1.00  0.00    -0.550 OA
ATOM     17  O   UNL     1      40.433  -2.233   1.469  1.00  0.00    -0.550 OA
ENDBRANCH  14  15
ENDBRANCH  13  14
ENDBRANCH  12  13
ENDBRANCH  11  12
ENDBRANCH  10  11
ENDBRANCH   9  10
ENDBRANCH   8   9
ENDBRANCH   7   8
ENDBRANCH   6   7
ENDBRANCH   5   6
ENDBRANCH   4   5
ENDBRANCH   3   4
ENDBRANCH   2   3
ENDBRANCH   1   2
BRANCH   1  18
ATOM     18  C   UNL     1      39.357  -6.482   9.326  1.00  0.00     0.000 C 
BRANCH  18  19
ATOM     19  C   UNL     1      38.187  -7.341   9.847  1.00  0.00     0.000 C 
BRANCH  19  20
ATOM     20  C   UNL     1      38.433  -8.865   9.829  1.00  0.00     0.000 C 
BRANCH  20  21
ATOM     21  C   UNL     1      39.476  -9.374  10.840  1.00  0.00     0.000 C 
BRANCH  21  22
ATOM     22  C   UNL     1      38.848 -10.144  12.015  1.00  0.00     0.000 C 
BRANCH  22  23
ATOM     23  C   UNL     1      37.395 -10.562  11.739  1.00  0.00     0.000 C 
BRANCH  23  24
ATOM     24  C   UNL     1      36.431 -10.159  12.866  1.00  0.00    -0.000 C 
BRANCH  24  25
ATOM     25  C   UNL     1      36.776  -8.764  13.408  1.00  0.00    -0.000 C 
BRANCH  25  26
ATOM     26  C   UNL     1      36.113  -7.634  12.604  1.00  0.00    -0.000 C 
BRANCH  26  27
ATOM     27  C   UNL     1      34.982  -6.940  13.381  1.00  0.00    -0.000 C 
BRANCH  27  28
ATOM     28  C   UNL     1      34.682  -7.616  14.730  1.00  0.00    -0.000 C 
BRANCH  28  29
ATOM     29  C   UNL     1      33.340  -8.376  14.755  1.00  0.00    -0.000 C 
BRANCH  29  30
ATOM     30  C   UNL     1      32.412  -7.876  15.872  1.00  0.00    -0.000 C 
BRANCH  30  31
ATOM     31  C   UNL     1      31.463  -8.986  16.336  1.00  0.00    -0.003 C 
ATOM     32  C   UNL     1      30.925  -9.784  15.152  1.00  0.00     0.004 C 
ENDBRANCH  30  31
ENDBRANCH  29  30
ENDBRANCH  28  29
ENDBRANCH  27  28
ENDBRANCH  26  27
ENDBRANCH  25  26
ENDBRANCH  24  25
ENDBRANCH  23  24
ENDBRANCH  22  23
ENDBRANCH  21  22
ENDBRANCH  20  21
ENDBRANCH  19  20
ENDBRANCH  18  19
ENDBRANCH   1  18
TORSDOF 28
ENDMDL
MODEL 3
REMARK VINA RESULT:    -4.539      4.622     12.869
REMARK INTER + INTRA:         -15.502
REMARK INTER:                 -13.364
REMARK INTRA:                  -2.137
REMARK UNBOUND:                -3.534
REMARK SMILES CCCCCCCCCCCCCCCCCCCCCCCCCCCCCC(=O)[O-]
REMARK SMILES IDX 16 1 17 2 18 3 19 4 20 5 21 6 22 7 23 8 24 9 25 10 26 11
REMARK SMILES IDX 27 12 28 13 29 14 30 15 31 16 32 17 15 18 14 19 13 20 12 21
REMARK SMILES IDX 11 22 10 23 9 24 8 25 7 26 6 27 5 28 4 29 3 30 2 31 1 32
REMARK H PARENT
REMARK Flexibility Score: inf
ROOT
ATOM      1  C   UNL     1      38.380  -6.905   9.480  1.00  0.00     0.000 C 
ENDROOT
BRANCH   1   2
ATOM      2  C   UNL     1      37.667  -7.692  10.597  1.00  0.00     0.000 C 
BRANCH   2   3
ATOM      3  C   UNL     1      38.245  -7.484  12.010  1.00  0.00     0.000 C 
BRANCH   3   4
ATOM      4  C   UNL     1      37.256  -6.905  13.043  1.00  0.00     0.000 C 
BRANCH   4   5
ATOM      5  C   UNL     1      35.847  -7.527  13.011  1.00  0.00     0.000 C 
BRANCH   5   6
ATOM      6  C   UNL     1      35.404  -8.064  14.381  1.00  0.00     0.000 C 
BRANCH   6   7
ATOM      7  C   UNL     1      33.874  -8.074  14.551  1.00  0.00     0.000 C 
BRANCH   7   8
ATOM      8  C   UNL     1      33.379  -7.731  15.969  1.00  0.00     0.000 C 
BRANCH   8   9
ATOM      9  C   UNL     1      33.482  -8.876  16.996  1.00  0.00     0.000 C 
BRANCH   9  10
ATOM     10  C   UNL     1      33.160  -8.447  18.444  1.00  0.00     0.000 C 
BRANCH  10  11
ATOM     11  C   UNL     1      34.330  -7.704  19.113  1.00  0.00     0.000 C 
BRANCH  11  12
ATOM     12  C   UNL     1      33.945  -7.087  20.467  1.00  0.00     0.000 C 
BRANCH  12  13
ATOM     13  C   UNL     1      34.617  -5.724  20.709  1.00  0.00     0.006 C 
BRANCH  13  14
ATOM     14  C   UNL     1      35.164  -5.110  19.413  1.00  0.00     0.053 C 
BRANCH  14  15
ATOM     15  C   UNL     1      34.934  -3.630  19.358  1.00  0.00     0.041 C 
ATOM     16  O   UNL     1      33.772  -3.176  19.187  1.00  0.00    -0.550 OA
ATOM     17  O   UNL     1      35.998  -2.751  19.525  1.00  0.00    -0.550 OA
ENDBRANCH  14  15
ENDBRANCH  13  14
ENDBRANCH  12  13
ENDBRANCH  11  12
ENDBRANCH  10  11
ENDBRANCH   9  10
ENDBRANCH   8   9
ENDBRANCH   7   8
ENDBRANCH   6   7
ENDBRANCH   5   6
ENDBRANCH   4   5
ENDBRANCH   3   4
ENDBRANCH   2   3
ENDBRANCH   1   2
BRANCH   1  18
ATOM     18  C   UNL     1      39.884  -6.663   9.718  1.00  0.00     0.000 C 
BRANCH  18  19
ATOM     19  C   UNL     1      40.821  -7.350   8.705  1.00  0.00     0.000 C 
BRANCH  19  20
ATOM     20  C   UNL     1      40.939  -8.882   8.853  1.00  0.00     0.000 C 
BRANCH  20  21
ATOM     21  C   UNL     1      42.048  -9.540   8.012  1.00  0.00     0.000 C 
BRANCH  21  22
ATOM     22  C   UNL     1      43.349  -8.719   7.985  1.00  0.00     0.000 C 
BRANCH  22  23
ATOM     23  C   UNL     1      43.631  -8.102   6.606  1.00  0.00     0.000 C 
BRANCH  23  24
ATOM     24  C   UNL     1      43.156  -8.989   5.445  1.00  0.00    -0.000 C 
BRANCH  24  25
ATOM     25  C   UNL     1      42.251  -8.199   4.487  1.00  0.00    -0.000 C 
BRANCH  25  26
ATOM     26  C   UNL     1      41.421  -7.122   5.205  1.00  0.00    -0.000 C 
BRANCH  26  27
ATOM     27  C   UNL     1      40.571  -6.287   4.234  1.00  0.00    -0.000 C 
BRANCH  27  28
ATOM     28  C   UNL     1      41.022  -6.429   2.770  1.00  0.00    -0.000 C 
BRANCH  28  29
ATOM     29  C   UNL     1      40.702  -5.193   1.904  1.00  0.00    -0.000 C 
BRANCH  29  30
ATOM     30  C   UNL     1      40.852  -3.881   2.688  1.00  0.00    -0.000 C 
BRANCH  30  31
ATOM     31  C   UNL     1      39.533  -3.102   2.715  1.00  0.00    -0.003 C 
ATOM     32  C   UNL     1      38.444  -3.833   1.935  1.00  0.00     0.004 C 
ENDBRANCH  30  31
ENDBRANCH  29  30
ENDBRANCH  28  29
ENDBRANCH  27  28
ENDBRANCH  26  27
ENDBRANCH  25  26
ENDBRANCH  24  25
ENDBRANCH  23  24
ENDBRANCH  22  23
ENDBRANCH  21  22
ENDBRANCH  20  21
ENDBRANCH  19  20
ENDBRANCH  18  19
ENDBRANCH   1  18
TORSDOF 28
ENDMDL
MODEL 4
REMARK VINA RESULT:    -4.520      1.437      2.271
REMARK INTER + INTRA:         -15.452
REMARK INTER:                 -11.907
REMARK INTRA:                  -3.545
REMARK UNBOUND:                -3.534
REMARK SMILES CCCCCCCCCCCCCCCCCCCCCCCCCCCCCC(=O)[O-]
REMARK SMILES IDX 16 1 17 2 18 3 19 4 20 5 21 6 22 7 23 8 24 9 25 10 26 11
REMARK SMILES IDX 27 12 28 13 29 14 30 15 31 16 32 17 15 18 14 19 13 20 12 21
REMARK SMILES IDX 11 22 10 23 9 24 8 25 7 26 6 27 5 28 4 29 3 30 2 31 1 32
REMARK H PARENT
REMARK Flexibility Score: inf
ROOT
ATOM      1  C   UNL     1      38.772  -6.787  10.066  1.00  0.00     0.000 C 
ENDROOT
BRANCH   1   2
ATOM      2  C   UNL     1      39.746  -6.160   9.049  1.00  0.00     0.000 C 
BRANCH   2   3
ATOM      3  C   UNL     1      39.780  -6.850   7.671  1.00  0.00     0.000 C 
BRANCH   3   4
ATOM      4  C   UNL     1      40.683  -8.098   7.588  1.00  0.00     0.000 C 
BRANCH   4   5
ATOM      5  C   UNL     1      42.098  -7.915   8.167  1.00  0.00     0.000 C 
BRANCH   5   6
ATOM      6  C   UNL     1      43.162  -7.698   7.079  1.00  0.00     0.000 C 
BRANCH   6   7
ATOM      7  C   UNL     1      44.028  -8.947   6.834  1.00  0.00     0.000 C 
BRANCH   7   8
ATOM      8  C   UNL     1      43.286 -10.132   6.186  1.00  0.00     0.000 C 
BRANCH   8   9
ATOM      9  C   UNL     1      43.235 -10.112   4.645  1.00  0.00     0.000 C 
BRANCH   9  10
ATOM     10  C   UNL     1      41.905  -9.578   4.071  1.00  0.00     0.000 C 
BRANCH  10  11
ATOM     11  C   UNL     1      41.994  -8.098   3.655  1.00  0.00     0.000 C 
BRANCH  11  12
ATOM     12  C   UNL     1      40.727  -7.305   4.011  1.00  0.00     0.000 C 
BRANCH  12  13
ATOM     13  C   UNL     1      40.985  -5.791   4.110  1.00  0.00     0.006 C 
BRANCH  13  14
ATOM     14  C   UNL     1      40.107  -4.990   3.140  1.00  0.00     0.053 C 
BRANCH  14  15
ATOM     15  C   UNL     1      40.514  -3.549   3.080  1.00  0.00     0.041 C 
ATOM     16  O   UNL     1      39.709  -2.681   2.652  1.00  0.00    -0.550 OA
ATOM     17  O   UNL     1      41.773  -3.160   3.523  1.00  0.00    -0.550 OA
ENDBRANCH  14  15
ENDBRANCH  13  14
ENDBRANCH  12  13
ENDBRANCH  11  12
ENDBRANCH  10  11
ENDBRANCH   9  10
ENDBRANCH   8   9
ENDBRANCH   7   8
ENDBRANCH   6   7
ENDBRANCH   5   6
ENDBRANCH   4   5
ENDBRANCH   3   4
ENDBRANCH   2   3
ENDBRANCH   1   2
BRANCH   1  18
ATOM     18  C   UNL     1      39.430  -7.716  11.105  1.00  0.00     0.000 C 
BRANCH  18  19
ATOM     19  C   UNL     1      39.205  -9.222  10.866  1.00  0.00     0.000 C 
BRANCH  19  20
ATOM     20  C   UNL     1      37.796  -9.605  10.365  1.00  0.00     0.000 C 
BRANCH  20  21
ATOM     21  C   UNL     1      37.190 -10.865  11.008  1.00  0.00     0.000 C 
BRANCH  21  22
ATOM     22  C   UNL     1      36.232 -10.546  12.170  1.00  0.00     0.000 C 
BRANCH  22  23
ATOM     23  C   UNL     1      36.950  -9.911  13.371  1.00  0.00     0.000 C 
BRANCH  23  24
ATOM     24  C   UNL     1      36.524  -8.456  13.622  1.00  0.00    -0.000 C 
BRANCH  24  25
ATOM     25  C   UNL     1      35.030  -8.263  13.321  1.00  0.00    -0.000 C 
BRANCH  25  26
ATOM     26  C   UNL     1      34.221  -7.853  14.562  1.00  0.00    -0.000 C 
BRANCH  26  27
ATOM     27  C   UNL     1      33.956  -9.032  15.512  1.00  0.00    -0.000 C 
BRANCH  27  28
ATOM     28  C   UNL     1      33.502 -10.303  14.774  1.00  0.00    -0.000 C 
BRANCH  28  29
ATOM     29  C   UNL     1      32.043 -10.238  14.273  1.00  0.00    -0.000 C 
BRANCH  29  30
ATOM     30  C   UNL     1      31.104  -9.601  15.308  1.00  0.00    -0.000 C 
BRANCH  30  31
ATOM     31  C   UNL     1      30.024 -10.593  15.753  1.00  0.00    -0.003 C 
ATOM     32  C   UNL     1      30.153 -10.920  17.238  1.00  0.00     0.004 C 
ENDBRANCH  30  31
ENDBRANCH  29  30
ENDBRANCH  28  29
ENDBRANCH  27  28
ENDBRANCH  26  27
ENDBRANCH  25  26
ENDBRANCH  24  25
ENDBRANCH  23  24
ENDBRANCH  22  23
ENDBRANCH  21  22
ENDBRANCH  20  21
ENDBRANCH  19  20
ENDBRANCH  18  19
ENDBRANCH   1  18
TORSDOF 28
ENDMDL
MODEL 5
REMARK VINA RESULT:    -4.487      1.386      2.283
REMARK INTER + INTRA:         -15.366
REMARK INTER:                 -12.764
REMARK INTRA:                  -2.602
REMARK UNBOUND:                -3.534
REMARK SMILES CCCCCCCCCCCCCCCCCCCCCCCCCCCCCC(=O)[O-]
REMARK SMILES IDX 16 1 17 2 18 3 19 4 20 5 21 6 22 7 23 8 24 9 25 10 26 11
REMARK SMILES IDX 27 12 28 13 29 14 30 15 31 16 32 17 15 18 14 19 13 20 12 21
REMARK SMILES IDX 11 22 10 23 9 24 8 25 7 26 6 27 5 28 4 29 3 30 2 31 1 32
REMARK H PARENT
REMARK Flexibility Score: inf
ROOT
ATOM      1  C   UNL     1      39.858  -6.608   8.462  1.00  0.00     0.000 C 
ENDROOT
BRANCH   1   2
ATOM      2  C   UNL     1      40.638  -7.523   7.496  1.00  0.00     0.000 C 
BRANCH   2   3
ATOM      3  C   UNL     1      41.882  -8.199   8.103  1.00  0.00     0.000 C 
BRANCH   3   4
ATOM      4  C   UNL     1      41.898  -9.739   8.016  1.00  0.00     0.000 C 
BRANCH   4   5
ATOM      5  C   UNL     1      43.248 -10.395   8.359  1.00  0.00     0.000 C 
BRANCH   5   6
ATOM      6  C   UNL     1      44.450  -9.524   7.958  1.00  0.00     0.000 C 
BRANCH   6   7
ATOM      7  C   UNL     1      45.328 -10.181   6.878  1.00  0.00     0.000 C 
BRANCH   7   8
ATOM      8  C   UNL     1      44.628 -10.409   5.524  1.00  0.00     0.000 C 
BRANCH   8   9
ATOM      9  C   UNL     1      44.461  -9.149   4.651  1.00  0.00     0.000 C 
BRANCH   9  10
ATOM     10  C   UNL     1      43.048  -8.530   4.711  1.00  0.00     0.000 C 
BRANCH  10  11
ATOM     11  C   UNL     1      41.996  -9.390   3.988  1.00  0.00     0.000 C 
BRANCH  11  12
ATOM     12  C   UNL     1      41.082  -8.564   3.070  1.00  0.00     0.000 C 
BRANCH  12  13
ATOM     13  C   UNL     1      41.782  -7.313   2.509  1.00  0.00     0.006 C 
BRANCH  13  14
ATOM     14  C   UNL     1      40.818  -6.414   1.723  1.00  0.00     0.053 C 
BRANCH  14  15
ATOM     15  C   UNL     1      40.494  -5.157   2.472  1.00  0.00     0.041 C 
ATOM     16  O   UNL     1      40.081  -4.140   1.854  1.00  0.00    -0.550 OA
ATOM     17  O   UNL     1      40.619  -5.116   3.856  1.00  0.00    -0.550 OA
ENDBRANCH  14  15
ENDBRANCH  13  14
ENDBRANCH  12  13
ENDBRANCH  11  12
ENDBRANCH  10  11
ENDBRANCH   9  10
ENDBRANCH   8   9
ENDBRANCH   7   8
ENDBRANCH   6   7
ENDBRANCH   5   6
ENDBRANCH   4   5
ENDBRANCH   3   4
ENDBRANCH   2   3
ENDBRANCH   1   2
BRANCH   1  18
ATOM     18  C   UNL     1      40.213  -6.788   9.952  1.00  0.00     0.000 C 
BRANCH  18  19
ATOM     19  C   UNL     1      39.453  -7.920  10.670  1.00  0.00     0.000 C 
BRANCH  19  20
ATOM     20  C   UNL     1      38.002  -8.143  10.192  1.00  0.00     0.000 C 
BRANCH  20  21
ATOM     21  C   UNL     1      37.006  -8.560  11.290  1.00  0.00     0.000 C 
BRANCH  21  22
ATOM     22  C   UNL     1      36.126  -7.395  11.777  1.00  0.00     0.000 C 
BRANCH  22  23
ATOM     23  C   UNL     1      36.813  -6.548  12.859  1.00  0.00     0.000 C 
BRANCH  23  24
ATOM     24  C   UNL     1      36.632  -7.121  14.273  1.00  0.00    -0.000 C 
BRANCH  24  25
ATOM     25  C   UNL     1      35.157  -7.069  14.700  1.00  0.00    -0.000 C 
BRANCH  25  26
ATOM     26  C   UNL     1      34.523  -8.464  14.821  1.00  0.00    -0.000 C 
BRANCH  26  27
ATOM     27  C   UNL     1      32.989  -8.428  14.722  1.00  0.00    -0.000 C 
BRANCH  27  28
ATOM     28  C   UNL     1      32.324  -7.837  15.977  1.00  0.00    -0.000 C 
BRANCH  28  29
ATOM     29  C   UNL     1      31.551  -8.878  16.814  1.00  0.00    -0.000 C 
BRANCH  29  30
ATOM     30  C   UNL     1      31.711 -10.301  16.257  1.00  0.00    -0.000 C 
BRANCH  30  31
ATOM     31  C   UNL     1      30.485 -10.710  15.434  1.00  0.00    -0.003 C 
ATOM     32  C   UNL     1      29.283 -10.985  16.333  1.00  0.00     0.004 C 
ENDBRANCH  30  31
ENDBRANCH  29  30
ENDBRANCH  28  29
ENDBRANCH  27  28
ENDBRANCH  26  27
ENDBRANCH  25  26
ENDBRANCH  24  25
ENDBRANCH  23  24
ENDBRANCH  22  23
ENDBRANCH  21  22
ENDBRANCH  20  21
ENDBRANCH  19  20
ENDBRANCH  18  19
ENDBRANCH   1  18
TORSDOF 28
ENDMDL
MODEL 6
REMARK VINA RESULT:    -4.451      1.677      3.630
REMARK INTER + INTRA:         -15.271
REMARK INTER:                 -12.696
REMARK INTRA:                  -2.576
REMARK UNBOUND:                -3.534
REMARK SMILES CCCCCCCCCCCCCCCCCCCCCCCCCCCCCC(=O)[O-]
REMARK SMILES IDX 16 1 17 2 18 3 19 4 20 5 21 6 22 7 23 8 24 9 25 10 26 11
REMARK SMILES IDX 27 12 28 13 29 14 30 15 31 16 32 17 15 18 14 19 13 20 12 21
REMARK SMILES IDX 11 22 10 23 9 24 8 25 7 26 6 27 5 28 4 29 3 30 2 31 1 32
REMARK H PARENT
REMARK Flexibility Score: inf
ROOT
ATOM      1  C   UNL     1      37.787  -7.829  10.607  1.00  0.00     0.000 C 
ENDROOT
BRANCH   1   2
ATOM      2  C   UNL     1      39.123  -7.381  11.231  1.00  0.00     0.000 C 
BRANCH   2   3
ATOM      3  C   UNL     1      40.256  -7.118  10.220  1.00  0.00     0.000 C 
BRANCH   3   4
ATOM      4  C   UNL     1      39.795  -6.880   8.768  1.00  0.00     0.000 C 
BRANCH   4   5
ATOM      5  C   UNL     1      40.639  -7.592   7.694  1.00  0.00     0.000 C 
BRANCH   5   6
ATOM      6  C   UNL     1      41.405  -8.803   8.249  1.00  0.00     0.000 C 
BRANCH   6   7
ATOM      7  C   UNL     1      42.838  -8.907   7.696  1.00  0.00     0.000 C 
BRANCH   7   8
ATOM      8  C   UNL     1      43.177  -7.895   6.584  1.00  0.00     0.000 C 
BRANCH   8   9
ATOM      9  C   UNL     1      43.305  -8.493   5.168  1.00  0.00     0.000 C 
BRANCH   9  10
ATOM     10  C   UNL     1      42.063  -9.288   4.711  1.00  0.00     0.000 C 
BRANCH  10  11
ATOM     11  C   UNL     1      41.338  -8.621   3.529  1.00  0.00     0.000 C 
BRANCH  11  12
ATOM     12  C   UNL     1      40.814  -7.217   3.869  1.00  0.00     0.000 C 
BRANCH  12  13
ATOM     13  C   UNL     1      41.133  -6.184   2.773  1.00  0.00     0.006 C 
BRANCH  13  14
ATOM     14  C   UNL     1      41.067  -4.744   3.298  1.00  0.00     0.053 C 
BRANCH  14  15
ATOM     15  C   UNL     1      39.930  -3.980   2.689  1.00  0.00     0.041 C 
ATOM     16  O   UNL     1      39.367  -4.408   1.648  1.00  0.00    -0.550 OA
ATOM     17  O   UNL     1      39.473  -2.813   3.288  1.00  0.00    -0.550 OA
ENDBRANCH  14  15
ENDBRANCH  13  14
ENDBRANCH  12  13
ENDBRANCH  11  12
ENDBRANCH  10  11
ENDBRANCH   9  10
ENDBRANCH   8   9
ENDBRANCH   7   8
ENDBRANCH   6   7
ENDBRANCH   5   6
ENDBRANCH   4   5
ENDBRANCH   3   4
ENDBRANCH   2   3
ENDBRANCH   1   2
BRANCH   1  18
ATOM     18  C   UNL     1      36.575  -7.766  11.557  1.00  0.00     0.000 C 
BRANCH  18  19
ATOM     19  C   UNL     1      36.812  -6.982  12.863  1.00  0.00     0.000 C 
BRANCH  19  20
ATOM     20  C   UNL     1      36.066  -7.525  14.100  1.00  0.00     0.000 C 
BRANCH  20  21
ATOM     21  C   UNL     1      35.568  -8.977  13.982  1.00  0.00     0.000 C 
BRANCH  21  22
ATOM     22  C   UNL     1      34.055  -9.115  14.223  1.00  0.00     0.000 C 
BRANCH  22  23
ATOM     23  C   UNL     1      33.671 -10.483  14.810  1.00  0.00     0.000 C 
BRANCH  23  24
ATOM     24  C   UNL     1      32.286 -10.964  14.351  1.00  0.00    -0.000 C 
BRANCH  24  25
ATOM     25  C   UNL     1      31.199  -9.946  14.732  1.00  0.00    -0.000 C 
BRANCH  25  26
ATOM     26  C   UNL     1      30.155 -10.525  15.700  1.00  0.00    -0.000 C 
BRANCH  26  27
ATOM     27  C   UNL     1      30.522 -10.290  17.175  1.00  0.00    -0.000 C 
BRANCH  27  28
ATOM     28  C   UNL     1      31.303  -8.983  17.394  1.00  0.00    -0.000 C 
BRANCH  28  29
ATOM     29  C   UNL     1      32.181  -8.996  18.664  1.00  0.00    -0.000 C 
BRANCH  29  30
ATOM     30  C   UNL     1      33.542  -9.666  18.420  1.00  0.00    -0.000 C 
BRANCH  30  31
ATOM     31  C   UNL     1      34.537  -9.309  19.529  1.00  0.00    -0.003 C 
ATOM     32  C   UNL     1      34.321  -7.883  20.026  1.00  0.00     0.004 C 
ENDBRANCH  30  31
ENDBRANCH  29  30
ENDBRANCH  28  29
ENDBRANCH  27  28
ENDBRANCH  26  27
ENDBRANCH  25  26
ENDBRANCH  24  25
ENDBRANCH  23  24
ENDBRANCH  22  23
ENDBRANCH  21  22
ENDBRANCH  20  21
ENDBRANCH  19  20
ENDBRANCH  18  19
ENDBRANCH   1  18
TORSDOF 28
ENDMDL
MODEL 7
REMARK VINA RESULT:    -4.422      4.277     11.415
REMARK INTER + INTRA:         -15.193
REMARK INTER:                 -12.157
REMARK INTRA:                  -3.036
REMARK UNBOUND:                -3.534
REMARK SMILES CCCCCCCCCCCCCCCCCCCCCCCCCCCCCC(=O)[O-]
REMARK SMILES IDX 16 1 17 2 18 3 19 4 20 5 21 6 22 7 23 8 24 9 25 10 26 11
REMARK SMILES IDX 27 12 28 13 29 14 30 15 31 16 32 17 15 18 14 19 13 20 12 21
REMARK SMILES IDX 11 22 10 23 9 24 8 25 7 26 6 27 5 28 4 29 3 30 2 31 1 32
REMARK H PARENT
REMARK Flexibility Score: inf
ROOT
ATOM      1  C   UNL     1      41.618  -7.485   7.513  1.00  0.00     0.000 C 
ENDROOT
BRANCH   1   2
ATOM      2  C   UNL     1      40.083  -7.384   7.611  1.00  0.00     0.000 C 
BRANCH   2   3
ATOM      3  C   UNL     1      39.562  -6.422   8.697  1.00  0.00     0.000 C 
BRANCH   3   4
ATOM      4  C   UNL     1      40.159  -6.639  10.103  1.00  0.00     0.000 C 
BRANCH   4   5
ATOM      5  C   UNL     1      39.413  -7.667  10.973  1.00  0.00     0.000 C 
BRANCH   5   6
ATOM      6  C   UNL     1      38.016  -8.005  10.426  1.00  0.00     0.000 C 
BRANCH   6   7
ATOM      7  C   UNL     1      36.881  -7.469  11.317  1.00  0.00     0.000 C 
BRANCH   7   8
ATOM      8  C   UNL     1      37.304  -7.103  12.753  1.00  0.00     0.000 C 
BRANCH   8   9
ATOM      9  C   UNL     1      36.151  -7.003  13.772  1.00  0.00     0.000 C 
BRANCH   9  10
ATOM     10  C   UNL     1      35.053  -8.071  13.580  1.00  0.00     0.000 C 
BRANCH  10  11
ATOM     11  C   UNL     1      35.533  -9.485  13.953  1.00  0.00     0.000 C 
BRANCH  11  12
ATOM     12  C   UNL     1      34.395 -10.517  13.953  1.00  0.00     0.000 C 
BRANCH  12  13
ATOM     13  C   UNL     1      33.149 -10.026  14.712  1.00  0.00     0.006 C 
BRANCH  13  14
ATOM     14  C   UNL     1      33.437  -9.780  16.199  1.00  0.00     0.053 C 
BRANCH  14  15
ATOM     15  C   UNL     1      32.780  -8.527  16.694  1.00  0.00     0.041 C 
ATOM     16  O   UNL     1      31.542  -8.509  16.920  1.00  0.00    -0.550 OA
ATOM     17  O   UNL     1      33.540  -7.388  16.935  1.00  0.00    -0.550 OA
ENDBRANCH  14  15
ENDBRANCH  13  14
ENDBRANCH  12  13
ENDBRANCH  11  12
ENDBRANCH  10  11
ENDBRANCH   9  10
ENDBRANCH   8   9
ENDBRANCH   7   8
ENDBRANCH   6   7
ENDBRANCH   5   6
ENDBRANCH   4   5
ENDBRANCH   3   4
ENDBRANCH   2   3
ENDBRANCH   1   2
BRANCH   1  18
ATOM     18  C   UNL     1      42.240  -8.660   8.293  1.00  0.00     0.000 C 
BRANCH  18  19
ATOM     19  C   UNL     1      41.841 -10.061   7.787  1.00  0.00     0.000 C 
BRANCH  19  20
ATOM     20  C   UNL     1      43.014 -11.040   7.570  1.00  0.00     0.000 C 
BRANCH  20  21
ATOM     21  C   UNL     1      44.398 -10.510   7.987  1.00  0.00     0.000 C 
BRANCH  21  22
ATOM     22  C   UNL     1      45.430 -10.560   6.847  1.00  0.00     0.000 C 
BRANCH  22  23
ATOM     23  C   UNL     1      44.779 -10.754   5.468  1.00  0.00     0.000 C 
BRANCH  23  24
ATOM     24  C   UNL     1      44.815  -9.484   4.605  1.00  0.00    -0.000 C 
BRANCH  24  25
ATOM     25  C   UNL     1      43.505  -8.692   4.742  1.00  0.00    -0.000 C 
BRANCH  25  26
ATOM     26  C   UNL     1      42.296  -9.437   4.154  1.00  0.00    -0.000 C 
BRANCH  26  27
ATOM     27  C   UNL     1      41.258  -8.486   3.536  1.00  0.00    -0.000 C 
BRANCH  27  28
ATOM     28  C   UNL     1      41.894  -7.414   2.634  1.00  0.00    -0.000 C 
BRANCH  28  29
ATOM     29  C   UNL     1      40.963  -6.218   2.347  1.00  0.00    -0.000 C 
BRANCH  29  30
ATOM     30  C   UNL     1      40.607  -5.443   3.625  1.00  0.00    -0.000 C 
BRANCH  30  31
ATOM     31  C   UNL     1      40.399  -3.954   3.325  1.00  0.00    -0.003 C 
ATOM     32  C   UNL     1      41.733  -3.225   3.198  1.00  0.00     0.004 C 
ENDBRANCH  30  31
ENDBRANCH  29  30
ENDBRANCH  28  29
ENDBRANCH  27  28
ENDBRANCH  26  27
ENDBRANCH  25  26
ENDBRANCH  24  25
ENDBRANCH  23  24
ENDBRANCH  22  23
ENDBRANCH  21  22
ENDBRANCH  20  21
ENDBRANCH  19  20
ENDBRANCH  18  19
ENDBRANCH   1  18
TORSDOF 28
ENDMDL
MODEL 8
REMARK VINA RESULT:    -4.406      4.659     11.724
REMARK INTER + INTRA:         -15.153
REMARK INTER:                 -12.801
REMARK INTRA:                  -2.352
REMARK UNBOUND:                -3.534
REMARK SMILES CCCCCCCCCCCCCCCCCCCCCCCCCCCCCC(=O)[O-]
REMARK SMILES IDX 16 1 17 2 18 3 19 4 20 5 21 6 22 7 23 8 24 9 25 10 26 11
REMARK SMILES IDX 27 12 28 13 29 14 30 15 31 16 32 17 15 18 14 19 13 20 12 21
REMARK SMILES IDX 11 22 10 23 9 24 8 25 7 26 6 27 5 28 4 29 3 30 2 31 1 32
REMARK H PARENT
REMARK Flexibility Score: inf
ROOT
ATOM      1  C   UNL     1      41.514  -7.906   7.886  1.00  0.00     0.000 C 
ENDROOT
BRANCH   1   2
ATOM      2  C   UNL     1      40.371  -7.036   7.326  1.00  0.00     0.000 C 
BRANCH   2   3
ATOM      3  C   UNL     1      39.278  -6.663   8.346  1.00  0.00     0.000 C 
BRANCH   3   4
ATOM      4  C   UNL     1      39.769  -6.497   9.799  1.00  0.00     0.000 C 
BRANCH   4   5
ATOM      5  C   UNL     1      39.348  -7.625  10.759  1.00  0.00     0.000 C 
BRANCH   5   6
ATOM      6  C   UNL     1      38.264  -8.538  10.163  1.00  0.00     0.000 C 
BRANCH   6   7
ATOM      7  C   UNL     1      37.033  -8.676  11.076  1.00  0.00     0.000 C 
BRANCH   7   8
ATOM      8  C   UNL     1      37.209  -8.096  12.493  1.00  0.00     0.000 C 
BRANCH   8   9
ATOM      9  C   UNL     1      36.614  -8.949  13.631  1.00  0.00     0.000 C 
BRANCH   9  10
ATOM     10  C   UNL     1      35.071  -8.984  13.645  1.00  0.00     0.000 C 
BRANCH  10  11
ATOM     11  C   UNL     1      34.457  -7.701  14.233  1.00  0.00     0.000 C 
BRANCH  11  12
ATOM     12  C   UNL     1      33.583  -7.973  15.467  1.00  0.00     0.000 C 
BRANCH  12  13
ATOM     13  C   UNL     1      32.082  -8.026  15.130  1.00  0.00     0.006 C 
BRANCH  13  14
ATOM     14  C   UNL     1      31.583  -9.464  14.937  1.00  0.00     0.053 C 
BRANCH  14  15
ATOM     15  C   UNL     1      30.772  -9.934  16.106  1.00  0.00     0.041 C 
ATOM     16  O   UNL     1      31.015  -9.496  17.261  1.00  0.00    -0.550 OA
ATOM     17  O   UNL     1      29.729 -10.832  15.917  1.00  0.00    -0.550 OA
ENDBRANCH  14  15
ENDBRANCH  13  14
ENDBRANCH  12  13
ENDBRANCH  11  12
ENDBRANCH  10  11
ENDBRANCH   9  10
ENDBRANCH   8   9
ENDBRANCH   7   8
ENDBRANCH   6   7
ENDBRANCH   5   6
ENDBRANCH   4   5
ENDBRANCH   3   4
ENDBRANCH   2   3
ENDBRANCH   1   2
BRANCH   1  18
ATOM     18  C   UNL     1      42.861  -7.757   7.152  1.00  0.00     0.000 C 
BRANCH  18  19
ATOM     19  C   UNL     1      44.087  -8.271   7.932  1.00  0.00     0.000 C 
BRANCH  19  20
ATOM     20  C   UNL     1      44.692  -9.592   7.409  1.00  0.00     0.000 C 
BRANCH  20  21
ATOM     21  C   UNL     1      44.131 -10.082   6.062  1.00  0.00     0.000 C 
BRANCH  21  22
ATOM     22  C   UNL     1      42.992 -11.104   6.221  1.00  0.00     0.000 C 
BRANCH  22  23
ATOM     23  C   UNL     1      41.765 -10.761   5.361  1.00  0.00     0.000 C 
BRANCH  23  24
ATOM     24  C   UNL     1      42.134 -10.056   4.046  1.00  0.00    -0.000 C 
BRANCH  24  25
ATOM     25  C   UNL     1      40.918  -9.969   3.112  1.00  0.00    -0.000 C 
BRANCH  25  26
ATOM     26  C   UNL     1      40.809  -8.609   2.403  1.00  0.00    -0.000 C 
BRANCH  26  27
ATOM     27  C   UNL     1      41.038  -7.425   3.357  1.00  0.00    -0.000 C 
BRANCH  27  28
ATOM     28  C   UNL     1      41.167  -6.081   2.621  1.00  0.00    -0.000 C 
BRANCH  28  29
ATOM     29  C   UNL     1      40.527  -4.898   3.379  1.00  0.00    -0.000 C 
BRANCH  29  30
ATOM     30  C   UNL     1      41.523  -3.751   3.608  1.00  0.00    -0.000 C 
BRANCH  30  31
ATOM     31  C   UNL     1      41.768  -2.970   2.312  1.00  0.00    -0.003 C 
ATOM     32  C   UNL     1      40.452  -2.531   1.675  1.00  0.00     0.004 C 
ENDBRANCH  30  31
ENDBRANCH  29  30
ENDBRANCH  28  29
ENDBRANCH  27  28
ENDBRANCH  26  27
ENDBRANCH  25  26
ENDBRANCH  24  25
ENDBRANCH  23  24
ENDBRANCH  22  23
ENDBRANCH  21  22
ENDBRANCH  20  21
ENDBRANCH  19  20
ENDBRANCH  18  19
ENDBRANCH   1  18
TORSDOF 28
ENDMDL
MODEL 9
REMARK VINA RESULT:    -4.385      1.470      2.637
REMARK INTER + INTRA:         -15.096
REMARK INTER:                 -12.446
REMARK INTRA:                  -2.650
REMARK UNBOUND:                -3.534
REMARK SMILES CCCCCCCCCCCCCCCCCCCCCCCCCCCCCC(=O)[O-]
REMARK SMILES IDX 16 1 17 2 18 3 19 4 20 5 21 6 22 7 23 8 24 9 25 10 26 11
REMARK SMILES IDX 27 12 28 13 29 14 30 15 31 16 32 17 15 18 14 19 13 20 12 21
REMARK SMILES IDX 11 22 10 23 9 24 8 25 7 26 6 27 5 28 4 29 3 30 2 31 1 32
REMARK H PARENT
REMARK Flexibility Score: inf
ROOT
ATOM      1  C   UNL     1      40.487  -7.081   9.761  1.00  0.00     0.000 C 
ENDROOT
BRANCH   1   2
ATOM      2  C   UNL     1      41.124  -7.898   8.620  1.00  0.00     0.000 C 
BRANCH   2   3
ATOM      3  C   UNL     1      40.597  -9.340   8.481  1.00  0.00     0.000 C 
BRANCH   3   4
ATOM      4  C   UNL     1      41.564 -10.439   8.970  1.00  0.00     0.000 C 
BRANCH   4   5
ATOM      5  C   UNL     1      42.557 -10.948   7.908  1.00  0.00     0.000 C 
BRANCH   5   6
ATOM      6  C   UNL     1      44.023 -10.763   8.331  1.00  0.00     0.000 C 
BRANCH   6   7
ATOM      7  C   UNL     1      44.869 -10.056   7.256  1.00  0.00     0.000 C 
BRANCH   7   8
ATOM      8  C   UNL     1      44.339 -10.201   5.817  1.00  0.00     0.000 C 
BRANCH   8   9
ATOM      9  C   UNL     1      44.083  -8.875   5.074  1.00  0.00     0.000 C 
BRANCH   9  10
ATOM     10  C   UNL     1      43.009  -7.985   5.736  1.00  0.00     0.000 C 
BRANCH  10  11
ATOM     11  C   UNL     1      41.676  -7.999   4.967  1.00  0.00     0.000 C 
BRANCH  11  12
ATOM     12  C   UNL     1      41.040  -6.605   4.855  1.00  0.00     0.000 C 
BRANCH  12  13
ATOM     13  C   UNL     1      41.242  -5.971   3.467  1.00  0.00     0.006 C 
BRANCH  13  14
ATOM     14  C   UNL     1      40.088  -5.035   3.084  1.00  0.00     0.053 C 
BRANCH  14  15
ATOM     15  C   UNL     1      40.507  -3.597   3.106  1.00  0.00     0.041 C 
ATOM     16  O   UNL     1      39.702  -2.698   2.746  1.00  0.00    -0.550 OA
ATOM     17  O   UNL     1      41.775  -3.245   3.553  1.00  0.00    -0.550 OA
ENDBRANCH  14  15
ENDBRANCH  13  14
ENDBRANCH  12  13
ENDBRANCH  11  12
ENDBRANCH  10  11
ENDBRANCH   9  10
ENDBRANCH   8   9
ENDBRANCH   7   8
ENDBRANCH   6   7
ENDBRANCH   5   6
ENDBRANCH   4   5
ENDBRANCH   3   4
ENDBRANCH   2   3
ENDBRANCH   1   2
BRANCH   1  18
ATOM     18  C   UNL     1      39.047  -6.603   9.489  1.00  0.00     0.000 C 
BRANCH  18  19
ATOM     19  C   UNL     1      37.952  -7.364  10.262  1.00  0.00     0.000 C 
BRANCH  19  20
ATOM     20  C   UNL     1      38.320  -7.756  11.709  1.00  0.00     0.000 C 
BRANCH  20  21
ATOM     21  C   UNL     1      37.124  -7.995  12.648  1.00  0.00     0.000 C 
BRANCH  21  22
ATOM     22  C   UNL     1      36.843  -6.803  13.580  1.00  0.00     0.000 C 
BRANCH  22  23
ATOM     23  C   UNL     1      35.894  -7.165  14.734  1.00  0.00     0.000 C 
BRANCH  23  24
ATOM     24  C   UNL     1      34.437  -7.340  14.278  1.00  0.00    -0.000 C 
BRANCH  24  25
ATOM     25  C   UNL     1      33.826  -8.617  14.875  1.00  0.00    -0.000 C 
BRANCH  25  26
ATOM     26  C   UNL     1      32.500  -8.355  15.608  1.00  0.00    -0.000 C 
BRANCH  26  27
ATOM     27  C   UNL     1      31.910  -9.629  16.233  1.00  0.00    -0.000 C 
BRANCH  27  28
ATOM     28  C   UNL     1      32.569  -9.998  17.573  1.00  0.00    -0.000 C 
BRANCH  28  29
ATOM     29  C   UNL     1      32.646  -8.821  18.568  1.00  0.00    -0.000 C 
BRANCH  29  30
ATOM     30  C   UNL     1      34.051  -8.660  19.167  1.00  0.00    -0.000 C 
BRANCH  30  31
ATOM     31  C   UNL     1      34.368  -7.185  19.436  1.00  0.00    -0.003 C 
ATOM     32  C   UNL     1      34.832  -6.479  18.166  1.00  0.00     0.004 C 
ENDBRANCH  30  31
ENDBRANCH  29  30
ENDBRANCH  28  29
ENDBRANCH  27  28
ENDBRANCH  26  27
ENDBRANCH  25  26
ENDBRANCH  24  25
ENDBRANCH  23  24
ENDBRANCH  22  23
ENDBRANCH  21  22
ENDBRANCH  20  21
ENDBRANCH  19  20
ENDBRANCH  18  19
ENDBRANCH   1  18
TORSDOF 28
ENDMDL
