MODEL 1
REMARK VINA RESULT:    -4.859      0.000      0.000
REMARK INTER + INTRA:         -15.280
REMARK INTER:                 -11.109
REMARK INTRA:                  -4.171
REMARK UNBOUND:                -4.171
REMARK SMILES CCCCCCCCCCCCCCCCCCCCCCCC(=O)[O-]
REMARK SMILES IDX 13 1 14 2 15 3 16 4 17 5 18 6 19 7 20 8 21 9 22 10 23 11
REMARK SMILES IDX 24 12 25 13 26 14 12 15 11 16 10 17 9 18 8 19 7 20 6 21 5 22
REMARK SMILES IDX 4 23 3 24 2 25 1 26
REMARK H PARENT
REMARK Flexibility Score: inf
ROOT
ATOM      1  C   UNL     1      55.987  12.695  89.158  1.00  0.00     0.000 C 
ENDROOT
BRANCH   1   2
ATOM      2  C   UNL     1      56.745  11.609  88.374  1.00  0.00     0.000 C 
BRANCH   2   3
ATOM      3  C   UNL     1      58.214  11.480  88.808  1.00  0.00     0.000 C 
BRANCH   3   4
ATOM      4  C   UNL     1      58.431  10.367  89.844  1.00  0.00     0.000 C 
BRANCH   4   5
ATOM      5  C   UNL     1      59.323  10.852  90.996  1.00  0.00     0.000 C 
BRANCH   5   6
ATOM      6  C   UNL     1      58.999  12.289  91.443  1.00  0.00     0.000 C 
BRANCH   6   7
ATOM      7  C   UNL     1      58.137  12.400  92.716  1.00  0.00     0.000 C 
BRANCH   7   8
ATOM      8  C   UNL     1      56.617  12.341  92.481  1.00  0.00     0.000 C 
BRANCH   8   9
ATOM      9  C   UNL     1      56.034  10.937  92.691  1.00  0.00     0.000 C 
BRANCH   9  10
ATOM     10  C   UNL     1      54.854  10.977  93.673  1.00  0.00     0.006 C 
BRANCH  10  11
ATOM     11  C   UNL     1      55.212  11.684  94.987  1.00  0.00     0.053 C 
BRANCH  11  12
ATOM     12  C   UNL     1      56.033  10.807  95.882  1.00  0.00     0.041 C 
ATOM     13  O   UNL     1      55.829   9.564  95.912  1.00  0.00    -0.550 OA
ATOM     14  O   UNL     1      57.048  11.356  96.657  1.00  0.00    -0.550 OA
ENDBRANCH  11  12
ENDBRANCH  10  11
ENDBRANCH   9  10
ENDBRANCH   8   9
ENDBRANCH   7   8
ENDBRANCH   6   7
ENDBRANCH   5   6
ENDBRANCH   4   5
ENDBRANCH   3   4
ENDBRANCH   2   3
ENDBRANCH   1   2
BRANCH   1  15
ATOM     15  C   UNL     1      56.376  14.116  88.726  1.00  0.00     0.000 C 
BRANCH  15  16
ATOM     16  C   UNL     1      57.078  14.910  89.841  1.00  0.00     0.000 C 
BRANCH  16  17
ATOM     17  C   UNL     1      58.525  15.295  89.462  1.00  0.00     0.000 C 
BRANCH  17  18
ATOM     18  C   UNL     1      59.068  16.509  90.238  1.00  0.00    -0.000 C 
BRANCH  18  19
ATOM     19  C   UNL     1      58.304  16.851  91.527  1.00  0.00    -0.000 C 
BRANCH  19  20
ATOM     20  C   UNL     1      59.161  16.685  92.792  1.00  0.00    -0.000 C 
BRANCH  20  21
ATOM     21  C   UNL     1      60.502  16.013  92.467  1.00  0.00    -0.000 C 
BRANCH  21  22
ATOM     22  C   UNL     1      60.779  14.800  93.383  1.00  0.00    -0.000 C 
BRANCH  22  23
ATOM     23  C   UNL     1      60.623  15.115  94.881  1.00  0.00    -0.000 C 
BRANCH  23  24
ATOM     24  C   UNL     1      59.620  14.214  95.624  1.00  0.00    -0.000 C 
BRANCH  24  25
ATOM     25  C   UNL     1      58.426  14.996  96.190  1.00  0.00    -0.003 C 
ATOM     26  C   UNL     1      57.199  14.842  95.297  1.00  0.00     0.004 C 
ENDBRANCH  24  25
ENDBRANCH  23  24
ENDBRANCH  22  23
ENDBRANCH  21  22
ENDBRANCH  20  21
ENDBRANCH  19  20
ENDBRANCH  18  19
ENDBRANCH  17  18
ENDBRANCH  16  17
ENDBRANCH  15  16
ENDBRANCH   1  15
TORSDOF 22
ENDMDL
MODEL 2
REMARK VINA RESULT:    -4.848      2.268      6.144
REMARK INTER + INTRA:         -15.255
REMARK INTER:                 -10.993
REMARK INTRA:                  -4.262
REMARK UNBOUND:                -4.171
REMARK SMILES CCCCCCCCCCCCCCCCCCCCCCCC(=O)[O-]
REMARK SMILES IDX 13 1 14 2 15 3 16 4 17 5 18 6 19 7 20 8 21 9 22 10 23 11
REMARK SMILES IDX 24 12 25 13 26 14 12 15 11 16 10 17 9 18 8 19 7 20 6 21 5 22
REMARK SMILES IDX 4 23 3 24 2 25 1 26
REMARK H PARENT
REMARK Flexibility Score: inf
ROOT
ATOM      1  C   UNL     1      56.439  11.523  95.162  1.00  0.00     0.000 C 
ENDROOT
BRANCH   1   2
ATOM      2  C   UNL     1      56.499  12.692  96.160  1.00  0.00     0.000 C 
BRANCH   2   3
ATOM      3  C   UNL     1      57.657  13.660  95.871  1.00  0.00     0.000 C 
BRANCH   3   4
ATOM      4  C   UNL     1      57.181  14.993  95.272  1.00  0.00     0.000 C 
BRANCH   4   5
ATOM      5  C   UNL     1      57.870  15.271  93.928  1.00  0.00     0.000 C 
BRANCH   5   6
ATOM      6  C   UNL     1      58.757  14.106  93.454  1.00  0.00     0.000 C 
BRANCH   6   7
ATOM      7  C   UNL     1      60.196  14.494  93.063  1.00  0.00     0.000 C 
BRANCH   7   8
ATOM      8  C   UNL     1      60.359  15.924  92.516  1.00  0.00     0.000 C 
BRANCH   8   9
ATOM      9  C   UNL     1      61.198  16.822  93.434  1.00  0.00     0.000 C 
BRANCH   9  10
ATOM     10  C   UNL     1      61.557  16.089  94.735  1.00  0.00     0.006 C 
BRANCH  10  11
ATOM     11  C   UNL     1      60.777  16.626  95.942  1.00  0.00     0.053 C 
BRANCH  11  12
ATOM     12  C   UNL     1      60.558  15.565  96.977  1.00  0.00     0.041 C 
ATOM     13  O   UNL     1      61.027  14.409  96.808  1.00  0.00    -0.550 OA
ATOM     14  O   UNL     1      59.867  15.863  98.145  1.00  0.00    -0.550 OA
ENDBRANCH  11  12
ENDBRANCH  10  11
ENDBRANCH   9  10
ENDBRANCH   8   9
ENDBRANCH   7   8
ENDBRANCH   6   7
ENDBRANCH   5   6
ENDBRANCH   4   5
ENDBRANCH   3   4
ENDBRANCH   2   3
ENDBRANCH   1   2
BRANCH   1  15
ATOM     15  C   UNL     1      55.738  11.903  93.849  1.00  0.00     0.000 C 
BRANCH  15  16
ATOM     16  C   UNL     1      54.461  12.732  94.070  1.00  0.00     0.000 C 
BRANCH  16  17
ATOM     17  C   UNL     1      54.224  13.753  92.937  1.00  0.00     0.000 C 
BRANCH  17  18
ATOM     18  C   UNL     1      55.260  13.671  91.800  1.00  0.00    -0.000 C 
BRANCH  18  19
ATOM     19  C   UNL     1      55.662  15.023  91.189  1.00  0.00    -0.000 C 
BRANCH  19  20
ATOM     20  C   UNL     1      56.851  14.912  90.222  1.00  0.00    -0.000 C 
BRANCH  20  21
ATOM     21  C   UNL     1      57.122  13.449  89.845  1.00  0.00    -0.000 C 
BRANCH  21  22
ATOM     22  C   UNL     1      58.627  13.104  89.908  1.00  0.00    -0.000 C 
BRANCH  22  23
ATOM     23  C   UNL     1      58.965  11.723  89.320  1.00  0.00    -0.000 C 
BRANCH  23  24
ATOM     24  C   UNL     1      59.218  10.624  90.367  1.00  0.00    -0.000 C 
BRANCH  24  25
ATOM     25  C   UNL     1      58.202   9.476  90.279  1.00  0.00    -0.003 C 
ATOM     26  C   UNL     1      56.831   9.919  90.781  1.00  0.00     0.004 C 
ENDBRANCH  24  25
ENDBRANCH  23  24
ENDBRANCH  22  23
ENDBRANCH  21  22
ENDBRANCH  20  21
ENDBRANCH  19  20
ENDBRANCH  18  19
ENDBRANCH  17  18
ENDBRANCH  16  17
ENDBRANCH  15  16
ENDBRANCH   1  15
TORSDOF 22
ENDMDL
MODEL 3
REMARK VINA RESULT:    -4.803      1.108      2.582
REMARK INTER + INTRA:         -15.152
REMARK INTER:                 -10.874
REMARK INTRA:                  -4.278
REMARK UNBOUND:                -4.171
REMARK SMILES CCCCCCCCCCCCCCCCCCCCCCCC(=O)[O-]
REMARK SMILES IDX 13 1 14 2 15 3 16 4 17 5 18 6 19 7 20 8 21 9 22 10 23 11
REMARK SMILES IDX 24 12 25 13 26 14 12 15 11 16 10 17 9 18 8 19 7 20 6 21 5 22
REMARK SMILES IDX 4 23 3 24 2 25 1 26
REMARK H PARENT
REMARK Flexibility Score: inf
ROOT
ATOM      1  C   UNL     1      57.456  15.567  90.597  1.00  0.00     0.000 C 
ENDROOT
BRANCH   1   2
ATOM      2  C   UNL     1      56.270  14.658  90.228  1.00  0.00     0.000 C 
BRANCH   2   3
ATOM      3  C   UNL     1      56.405  14.046  88.825  1.00  0.00     0.000 C 
BRANCH   3   4
ATOM      4  C   UNL     1      55.882  12.603  88.754  1.00  0.00     0.000 C 
BRANCH   4   5
ATOM      5  C   UNL     1      57.001  11.630  88.352  1.00  0.00     0.000 C 
BRANCH   5   6
ATOM      6  C   UNL     1      58.259  11.765  89.229  1.00  0.00     0.000 C 
BRANCH   6   7
ATOM      7  C   UNL     1      58.147  11.143  90.635  1.00  0.00     0.000 C 
BRANCH   7   8
ATOM      8  C   UNL     1      57.236   9.905  90.729  1.00  0.00     0.000 C 
BRANCH   8   9
ATOM      9  C   UNL     1      56.022  10.126  91.641  1.00  0.00     0.000 C 
BRANCH   9  10
ATOM     10  C   UNL     1      56.003  11.562  92.186  1.00  0.00     0.006 C 
BRANCH  10  11
ATOM     11  C   UNL     1      55.072  11.714  93.396  1.00  0.00     0.053 C 
BRANCH  11  12
ATOM     12  C   UNL     1      55.337  10.666  94.434  1.00  0.00     0.041 C 
ATOM     13  O   UNL     1      56.228  10.849  95.305  1.00  0.00    -0.550 OA
ATOM     14  O   UNL     1      54.575   9.504  94.462  1.00  0.00    -0.550 OA
ENDBRANCH  11  12
ENDBRANCH  10  11
ENDBRANCH   9  10
ENDBRANCH   8   9
ENDBRANCH   7   8
ENDBRANCH   6   7
ENDBRANCH   5   6
ENDBRANCH   4   5
ENDBRANCH   3   4
ENDBRANCH   2   3
ENDBRANCH   1   2
BRANCH   1  15
ATOM     15  C   UNL     1      58.625  15.444  89.607  1.00  0.00     0.000 C 
BRANCH  15  16
ATOM     16  C   UNL     1      59.738  16.475  89.864  1.00  0.00     0.000 C 
BRANCH  16  17
ATOM     17  C   UNL     1      59.292  17.583  90.843  1.00  0.00     0.000 C 
BRANCH  17  18
ATOM     18  C   UNL     1      60.228  17.757  92.053  1.00  0.00    -0.000 C 
BRANCH  18  19
ATOM     19  C   UNL     1      60.031  16.732  93.181  1.00  0.00    -0.000 C 
BRANCH  19  20
ATOM     20  C   UNL     1      61.302  15.922  93.483  1.00  0.00    -0.000 C 
BRANCH  20  21
ATOM     21  C   UNL     1      60.985  14.427  93.621  1.00  0.00    -0.000 C 
BRANCH  21  22
ATOM     22  C   UNL     1      59.736  14.021  92.808  1.00  0.00    -0.000 C 
BRANCH  22  23
ATOM     23  C   UNL     1      58.646  13.343  93.655  1.00  0.00    -0.000 C 
BRANCH  23  24
ATOM     24  C   UNL     1      58.460  13.942  95.060  1.00  0.00    -0.000 C 
BRANCH  24  25
ATOM     25  C   UNL     1      57.005  14.335  95.351  1.00  0.00    -0.003 C 
ATOM     26  C   UNL     1      56.390  15.070  94.164  1.00  0.00     0.004 C 
ENDBRANCH  24  25
ENDBRANCH  23  24
ENDBRANCH  22  23
ENDBRANCH  21  22
ENDBRANCH  20  21
ENDBRANCH  19  20
ENDBRANCH  18  19
ENDBRANCH  17  18
ENDBRANCH  16  17
ENDBRANCH  15  16
ENDBRANCH   1  15
TORSDOF 22
ENDMDL
MODEL 4
REMARK VINA RESULT:    -4.794      1.788      3.538
REMARK INTER + INTRA:         -15.130
REMARK INTER:                 -11.094
REMARK INTRA:                  -4.036
REMARK UNBOUND:                -4.171
REMARK SMILES CCCCCCCCCCCCCCCCCCCCCCCC(=O)[O-]
REMARK SMILES IDX 13 1 14 2 15 3 16 4 17 5 18 6 19 7 20 8 21 9 22 10 23 11
REMARK SMILES IDX 24 12 25 13 26 14 12 15 11 16 10 17 9 18 8 19 7 20 6 21 5 22
REMARK SMILES IDX 4 23 3 24 2 25 1 26
REMARK H PARENT
REMARK Flexibility Score: inf
ROOT
ATOM      1  C   UNL     1      59.376  16.089  89.708  1.00  0.00     0.000 C 
ENDROOT
BRANCH   1   2
ATOM      2  C   UNL     1      57.985  15.521  90.042  1.00  0.00     0.000 C 
BRANCH   2   3
ATOM      3  C   UNL     1      57.801  14.076  89.554  1.00  0.00     0.000 C 
BRANCH   3   4
ATOM      4  C   UNL     1      56.402  13.819  88.976  1.00  0.00     0.000 C 
BRANCH   4   5
ATOM      5  C   UNL     1      56.122  12.313  88.858  1.00  0.00     0.000 C 
BRANCH   5   6
ATOM      6  C   UNL     1      57.405  11.462  88.848  1.00  0.00     0.000 C 
BRANCH   6   7
ATOM      7  C   UNL     1      57.513  10.425  89.983  1.00  0.00     0.000 C 
BRANCH   7   8
ATOM      8  C   UNL     1      56.914  10.870  91.330  1.00  0.00     0.000 C 
BRANCH   8   9
ATOM      9  C   UNL     1      55.746   9.985  91.785  1.00  0.00     0.000 C 
BRANCH   9  10
ATOM     10  C   UNL     1      54.572  10.842  92.281  1.00  0.00     0.006 C 
BRANCH  10  11
ATOM     11  C   UNL     1      54.905  12.340  92.287  1.00  0.00     0.053 C 
BRANCH  11  12
ATOM     12  C   UNL     1      54.154  13.070  93.358  1.00  0.00     0.041 C 
ATOM     13  O   UNL     1      53.496  14.106  93.076  1.00  0.00    -0.550 OA
ATOM     14  O   UNL     1      54.150  12.586  94.660  1.00  0.00    -0.550 OA
ENDBRANCH  11  12
ENDBRANCH  10  11
ENDBRANCH   9  10
ENDBRANCH   8   9
ENDBRANCH   7   8
ENDBRANCH   6   7
ENDBRANCH   5   6
ENDBRANCH   4   5
ENDBRANCH   3   4
ENDBRANCH   2   3
ENDBRANCH   1   2
BRANCH   1  15
ATOM     15  C   UNL     1      59.641  17.442  90.386  1.00  0.00     0.000 C 
BRANCH  15  16
ATOM     16  C   UNL     1      59.369  17.415  91.901  1.00  0.00     0.000 C 
BRANCH  16  17
ATOM     17  C   UNL     1      60.657  17.611  92.728  1.00  0.00     0.000 C 
BRANCH  17  18
ATOM     18  C   UNL     1      60.788  16.638  93.914  1.00  0.00    -0.000 C 
BRANCH  18  19
ATOM     19  C   UNL     1      61.555  15.341  93.609  1.00  0.00    -0.000 C 
BRANCH  19  20
ATOM     20  C   UNL     1      60.725  14.077  93.886  1.00  0.00    -0.000 C 
BRANCH  20  21
ATOM     21  C   UNL     1      59.710  13.825  92.762  1.00  0.00    -0.000 C 
BRANCH  21  22
ATOM     22  C   UNL     1      58.282  13.608  93.309  1.00  0.00    -0.000 C 
BRANCH  22  23
ATOM     23  C   UNL     1      57.692  14.855  93.991  1.00  0.00    -0.000 C 
BRANCH  23  24
ATOM     24  C   UNL     1      56.975  14.577  95.325  1.00  0.00    -0.000 C 
BRANCH  24  25
ATOM     25  C   UNL     1      57.935  14.104  96.427  1.00  0.00    -0.003 C 
ATOM     26  C   UNL     1      58.859  15.235  96.869  1.00  0.00     0.004 C 
ENDBRANCH  24  25
ENDBRANCH  23  24
ENDBRANCH  22  23
ENDBRANCH  21  22
ENDBRANCH  20  21
ENDBRANCH  19  20
ENDBRANCH  18  19
ENDBRANCH  17  18
ENDBRANCH  16  17
ENDBRANCH  15  16
ENDBRANCH   1  15
TORSDOF 22
ENDMDL
MODEL 5
REMARK VINA RESULT:    -4.788      2.452      5.318
REMARK INTER + INTRA:         -15.118
REMARK INTER:                 -11.144
REMARK INTRA:                  -3.974
REMARK UNBOUND:                -4.171
REMARK SMILES CCCCCCCCCCCCCCCCCCCCCCCC(=O)[O-]
REMARK SMILES IDX 13 1 14 2 15 3 16 4 17 5 18 6 19 7 20 8 21 9 22 10 23 11
REMARK SMILES IDX 24 12 25 13 26 14 12 15 11 16 10 17 9 18 8 19 7 20 6 21 5 22
REMARK SMILES IDX 4 23 3 24 2 25 1 26
REMARK H PARENT
REMARK Flexibility Score: inf
ROOT
ATOM      1  C   UNL     1      56.253  13.827  88.801  1.00  0.00     0.000 C 
ENDROOT
BRANCH   1   2
ATOM      2  C   UNL     1      56.932  14.784  89.796  1.00  0.00     0.000 C 
BRANCH   2   3
ATOM      3  C   UNL     1      58.250  15.362  89.259  1.00  0.00     0.000 C 
BRANCH   3   4
ATOM      4  C   UNL     1      59.166  15.887  90.375  1.00  0.00     0.000 C 
BRANCH   4   5
ATOM      5  C   UNL     1      58.505  17.051  91.130  1.00  0.00     0.000 C 
BRANCH   5   6
ATOM      6  C   UNL     1      59.509  17.888  91.942  1.00  0.00     0.000 C 
BRANCH   6   7
ATOM      7  C   UNL     1      60.692  17.099  92.537  1.00  0.00     0.000 C 
BRANCH   7   8
ATOM      8  C   UNL     1      60.622  16.870  94.058  1.00  0.00     0.000 C 
BRANCH   8   9
ATOM      9  C   UNL     1      61.926  16.305  94.636  1.00  0.00     0.000 C 
BRANCH   9  10
ATOM     10  C   UNL     1      61.692  14.922  95.261  1.00  0.00     0.006 C 
BRANCH  10  11
ATOM     11  C   UNL     1      61.732  13.796  94.219  1.00  0.00     0.053 C 
BRANCH  11  12
ATOM     12  C   UNL     1      62.893  12.876  94.442  1.00  0.00     0.041 C 
ATOM     13  O   UNL     1      63.363  12.719  95.600  1.00  0.00    -0.550 OA
ATOM     14  O   UNL     1      63.433  12.164  93.378  1.00  0.00    -0.550 OA
ENDBRANCH  11  12
ENDBRANCH  10  11
ENDBRANCH   9  10
ENDBRANCH   8   9
ENDBRANCH   7   8
ENDBRANCH   6   7
ENDBRANCH   5   6
ENDBRANCH   4   5
ENDBRANCH   3   4
ENDBRANCH   2   3
ENDBRANCH   1   2
BRANCH   1  15
ATOM     15  C   UNL     1      56.244  12.372  89.293  1.00  0.00     0.000 C 
BRANCH  15  16
ATOM     16  C   UNL     1      57.161  11.454  88.467  1.00  0.00     0.000 C 
BRANCH  16  17
ATOM     17  C   UNL     1      58.527  11.227  89.150  1.00  0.00     0.000 C 
BRANCH  17  18
ATOM     18  C   UNL     1      58.429  10.963  90.664  1.00  0.00    -0.000 C 
BRANCH  18  19
ATOM     19  C   UNL     1      59.341  11.840  91.537  1.00  0.00    -0.000 C 
BRANCH  19  20
ATOM     20  C   UNL     1      58.560  12.858  92.383  1.00  0.00    -0.000 C 
BRANCH  20  21
ATOM     21  C   UNL     1      57.197  12.294  92.809  1.00  0.00    -0.000 C 
BRANCH  21  22
ATOM     22  C   UNL     1      56.187  13.413  93.145  1.00  0.00    -0.000 C 
BRANCH  22  23
ATOM     23  C   UNL     1      56.852  14.763  93.467  1.00  0.00    -0.000 C 
BRANCH  23  24
ATOM     24  C   UNL     1      56.957  15.084  94.969  1.00  0.00    -0.000 C 
BRANCH  24  25
ATOM     25  C   UNL     1      58.251  14.550  95.601  1.00  0.00    -0.003 C 
ATOM     26  C   UNL     1      58.460  15.135  96.994  1.00  0.00     0.004 C 
ENDBRANCH  24  25
ENDBRANCH  23  24
ENDBRANCH  22  23
ENDBRANCH  21  22
ENDBRANCH  20  21
ENDBRANCH  19  20
ENDBRANCH  18  19
ENDBRANCH  17  18
ENDBRANCH  16  17
ENDBRANCH  15  16
ENDBRANCH   1  15
TORSDOF 22
ENDMDL
MODEL 6
REMARK VINA RESULT:    -4.773      1.353      2.013
REMARK INTER + INTRA:         -15.083
REMARK INTER:                 -11.216
REMARK INTRA:                  -3.867
REMARK UNBOUND:                -4.171
REMARK SMILES CCCCCCCCCCCCCCCCCCCCCCCC(=O)[O-]
REMARK SMILES IDX 13 1 14 2 15 3 16 4 17 5 18 6 19 7 20 8 21 9 22 10 23 11
REMARK SMILES IDX 24 12 25 13 26 14 12 15 11 16 10 17 9 18 8 19 7 20 6 21 5 22
REMARK SMILES IDX 4 23 3 24 2 25 1 26
REMARK H PARENT
REMARK Flexibility Score: inf
ROOT
ATOM      1  C   UNL     1      57.272  11.906  88.889  1.00  0.00     0.000 C 
ENDROOT
BRANCH   1   2
ATOM      2  C   UNL     1      57.126  10.611  89.709  1.00  0.00     0.000 C 
BRANCH   2   3
ATOM      3  C   UNL     1      58.470  10.092  90.242  1.00  0.00     0.000 C 
BRANCH   3   4
ATOM      4  C   UNL     1      59.554  11.180  90.280  1.00  0.00     0.000 C 
BRANCH   4   5
ATOM      5  C   UNL     1      59.900  11.563  91.727  1.00  0.00     0.000 C 
BRANCH   5   6
ATOM      6  C   UNL     1      59.239  12.879  92.175  1.00  0.00     0.000 C 
BRANCH   6   7
ATOM      7  C   UNL     1      58.151  12.730  93.257  1.00  0.00     0.000 C 
BRANCH   7   8
ATOM      8  C   UNL     1      56.841  13.486  92.971  1.00  0.00     0.000 C 
BRANCH   8   9
ATOM      9  C   UNL     1      55.706  12.561  92.513  1.00  0.00     0.000 C 
BRANCH   9  10
ATOM     10  C   UNL     1      55.559  11.365  93.466  1.00  0.00     0.006 C 
BRANCH  10  11
ATOM     11  C   UNL     1      55.016  10.117  92.756  1.00  0.00     0.053 C 
BRANCH  11  12
ATOM     12  C   UNL     1      54.451   9.129  93.730  1.00  0.00     0.041 C 
ATOM     13  O   UNL     1      54.330   9.434  94.946  1.00  0.00    -0.550 OA
ATOM     14  O   UNL     1      54.022   7.883  93.288  1.00  0.00    -0.550 OA
ENDBRANCH  11  12
ENDBRANCH  10  11
ENDBRANCH   9  10
ENDBRANCH   8   9
ENDBRANCH   7   8
ENDBRANCH   6   7
ENDBRANCH   5   6
ENDBRANCH   4   5
ENDBRANCH   3   4
ENDBRANCH   2   3
ENDBRANCH   1   2
BRANCH   1  15
ATOM     15  C   UNL     1      55.998  12.764  88.908  1.00  0.00     0.000 C 
BRANCH  15  16
ATOM     16  C   UNL     1      56.291  14.267  89.051  1.00  0.00     0.000 C 
BRANCH  16  17
ATOM     17  C   UNL     1      57.753  14.540  89.466  1.00  0.00     0.000 C 
BRANCH  17  18
ATOM     18  C   UNL     1      57.919  15.753  90.399  1.00  0.00    -0.000 C 
BRANCH  18  19
ATOM     19  C   UNL     1      59.353  16.294  90.513  1.00  0.00    -0.000 C 
BRANCH  19  20
ATOM     20  C   UNL     1      59.572  17.148  91.772  1.00  0.00    -0.000 C 
BRANCH  20  21
ATOM     21  C   UNL     1      60.730  16.599  92.618  1.00  0.00    -0.000 C 
BRANCH  21  22
ATOM     22  C   UNL     1      60.488  16.801  94.130  1.00  0.00    -0.000 C 
BRANCH  22  23
ATOM     23  C   UNL     1      60.216  15.490  94.888  1.00  0.00    -0.000 C 
BRANCH  23  24
ATOM     24  C   UNL     1      58.799  15.371  95.475  1.00  0.00    -0.000 C 
BRANCH  24  25
ATOM     25  C   UNL     1      58.803  15.052  96.977  1.00  0.00    -0.003 C 
ATOM     26  C   UNL     1      59.977  15.730  97.677  1.00  0.00     0.004 C 
ENDBRANCH  24  25
ENDBRANCH  23  24
ENDBRANCH  22  23
ENDBRANCH  21  22
ENDBRANCH  20  21
ENDBRANCH  19  20
ENDBRANCH  18  19
ENDBRANCH  17  18
ENDBRANCH  16  17
ENDBRANCH  15  16
ENDBRANCH   1  15
TORSDOF 22
ENDMDL
MODEL 7
REMARK VINA RESULT:    -4.765      2.486      5.767
REMARK INTER + INTRA:         -15.063
REMARK INTER:                 -10.332
REMARK INTRA:                  -4.732
REMARK UNBOUND:                -4.171
REMARK SMILES CCCCCCCCCCCCCCCCCCCCCCCC(=O)[O-]
REMARK SMILES IDX 13 1 14 2 15 3 16 4 17 5 18 6 19 7 20 8 21 9 22 10 23 11
REMARK SMILES IDX 24 12 25 13 26 14 12 15 11 16 10 17 9 18 8 19 7 20 6 21 5 22
REMARK SMILES IDX 4 23 3 24 2 25 1 26
REMARK H PARENT
REMARK Flexibility Score: inf
ROOT
ATOM      1  C   UNL     1      59.247  11.391  91.064  1.00  0.00     0.000 C 
ENDROOT
BRANCH   1   2
ATOM      2  C   UNL     1      58.521  10.795  89.845  1.00  0.00     0.000 C 
BRANCH   2   3
ATOM      3  C   UNL     1      57.050  11.232  89.758  1.00  0.00     0.000 C 
BRANCH   3   4
ATOM      4  C   UNL     1      56.832  12.387  88.768  1.00  0.00     0.000 C 
BRANCH   4   5
ATOM      5  C   UNL     1      56.021  13.521  89.414  1.00  0.00     0.000 C 
BRANCH   5   6
ATOM      6  C   UNL     1      56.893  14.716  89.839  1.00  0.00     0.000 C 
BRANCH   6   7
ATOM      7  C   UNL     1      58.385  14.603  89.471  1.00  0.00     0.000 C 
BRANCH   7   8
ATOM      8  C   UNL     1      59.268  15.761  89.969  1.00  0.00     0.000 C 
BRANCH   8   9
ATOM      9  C   UNL     1      58.466  16.865  90.668  1.00  0.00     0.000 C 
BRANCH   9  10
ATOM     10  C   UNL     1      59.076  17.199  92.038  1.00  0.00     0.006 C 
BRANCH  10  11
ATOM     11  C   UNL     1      60.608  17.261  91.995  1.00  0.00     0.053 C 
BRANCH  11  12
ATOM     12  C   UNL     1      61.214  16.900  93.317  1.00  0.00     0.041 C 
ATOM     13  O   UNL     1      62.444  16.642  93.400  1.00  0.00    -0.550 OA
ATOM     14  O   UNL     1      60.428  16.884  94.463  1.00  0.00    -0.550 OA
ENDBRANCH  11  12
ENDBRANCH  10  11
ENDBRANCH   9  10
ENDBRANCH   8   9
ENDBRANCH   7   8
ENDBRANCH   6   7
ENDBRANCH   5   6
ENDBRANCH   4   5
ENDBRANCH   3   4
ENDBRANCH   2   3
ENDBRANCH   1   2
BRANCH   1  15
ATOM     15  C   UNL     1      58.279  12.011  92.083  1.00  0.00     0.000 C 
BRANCH  15  16
ATOM     16  C   UNL     1      58.904  13.178  92.868  1.00  0.00     0.000 C 
BRANCH  16  17
ATOM     17  C   UNL     1      57.846  14.204  93.328  1.00  0.00     0.000 C 
BRANCH  17  18
ATOM     18  C   UNL     1      57.882  14.498  94.839  1.00  0.00    -0.000 C 
BRANCH  18  19
ATOM     19  C   UNL     1      56.687  13.951  95.636  1.00  0.00    -0.000 C 
BRANCH  19  20
ATOM     20  C   UNL     1      56.999  12.624  96.346  1.00  0.00    -0.000 C 
BRANCH  20  21
ATOM     21  C   UNL     1      56.352  11.439  95.615  1.00  0.00    -0.000 C 
BRANCH  21  22
ATOM     22  C   UNL     1      55.086  11.861  94.837  1.00  0.00    -0.000 C 
BRANCH  22  23
ATOM     23  C   UNL     1      55.066  11.361  93.381  1.00  0.00    -0.000 C 
BRANCH  23  24
ATOM     24  C   UNL     1      54.389  12.318  92.384  1.00  0.00    -0.000 C 
BRANCH  24  25
ATOM     25  C   UNL     1      53.755  13.538  93.069  1.00  0.00    -0.003 C 
ATOM     26  C   UNL     1      54.459  14.825  92.652  1.00  0.00     0.004 C 
ENDBRANCH  24  25
ENDBRANCH  23  24
ENDBRANCH  22  23
ENDBRANCH  21  22
ENDBRANCH  20  21
ENDBRANCH  19  20
ENDBRANCH  18  19
ENDBRANCH  17  18
ENDBRANCH  16  17
ENDBRANCH  15  16
ENDBRANCH   1  15
TORSDOF 22
ENDMDL
MODEL 8
REMARK VINA RESULT:    -4.747      2.029      6.268
REMARK INTER + INTRA:         -15.024
REMARK INTER:                 -10.896
REMARK INTRA:                  -4.129
REMARK UNBOUND:                -4.171
REMARK SMILES CCCCCCCCCCCCCCCCCCCCCCCC(=O)[O-]
REMARK SMILES IDX 13 1 14 2 15 3 16 4 17 5 18 6 19 7 20 8 21 9 22 10 23 11
REMARK SMILES IDX 24 12 25 13 26 14 12 15 11 16 10 17 9 18 8 19 7 20 6 21 5 22
REMARK SMILES IDX 4 23 3 24 2 25 1 26
REMARK H PARENT
REMARK Flexibility Score: inf
ROOT
ATOM      1  C   UNL     1      58.969  13.839  92.081  1.00  0.00     0.000 C 
ENDROOT
BRANCH   1   2
ATOM      2  C   UNL     1      57.985  14.475  91.084  1.00  0.00     0.000 C 
BRANCH   2   3
ATOM      3  C   UNL     1      58.666  14.919  89.780  1.00  0.00     0.000 C 
BRANCH   3   4
ATOM      4  C   UNL     1      59.440  16.237  89.933  1.00  0.00     0.000 C 
BRANCH   4   5
ATOM      5  C   UNL     1      58.679  17.223  90.833  1.00  0.00     0.000 C 
BRANCH   5   6
ATOM      6  C   UNL     1      59.561  18.377  91.341  1.00  0.00     0.000 C 
BRANCH   6   7
ATOM      7  C   UNL     1      60.887  17.948  92.000  1.00  0.00     0.000 C 
BRANCH   7   8
ATOM      8  C   UNL     1      60.739  17.248  93.364  1.00  0.00     0.000 C 
BRANCH   8   9
ATOM      9  C   UNL     1      61.609  15.990  93.486  1.00  0.00     0.000 C 
BRANCH   9  10
ATOM     10  C   UNL     1      61.824  15.616  94.960  1.00  0.00     0.006 C 
BRANCH  10  11
ATOM     11  C   UNL     1      60.705  16.147  95.866  1.00  0.00     0.053 C 
BRANCH  11  12
ATOM     12  C   UNL     1      60.289  15.130  96.885  1.00  0.00     0.041 C 
ATOM     13  O   UNL     1      60.236  13.910  96.578  1.00  0.00    -0.550 OA
ATOM     14  O   UNL     1      59.996  15.526  98.185  1.00  0.00    -0.550 OA
ENDBRANCH  11  12
ENDBRANCH  10  11
ENDBRANCH   9  10
ENDBRANCH   8   9
ENDBRANCH   7   8
ENDBRANCH   6   7
ENDBRANCH   5   6
ENDBRANCH   4   5
ENDBRANCH   3   4
ENDBRANCH   2   3
ENDBRANCH   1   2
BRANCH   1  15
ATOM     15  C   UNL     1      58.469  13.910  93.532  1.00  0.00     0.000 C 
BRANCH  15  16
ATOM     16  C   UNL     1      57.723  15.219  93.844  1.00  0.00     0.000 C 
BRANCH  16  17
ATOM     17  C   UNL     1      56.400  14.970  94.600  1.00  0.00     0.000 C 
BRANCH  17  18
ATOM     18  C   UNL     1      55.416  14.055  93.846  1.00  0.00    -0.000 C 
BRANCH  18  19
ATOM     19  C   UNL     1      54.788  12.938  94.695  1.00  0.00    -0.000 C 
BRANCH  19  20
ATOM     20  C   UNL     1      54.850  11.562  94.012  1.00  0.00    -0.000 C 
BRANCH  20  21
ATOM     21  C   UNL     1      56.138  11.410  93.191  1.00  0.00    -0.000 C 
BRANCH  21  22
ATOM     22  C   UNL     1      55.854  10.917  91.755  1.00  0.00    -0.000 C 
BRANCH  22  23
ATOM     23  C   UNL     1      57.128  10.661  90.931  1.00  0.00    -0.000 C 
BRANCH  23  24
ATOM     24  C   UNL     1      57.157  11.361  89.561  1.00  0.00    -0.000 C 
BRANCH  24  25
ATOM     25  C   UNL     1      58.467  11.117  88.797  1.00  0.00    -0.003 C 
ATOM     26  C   UNL     1      59.660  11.108  89.747  1.00  0.00     0.004 C 
ENDBRANCH  24  25
ENDBRANCH  23  24
ENDBRANCH  22  23
ENDBRANCH  21  22
ENDBRANCH  20  21
ENDBRANCH  19  20
ENDBRANCH  18  19
ENDBRANCH  17  18
ENDBRANCH  16  17
ENDBRANCH  15  16
ENDBRANCH   1  15
TORSDOF 22
ENDMDL
MODEL 9
REMARK VINA RESULT:    -4.727      1.652      5.939
REMARK INTER + INTRA:         -14.978
REMARK INTER:                 -11.535
REMARK INTRA:                  -3.443
REMARK UNBOUND:                -4.171
REMARK SMILES CCCCCCCCCCCCCCCCCCCCCCCC(=O)[O-]
REMARK SMILES IDX 13 1 14 2 15 3 16 4 17 5 18 6 19 7 20 8 21 9 22 10 23 11
REMARK SMILES IDX 24 12 25 13 26 14 12 15 11 16 10 17 9 18 8 19 7 20 6 21 5 22
REMARK SMILES IDX 4 23 3 24 2 25 1 26
REMARK H PARENT
REMARK Flexibility Score: inf
ROOT
ATOM      1  C   UNL     1      61.856  16.067  95.159  1.00  0.00     0.000 C 
ENDROOT
BRANCH   1   2
ATOM      2  C   UNL     1      61.161  14.904  95.889  1.00  0.00     0.000 C 
BRANCH   2   3
ATOM      3  C   UNL     1      60.664  15.295  97.290  1.00  0.00     0.000 C 
BRANCH   3   4
ATOM      4  C   UNL     1      59.144  15.514  97.341  1.00  0.00     0.000 C 
BRANCH   4   5
ATOM      5  C   UNL     1      58.452  14.859  96.136  1.00  0.00     0.000 C 
BRANCH   5   6
ATOM      6  C   UNL     1      57.339  13.877  96.543  1.00  0.00     0.000 C 
BRANCH   6   7
ATOM      7  C   UNL     1      56.293  13.583  95.450  1.00  0.00     0.000 C 
BRANCH   7   8
ATOM      8  C   UNL     1      56.047  14.734  94.457  1.00  0.00     0.000 C 
BRANCH   8   9
ATOM      9  C   UNL     1      55.039  14.370  93.359  1.00  0.00     0.000 C 
BRANCH   9  10
ATOM     10  C   UNL     1      54.417  12.990  93.624  1.00  0.00     0.006 C 
BRANCH  10  11
ATOM     11  C   UNL     1      54.586  12.036  92.435  1.00  0.00     0.053 C 
BRANCH  11  12
ATOM     12  C   UNL     1      55.295  10.777  92.831  1.00  0.00     0.041 C 
ATOM     13  O   UNL     1      55.497  10.520  94.047  1.00  0.00    -0.550 OA
ATOM     14  O   UNL     1      55.699   9.869  91.859  1.00  0.00    -0.550 OA
ENDBRANCH  11  12
ENDBRANCH  10  11
ENDBRANCH   9  10
ENDBRANCH   8   9
ENDBRANCH   7   8
ENDBRANCH   6   7
ENDBRANCH   5   6
ENDBRANCH   4   5
ENDBRANCH   3   4
ENDBRANCH   2   3
ENDBRANCH   1   2
BRANCH   1  15
ATOM     15  C   UNL     1      60.881  16.902  94.316  1.00  0.00     0.000 C 
BRANCH  15  16
ATOM     16  C   UNL     1      60.760  16.398  92.867  1.00  0.00     0.000 C 
BRANCH  16  17
ATOM     17  C   UNL     1      59.339  15.888  92.544  1.00  0.00     0.000 C 
BRANCH  17  18
ATOM     18  C   UNL     1      59.204  14.355  92.594  1.00  0.00    -0.000 C 
BRANCH  18  19
ATOM     19  C   UNL     1      58.231  13.755  91.566  1.00  0.00    -0.000 C 
BRANCH  19  20
ATOM     20  C   UNL     1      58.015  14.665  90.346  1.00  0.00    -0.000 C 
BRANCH  20  21
ATOM     21  C   UNL     1      57.217  13.941  89.252  1.00  0.00    -0.000 C 
BRANCH  21  22
ATOM     22  C   UNL     1      56.660  12.586  89.741  1.00  0.00    -0.000 C 
BRANCH  22  23
ATOM     23  C   UNL     1      57.201  11.380  88.953  1.00  0.00    -0.000 C 
BRANCH  23  24
ATOM     24  C   UNL     1      58.720  11.164  89.075  1.00  0.00    -0.000 C 
BRANCH  24  25
ATOM     25  C   UNL     1      59.095  10.228  90.232  1.00  0.00    -0.003 C 
ATOM     26  C   UNL     1      60.525  10.481  90.700  1.00  0.00     0.004 C 
ENDBRANCH  24  25
ENDBRANCH  23  24
ENDBRANCH  22  23
ENDBRANCH  21  22
ENDBRANCH  20  21
ENDBRANCH  19  20
ENDBRANCH  18  19
ENDBRANCH  17  18
ENDBRANCH  16  17
ENDBRANCH  15  16
ENDBRANCH   1  15
TORSDOF 22
ENDMDL
