MODEL 1
REMARK VINA RESULT:    -5.603      0.000      0.000
REMARK INTER + INTRA:         -11.745
REMARK INTER:                  -9.861
REMARK INTRA:                  -1.884
REMARK UNBOUND:                -1.884
REMARK SMILES CCCCCCCCCCCCCCC(=O)[O-]
REMARK SMILES IDX 9 1 10 2 11 3 12 4 13 5 14 6 15 7 16 8 17 9 8 10 7 11 6 12
REMARK SMILES IDX 5 13 4 14 3 15 2 16 1 17
REMARK H PARENT
REMARK Flexibility Score: inf
ROOT
ATOM      1  C   UNL     1      16.728  -0.482  16.980  1.00  0.00     0.000 C 
ENDROOT
BRANCH   1   2
ATOM      2  C   UNL     1      16.068   0.133  15.729  1.00  0.00     0.000 C 
BRANCH   2   3
ATOM      3  C   UNL     1      16.165   1.665  15.624  1.00  0.00     0.000 C 
BRANCH   3   4
ATOM      4  C   UNL     1      14.930   2.297  14.959  1.00  0.00     0.000 C 
BRANCH   4   5
ATOM      5  C   UNL     1      15.237   2.857  13.555  1.00  0.00     0.006 C 
BRANCH   5   6
ATOM      6  C   UNL     1      15.295   1.778  12.463  1.00  0.00     0.053 C 
BRANCH   6   7
ATOM      7  C   UNL     1      16.675   1.599  11.914  1.00  0.00     0.041 C 
ATOM      8  O   UNL     1      17.124   2.397  11.050  1.00  0.00    -0.550 OA
ATOM      9  O   UNL     1      17.461   0.537  12.345  1.00  0.00    -0.550 OA
ENDBRANCH   6   7
ENDBRANCH   5   6
ENDBRANCH   4   5
ENDBRANCH   3   4
ENDBRANCH   2   3
ENDBRANCH   1   2
BRANCH   1  10
ATOM     10  C   UNL     1      17.625   0.477  17.782  1.00  0.00     0.000 C 
BRANCH  10  11
ATOM     11  C   UNL     1      17.471   0.307  19.301  1.00  0.00    -0.000 C 
BRANCH  11  12
ATOM     12  C   UNL     1      16.250  -0.558  19.634  1.00  0.00    -0.000 C 
BRANCH  12  13
ATOM     13  C   UNL     1      15.135   0.284  20.269  1.00  0.00    -0.000 C 
BRANCH  13  14
ATOM     14  C   UNL     1      13.811   0.103  19.512  1.00  0.00    -0.000 C 
BRANCH  14  15
ATOM     15  C   UNL     1      13.633   1.118  18.368  1.00  0.00    -0.000 C 
BRANCH  15  16
ATOM     16  C   UNL     1      14.118   2.543  18.687  1.00  0.00    -0.003 C 
ATOM     17  C   UNL     1      13.127   3.624  18.254  1.00  0.00     0.004 C 
ENDBRANCH  15  16
ENDBRANCH  14  15
ENDBRANCH  13  14
ENDBRANCH  12  13
ENDBRANCH  11  12
ENDBRANCH  10  11
ENDBRANCH   1  10
TORSDOF 13
ENDMDL
MODEL 2
REMARK VINA RESULT:    -5.564      1.267      1.721
REMARK INTER + INTRA:         -11.676
REMARK INTER:                  -9.833
REMARK INTRA:                  -1.843
REMARK UNBOUND:                -1.884
REMARK SMILES CCCCCCCCCCCCCCC(=O)[O-]
REMARK SMILES IDX 9 1 10 2 11 3 12 4 13 5 14 6 15 7 16 8 17 9 8 10 7 11 6 12
REMARK SMILES IDX 5 13 4 14 3 15 2 16 1 17
REMARK H PARENT
REMARK Flexibility Score: inf
ROOT
ATOM      1  C   UNL     1      17.374  -1.824  17.317  1.00  0.00     0.000 C 
ENDROOT
BRANCH   1   2
ATOM      2  C   UNL     1      16.254  -1.307  16.390  1.00  0.00     0.000 C 
BRANCH   2   3
ATOM      3  C   UNL     1      16.693  -0.249  15.362  1.00  0.00     0.000 C 
BRANCH   3   4
ATOM      4  C   UNL     1      16.282   1.178  15.762  1.00  0.00     0.000 C 
BRANCH   4   5
ATOM      5  C   UNL     1      14.886   1.562  15.229  1.00  0.00     0.006 C 
BRANCH   5   6
ATOM      6  C   UNL     1      14.676   1.207  13.749  1.00  0.00     0.053 C 
BRANCH   6   7
ATOM      7  C   UNL     1      15.204   2.263  12.830  1.00  0.00     0.041 C 
ATOM      8  O   UNL     1      15.190   3.473  13.178  1.00  0.00    -0.550 OA
ATOM      9  O   UNL     1      15.696   1.912  11.579  1.00  0.00    -0.550 OA
ENDBRANCH   6   7
ENDBRANCH   5   6
ENDBRANCH   4   5
ENDBRANCH   3   4
ENDBRANCH   2   3
ENDBRANCH   1   2
BRANCH   1  10
ATOM     10  C   UNL     1      17.164  -1.540  18.815  1.00  0.00     0.000 C 
BRANCH  10  11
ATOM     11  C   UNL     1      17.401  -0.068  19.182  1.00  0.00    -0.000 C 
BRANCH  11  12
ATOM     12  C   UNL     1      16.194   0.513  19.927  1.00  0.00    -0.000 C 
BRANCH  12  13
ATOM     13  C   UNL     1      14.926  -0.303  19.643  1.00  0.00    -0.000 C 
BRANCH  13  14
ATOM     14  C   UNL     1      13.848   0.570  18.983  1.00  0.00    -0.000 C 
BRANCH  14  15
ATOM     15  C   UNL     1      14.126   2.077  19.131  1.00  0.00    -0.000 C 
BRANCH  15  16
ATOM     16  C   UNL     1      13.297   2.981  18.202  1.00  0.00    -0.003 C 
ATOM     17  C   UNL     1      14.040   4.249  17.780  1.00  0.00     0.004 C 
ENDBRANCH  15  16
ENDBRANCH  14  15
ENDBRANCH  13  14
ENDBRANCH  12  13
ENDBRANCH  11  12
ENDBRANCH  10  11
ENDBRANCH   1  10
TORSDOF 13
ENDMDL
MODEL 3
REMARK VINA RESULT:    -5.529      2.271      6.343
REMARK INTER + INTRA:         -11.614
REMARK INTER:                 -10.264
REMARK INTRA:                  -1.350
REMARK UNBOUND:                -1.884
REMARK SMILES CCCCCCCCCCCCCCC(=O)[O-]
REMARK SMILES IDX 9 1 10 2 11 3 12 4 13 5 14 6 15 7 16 8 17 9 8 10 7 11 6 12
REMARK SMILES IDX 5 13 4 14 3 15 2 16 1 17
REMARK H PARENT
REMARK Flexibility Score: inf
ROOT
ATOM      1  C   UNL     1      13.956   2.265  17.254  1.00  0.00     0.000 C 
ENDROOT
BRANCH   1   2
ATOM      2  C   UNL     1      13.672   1.480  18.551  1.00  0.00     0.000 C 
BRANCH   2   3
ATOM      3  C   UNL     1      14.726   1.645  19.660  1.00  0.00     0.000 C 
BRANCH   3   4
ATOM      4  C   UNL     1      15.296   0.301  20.146  1.00  0.00     0.000 C 
BRANCH   4   5
ATOM      5  C   UNL     1      16.635  -0.052  19.469  1.00  0.00     0.006 C 
BRANCH   5   6
ATOM      6  C   UNL     1      16.662  -1.462  18.859  1.00  0.00     0.053 C 
BRANCH   6   7
ATOM      7  C   UNL     1      15.759  -1.585  17.673  1.00  0.00     0.041 C 
ATOM      8  O   UNL     1      16.105  -1.109  16.559  1.00  0.00    -0.550 OA
ATOM      9  O   UNL     1      14.525  -2.210  17.800  1.00  0.00    -0.550 OA
ENDBRANCH   6   7
ENDBRANCH   5   6
ENDBRANCH   4   5
ENDBRANCH   3   4
ENDBRANCH   2   3
ENDBRANCH   1   2
BRANCH   1  10
ATOM     10  C   UNL     1      15.445   2.503  16.949  1.00  0.00     0.000 C 
BRANCH  10  11
ATOM     11  C   UNL     1      15.809   2.202  15.487  1.00  0.00    -0.000 C 
BRANCH  11  12
ATOM     12  C   UNL     1      14.671   2.608  14.544  1.00  0.00    -0.000 C 
BRANCH  12  13
ATOM     13  C   UNL     1      15.219   3.084  13.192  1.00  0.00    -0.000 C 
BRANCH  13  14
ATOM     14  C   UNL     1      15.397   1.904  12.226  1.00  0.00    -0.000 C 
BRANCH  14  15
ATOM     15  C   UNL     1      16.668   2.023  11.365  1.00  0.00    -0.000 C 
BRANCH  15  16
ATOM     16  C   UNL     1      17.698   0.898  11.572  1.00  0.00    -0.003 C 
ATOM     17  C   UNL     1      17.461   0.099  12.853  1.00  0.00     0.004 C 
ENDBRANCH  15  16
ENDBRANCH  14  15
ENDBRANCH  13  14
ENDBRANCH  12  13
ENDBRANCH  11  12
ENDBRANCH  10  11
ENDBRANCH   1  10
TORSDOF 13
ENDMDL
MODEL 4
REMARK VINA RESULT:    -5.509      2.835      4.947
REMARK INTER + INTRA:         -11.580
REMARK INTER:                  -9.984
REMARK INTRA:                  -1.596
REMARK UNBOUND:                -1.884
REMARK SMILES CCCCCCCCCCCCCCC(=O)[O-]
REMARK SMILES IDX 9 1 10 2 11 3 12 4 13 5 14 6 15 7 16 8 17 9 8 10 7 11 6 12
REMARK SMILES IDX 5 13 4 14 3 15 2 16 1 17
REMARK H PARENT
REMARK Flexibility Score: inf
ROOT
ATOM      1  C   UNL     1      16.395   1.521  11.468  1.00  0.00     0.000 C 
ENDROOT
BRANCH   1   2
ATOM      2  C   UNL     1      17.694   0.832  11.932  1.00  0.00     0.000 C 
BRANCH   2   3
ATOM      3  C   UNL     1      17.499  -0.352  12.895  1.00  0.00     0.000 C 
BRANCH   3   4
ATOM      4  C   UNL     1      18.412  -0.272  14.131  1.00  0.00     0.000 C 
BRANCH   4   5
ATOM      5  C   UNL     1      17.633   0.066  15.419  1.00  0.00     0.006 C 
BRANCH   5   6
ATOM      6  C   UNL     1      16.285  -0.662  15.529  1.00  0.00     0.053 C 
BRANCH   6   7
ATOM      7  C   UNL     1      16.233  -1.589  16.702  1.00  0.00     0.041 C 
ATOM      8  O   UNL     1      15.261  -1.549  17.502  1.00  0.00    -0.550 OA
ATOM      9  O   UNL     1      17.270  -2.487  16.925  1.00  0.00    -0.550 OA
ENDBRANCH   6   7
ENDBRANCH   5   6
ENDBRANCH   4   5
ENDBRANCH   3   4
ENDBRANCH   2   3
ENDBRANCH   1   2
BRANCH   1  10
ATOM     10  C   UNL     1      15.301   1.643  12.543  1.00  0.00     0.000 C 
BRANCH  10  11
ATOM     11  C   UNL     1      15.370   2.969  13.314  1.00  0.00    -0.000 C 
BRANCH  11  12
ATOM     12  C   UNL     1      15.008   2.765  14.790  1.00  0.00    -0.000 C 
BRANCH  12  13
ATOM     13  C   UNL     1      13.486   2.718  14.983  1.00  0.00    -0.000 C 
BRANCH  13  14
ATOM     14  C   UNL     1      13.120   2.771  16.473  1.00  0.00    -0.000 C 
BRANCH  14  15
ATOM     15  C   UNL     1      13.868   1.717  17.311  1.00  0.00    -0.000 C 
BRANCH  15  16
ATOM     16  C   UNL     1      14.261   2.176  18.726  1.00  0.00    -0.003 C 
ATOM     17  C   UNL     1      13.797   3.596  19.046  1.00  0.00     0.004 C 
ENDBRANCH  15  16
ENDBRANCH  14  15
ENDBRANCH  13  14
ENDBRANCH  12  13
ENDBRANCH  11  12
ENDBRANCH  10  11
ENDBRANCH   1  10
TORSDOF 13
ENDMDL
MODEL 5
REMARK VINA RESULT:    -5.464      3.089      5.965
REMARK INTER + INTRA:         -11.501
REMARK INTER:                  -9.888
REMARK INTRA:                  -1.614
REMARK UNBOUND:                -1.884
REMARK SMILES CCCCCCCCCCCCCCC(=O)[O-]
REMARK SMILES IDX 9 1 10 2 11 3 12 4 13 5 14 6 15 7 16 8 17 9 8 10 7 11 6 12
REMARK SMILES IDX 5 13 4 14 3 15 2 16 1 17
REMARK H PARENT
REMARK Flexibility Score: inf
ROOT
ATOM      1  C   UNL     1      15.496   1.698  12.686  1.00  0.00     0.000 C 
ENDROOT
BRANCH   1   2
ATOM      2  C   UNL     1      15.332   2.892  13.648  1.00  0.00     0.000 C 
BRANCH   2   3
ATOM      3  C   UNL     1      14.595   2.577  14.962  1.00  0.00     0.000 C 
BRANCH   3   4
ATOM      4  C   UNL     1      15.440   2.889  16.209  1.00  0.00     0.000 C 
BRANCH   4   5
ATOM      5  C   UNL     1      14.591   3.426  17.378  1.00  0.00     0.006 C 
BRANCH   5   6
ATOM      6  C   UNL     1      13.434   2.496  17.774  1.00  0.00     0.053 C 
BRANCH   6   7
ATOM      7  C   UNL     1      13.891   1.341  18.607  1.00  0.00     0.041 C 
ATOM      8  O   UNL     1      13.652   0.160  18.241  1.00  0.00    -0.550 OA
ATOM      9  O   UNL     1      14.568   1.569  19.799  1.00  0.00    -0.550 OA
ENDBRANCH   6   7
ENDBRANCH   5   6
ENDBRANCH   4   5
ENDBRANCH   3   4
ENDBRANCH   2   3
ENDBRANCH   1   2
BRANCH   1  10
ATOM     10  C   UNL     1      16.628   1.842  11.653  1.00  0.00     0.000 C 
BRANCH  10  11
ATOM     11  C   UNL     1      17.742   0.802  11.841  1.00  0.00    -0.000 C 
BRANCH  11  12
ATOM     12  C   UNL     1      17.352  -0.234  12.902  1.00  0.00    -0.000 C 
BRANCH  12  13
ATOM     13  C   UNL     1      18.410  -0.311  14.011  1.00  0.00    -0.000 C 
BRANCH  13  14
ATOM     14  C   UNL     1      17.793   0.011  15.381  1.00  0.00    -0.000 C 
BRANCH  14  15
ATOM     15  C   UNL     1      16.389  -0.594  15.561  1.00  0.00    -0.000 C 
BRANCH  15  16
ATOM     16  C   UNL     1      16.286  -1.680  16.646  1.00  0.00    -0.003 C 
ATOM     17  C   UNL     1      17.643  -2.264  17.039  1.00  0.00     0.004 C 
ENDBRANCH  15  16
ENDBRANCH  14  15
ENDBRANCH  13  14
ENDBRANCH  12  13
ENDBRANCH  11  12
ENDBRANCH  10  11
ENDBRANCH   1  10
TORSDOF 13
ENDMDL
MODEL 6
REMARK VINA RESULT:    -5.445      1.027      3.134
REMARK INTER + INTRA:         -11.467
REMARK INTER:                  -9.610
REMARK INTRA:                  -1.857
REMARK UNBOUND:                -1.884
REMARK SMILES CCCCCCCCCCCCCCC(=O)[O-]
REMARK SMILES IDX 9 1 10 2 11 3 12 4 13 5 14 6 15 7 16 8 17 9 8 10 7 11 6 12
REMARK SMILES IDX 5 13 4 14 3 15 2 16 1 17
REMARK H PARENT
REMARK Flexibility Score: inf
ROOT
ATOM      1  C   UNL     1      14.421   3.318  17.199  1.00  0.00     0.000 C 
ENDROOT
BRANCH   1   2
ATOM      2  C   UNL     1      13.210   3.227  16.249  1.00  0.00     0.000 C 
BRANCH   2   3
ATOM      3  C   UNL     1      13.417   2.342  15.007  1.00  0.00     0.000 C 
BRANCH   3   4
ATOM      4  C   UNL     1      14.761   2.604  14.305  1.00  0.00     0.000 C 
BRANCH   4   5
ATOM      5  C   UNL     1      14.983   1.681  13.091  1.00  0.00     0.006 C 
BRANCH   5   6
ATOM      6  C   UNL     1      15.918   2.278  12.028  1.00  0.00     0.053 C 
BRANCH   6   7
ATOM      7  C   UNL     1      16.985   1.318  11.606  1.00  0.00     0.041 C 
ATOM      8  O   UNL     1      17.608   0.642  12.466  1.00  0.00    -0.550 OA
ATOM      9  O   UNL     1      17.306   1.183  10.260  1.00  0.00    -0.550 OA
ENDBRANCH   6   7
ENDBRANCH   5   6
ENDBRANCH   4   5
ENDBRANCH   3   4
ENDBRANCH   2   3
ENDBRANCH   1   2
BRANCH   1  10
ATOM     10  C   UNL     1      14.213   2.682  18.585  1.00  0.00     0.000 C 
BRANCH  10  11
ATOM     11  C   UNL     1      13.728   1.227  18.506  1.00  0.00    -0.000 C 
BRANCH  11  12
ATOM     12  C   UNL     1      14.280   0.401  19.673  1.00  0.00    -0.000 C 
BRANCH  12  13
ATOM     13  C   UNL     1      15.756   0.728  19.930  1.00  0.00    -0.000 C 
BRANCH  13  14
ATOM     14  C   UNL     1      16.669  -0.088  19.003  1.00  0.00    -0.000 C 
BRANCH  14  15
ATOM     15  C   UNL     1      17.576   0.796  18.127  1.00  0.00    -0.000 C 
BRANCH  15  16
ATOM     16  C   UNL     1      17.137   0.917  16.658  1.00  0.00    -0.003 C 
ATOM     17  C   UNL     1      16.270  -0.253  16.193  1.00  0.00     0.004 C 
ENDBRANCH  15  16
ENDBRANCH  14  15
ENDBRANCH  13  14
ENDBRANCH  12  13
ENDBRANCH  11  12
ENDBRANCH  10  11
ENDBRANCH   1  10
TORSDOF 13
ENDMDL
MODEL 7
REMARK VINA RESULT:    -5.437      1.620      3.875
REMARK INTER + INTRA:         -11.453
REMARK INTER:                  -9.460
REMARK INTRA:                  -1.993
REMARK UNBOUND:                -1.884
REMARK SMILES CCCCCCCCCCCCCCC(=O)[O-]
REMARK SMILES IDX 9 1 10 2 11 3 12 4 13 5 14 6 15 7 16 8 17 9 8 10 7 11 6 12
REMARK SMILES IDX 5 13 4 14 3 15 2 16 1 17
REMARK H PARENT
REMARK Flexibility Score: inf
ROOT
ATOM      1  C   UNL     1      16.726   0.095  19.637  1.00  0.00     0.000 C 
ENDROOT
BRANCH   1   2
ATOM      2  C   UNL     1      16.589  -1.362  19.152  1.00  0.00     0.000 C 
BRANCH   2   3
ATOM      3  C   UNL     1      17.133  -1.635  17.739  1.00  0.00     0.000 C 
BRANCH   3   4
ATOM      4  C   UNL     1      16.038  -1.584  16.658  1.00  0.00     0.000 C 
BRANCH   4   5
ATOM      5  C   UNL     1      16.381  -0.605  15.517  1.00  0.00     0.006 C 
BRANCH   5   6
ATOM      6  C   UNL     1      17.808  -0.043  15.599  1.00  0.00     0.053 C 
BRANCH   6   7
ATOM      7  C   UNL     1      18.693  -0.579  14.518  1.00  0.00     0.041 C 
ATOM      8  O   UNL     1      18.614  -0.123  13.347  1.00  0.00    -0.550 OA
ATOM      9  O   UNL     1      19.594  -1.599  14.800  1.00  0.00    -0.550 OA
ENDBRANCH   6   7
ENDBRANCH   5   6
ENDBRANCH   4   5
ENDBRANCH   3   4
ENDBRANCH   2   3
ENDBRANCH   1   2
BRANCH   1  10
ATOM     10  C   UNL     1      15.513   0.642  20.412  1.00  0.00     0.000 C 
BRANCH  10  11
ATOM     11  C   UNL     1      14.723   1.693  19.618  1.00  0.00    -0.000 C 
BRANCH  11  12
ATOM     12  C   UNL     1      13.706   1.025  18.685  1.00  0.00    -0.000 C 
BRANCH  12  13
ATOM     13  C   UNL     1      13.856   1.539  17.248  1.00  0.00    -0.000 C 
BRANCH  13  14
ATOM     14  C   UNL     1      14.851   2.708  17.184  1.00  0.00    -0.000 C 
BRANCH  14  15
ATOM     15  C   UNL     1      15.458   2.900  15.782  1.00  0.00    -0.000 C 
BRANCH  15  16
ATOM     16  C   UNL     1      14.512   2.564  14.616  1.00  0.00    -0.003 C 
ATOM     17  C   UNL     1      15.229   2.477  13.268  1.00  0.00     0.004 C 
ENDBRANCH  15  16
ENDBRANCH  14  15
ENDBRANCH  13  14
ENDBRANCH  12  13
ENDBRANCH  11  12
ENDBRANCH  10  11
ENDBRANCH   1  10
TORSDOF 13
ENDMDL
MODEL 8
REMARK VINA RESULT:    -5.416      3.076      6.020
REMARK INTER + INTRA:         -11.416
REMARK INTER:                  -9.603
REMARK INTRA:                  -1.813
REMARK UNBOUND:                -1.884
REMARK SMILES CCCCCCCCCCCCCCC(=O)[O-]
REMARK SMILES IDX 9 1 10 2 11 3 12 4 13 5 14 6 15 7 16 8 17 9 8 10 7 11 6 12
REMARK SMILES IDX 5 13 4 14 3 15 2 16 1 17
REMARK H PARENT
REMARK Flexibility Score: inf
ROOT
ATOM      1  C   UNL     1      17.885   0.569  18.177  1.00  0.00     0.000 C 
ENDROOT
BRANCH   1   2
ATOM      2  C   UNL     1      17.701  -0.962  18.193  1.00  0.00     0.000 C 
BRANCH   2   3
ATOM      3  C   UNL     1      16.497  -1.468  19.008  1.00  0.00     0.000 C 
BRANCH   3   4
ATOM      4  C   UNL     1      15.194  -1.500  18.191  1.00  0.00     0.000 C 
BRANCH   4   5
ATOM      5  C   UNL     1      14.066  -0.677  18.845  1.00  0.00     0.006 C 
BRANCH   5   6
ATOM      6  C   UNL     1      13.917   0.735  18.258  1.00  0.00     0.053 C 
BRANCH   6   7
ATOM      7  C   UNL     1      14.317   1.800  19.229  1.00  0.00     0.041 C 
ATOM      8  O   UNL     1      13.954   2.992  19.049  1.00  0.00    -0.550 OA
ATOM      9  O   UNL     1      15.107   1.479  20.326  1.00  0.00    -0.550 OA
ENDBRANCH   6   7
ENDBRANCH   5   6
ENDBRANCH   4   5
ENDBRANCH   3   4
ENDBRANCH   2   3
ENDBRANCH   1   2
BRANCH   1  10
ATOM     10  C   UNL     1      17.257   1.290  16.971  1.00  0.00     0.000 C 
BRANCH  10  11
ATOM     11  C   UNL     1      17.368   0.481  15.670  1.00  0.00    -0.000 C 
BRANCH  11  12
ATOM     12  C   UNL     1      15.980   0.155  15.106  1.00  0.00    -0.000 C 
BRANCH  12  13
ATOM     13  C   UNL     1      15.196   1.437  14.796  1.00  0.00    -0.000 C 
BRANCH  13  14
ATOM     14  C   UNL     1      14.787   1.486  13.316  1.00  0.00    -0.000 C 
BRANCH  14  15
ATOM     15  C   UNL     1      15.483   2.620  12.541  1.00  0.00    -0.000 C 
BRANCH  15  16
ATOM     16  C   UNL     1      16.344   2.157  11.353  1.00  0.00    -0.003 C 
ATOM     17  C   UNL     1      17.221   0.950  11.684  1.00  0.00     0.004 C 
ENDBRANCH  15  16
ENDBRANCH  14  15
ENDBRANCH  13  14
ENDBRANCH  12  13
ENDBRANCH  11  12
ENDBRANCH  10  11
ENDBRANCH   1  10
TORSDOF 13
ENDMDL
MODEL 9
REMARK VINA RESULT:    -5.383      1.127      3.490
REMARK INTER + INTRA:         -11.357
REMARK INTER:                  -9.869
REMARK INTRA:                  -1.488
REMARK UNBOUND:                -1.884
REMARK SMILES CCCCCCCCCCCCCCC(=O)[O-]
REMARK SMILES IDX 9 1 10 2 11 3 12 4 13 5 14 6 15 7 16 8 17 9 8 10 7 11 6 12
REMARK SMILES IDX 5 13 4 14 3 15 2 16 1 17
REMARK H PARENT
REMARK Flexibility Score: inf
ROOT
ATOM      1  C   UNL     1      13.920   1.814  18.737  1.00  0.00     0.000 C 
ENDROOT
BRANCH   1   2
ATOM      2  C   UNL     1      14.210   3.011  17.808  1.00  0.00     0.000 C 
BRANCH   2   3
ATOM      3  C   UNL     1      13.109   3.323  16.779  1.00  0.00     0.000 C 
BRANCH   3   4
ATOM      4  C   UNL     1      13.370   2.670  15.410  1.00  0.00     0.000 C 
BRANCH   4   5
ATOM      5  C   UNL     1      14.870   2.623  15.055  1.00  0.00     0.006 C 
BRANCH   5   6
ATOM      6  C   UNL     1      15.172   3.047  13.610  1.00  0.00     0.053 C 
BRANCH   6   7
ATOM      7  C   UNL     1      15.674   1.911  12.777  1.00  0.00     0.041 C 
ATOM      8  O   UNL     1      15.597   1.960  11.521  1.00  0.00    -0.550 OA
ATOM      9  O   UNL     1      16.213   0.785  13.389  1.00  0.00    -0.550 OA
ENDBRANCH   6   7
ENDBRANCH   5   6
ENDBRANCH   4   5
ENDBRANCH   3   4
ENDBRANCH   2   3
ENDBRANCH   1   2
BRANCH   1  10
ATOM     10  C   UNL     1      14.729   1.791  20.045  1.00  0.00     0.000 C 
BRANCH  10  11
ATOM     11  C   UNL     1      14.996   0.368  20.556  1.00  0.00    -0.000 C 
BRANCH  11  12
ATOM     12  C   UNL     1      15.896  -0.404  19.585  1.00  0.00    -0.000 C 
BRANCH  12  13
ATOM     13  C   UNL     1      17.265   0.275  19.446  1.00  0.00    -0.000 C 
BRANCH  13  14
ATOM     14  C   UNL     1      17.562   0.619  17.979  1.00  0.00    -0.000 C 
BRANCH  14  15
ATOM     15  C   UNL     1      16.606  -0.082  16.996  1.00  0.00    -0.000 C 
BRANCH  15  16
ATOM     16  C   UNL     1      17.241  -1.217  16.174  1.00  0.00    -0.003 C 
ATOM     17  C   UNL     1      17.670  -2.409  17.030  1.00  0.00     0.004 C 
ENDBRANCH  15  16
ENDBRANCH  14  15
ENDBRANCH  13  14
ENDBRANCH  12  13
ENDBRANCH  11  12
ENDBRANCH  10  11
ENDBRANCH   1  10
TORSDOF 13
ENDMDL
