MODEL 1
REMARK VINA RESULT:    -2.564      0.000      0.000
REMARK INTER + INTRA:          -2.885
REMARK INTER:                  -2.864
REMARK INTRA:                  -0.021
REMARK UNBOUND:                -0.021
REMARK SMILES CCCC(=O)[O-]
REMARK SMILES IDX 3 1 4 2 5 3 6 4 2 5 1 6
REMARK H PARENT
REMARK Flexibility Score: inf
ROOT
ATOM      1  C   UNL     1      28.670  71.984  11.984  1.00  0.00     0.052 C 
ENDROOT
BRANCH   1   2
ATOM      2  C   UNL     1      27.810  72.016  13.207  1.00  0.00     0.041 C 
ATOM      3  O   UNL     1      26.569  71.826  13.115  1.00  0.00    -0.550 OA
ATOM      4  O   UNL     1      28.372  72.306  14.443  1.00  0.00    -0.550 OA
ENDBRANCH   1   2
BRANCH   1   5
ATOM      5  C   UNL     1      27.806  71.868  10.725  1.00  0.00     0.003 C 
ATOM      6  C   UNL     1      28.476  70.987   9.675  1.00  0.00     0.004 C 
ENDBRANCH   1   5
TORSDOF 2
ENDMDL
MODEL 2
REMARK VINA RESULT:    -2.442      9.394     10.059
REMARK INTER + INTRA:          -2.748
REMARK INTER:                  -2.710
REMARK INTRA:                  -0.038
REMARK UNBOUND:                -0.021
REMARK SMILES CCCC(=O)[O-]
REMARK SMILES IDX 3 1 4 2 5 3 6 4 2 5 1 6
REMARK H PARENT
REMARK Flexibility Score: inf
ROOT
ATOM      1  C   UNL     1      22.545  67.846  18.690  1.00  0.00     0.052 C 
ENDROOT
BRANCH   1   2
ATOM      2  C   UNL     1      21.286  67.149  19.099  1.00  0.00     0.041 C 
ATOM      3  O   UNL     1      20.224  67.804  19.262  1.00  0.00    -0.550 OA
ATOM      4  O   UNL     1      21.298  65.783  19.347  1.00  0.00    -0.550 OA
ENDBRANCH   1   2
BRANCH   1   5
ATOM      5  C   UNL     1      22.238  68.969  17.696  1.00  0.00     0.003 C 
ATOM      6  C   UNL     1      22.669  70.325  18.246  1.00  0.00     0.004 C 
ENDBRANCH   1   5
TORSDOF 2
ENDMDL
MODEL 3
REMARK VINA RESULT:    -2.399      8.341      8.966
REMARK INTER + INTRA:          -2.701
REMARK INTER:                  -2.690
REMARK INTRA:                  -0.011
REMARK UNBOUND:                -0.021
REMARK SMILES CCCC(=O)[O-]
REMARK SMILES IDX 3 1 4 2 5 3 6 4 2 5 1 6
REMARK H PARENT
REMARK Flexibility Score: inf
ROOT
ATOM      1  C   UNL     1      22.377  68.006  17.175  1.00  0.00     0.052 C 
ENDROOT
BRANCH   1   2
ATOM      2  C   UNL     1      23.189  66.768  17.389  1.00  0.00     0.041 C 
ATOM      3  O   UNL     1      23.034  66.083  18.434  1.00  0.00    -0.550 OA
ATOM      4  O   UNL     1      24.150  66.399  16.459  1.00  0.00    -0.550 OA
ENDBRANCH   1   2
BRANCH   1   5
ATOM      5  C   UNL     1      22.369  68.868  18.440  1.00  0.00     0.003 C 
ATOM      6  C   UNL     1      22.719  70.318  18.122  1.00  0.00     0.004 C 
ENDBRANCH   1   5
TORSDOF 2
ENDMDL
MODEL 4
REMARK VINA RESULT:    -2.334      2.205      3.288
REMARK INTER + INTRA:          -2.628
REMARK INTER:                  -2.594
REMARK INTRA:                  -0.034
REMARK UNBOUND:                -0.021
REMARK SMILES CCCC(=O)[O-]
REMARK SMILES IDX 3 1 4 2 5 3 6 4 2 5 1 6
REMARK H PARENT
REMARK Flexibility Score: inf
ROOT
ATOM      1  C   UNL     1      27.885  72.380  11.530  1.00  0.00     0.052 C 
ENDROOT
BRANCH   1   2
ATOM      2  C   UNL     1      27.554  71.180  10.700  1.00  0.00     0.041 C 
ATOM      3  O   UNL     1      26.514  70.512  10.939  1.00  0.00    -0.550 OA
ATOM      4  O   UNL     1      28.420  70.771   9.695  1.00  0.00    -0.550 OA
ENDBRANCH   1   2
BRANCH   1   5
ATOM      5  C   UNL     1      28.754  71.982  12.726  1.00  0.00     0.003 C 
ATOM      6  C   UNL     1      27.985  72.119  14.036  1.00  0.00     0.004 C 
ENDBRANCH   1   5
TORSDOF 2
ENDMDL
MODEL 5
REMARK VINA RESULT:    -2.330      1.641      2.005
REMARK INTER + INTRA:          -2.624
REMARK INTER:                  -2.611
REMARK INTRA:                  -0.012
REMARK UNBOUND:                -0.021
REMARK SMILES CCCC(=O)[O-]
REMARK SMILES IDX 3 1 4 2 5 3 6 4 2 5 1 6
REMARK H PARENT
REMARK Flexibility Score: inf
ROOT
ATOM      1  C   UNL     1      26.753  71.669  12.624  1.00  0.00     0.052 C 
ENDROOT
BRANCH   1   2
ATOM      2  C   UNL     1      28.134  71.988  13.104  1.00  0.00     0.041 C 
ATOM      3  O   UNL     1      29.111  71.918  12.314  1.00  0.00    -0.550 OA
ATOM      4  O   UNL     1      28.347  72.315  14.436  1.00  0.00    -0.550 OA
ENDBRANCH   1   2
BRANCH   1   5
ATOM      5  C   UNL     1      26.809  70.921  11.289  1.00  0.00     0.003 C 
ATOM      6  C   UNL     1      25.413  70.731  10.705  1.00  0.00     0.004 C 
ENDBRANCH   1   5
TORSDOF 2
ENDMDL
MODEL 6
REMARK VINA RESULT:    -2.325      2.079      2.915
REMARK INTER + INTRA:          -2.618
REMARK INTER:                  -2.578
REMARK INTRA:                  -0.040
REMARK UNBOUND:                -0.021
REMARK SMILES CCCC(=O)[O-]
REMARK SMILES IDX 3 1 4 2 5 3 6 4 2 5 1 6
REMARK H PARENT
REMARK Flexibility Score: inf
ROOT
ATOM      1  C   UNL     1      27.388  72.527  11.603  1.00  0.00     0.052 C 
ENDROOT
BRANCH   1   2
ATOM      2  C   UNL     1      26.302  71.500  11.664  1.00  0.00     0.041 C 
ATOM      3  O   UNL     1      26.339  70.494  10.909  1.00  0.00    -0.550 OA
ATOM      4  O   UNL     1      25.224  71.679  12.521  1.00  0.00    -0.550 OA
ENDBRANCH   1   2
BRANCH   1   5
ATOM      5  C   UNL     1      28.597  72.079  12.427  1.00  0.00     0.003 C 
ATOM      6  C   UNL     1      28.357  72.289  13.919  1.00  0.00     0.004 C 
ENDBRANCH   1   5
TORSDOF 2
ENDMDL
MODEL 7
REMARK VINA RESULT:    -2.320     18.676     19.607
REMARK INTER + INTRA:          -2.612
REMARK INTER:                  -2.574
REMARK INTRA:                  -0.038
REMARK UNBOUND:                -0.021
REMARK SMILES CCCC(=O)[O-]
REMARK SMILES IDX 3 1 4 2 5 3 6 4 2 5 1 6
REMARK H PARENT
REMARK Flexibility Score: inf
ROOT
ATOM      1  C   UNL     1      32.768  82.793  27.725  1.00  0.00     0.052 C 
ENDROOT
BRANCH   1   2
ATOM      2  C   UNL     1      32.917  84.063  26.949  1.00  0.00     0.041 C 
ATOM      3  O   UNL     1      32.384  85.125  27.363  1.00  0.00    -0.550 OA
ATOM      4  O   UNL     1      33.605  84.062  25.742  1.00  0.00    -0.550 OA
ENDBRANCH   1   2
BRANCH   1   5
ATOM      5  C   UNL     1      34.094  82.030  27.764  1.00  0.00     0.003 C 
ATOM      6  C   UNL     1      33.995  80.712  27.001  1.00  0.00     0.004 C 
ENDBRANCH   1   5
TORSDOF 2
ENDMDL
MODEL 8
REMARK VINA RESULT:    -2.192      8.296      8.885
REMARK INTER + INTRA:          -2.469
REMARK INTER:                  -2.462
REMARK INTRA:                  -0.007
REMARK UNBOUND:                -0.021
REMARK SMILES CCCC(=O)[O-]
REMARK SMILES IDX 3 1 4 2 5 3 6 4 2 5 1 6
REMARK H PARENT
REMARK Flexibility Score: inf
ROOT
ATOM      1  C   UNL     1      22.582  68.008  17.205  1.00  0.00     0.052 C 
ENDROOT
BRANCH   1   2
ATOM      2  C   UNL     1      22.180  68.725  18.454  1.00  0.00     0.041 C 
ATOM      3  O   UNL     1      22.343  69.969  18.551  1.00  0.00    -0.550 OA
ATOM      4  O   UNL     1      21.670  68.012  19.531  1.00  0.00    -0.550 OA
ENDBRANCH   1   2
BRANCH   1   5
ATOM      5  C   UNL     1      23.216  66.656  17.543  1.00  0.00     0.003 C 
ATOM      6  C   UNL     1      23.984  66.094  16.350  1.00  0.00     0.004 C 
ENDBRANCH   1   5
TORSDOF 2
ENDMDL
MODEL 9
REMARK VINA RESULT:    -2.179      9.277     10.082
REMARK INTER + INTRA:          -2.455
REMARK INTER:                  -2.442
REMARK INTRA:                  -0.013
REMARK UNBOUND:                -0.021
REMARK SMILES CCCC(=O)[O-]
REMARK SMILES IDX 3 1 4 2 5 3 6 4 2 5 1 6
REMARK H PARENT
REMARK Flexibility Score: inf
ROOT
ATOM      1  C   UNL     1      22.769  67.010  18.399  1.00  0.00     0.052 C 
ENDROOT
BRANCH   1   2
ATOM      2  C   UNL     1      21.443  66.755  19.043  1.00  0.00     0.041 C 
ATOM      3  O   UNL     1      21.116  65.587  19.378  1.00  0.00    -0.550 OA
ATOM      4  O   UNL     1      20.549  67.801  19.228  1.00  0.00    -0.550 OA
ENDBRANCH   1   2
BRANCH   1   5
ATOM      5  C   UNL     1      23.251  65.763  17.653  1.00  0.00     0.003 C 
ATOM      6  C   UNL     1      23.955  66.137  16.352  1.00  0.00     0.004 C 
ENDBRANCH   1   5
TORSDOF 2
ENDMDL
