MODEL 1
REMARK VINA RESULT:    -1.634      0.000      0.000
REMARK INTER + INTRA:          -1.956
REMARK INTER:                  -1.921
REMARK INTRA:                  -0.035
REMARK UNBOUND:                -0.035
REMARK SMILES O=C([O-])CCC(=O)[O-]
REMARK SMILES IDX 4 1 2 2 1 3 3 4 5 5 6 6 7 7 8 8
REMARK H PARENT
REMARK Flexibility Score: inf
ROOT
ATOM      1  C   UNL     1     -31.630  22.117 -10.615  1.00  0.00     0.059 C 
ENDROOT
BRANCH   1   2
ATOM      2  C   UNL     1     -32.202  23.359 -10.010  1.00  0.00     0.042 C 
ATOM      3  O   UNL     1     -31.478  24.114  -9.309  1.00  0.00    -0.550 OA
ATOM      4  O   UNL     1     -33.523  23.709 -10.257  1.00  0.00    -0.550 OA
ENDBRANCH   1   2
BRANCH   1   5
ATOM      5  C   UNL     1     -32.326  20.878 -10.051  1.00  0.00     0.059 C 
BRANCH   5   6
ATOM      6  C   UNL     1     -31.534  19.647 -10.360  1.00  0.00     0.042 C 
ATOM      7  O   UNL     1     -30.294  19.725 -10.562  1.00  0.00    -0.550 OA
ATOM      8  O   UNL     1     -32.173  18.419 -10.472  1.00  0.00    -0.550 OA
ENDBRANCH   5   6
ENDBRANCH   1   5
TORSDOF 3
ENDMDL
MODEL 2
REMARK VINA RESULT:    -1.598      0.114      1.149
REMARK INTER + INTRA:          -1.913
REMARK INTER:                  -1.882
REMARK INTRA:                  -0.032
REMARK UNBOUND:                -0.035
REMARK SMILES O=C([O-])CCC(=O)[O-]
REMARK SMILES IDX 4 1 2 2 1 3 3 4 5 5 6 6 7 7 8 8
REMARK H PARENT
REMARK Flexibility Score: inf
ROOT
ATOM      1  C   UNL     1     -31.547  22.110 -10.535  1.00  0.00     0.059 C 
ENDROOT
BRANCH   1   2
ATOM      2  C   UNL     1     -32.185  23.351  -9.997  1.00  0.00     0.042 C 
ATOM      3  O   UNL     1     -31.533  24.125  -9.248  1.00  0.00    -0.550 OA
ATOM      4  O   UNL     1     -33.486  23.677 -10.359  1.00  0.00    -0.550 OA
ENDBRANCH   1   2
BRANCH   1   5
ATOM      5  C   UNL     1     -32.261  20.867 -10.001  1.00  0.00     0.059 C 
BRANCH   5   6
ATOM      6  C   UNL     1     -31.490  19.632 -10.345  1.00  0.00     0.042 C 
ATOM      7  O   UNL     1     -32.063  18.512 -10.366  1.00  0.00    -0.550 OA
ATOM      8  O   UNL     1     -30.125  19.712 -10.596  1.00  0.00    -0.550 OA
ENDBRANCH   5   6
ENDBRANCH   1   5
TORSDOF 3
ENDMDL
MODEL 3
REMARK VINA RESULT:    -1.506      0.248      4.399
REMARK INTER + INTRA:          -1.806
REMARK INTER:                  -1.771
REMARK INTRA:                  -0.034
REMARK UNBOUND:                -0.035
REMARK SMILES O=C([O-])CCC(=O)[O-]
REMARK SMILES IDX 4 1 2 2 1 3 3 4 5 5 6 6 7 7 8 8
REMARK H PARENT
REMARK Flexibility Score: inf
ROOT
ATOM      1  C   UNL     1     -32.257  20.697 -10.141  1.00  0.00     0.059 C 
ENDROOT
BRANCH   1   2
ATOM      2  C   UNL     1     -31.434  19.469 -10.367  1.00  0.00     0.042 C 
ATOM      3  O   UNL     1     -31.979  18.334 -10.375  1.00  0.00    -0.550 OA
ATOM      4  O   UNL     1     -30.072  19.580 -10.617  1.00  0.00    -0.550 OA
ENDBRANCH   1   2
BRANCH   1   5
ATOM      5  C   UNL     1     -31.440  21.952 -10.453  1.00  0.00     0.059 C 
BRANCH   5   6
ATOM      6  C   UNL     1     -32.159  23.175  -9.979  1.00  0.00     0.042 C 
ATOM      7  O   UNL     1     -33.360  23.370 -10.301  1.00  0.00    -0.550 OA
ATOM      8  O   UNL     1     -31.488  24.125  -9.218  1.00  0.00    -0.550 OA
ENDBRANCH   5   6
ENDBRANCH   1   5
TORSDOF 3
ENDMDL
MODEL 4
REMARK VINA RESULT:    -1.000      2.639      5.375
REMARK INTER + INTRA:          -1.211
REMARK INTER:                  -1.248
REMARK INTRA:                   0.038
REMARK UNBOUND:                -0.035
REMARK SMILES O=C([O-])CCC(=O)[O-]
REMARK SMILES IDX 4 1 2 2 1 3 3 4 5 5 6 6 7 7 8 8
REMARK H PARENT
REMARK Flexibility Score: inf
ROOT
ATOM      1  C   UNL     1     -29.247  18.122 -10.394  1.00  0.00     0.059 C 
ENDROOT
BRANCH   1   2
ATOM      2  C   UNL     1     -29.341  17.067 -11.449  1.00  0.00     0.042 C 
ATOM      3  O   UNL     1     -29.865  15.953 -11.187  1.00  0.00    -0.550 OA
ATOM      4  O   UNL     1     -28.892  17.330 -12.738  1.00  0.00    -0.550 OA
ENDBRANCH   1   2
BRANCH   1   5
ATOM      5  C   UNL     1     -29.937  19.406 -10.858  1.00  0.00     0.059 C 
BRANCH   5   6
ATOM      6  C   UNL     1     -31.363  19.427 -10.408  1.00  0.00     0.042 C 
ATOM      7  O   UNL     1     -32.010  18.352 -10.304  1.00  0.00    -0.550 OA
ATOM      8  O   UNL     1     -31.992  20.638 -10.147  1.00  0.00    -0.550 OA
ENDBRANCH   5   6
ENDBRANCH   1   5
TORSDOF 3
ENDMDL
MODEL 5
REMARK VINA RESULT:    -0.947      2.699      4.135
REMARK INTER + INTRA:          -1.149
REMARK INTER:                  -1.258
REMARK INTRA:                   0.109
REMARK UNBOUND:                -0.035
REMARK SMILES O=C([O-])CCC(=O)[O-]
REMARK SMILES IDX 4 1 2 2 1 3 3 4 5 5 6 6 7 7 8 8
REMARK H PARENT
REMARK Flexibility Score: inf
ROOT
ATOM      1  C   UNL     1     -29.953  19.403 -10.825  1.00  0.00     0.059 C 
ENDROOT
BRANCH   1   2
ATOM      2  C   UNL     1     -31.393  19.354 -10.425  1.00  0.00     0.042 C 
ATOM      3  O   UNL     1     -31.972  18.246 -10.274  1.00  0.00    -0.550 OA
ATOM      4  O   UNL     1     -32.086  20.532 -10.173  1.00  0.00    -0.550 OA
ENDBRANCH   1   2
BRANCH   1   5
ATOM      5  C   UNL     1     -29.237  18.118 -10.406  1.00  0.00     0.059 C 
BRANCH   5   6
ATOM      6  C   UNL     1     -29.360  17.079 -11.475  1.00  0.00     0.042 C 
ATOM      7  O   UNL     1     -29.862  15.955 -11.212  1.00  0.00    -0.550 OA
ATOM      8  O   UNL     1     -28.877  17.335 -12.752  1.00  0.00    -0.550 OA
ENDBRANCH   5   6
ENDBRANCH   1   5
TORSDOF 3
ENDMDL
MODEL 6
REMARK VINA RESULT:    -0.908      1.146      1.686
REMARK INTER + INTRA:          -1.103
REMARK INTER:                  -1.061
REMARK INTRA:                  -0.042
REMARK UNBOUND:                -0.035
REMARK SMILES O=C([O-])CCC(=O)[O-]
REMARK SMILES IDX 4 1 2 2 1 3 3 4 5 5 6 6 7 7 8 8
REMARK H PARENT
REMARK Flexibility Score: inf
ROOT
ATOM      1  C   UNL     1     -32.246  20.869 -10.159  1.00  0.00     0.059 C 
ENDROOT
BRANCH   1   2
ATOM      2  C   UNL     1     -32.013  22.338 -10.315  1.00  0.00     0.042 C 
ATOM      3  O   UNL     1     -30.871  22.770 -10.621  1.00  0.00    -0.550 OA
ATOM      4  O   UNL     1     -33.069  23.229 -10.168  1.00  0.00    -0.550 OA
ENDBRANCH   1   2
BRANCH   1   5
ATOM      5  C   UNL     1     -30.958  20.091 -10.434  1.00  0.00     0.059 C 
BRANCH   5   6
ATOM      6  C   UNL     1     -31.244  18.626 -10.535  1.00  0.00     0.042 C 
ATOM      7  O   UNL     1     -32.407  18.191 -10.327  1.00  0.00    -0.550 OA
ATOM      8  O   UNL     1     -30.215  17.735 -10.811  1.00  0.00    -0.550 OA
ENDBRANCH   5   6
ENDBRANCH   1   5
TORSDOF 3
ENDMDL
MODEL 7
REMARK VINA RESULT:    -0.895      2.454      3.580
REMARK INTER + INTRA:          -1.087
REMARK INTER:                  -1.049
REMARK INTRA:                  -0.038
REMARK UNBOUND:                -0.035
REMARK SMILES O=C([O-])CCC(=O)[O-]
REMARK SMILES IDX 4 1 2 2 1 3 3 4 5 5 6 6 7 7 8 8
REMARK H PARENT
REMARK Flexibility Score: inf
ROOT
ATOM      1  C   UNL     1     -31.119  18.686 -10.432  1.00  0.00     0.059 C 
ENDROOT
BRANCH   1   2
ATOM      2  C   UNL     1     -31.486  20.134 -10.362  1.00  0.00     0.042 C 
ATOM      3  O   UNL     1     -32.645  20.478 -10.012  1.00  0.00    -0.550 OA
ATOM      4  O   UNL     1     -30.533  21.107 -10.637  1.00  0.00    -0.550 OA
ENDBRANCH   1   2
BRANCH   1   5
ATOM      5  C   UNL     1     -29.628  18.526 -10.734  1.00  0.00     0.059 C 
BRANCH   5   6
ATOM      6  C   UNL     1     -29.387  17.288 -11.538  1.00  0.00     0.042 C 
ATOM      7  O   UNL     1     -28.828  17.362 -12.664  1.00  0.00    -0.550 OA
ATOM      8  O   UNL     1     -29.822  16.056 -11.065  1.00  0.00    -0.550 OA
ENDBRANCH   5   6
ENDBRANCH   1   5
TORSDOF 3
ENDMDL
MODEL 8
REMARK VINA RESULT:    -0.660      1.867      4.792
REMARK INTER + INTRA:          -0.811
REMARK INTER:                  -0.769
REMARK INTRA:                  -0.042
REMARK UNBOUND:                -0.035
REMARK SMILES O=C([O-])CCC(=O)[O-]
REMARK SMILES IDX 4 1 2 2 1 3 3 4 5 5 6 6 7 7 8 8
REMARK H PARENT
REMARK Flexibility Score: inf
ROOT
ATOM      1  C   UNL     1     -30.242  19.207 -10.594  1.00  0.00     0.059 C 
ENDROOT
BRANCH   1   2
ATOM      2  C   UNL     1     -30.314  17.723 -10.770  1.00  0.00     0.042 C 
ATOM      3  O   UNL     1     -31.378  17.104 -10.504  1.00  0.00    -0.550 OA
ATOM      4  O   UNL     1     -29.220  17.028 -11.271  1.00  0.00    -0.550 OA
ENDBRANCH   1   2
BRANCH   1   5
ATOM      5  C   UNL     1     -31.634  19.781 -10.322  1.00  0.00     0.059 C 
BRANCH   5   6
ATOM      6  C   UNL     1     -31.594  21.276 -10.335  1.00  0.00     0.042 C 
ATOM      7  O   UNL     1     -30.564  21.879 -10.735  1.00  0.00    -0.550 OA
ATOM      8  O   UNL     1     -32.678  22.005  -9.862  1.00  0.00    -0.550 OA
ENDBRANCH   5   6
ENDBRANCH   1   5
TORSDOF 3
ENDMDL
