MODEL 1
REMARK VINA RESULT:    -4.929      0.000      0.000
REMARK INTER + INTRA:          -5.997
REMARK INTER:                  -5.938
REMARK INTRA:                  -0.059
REMARK UNBOUND:                -0.059
REMARK SMILES NC(=O)C[C@@H]([NH3+])C(=O)[O-]
REMARK SMILES IDX 4 1 5 2 6 3 7 7 8 8 9 9 2 10 3 11 1 12
REMARK H PARENT 6 4 6 5 6 6 1 13 1 14
REMARK Flexibility Score: inf
ROOT
ATOM      1  C   UNL     1      14.133  -8.233 -44.866  1.00  0.00     0.171 C 
ENDROOT
BRANCH   1   2
ATOM      2  C   UNL     1      13.606  -9.578 -44.322  1.00  0.00     0.237 C 
BRANCH   2   3
ATOM      3  N   UNL     1      12.790 -10.288 -45.318  1.00  0.00    -0.350 N 
ATOM      4  H   UNL     1      13.377 -10.632 -46.112  1.00  0.00     0.345 HD
ATOM      5  H   UNL     1      12.050  -9.648 -45.690  1.00  0.00     0.345 HD
ATOM      6  H   UNL     1      12.319 -11.105 -44.867  1.00  0.00     0.345 HD
ENDBRANCH   2   3
BRANCH   2   7
ATOM      7  C   UNL     1      14.731 -10.449 -43.821  1.00  0.00     0.100 C 
ATOM      8  O   UNL     1      15.733 -10.663 -44.553  1.00  0.00    -0.544 OA
ATOM      9  O   UNL     1      14.651 -11.062 -42.576  1.00  0.00    -0.544 OA
ENDBRANCH   2   7
ENDBRANCH   1   2
BRANCH   1  10
ATOM     10  C   UNL     1      14.766  -7.372 -43.808  1.00  0.00     0.223 C 
ATOM     11  O   UNL     1      14.352  -7.434 -42.620  1.00  0.00    -0.275 OA
ATOM     12  N   UNL     1      15.847  -6.499 -44.135  1.00  0.00    -0.369 N 
ATOM     13  H   UNL     1      16.291  -5.910 -43.395  1.00  0.00     0.159 HD
ATOM     14  H   UNL     1      16.209  -6.440 -45.113  1.00  0.00     0.159 HD
ENDBRANCH   1  10
TORSDOF 4
ENDMDL
MODEL 2
REMARK VINA RESULT:    -4.883      2.758      3.079
REMARK INTER + INTRA:          -5.942
REMARK INTER:                  -5.895
REMARK INTRA:                  -0.047
REMARK UNBOUND:                -0.059
REMARK SMILES NC(=O)C[C@@H]([NH3+])C(=O)[O-]
REMARK SMILES IDX 4 1 5 2 6 3 7 7 8 8 9 9 2 10 3 11 1 12
REMARK H PARENT 6 4 6 5 6 6 1 13 1 14
REMARK Flexibility Score: inf
ROOT
ATOM      1  C   UNL     1      13.701  -9.291 -44.572  1.00  0.00     0.171 C 
ENDROOT
BRANCH   1   2
ATOM      2  C   UNL     1      13.346  -9.085 -46.060  1.00  0.00     0.237 C 
BRANCH   2   3
ATOM      3  N   UNL     1      14.346  -9.694 -46.949  1.00  0.00    -0.350 N 
ATOM      4  H   UNL     1      14.500 -10.701 -46.712  1.00  0.00     0.345 HD
ATOM      5  H   UNL     1      15.254  -9.180 -46.866  1.00  0.00     0.345 HD
ATOM      6  H   UNL     1      14.021  -9.627 -47.941  1.00  0.00     0.345 HD
ENDBRANCH   2   3
BRANCH   2   7
ATOM      7  C   UNL     1      11.960  -9.592 -46.372  1.00  0.00     0.100 C 
ATOM      8  O   UNL     1      11.589 -10.713 -45.934  1.00  0.00    -0.544 OA
ATOM      9  O   UNL     1      11.103  -8.858 -47.183  1.00  0.00    -0.544 OA
ENDBRANCH   2   7
ENDBRANCH   1   2
BRANCH   1  10
ATOM     10  C   UNL     1      14.388  -8.104 -43.956  1.00  0.00     0.223 C 
ATOM     11  O   UNL     1      14.422  -7.981 -42.702  1.00  0.00    -0.275 OA
ATOM     12  N   UNL     1      15.021  -7.125 -44.778  1.00  0.00    -0.369 N 
ATOM     13  H   UNL     1      15.506  -6.307 -44.346  1.00  0.00     0.159 HD
ATOM     14  H   UNL     1      15.011  -7.214 -45.819  1.00  0.00     0.159 HD
ENDBRANCH   1  10
TORSDOF 4
ENDMDL
MODEL 3
REMARK VINA RESULT:    -4.778      1.641      2.285
REMARK INTER + INTRA:          -5.815
REMARK INTER:                  -5.740
REMARK INTRA:                  -0.075
REMARK UNBOUND:                -0.059
REMARK SMILES NC(=O)C[C@@H]([NH3+])C(=O)[O-]
REMARK SMILES IDX 4 1 5 2 6 3 7 7 8 8 9 9 2 10 3 11 1 12
REMARK H PARENT 6 4 6 5 6 6 1 13 1 14
REMARK Flexibility Score: inf
ROOT
ATOM      1  C   UNL     1      14.681  -8.298 -44.587  1.00  0.00     0.171 C 
ENDROOT
BRANCH   1   2
ATOM      2  C   UNL     1      13.836  -9.445 -43.993  1.00  0.00     0.237 C 
BRANCH   2   3
ATOM      3  N   UNL     1      12.829  -9.932 -44.947  1.00  0.00    -0.350 N 
ATOM      4  H   UNL     1      12.921 -10.962 -45.101  1.00  0.00     0.345 HD
ATOM      5  H   UNL     1      12.941  -9.437 -45.863  1.00  0.00     0.345 HD
ATOM      6  H   UNL     1      11.871  -9.729 -44.580  1.00  0.00     0.345 HD
ENDBRANCH   2   3
BRANCH   2   7
ATOM      7  C   UNL     1      14.708 -10.572 -43.499  1.00  0.00     0.100 C 
ATOM      8  O   UNL     1      14.541 -11.032 -42.339  1.00  0.00    -0.544 OA
ATOM      9  O   UNL     1      15.732 -11.076 -44.293  1.00  0.00    -0.544 OA
ENDBRANCH   2   7
ENDBRANCH   1   2
BRANCH   1  10
ATOM     10  C   UNL     1      15.382  -8.675 -45.862  1.00  0.00     0.223 C 
ATOM     11  O   UNL     1      14.714  -9.103 -46.842  1.00  0.00    -0.275 OA
ATOM     12  N   UNL     1      16.797  -8.533 -45.981  1.00  0.00    -0.369 N 
ATOM     13  H   UNL     1      17.279  -8.787 -46.872  1.00  0.00     0.159 HD
ATOM     14  H   UNL     1      17.367  -8.173 -45.183  1.00  0.00     0.159 HD
ENDBRANCH   1  10
TORSDOF 4
ENDMDL
MODEL 4
REMARK VINA RESULT:    -4.745     15.233     16.060
REMARK INTER + INTRA:          -5.775
REMARK INTER:                  -5.262
REMARK INTRA:                  -0.514
REMARK UNBOUND:                -0.059
REMARK SMILES NC(=O)C[C@@H]([NH3+])C(=O)[O-]
REMARK SMILES IDX 4 1 5 2 6 3 7 7 8 8 9 9 2 10 3 11 1 12
REMARK H PARENT 6 4 6 5 6 6 1 13 1 14
REMARK Flexibility Score: inf
ROOT
ATOM      1  C   UNL     1      23.872  -1.906 -32.743  1.00  0.00     0.171 C 
ENDROOT
BRANCH   1   2
ATOM      2  C   UNL     1      24.781  -3.040 -32.225  1.00  0.00     0.237 C 
BRANCH   2   3
ATOM      3  N   UNL     1      24.361  -3.515 -30.899  1.00  0.00    -0.350 N 
ATOM      4  H   UNL     1      24.601  -2.820 -30.155  1.00  0.00     0.345 HD
ATOM      5  H   UNL     1      24.831  -4.425 -30.683  1.00  0.00     0.345 HD
ATOM      6  H   UNL     1      23.327  -3.671 -30.893  1.00  0.00     0.345 HD
ENDBRANCH   2   3
BRANCH   2   7
ATOM      7  C   UNL     1      24.857  -4.179 -33.211  1.00  0.00     0.100 C 
ATOM      8  O   UNL     1      25.875  -4.312 -33.939  1.00  0.00    -0.544 OA
ATOM      9  O   UNL     1      23.789  -5.056 -33.364  1.00  0.00    -0.544 OA
ENDBRANCH   2   7
ENDBRANCH   1   2
BRANCH   1  10
ATOM     10  C   UNL     1      22.464  -1.987 -32.221  1.00  0.00     0.223 C 
ATOM     11  O   UNL     1      22.134  -1.323 -31.202  1.00  0.00    -0.275 OA
ATOM     12  N   UNL     1      21.492  -2.797 -32.881  1.00  0.00    -0.369 N 
ATOM     13  H   UNL     1      20.512  -2.843 -32.521  1.00  0.00     0.159 HD
ATOM     14  H   UNL     1      21.744  -3.349 -33.731  1.00  0.00     0.159 HD
ENDBRANCH   1  10
TORSDOF 4
ENDMDL
MODEL 5
REMARK VINA RESULT:    -4.742     16.104     16.914
REMARK INTER + INTRA:          -5.771
REMARK INTER:                  -5.444
REMARK INTRA:                  -0.327
REMARK UNBOUND:                -0.059
REMARK SMILES NC(=O)C[C@@H]([NH3+])C(=O)[O-]
REMARK SMILES IDX 4 1 5 2 6 3 7 7 8 8 9 9 2 10 3 11 1 12
REMARK H PARENT 6 4 6 5 6 6 1 13 1 14
REMARK Flexibility Score: inf
ROOT
ATOM      1  C   UNL     1      25.251  -1.746 -32.390  1.00  0.00     0.171 C 
ENDROOT
BRANCH   1   2
ATOM      2  C   UNL     1      25.398  -3.240 -32.033  1.00  0.00     0.237 C 
BRANCH   2   3
ATOM      3  N   UNL     1      24.528  -3.622 -30.912  1.00  0.00    -0.350 N 
ATOM      4  H   UNL     1      23.613  -3.997 -31.254  1.00  0.00     0.345 HD
ATOM      5  H   UNL     1      24.351  -2.791 -30.301  1.00  0.00     0.345 HD
ATOM      6  H   UNL     1      25.000  -4.357 -30.336  1.00  0.00     0.345 HD
ENDBRANCH   2   3
BRANCH   2   7
ATOM      7  C   UNL     1      25.158  -4.120 -33.234  1.00  0.00     0.100 C 
ATOM      8  O   UNL     1      24.117  -4.825 -33.297  1.00  0.00    -0.544 OA
ATOM      9  O   UNL     1      26.101  -4.202 -34.252  1.00  0.00    -0.544 OA
ENDBRANCH   2   7
ENDBRANCH   1   2
BRANCH   1  10
ATOM     10  C   UNL     1      24.117  -1.072 -31.668  1.00  0.00     0.223 C 
ATOM     11  O   UNL     1      22.926  -1.366 -31.957  1.00  0.00    -0.275 OA
ATOM     12  N   UNL     1      24.379  -0.114 -30.642  1.00  0.00    -0.369 N 
ATOM     13  H   UNL     1      23.588   0.344 -30.136  1.00  0.00     0.159 HD
ATOM     14  H   UNL     1      25.359   0.136 -30.383  1.00  0.00     0.159 HD
ENDBRANCH   1  10
TORSDOF 4
ENDMDL
MODEL 6
REMARK VINA RESULT:    -4.671      2.345      3.742
REMARK INTER + INTRA:          -5.686
REMARK INTER:                  -5.590
REMARK INTRA:                  -0.096
REMARK UNBOUND:                -0.059
REMARK SMILES NC(=O)C[C@@H]([NH3+])C(=O)[O-]
REMARK SMILES IDX 4 1 5 2 6 3 7 7 8 8 9 9 2 10 3 11 1 12
REMARK H PARENT 6 4 6 5 6 6 1 13 1 14
REMARK Flexibility Score: inf
ROOT
ATOM      1  C   UNL     1      13.210  -9.140 -45.994  1.00  0.00     0.171 C 
ENDROOT
BRANCH   1   2
ATOM      2  C   UNL     1      13.723  -9.375 -44.558  1.00  0.00     0.237 C 
BRANCH   2   3
ATOM      3  N   UNL     1      14.481 -10.630 -44.447  1.00  0.00    -0.350 N 
ATOM      4  H   UNL     1      14.833 -10.943 -45.380  1.00  0.00     0.345 HD
ATOM      5  H   UNL     1      13.871 -11.377 -44.042  1.00  0.00     0.345 HD
ATOM      6  H   UNL     1      15.297 -10.491 -43.807  1.00  0.00     0.345 HD
ENDBRANCH   2   3
BRANCH   2   7
ATOM      7  C   UNL     1      14.535  -8.203 -44.065  1.00  0.00     0.100 C 
ATOM      8  O   UNL     1      15.356  -7.640 -44.835  1.00  0.00    -0.544 OA
ATOM      9  O   UNL     1      14.425  -7.770 -42.748  1.00  0.00    -0.544 OA
ENDBRANCH   2   7
ENDBRANCH   1   2
BRANCH   1  10
ATOM     10  C   UNL     1      12.214 -10.173 -46.446  1.00  0.00     0.223 C 
ATOM     11  O   UNL     1      11.089 -10.247 -45.883  1.00  0.00    -0.275 OA
ATOM     12  N   UNL     1      12.525 -11.059 -47.521  1.00  0.00    -0.369 N 
ATOM     13  H   UNL     1      11.827 -11.768 -47.838  1.00  0.00     0.159 HD
ATOM     14  H   UNL     1      13.449 -11.008 -48.005  1.00  0.00     0.159 HD
ENDBRANCH   1  10
TORSDOF 4
ENDMDL
MODEL 7
REMARK VINA RESULT:    -4.652     15.426     16.450
REMARK INTER + INTRA:          -5.663
REMARK INTER:                  -5.288
REMARK INTRA:                  -0.375
REMARK UNBOUND:                -0.059
REMARK SMILES NC(=O)C[C@@H]([NH3+])C(=O)[O-]
REMARK SMILES IDX 4 1 5 2 6 3 7 7 8 8 9 9 2 10 3 11 1 12
REMARK H PARENT 6 4 6 5 6 6 1 13 1 14
REMARK Flexibility Score: inf
ROOT
ATOM      1  C   UNL     1      23.821  -1.753 -32.505  1.00  0.00     0.171 C 
ENDROOT
BRANCH   1   2
ATOM      2  C   UNL     1      24.286  -3.222 -32.415  1.00  0.00     0.237 C 
BRANCH   2   3
ATOM      3  N   UNL     1      24.663  -3.593 -31.043  1.00  0.00    -0.350 N 
ATOM      4  H   UNL     1      24.020  -4.322 -30.658  1.00  0.00     0.345 HD
ATOM      5  H   UNL     1      24.631  -2.748 -30.427  1.00  0.00     0.345 HD
ATOM      6  H   UNL     1      25.640  -3.965 -31.037  1.00  0.00     0.345 HD
ENDBRANCH   2   3
BRANCH   2   7
ATOM      7  C   UNL     1      23.245  -4.164 -32.966  1.00  0.00     0.100 C 
ATOM      8  O   UNL     1      23.575  -5.324 -33.325  1.00  0.00    -0.544 OA
ATOM      9  O   UNL     1      21.929  -3.746 -33.133  1.00  0.00    -0.544 OA
ENDBRANCH   2   7
ENDBRANCH   1   2
BRANCH   1  10
ATOM     10  C   UNL     1      23.521  -1.142 -31.164  1.00  0.00     0.223 C 
ATOM     11  O   UNL     1      22.548  -1.568 -30.485  1.00  0.00    -0.275 OA
ATOM     12  N   UNL     1      24.341  -0.095 -30.644  1.00  0.00    -0.369 N 
ATOM     13  H   UNL     1      24.134   0.320 -29.708  1.00  0.00     0.159 HD
ATOM     14  H   UNL     1      25.155   0.265 -31.189  1.00  0.00     0.159 HD
ENDBRANCH   1  10
TORSDOF 4
ENDMDL
MODEL 8
REMARK VINA RESULT:    -4.630      2.031      2.138
REMARK INTER + INTRA:          -5.636
REMARK INTER:                  -5.532
REMARK INTRA:                  -0.104
REMARK UNBOUND:                -0.059
REMARK SMILES NC(=O)C[C@@H]([NH3+])C(=O)[O-]
REMARK SMILES IDX 4 1 5 2 6 3 7 7 8 8 9 9 2 10 3 11 1 12
REMARK H PARENT 6 4 6 5 6 6 1 13 1 14
REMARK Flexibility Score: inf
ROOT
ATOM      1  C   UNL     1      14.236  -9.010 -43.315  1.00  0.00     0.171 C 
ENDROOT
BRANCH   1   2
ATOM      2  C   UNL     1      14.860  -9.839 -44.458  1.00  0.00     0.237 C 
BRANCH   2   3
ATOM      3  N   UNL     1      15.100 -11.232 -44.054  1.00  0.00    -0.350 N 
ATOM      4  H   UNL     1      15.039 -11.341 -43.015  1.00  0.00     0.345 HD
ATOM      5  H   UNL     1      16.049 -11.535 -44.375  1.00  0.00     0.345 HD
ATOM      6  H   UNL     1      14.388 -11.855 -44.501  1.00  0.00     0.345 HD
ENDBRANCH   2   3
BRANCH   2   7
ATOM      7  C   UNL     1      14.020  -9.772 -45.709  1.00  0.00     0.100 C 
ATOM      8  O   UNL     1      14.500  -9.275 -46.761  1.00  0.00    -0.544 OA
ATOM      9  O   UNL     1      12.699 -10.207 -45.699  1.00  0.00    -0.544 OA
ENDBRANCH   2   7
ENDBRANCH   1   2
BRANCH   1  10
ATOM     10  C   UNL     1      14.534  -7.540 -43.417  1.00  0.00     0.223 C 
ATOM     11  O   UNL     1      14.141  -6.757 -42.510  1.00  0.00    -0.275 OA
ATOM     12  N   UNL     1      15.276  -7.025 -44.522  1.00  0.00    -0.369 N 
ATOM     13  H   UNL     1      15.489  -6.004 -44.584  1.00  0.00     0.159 HD
ATOM     14  H   UNL     1      15.616  -7.659 -45.278  1.00  0.00     0.159 HD
ENDBRANCH   1  10
TORSDOF 4
ENDMDL
MODEL 9
REMARK VINA RESULT:    -4.625     16.540     17.330
REMARK INTER + INTRA:          -5.631
REMARK INTER:                  -5.323
REMARK INTRA:                  -0.307
REMARK UNBOUND:                -0.059
REMARK SMILES NC(=O)C[C@@H]([NH3+])C(=O)[O-]
REMARK SMILES IDX 4 1 5 2 6 3 7 7 8 8 9 9 2 10 3 11 1 12
REMARK H PARENT 6 4 6 5 6 6 1 13 1 14
REMARK Flexibility Score: inf
ROOT
ATOM      1  C   UNL     1      24.426  -2.245 -33.040  1.00  0.00     0.171 C 
ENDROOT
BRANCH   1   2
ATOM      2  C   UNL     1      23.635  -2.630 -31.771  1.00  0.00     0.237 C 
BRANCH   2   3
ATOM      3  N   UNL     1      24.358  -3.617 -30.956  1.00  0.00    -0.350 N 
ATOM      4  H   UNL     1      25.179  -4.007 -31.474  1.00  0.00     0.345 HD
ATOM      5  H   UNL     1      23.714  -4.399 -30.694  1.00  0.00     0.345 HD
ATOM      6  H   UNL     1      24.697  -3.164 -30.076  1.00  0.00     0.345 HD
ENDBRANCH   2   3
BRANCH   2   7
ATOM      7  C   UNL     1      23.274  -1.412 -30.957  1.00  0.00     0.100 C 
ATOM      8  O   UNL     1      22.167  -1.363 -30.359  1.00  0.00    -0.544 OA
ATOM      9  O   UNL     1      24.129  -0.317 -30.903  1.00  0.00    -0.544 OA
ENDBRANCH   2   7
ENDBRANCH   1   2
BRANCH   1  10
ATOM     10  C   UNL     1      25.715  -3.004 -33.190  1.00  0.00     0.223 C 
ATOM     11  O   UNL     1      25.699  -4.188 -33.623  1.00  0.00    -0.275 OA
ATOM     12  N   UNL     1      26.961  -2.388 -32.864  1.00  0.00    -0.369 N 
ATOM     13  H   UNL     1      27.855  -2.916 -32.978  1.00  0.00     0.159 HD
ATOM     14  H   UNL     1      26.995  -1.406 -32.511  1.00  0.00     0.159 HD
ENDBRANCH   1  10
TORSDOF 4
ENDMDL
