MODEL 1
REMARK VINA RESULT:    56.278      0.000      0.000
REMARK INTER + INTRA:          79.913
REMARK INTER:                  80.954
REMARK INTRA:                  -1.040
REMARK UNBOUND:                -1.040
REMARK SMILES COC(=O)C1=CO[C@H](O[C@H]2O[C@H](CO)[C@H](O)[C@H](O)[C@@H]2O)[C@@H]2C(CO)=CC[C@H]12
REMARK SMILES IDX 9 1 8 2 5 3 6 4 27 5 7 6 21 7 26 8 22 9 25 10 3 11 4 12 2 13
REMARK SMILES IDX 1 14 23 15 24 16 10 18 19 19 11 20 17 21 12 22 15 23 20 24
REMARK SMILES IDX 18 26 13 28 14 29 16 31
REMARK H PARENT 24 17 20 25 18 27 14 30 16 32
REMARK Flexibility Score: inf
ROOT
ATOM      1  O   UNL     1     -39.454  31.008 -24.134  1.00  0.00    -0.310 OA
ENDROOT
BRANCH   1   2
ATOM      2  C   UNL     1     -40.601  31.377 -23.382  1.00  0.00     0.316 C 
ATOM      3  C   UNL     1     -43.115  31.090 -22.100  1.00  0.00     0.076 C 
ATOM      4  C   UNL     1     -43.013  30.930 -23.423  1.00  0.00     0.202 C 
ATOM      5  C   UNL     1     -41.885  31.047 -21.194  1.00  0.00     0.047 C 
ATOM      6  O   UNL     1     -41.765  30.888 -24.040  1.00  0.00    -0.471 OA
ATOM      7  C   UNL     1     -40.541  30.818 -21.951  1.00  0.00     0.094 C 
ATOM      8  C   UNL     1     -41.972  29.825 -20.259  1.00  0.00     0.037 C 
ATOM      9  C   UNL     1     -40.330  29.335 -21.844  1.00  0.00    -0.039 C 
ATOM     10  C   UNL     1     -41.128  28.800 -20.929  1.00  0.00    -0.024 C 
BRANCH   3  11
ATOM     11  C   UNL     1     -44.469  31.257 -21.545  1.00  0.00     0.337 C 
ATOM     12  O   UNL     1     -44.852  32.396 -21.155  1.00  0.00    -0.246 OA
BRANCH  11  13
ATOM     13  O   UNL     1     -45.333  32.386 -21.762  1.00  0.00    -0.466 OA
ATOM     14  C   UNL     1     -45.721  32.776 -23.187  1.00  0.00     0.282 C 
ENDBRANCH  11  13
ENDBRANCH   3  11
BRANCH   9  15
ATOM     15  C   UNL     1     -39.211  28.564 -22.494  1.00  0.00     0.187 C 
BRANCH  15  16
ATOM     16  O   UNL     1     -37.980  29.118 -22.118  1.00  0.00    -0.392 OA
ATOM     17  H   UNL     1     -37.740  29.773 -22.824  1.00  0.00     0.211 HD
ENDBRANCH  15  16
ENDBRANCH   9  15
ENDBRANCH   1   2
BRANCH   1  18
ATOM     18  C   UNL     1     -38.484  32.047 -24.208  1.00  0.00     0.286 C 
ATOM     19  C   UNL     1     -38.454  32.745 -25.610  1.00  0.00     0.202 C 
ATOM     20  O   UNL     1     -37.217  31.516 -23.838  1.00  0.00    -0.341 OA
ATOM     21  C   UNL     1     -37.007  33.018 -26.052  1.00  0.00     0.179 C 
ATOM     22  C   UNL     1     -36.661  30.754 -24.895  1.00  0.00     0.178 C 
ATOM     23  C   UNL     1     -36.223  31.682 -26.074  1.00  0.00     0.177 C 
BRANCH  19  24
ATOM     24  O   UNL     1     -39.175  33.949 -25.555  1.00  0.00    -0.385 OA
ATOM     25  H   UNL     1     -38.791  34.481 -24.810  1.00  0.00     0.211 HD
ENDBRANCH  19  24
BRANCH  21  26
ATOM     26  O   UNL     1     -36.425  33.939 -25.158  1.00  0.00    -0.387 OA
ATOM     27  H   UNL     1     -37.144  34.551 -24.857  1.00  0.00     0.211 HD
ENDBRANCH  21  26
BRANCH  22  28
ATOM     28  C   UNL     1     -35.541  29.854 -24.353  1.00  0.00     0.191 C 
BRANCH  28  29
ATOM     29  O   UNL     1     -35.909  28.501 -24.420  1.00  0.00    -0.394 OA
ATOM     30  H   UNL     1     -35.850  28.147 -23.494  1.00  0.00     0.210 HD
ENDBRANCH  28  29
ENDBRANCH  22  28
BRANCH  23  31
ATOM     31  O   UNL     1     -34.832  31.902 -26.125  1.00  0.00    -0.387 OA
ATOM     32  H   UNL     1     -34.670  32.880 -26.064  1.00  0.00     0.211 HD
ENDBRANCH  23  31
ENDBRANCH   1  18
TORSDOF 11
ENDMDL
MODEL 2
REMARK VINA RESULT:    57.227     10.267     13.292
REMARK INTER + INTRA:          81.277
REMARK INTER:                  81.837
REMARK INTRA:                  -0.560
REMARK UNBOUND:                -1.040
REMARK SMILES COC(=O)C1=CO[C@H](O[C@H]2O[C@H](CO)[C@H](O)[C@H](O)[C@@H]2O)[C@@H]2C(CO)=CC[C@H]12
REMARK SMILES IDX 9 1 8 2 5 3 6 4 27 5 7 6 21 7 26 8 22 9 25 10 3 11 4 12 2 13
REMARK SMILES IDX 1 14 23 15 24 16 10 18 19 19 11 20 17 21 12 22 15 23 20 24
REMARK SMILES IDX 18 26 13 28 14 29 16 31
REMARK H PARENT 24 17 20 25 18 27 14 30 16 32
REMARK Flexibility Score: inf
ROOT
ATOM      1  O   UNL     1     -30.191  27.813 -16.871  1.00  0.00    -0.310 OA
ENDROOT
BRANCH   1   2
ATOM      2  C   UNL     1     -30.622  29.042 -16.304  1.00  0.00     0.316 C 
ATOM      3  C   UNL     1     -30.860  31.848 -15.963  1.00  0.00     0.076 C 
ATOM      4  C   UNL     1     -29.670  31.254 -15.836  1.00  0.00     0.202 C 
ATOM      5  C   UNL     1     -32.032  31.148 -16.654  1.00  0.00     0.047 C 
ATOM      6  O   UNL     1     -29.504  29.913 -16.176  1.00  0.00    -0.471 OA
ATOM      7  C   UNL     1     -31.706  29.711 -17.164  1.00  0.00     0.094 C 
ATOM      8  C   UNL     1     -32.398  31.903 -17.945  1.00  0.00     0.037 C 
ATOM      9  C   UNL     1     -31.345  29.927 -18.606  1.00  0.00    -0.039 C 
ATOM     10  C   UNL     1     -31.713  31.134 -19.018  1.00  0.00    -0.024 C 
BRANCH   3  11
ATOM     11  C   UNL     1     -30.982  33.226 -15.459  1.00  0.00     0.337 C 
ATOM     12  O   UNL     1     -30.096  34.080 -15.745  1.00  0.00    -0.246 OA
BRANCH  11  13
ATOM     13  O   UNL     1     -30.636  34.419 -16.183  1.00  0.00    -0.466 OA
ATOM     14  C   UNL     1     -29.165  34.784 -16.379  1.00  0.00     0.282 C 
ENDBRANCH  11  13
ENDBRANCH   3  11
BRANCH   9  15
ATOM     15  C   UNL     1     -30.853  28.863 -19.551  1.00  0.00     0.187 C 
BRANCH  15  16
ATOM     16  O   UNL     1     -30.197  29.466 -20.633  1.00  0.00    -0.392 OA
ATOM     17  H   UNL     1     -29.265  29.125 -20.622  1.00  0.00     0.211 HD
ENDBRANCH  15  16
ENDBRANCH   9  15
ENDBRANCH   1   2
BRANCH   1  18
ATOM     18  C   UNL     1     -30.617  26.679 -16.125  1.00  0.00     0.286 C 
ATOM     19  C   UNL     1     -30.109  26.706 -14.643  1.00  0.00     0.202 C 
ATOM     20  O   UNL     1     -30.215  25.501 -16.815  1.00  0.00    -0.341 OA
ATOM     21  C   UNL     1     -29.647  25.310 -14.199  1.00  0.00     0.179 C 
ATOM     22  C   UNL     1     -28.832  25.256 -16.632  1.00  0.00     0.178 C 
ATOM     23  C   UNL     1     -28.540  24.812 -15.162  1.00  0.00     0.177 C 
BRANCH  19  24
ATOM     24  O   UNL     1     -31.135  27.165 -13.800  1.00  0.00    -0.385 OA
ATOM     25  H   UNL     1     -31.771  27.670 -14.370  1.00  0.00     0.211 HD
ENDBRANCH  19  24
BRANCH  21  26
ATOM     26  O   UNL     1     -30.757  24.442 -14.202  1.00  0.00    -0.387 OA
ATOM     27  H   UNL     1     -31.563  24.993 -14.031  1.00  0.00     0.211 HD
ENDBRANCH  21  26
BRANCH  22  28
ATOM     28  C   UNL     1     -28.334  24.269 -17.699  1.00  0.00     0.191 C 
BRANCH  28  29
ATOM     29  O   UNL     1     -27.521  24.918 -18.641  1.00  0.00    -0.394 OA
ATOM     30  H   UNL     1     -27.862  25.847 -18.714  1.00  0.00     0.210 HD
ENDBRANCH  28  29
ENDBRANCH  22  28
BRANCH  23  31
ATOM     31  O   UNL     1     -28.327  23.425 -15.029  1.00  0.00    -0.387 OA
ATOM     32  H   UNL     1     -27.360  23.274 -14.859  1.00  0.00     0.211 HD
ENDBRANCH  23  31
ENDBRANCH   1  18
TORSDOF 11
ENDMDL
MODEL 3
REMARK VINA RESULT:    57.930      3.307      6.774
REMARK INTER + INTRA:          82.289
REMARK INTER:                  82.853
REMARK INTRA:                  -0.564
REMARK UNBOUND:                -1.040
REMARK SMILES COC(=O)C1=CO[C@H](O[C@H]2O[C@H](CO)[C@H](O)[C@H](O)[C@@H]2O)[C@@H]2C(CO)=CC[C@H]12
REMARK SMILES IDX 9 1 8 2 5 3 6 4 27 5 7 6 21 7 26 8 22 9 25 10 3 11 4 12 2 13
REMARK SMILES IDX 1 14 23 15 24 16 10 18 19 19 11 20 17 21 12 22 15 23 20 24
REMARK SMILES IDX 18 26 13 28 14 29 16 31
REMARK H PARENT 24 17 20 25 18 27 14 30 16 32
REMARK Flexibility Score: inf
ROOT
ATOM      1  O   UNL     1     -41.575  28.974 -22.523  1.00  0.00    -0.310 OA
ENDROOT
BRANCH   1   2
ATOM      2  C   UNL     1     -40.386  29.572 -22.028  1.00  0.00     0.316 C 
ATOM      3  C   UNL     1     -38.104  29.929 -20.381  1.00  0.00     0.076 C 
ATOM      4  C   UNL     1     -39.330  29.967 -19.849  1.00  0.00     0.202 C 
ATOM      5  C   UNL     1     -37.853  29.328 -21.765  1.00  0.00     0.047 C 
ATOM      6  O   UNL     1     -40.445  29.616 -20.606  1.00  0.00    -0.471 OA
ATOM      7  C   UNL     1     -39.137  28.795 -22.472  1.00  0.00     0.094 C 
ATOM      8  C   UNL     1     -36.978  28.067 -21.631  1.00  0.00     0.037 C 
ATOM      9  C   UNL     1     -39.134  27.330 -22.140  1.00  0.00    -0.039 C 
ATOM     10  C   UNL     1     -37.955  26.947 -21.665  1.00  0.00    -0.024 C 
BRANCH   3  11
ATOM     11  C   UNL     1     -36.996  30.441 -19.557  1.00  0.00     0.337 C 
ATOM     12  O   UNL     1     -36.416  31.516 -19.882  1.00  0.00    -0.246 OA
BRANCH  11  13
ATOM     13  O   UNL     1     -36.745  31.825 -19.253  1.00  0.00    -0.466 OA
ATOM     14  C   UNL     1     -35.579  32.197 -18.339  1.00  0.00     0.282 C 
ENDBRANCH  11  13
ENDBRANCH   3  11
BRANCH   9  15
ATOM     15  C   UNL     1     -40.218  26.351 -22.504  1.00  0.00     0.187 C 
BRANCH  15  16
ATOM     16  O   UNL     1     -39.755  25.492 -23.510  1.00  0.00    -0.392 OA
ATOM     17  H   UNL     1     -38.961  25.932 -23.911  1.00  0.00     0.211 HD
ENDBRANCH  15  16
ENDBRANCH   9  15
ENDBRANCH   1   2
BRANCH   1  18
ATOM     18  C   UNL     1     -42.576  29.928 -22.858  1.00  0.00     0.286 C 
ATOM     19  C   UNL     1     -42.077  31.405 -22.706  1.00  0.00     0.202 C 
ATOM     20  O   UNL     1     -43.737  29.664 -22.079  1.00  0.00    -0.341 OA
ATOM     21  C   UNL     1     -43.166  32.287 -22.075  1.00  0.00     0.179 C 
ATOM     22  C   UNL     1     -43.568  30.126 -20.750  1.00  0.00     0.178 C 
ATOM     23  C   UNL     1     -43.570  31.688 -20.703  1.00  0.00     0.177 C 
BRANCH  19  24
ATOM     24  O   UNL     1     -41.717  31.914 -23.965  1.00  0.00    -0.385 OA
ATOM     25  H   UNL     1     -42.553  32.232 -24.397  1.00  0.00     0.211 HD
ENDBRANCH  19  24
BRANCH  21  26
ATOM     26  O   UNL     1     -44.267  32.348 -22.952  1.00  0.00    -0.387 OA
ATOM     27  H   UNL     1     -43.907  32.407 -23.873  1.00  0.00     0.211 HD
ENDBRANCH  21  26
BRANCH  22  28
ATOM     28  C   UNL     1     -44.613  29.468 -19.835  1.00  0.00     0.191 C 
BRANCH  28  29
ATOM     29  O   UNL     1     -44.136  28.248 -19.328  1.00  0.00    -0.394 OA
ATOM     30  H   UNL     1     -44.813  27.561 -19.565  1.00  0.00     0.210 HD
ENDBRANCH  28  29
ENDBRANCH  22  28
BRANCH  23  31
ATOM     31  O   UNL     1     -44.785  32.232 -20.242  1.00  0.00    -0.387 OA
ATOM     32  H   UNL     1     -44.952  31.888 -19.326  1.00  0.00     0.211 HD
ENDBRANCH  23  31
ENDBRANCH   1  18
TORSDOF 11
ENDMDL
MODEL 4
REMARK VINA RESULT:    58.594      3.303      5.084
REMARK INTER + INTRA:          83.244
REMARK INTER:                  83.914
REMARK INTRA:                  -0.671
REMARK UNBOUND:                -1.040
REMARK SMILES COC(=O)C1=CO[C@H](O[C@H]2O[C@H](CO)[C@H](O)[C@H](O)[C@@H]2O)[C@@H]2C(CO)=CC[C@H]12
REMARK SMILES IDX 9 1 8 2 5 3 6 4 27 5 7 6 21 7 26 8 22 9 25 10 3 11 4 12 2 13
REMARK SMILES IDX 1 14 23 15 24 16 10 18 19 19 11 20 17 21 12 22 15 23 20 24
REMARK SMILES IDX 18 26 13 28 14 29 16 31
REMARK H PARENT 24 17 20 25 18 27 14 30 16 32
REMARK Flexibility Score: inf
ROOT
ATOM      1  O   UNL     1     -41.054  28.887 -21.519  1.00  0.00    -0.310 OA
ENDROOT
BRANCH   1   2
ATOM      2  C   UNL     1     -41.218  30.243 -21.906  1.00  0.00     0.316 C 
ATOM      3  C   UNL     1     -42.427  32.517 -23.097  1.00  0.00     0.076 C 
ATOM      4  C   UNL     1     -42.046  31.483 -23.854  1.00  0.00     0.202 C 
ATOM      5  C   UNL     1     -42.589  32.379 -21.583  1.00  0.00     0.047 C 
ATOM      6  O   UNL     1     -41.620  30.293 -23.270  1.00  0.00    -0.471 OA
ATOM      7  C   UNL     1     -42.261  30.957 -21.032  1.00  0.00     0.094 C 
ATOM      8  C   UNL     1     -44.070  32.569 -21.201  1.00  0.00     0.037 C 
ATOM      9  C   UNL     1     -43.607  30.294 -20.958  1.00  0.00    -0.039 C 
ATOM     10  C   UNL     1     -44.588  31.181 -21.069  1.00  0.00    -0.024 C 
BRANCH   3  11
ATOM     11  C   UNL     1     -42.735  33.780 -23.788  1.00  0.00     0.337 C 
ATOM     12  O   UNL     1     -41.833  34.652 -23.934  1.00  0.00    -0.246 OA
BRANCH  11  13
ATOM     13  O   UNL     1     -41.860  34.481 -24.688  1.00  0.00    -0.466 OA
ATOM     14  C   UNL     1     -41.092  35.706 -24.194  1.00  0.00     0.282 C 
ENDBRANCH  11  13
ENDBRANCH   3  11
BRANCH   9  15
ATOM     15  C   UNL     1     -43.853  28.859 -20.574  1.00  0.00     0.187 C 
BRANCH  15  16
ATOM     16  O   UNL     1     -44.370  28.805 -19.273  1.00  0.00    -0.392 OA
ATOM     17  H   UNL     1     -44.708  29.715 -19.067  1.00  0.00     0.211 HD
ENDBRANCH  15  16
ENDBRANCH   9  15
ENDBRANCH   1   2
BRANCH   1  18
ATOM     18  C   UNL     1     -40.232  28.150 -22.416  1.00  0.00     0.286 C 
ATOM     19  C   UNL     1     -40.259  26.609 -22.134  1.00  0.00     0.202 C 
ATOM     20  O   UNL     1     -38.915  28.687 -22.372  1.00  0.00    -0.341 OA
ATOM     21  C   UNL     1     -38.853  26.006 -22.265  1.00  0.00     0.179 C 
ATOM     22  C   UNL     1     -38.235  28.260 -21.205  1.00  0.00     0.178 C 
ATOM     23  C   UNL     1     -37.895  26.737 -21.289  1.00  0.00     0.177 C 
BRANCH  19  24
ATOM     24  O   UNL     1     -41.138  25.980 -23.032  1.00  0.00    -0.385 OA
ATOM     25  H   UNL     1     -41.588  26.700 -23.547  1.00  0.00     0.211 HD
ENDBRANCH  19  24
BRANCH  21  26
ATOM     26  O   UNL     1     -38.423  26.138 -23.600  1.00  0.00    -0.387 OA
ATOM     27  H   UNL     1     -37.739  26.856 -23.620  1.00  0.00     0.211 HD
ENDBRANCH  21  26
BRANCH  22  28
ATOM     28  C   UNL     1     -37.017  29.163 -20.954  1.00  0.00     0.191 C 
BRANCH  28  29
ATOM     29  O   UNL     1     -37.356  30.238 -20.117  1.00  0.00    -0.394 OA
ATOM     30  H   UNL     1     -36.514  30.528 -19.677  1.00  0.00     0.210 HD
ENDBRANCH  28  29
ENDBRANCH  22  28
BRANCH  23  31
ATOM     31  O   UNL     1     -36.546  26.481 -21.604  1.00  0.00    -0.387 OA
ATOM     32  H   UNL     1     -35.988  27.176 -21.166  1.00  0.00     0.211 HD
ENDBRANCH  23  31
ENDBRANCH   1  18
TORSDOF 11
ENDMDL
MODEL 5
REMARK VINA RESULT:    58.759      2.736      5.872
REMARK INTER + INTRA:          83.482
REMARK INTER:                  83.716
REMARK INTRA:                  -0.234
REMARK UNBOUND:                -1.040
REMARK SMILES COC(=O)C1=CO[C@H](O[C@H]2O[C@H](CO)[C@H](O)[C@H](O)[C@@H]2O)[C@@H]2C(CO)=CC[C@H]12
REMARK SMILES IDX 9 1 8 2 5 3 6 4 27 5 7 6 21 7 26 8 22 9 25 10 3 11 4 12 2 13
REMARK SMILES IDX 1 14 23 15 24 16 10 18 19 19 11 20 17 21 12 22 15 23 20 24
REMARK SMILES IDX 18 26 13 28 14 29 16 31
REMARK H PARENT 24 17 20 25 18 27 14 30 16 32
REMARK Flexibility Score: inf
ROOT
ATOM      1  O   UNL     1     -37.736  29.506 -23.096  1.00  0.00    -0.310 OA
ENDROOT
BRANCH   1   2
ATOM      2  C   UNL     1     -37.795  28.095 -22.951  1.00  0.00     0.316 C 
ATOM      3  C   UNL     1     -38.329  25.591 -21.729  1.00  0.00     0.076 C 
ATOM      4  C   UNL     1     -37.465  26.442 -21.168  1.00  0.00     0.202 C 
ATOM      5  C   UNL     1     -39.328  26.052 -22.792  1.00  0.00     0.047 C 
ATOM      6  O   UNL     1     -37.329  27.740 -21.654  1.00  0.00    -0.471 OA
ATOM      7  C   UNL     1     -39.225  27.566 -23.150  1.00  0.00     0.094 C 
ATOM      8  C   UNL     1     -40.763  25.918 -22.247  1.00  0.00     0.037 C 
ATOM      9  C   UNL     1     -40.276  28.201 -22.284  1.00  0.00    -0.039 C 
ATOM     10  C   UNL     1     -41.100  27.290 -21.782  1.00  0.00    -0.024 C 
BRANCH   3  11
ATOM     11  C   UNL     1     -38.318  24.201 -21.243  1.00  0.00     0.337 C 
ATOM     12  O   UNL     1     -37.650  23.902 -20.213  1.00  0.00    -0.246 OA
BRANCH  11  13
ATOM     13  O   UNL     1     -38.332  23.793 -19.863  1.00  0.00    -0.466 OA
ATOM     14  C   UNL     1     -37.597  22.521 -19.444  1.00  0.00     0.282 C 
ENDBRANCH  11  13
ENDBRANCH   3  11
BRANCH   9  15
ATOM     15  C   UNL     1     -40.535  29.680 -22.169  1.00  0.00     0.187 C 
BRANCH  15  16
ATOM     16  O   UNL     1     -39.859  30.188 -21.052  1.00  0.00    -0.392 OA
ATOM     17  H   UNL     1     -39.374  29.424 -20.645  1.00  0.00     0.211 HD
ENDBRANCH  15  16
ENDBRANCH   9  15
ENDBRANCH   1   2
BRANCH   1  18
ATOM     18  C   UNL     1     -37.012  29.914 -24.250  1.00  0.00     0.286 C 
ATOM     19  C   UNL     1     -35.630  30.563 -23.898  1.00  0.00     0.202 C 
ATOM     20  O   UNL     1     -37.835  30.778 -25.025  1.00  0.00    -0.341 OA
ATOM     21  C   UNL     1     -35.361  31.789 -24.784  1.00  0.00     0.179 C 
ATOM     22  C   UNL     1     -37.889  32.072 -24.451  1.00  0.00     0.178 C 
ATOM     23  C   UNL     1     -36.518  32.805 -24.610  1.00  0.00     0.177 C 
BRANCH  19  24
ATOM     24  O   UNL     1     -34.606  29.615 -24.063  1.00  0.00    -0.385 OA
ATOM     25  H   UNL     1     -34.957  28.751 -23.725  1.00  0.00     0.211 HD
ENDBRANCH  19  24
BRANCH  21  26
ATOM     26  O   UNL     1     -35.249  31.365 -26.124  1.00  0.00    -0.387 OA
ATOM     27  H   UNL     1     -35.399  30.385 -26.136  1.00  0.00     0.211 HD
ENDBRANCH  21  26
BRANCH  22  28
ATOM     28  C   UNL     1     -39.086  32.845 -25.025  1.00  0.00     0.191 C 
BRANCH  28  29
ATOM     29  O   UNL     1     -38.660  33.818 -25.943  1.00  0.00    -0.394 OA
ATOM     30  H   UNL     1     -38.920  33.489 -26.843  1.00  0.00     0.210 HD
ENDBRANCH  28  29
ENDBRANCH  22  28
BRANCH  23  31
ATOM     31  O   UNL     1     -36.516  33.769 -25.637  1.00  0.00    -0.387 OA
ATOM     32  H   UNL     1     -37.106  33.447 -26.367  1.00  0.00     0.211 HD
ENDBRANCH  23  31
ENDBRANCH   1  18
TORSDOF 11
ENDMDL
