MODEL 1
REMARK VINA RESULT:    -1.685      0.000      0.000
REMARK INTER + INTRA:          -1.463
REMARK INTER:                  -1.833
REMARK INTRA:                   0.370
REMARK UNBOUND:                 0.370
REMARK SMILES C=C(C)[C@H]1CC[C@@H](C)C[C@@H]1O
REMARK SMILES IDX 8 1 7 2 6 3 5 4 4 5 10 6 9 7 11 8 2 10 1 11 3 12
REMARK H PARENT 11 9
REMARK Flexibility Score: inf
ROOT
ATOM      1  C   UNL     1     -36.977  21.500   8.075  1.00  0.00     0.008 C 
ATOM      2  C   UNL     1     -38.493  21.670   7.881  1.00  0.00    -0.012 C 
ATOM      3  C   UNL     1     -38.962  21.157   6.504  1.00  0.00     0.004 C 
ATOM      4  C   UNL     1     -38.561  22.098   5.360  1.00  0.00     0.011 C 
ATOM      5  C   UNL     1     -39.065  23.531   5.617  1.00  0.00     0.043 C 
ATOM      6  C   UNL     1     -38.548  24.071   6.969  1.00  0.00     0.121 C 
ATOM      7  C   UNL     1     -38.950  23.125   8.118  1.00  0.00     0.035 C 
ENDROOT
BRANCH   6   8
ATOM      8  O   UNL     1     -39.098  25.343   7.200  1.00  0.00    -0.392 OA
ATOM      9  H   UNL     1     -39.938  25.204   7.711  1.00  0.00     0.210 HD
ENDBRANCH   6   8
BRANCH   5  10
ATOM     10  C   UNL     1     -38.682  24.453   4.465  1.00  0.00    -0.075 C 
ATOM     11  C   UNL     1     -37.935  23.989   3.450  1.00  0.00     0.008 C 
ATOM     12  C   UNL     1     -39.125  25.895   4.433  1.00  0.00     0.039 C 
ENDBRANCH   5  10
TORSDOF 2
ENDMDL
MODEL 2
REMARK VINA RESULT:    -1.003     19.242     20.646
REMARK INTER + INTRA:          -0.721
REMARK INTER:                  -0.716
REMARK INTRA:                  -0.005
REMARK UNBOUND:                 0.370
REMARK SMILES C=C(C)[C@H]1CC[C@@H](C)C[C@@H]1O
REMARK SMILES IDX 8 1 7 2 6 3 5 4 4 5 10 6 9 7 11 8 2 10 1 11 3 12
REMARK H PARENT 11 9
REMARK Flexibility Score: inf
ROOT
ATOM      1  C   UNL     1     -39.121  32.737 -11.158  1.00  0.00     0.008 C 
ATOM      2  C   UNL     1     -39.119  34.204 -10.697  1.00  0.00    -0.012 C 
ATOM      3  C   UNL     1     -38.690  35.165 -11.825  1.00  0.00     0.004 C 
ATOM      4  C   UNL     1     -37.184  35.098 -12.113  1.00  0.00     0.011 C 
ATOM      5  C   UNL     1     -36.364  35.348 -10.833  1.00  0.00     0.043 C 
ATOM      6  C   UNL     1     -36.747  34.348  -9.719  1.00  0.00     0.121 C 
ATOM      7  C   UNL     1     -38.260  34.414  -9.432  1.00  0.00     0.035 C 
ENDROOT
BRANCH   6   8
ATOM      8  O   UNL     1     -36.037  34.665  -8.549  1.00  0.00    -0.392 OA
ATOM      9  H   UNL     1     -35.895  35.649  -8.557  1.00  0.00     0.210 HD
ENDBRANCH   6   8
BRANCH   5  10
ATOM     10  C   UNL     1     -34.870  35.303 -11.133  1.00  0.00    -0.075 C 
ATOM     11  C   UNL     1     -34.403  34.521 -12.120  1.00  0.00     0.008 C 
ATOM     12  C   UNL     1     -33.885  36.125 -10.339  1.00  0.00     0.039 C 
ENDBRANCH   5  10
TORSDOF 2
ENDMDL
