MODEL 1
REMARK VINA RESULT:    -3.909      0.000      0.000
REMARK INTER + INTRA:          -4.731
REMARK INTER:                  -4.595
REMARK INTRA:                  -0.136
REMARK UNBOUND:                -0.136
REMARK SMILES O=C([O-])C=Cc1ccc(O)c(O)c1
REMARK SMILES IDX 6 1 13 2 7 3 11 4 8 5 9 6 5 7 4 8 2 9 1 10 3 11 12 12 10 14
REMARK H PARENT 12 13 10 15
REMARK Flexibility Score: inf
ROOT
ATOM      1  C   UNL     1      52.679  83.084  31.852  1.00  0.00    -0.022 A 
ATOM      2  C   UNL     1      53.536  82.129  32.427  1.00  0.00     0.058 A 
ATOM      3  C   UNL     1      53.237  84.258  31.310  1.00  0.00     0.012 A 
ATOM      4  C   UNL     1      54.924  82.327  32.440  1.00  0.00     0.157 A 
ATOM      5  C   UNL     1      54.621  84.455  31.323  1.00  0.00     0.051 A 
ATOM      6  C   UNL     1      55.468  83.495  31.881  1.00  0.00     0.157 A 
ENDROOT
BRANCH   1   7
ATOM      7  C   UNL     1      51.217  82.831  31.875  1.00  0.00     0.010 C 
ATOM      8  C   UNL     1      50.311  83.736  32.268  1.00  0.00     0.025 C 
BRANCH   8   9
ATOM      9  C   UNL     1      48.868  83.445  32.263  1.00  0.00     0.064 C 
ATOM     10  O   UNL     1      48.195  83.621  33.312  1.00  0.00    -0.545 OA
ATOM     11  O   UNL     1      48.235  82.978  31.117  1.00  0.00    -0.545 OA
ENDBRANCH   8   9
ENDBRANCH   1   7
BRANCH   4  12
ATOM     12  O   UNL     1      55.763  81.367  33.005  1.00  0.00    -0.504 OA
ATOM     13  H   UNL     1      56.518  80.945  32.477  1.00  0.00     0.293 HD
ENDBRANCH   4  12
BRANCH   6  14
ATOM     14  O   UNL     1      56.845  83.721  31.878  1.00  0.00    -0.504 OA
ATOM     15  H   UNL     1      57.326  84.097  31.070  1.00  0.00     0.293 HD
ENDBRANCH   6  14
TORSDOF 4
ENDMDL
MODEL 2
REMARK VINA RESULT:    -3.808     12.467     13.774
REMARK INTER + INTRA:          -4.612
REMARK INTER:                  -4.482
REMARK INTRA:                  -0.129
REMARK UNBOUND:                -0.136
REMARK SMILES O=C([O-])C=Cc1ccc(O)c(O)c1
REMARK SMILES IDX 6 1 13 2 7 3 11 4 8 5 9 6 5 7 4 8 2 9 1 10 3 11 12 12 10 14
REMARK H PARENT 12 13 10 15
REMARK Flexibility Score: inf
ROOT
ATOM      1  C   UNL     1      48.390  81.613  44.734  1.00  0.00    -0.022 A 
ATOM      2  C   UNL     1      48.021  80.262  44.858  1.00  0.00     0.058 A 
ATOM      3  C   UNL     1      49.027  82.245  45.820  1.00  0.00     0.012 A 
ATOM      4  C   UNL     1      48.303  79.546  46.031  1.00  0.00     0.157 A 
ATOM      5  C   UNL     1      49.307  81.532  46.989  1.00  0.00     0.051 A 
ATOM      6  C   UNL     1      48.952  80.186  47.100  1.00  0.00     0.157 A 
ENDROOT
BRANCH   1   7
ATOM      7  C   UNL     1      48.060  82.327  43.476  1.00  0.00     0.010 C 
ATOM      8  C   UNL     1      48.397  81.883  42.258  1.00  0.00     0.025 C 
BRANCH   8   9
ATOM      9  C   UNL     1      48.038  82.619  41.034  1.00  0.00     0.064 C 
ATOM     10  O   UNL     1      47.875  83.865  41.084  1.00  0.00    -0.545 OA
ATOM     11  O   UNL     1      47.875  81.957  39.822  1.00  0.00    -0.545 OA
ENDBRANCH   8   9
ENDBRANCH   1   7
BRANCH   4  12
ATOM     12  O   UNL     1      47.939  78.204  46.137  1.00  0.00    -0.504 OA
ATOM     13  H   UNL     1      47.502  77.711  45.368  1.00  0.00     0.293 HD
ENDBRANCH   4  12
BRANCH   6  14
ATOM     14  O   UNL     1      49.246  79.501  48.279  1.00  0.00    -0.504 OA
ATOM     15  H   UNL     1      49.411  79.983  49.154  1.00  0.00     0.293 HD
ENDBRANCH   6  14
TORSDOF 4
ENDMDL
MODEL 3
REMARK VINA RESULT:    -3.432      1.237      5.840
REMARK INTER + INTRA:          -4.170
REMARK INTER:                  -4.033
REMARK INTRA:                  -0.137
REMARK UNBOUND:                -0.136
REMARK SMILES O=C([O-])C=Cc1ccc(O)c(O)c1
REMARK SMILES IDX 6 1 13 2 7 3 11 4 8 5 9 6 5 7 4 8 2 9 1 10 3 11 12 12 10 14
REMARK H PARENT 12 13 10 15
REMARK Flexibility Score: inf
ROOT
ATOM      1  C   UNL     1      52.152  83.444  32.043  1.00  0.00    -0.022 A 
ATOM      2  C   UNL     1      51.358  82.579  31.270  1.00  0.00     0.058 A 
ATOM      3  C   UNL     1      51.534  84.526  32.700  1.00  0.00     0.012 A 
ATOM      4  C   UNL     1      49.972  82.773  31.172  1.00  0.00     0.157 A 
ATOM      5  C   UNL     1      50.154  84.719  32.602  1.00  0.00     0.051 A 
ATOM      6  C   UNL     1      49.368  83.847  31.845  1.00  0.00     0.157 A 
ENDROOT
BRANCH   1   7
ATOM      7  C   UNL     1      53.615  83.201  32.105  1.00  0.00     0.010 C 
ATOM      8  C   UNL     1      54.536  84.164  31.967  1.00  0.00     0.025 C 
BRANCH   8   9
ATOM      9  C   UNL     1      55.977  83.879  32.046  1.00  0.00     0.064 C 
ATOM     10  O   UNL     1      56.489  83.564  33.152  1.00  0.00    -0.545 OA
ATOM     11  O   UNL     1      56.786  83.954  30.917  1.00  0.00    -0.545 OA
ENDBRANCH   8   9
ENDBRANCH   1   7
BRANCH   4  12
ATOM     12  O   UNL     1      49.196  81.900  30.409  1.00  0.00    -0.504 OA
ATOM     13  H   UNL     1      48.900  82.136  29.469  1.00  0.00     0.293 HD
ENDBRANCH   4  12
BRANCH   6  14
ATOM     14  O   UNL     1      47.993  84.065  31.768  1.00  0.00    -0.504 OA
ATOM     15  H   UNL     1      47.595  84.786  31.177  1.00  0.00     0.293 HD
ENDBRANCH   6  14
TORSDOF 4
ENDMDL
MODEL 4
REMARK VINA RESULT:    -3.406      1.236      5.889
REMARK INTER + INTRA:          -4.139
REMARK INTER:                  -4.002
REMARK INTRA:                  -0.137
REMARK UNBOUND:                -0.136
REMARK SMILES O=C([O-])C=Cc1ccc(O)c(O)c1
REMARK SMILES IDX 6 1 13 2 7 3 11 4 8 5 9 6 5 7 4 8 2 9 1 10 3 11 12 12 10 14
REMARK H PARENT 12 13 10 15
REMARK Flexibility Score: inf
ROOT
ATOM      1  C   UNL     1      52.333  83.470  31.364  1.00  0.00    -0.022 A 
ATOM      2  C   UNL     1      51.279  83.666  32.272  1.00  0.00     0.058 A 
ATOM      3  C   UNL     1      52.057  82.858  30.125  1.00  0.00     0.012 A 
ATOM      4  C   UNL     1      49.969  83.283  31.945  1.00  0.00     0.157 A 
ATOM      5  C   UNL     1      50.753  82.476  29.800  1.00  0.00     0.051 A 
ATOM      6  C   UNL     1      49.707  82.688  30.701  1.00  0.00     0.157 A 
ENDROOT
BRANCH   1   7
ATOM      7  C   UNL     1      53.701  83.883  31.764  1.00  0.00     0.010 C 
ATOM      8  C   UNL     1      54.808  83.196  31.451  1.00  0.00     0.025 C 
BRANCH   8   9
ATOM      9  C   UNL     1      56.147  83.649  31.859  1.00  0.00     0.064 C 
ATOM     10  O   UNL     1      56.449  83.676  33.080  1.00  0.00    -0.545 OA
ATOM     11  O   UNL     1      57.086  84.051  30.915  1.00  0.00    -0.545 OA
ENDBRANCH   8   9
ENDBRANCH   1   7
BRANCH   4  12
ATOM     12  O   UNL     1      48.931  83.493  32.852  1.00  0.00    -0.504 OA
ATOM     13  H   UNL     1      48.105  84.022  32.600  1.00  0.00     0.293 HD
ENDBRANCH   4  12
BRANCH   6  14
ATOM     14  O   UNL     1      48.415  82.298  30.346  1.00  0.00    -0.504 OA
ATOM     15  H   UNL     1      47.811  82.885  29.784  1.00  0.00     0.293 HD
ENDBRANCH   6  14
TORSDOF 4
ENDMDL
MODEL 5
REMARK VINA RESULT:    -3.309      1.324      2.292
REMARK INTER + INTRA:          -4.025
REMARK INTER:                  -3.893
REMARK INTRA:                  -0.132
REMARK UNBOUND:                -0.136
REMARK SMILES O=C([O-])C=Cc1ccc(O)c(O)c1
REMARK SMILES IDX 6 1 13 2 7 3 11 4 8 5 9 6 5 7 4 8 2 9 1 10 3 11 12 12 10 14
REMARK H PARENT 12 13 10 15
REMARK Flexibility Score: inf
ROOT
ATOM      1  C   UNL     1      52.583  83.036  31.169  1.00  0.00    -0.022 A 
ATOM      2  C   UNL     1      53.753  83.794  30.989  1.00  0.00     0.058 A 
ATOM      3  C   UNL     1      52.617  81.933  32.044  1.00  0.00     0.012 A 
ATOM      4  C   UNL     1      54.929  83.474  31.684  1.00  0.00     0.157 A 
ATOM      5  C   UNL     1      53.789  81.614  32.736  1.00  0.00     0.051 A 
ATOM      6  C   UNL     1      54.944  82.380  32.564  1.00  0.00     0.157 A 
ENDROOT
BRANCH   1   7
ATOM      7  C   UNL     1      51.369  83.410  30.402  1.00  0.00     0.010 C 
ATOM      8  C   UNL     1      50.165  83.596  30.958  1.00  0.00     0.025 C 
BRANCH   8   9
ATOM      9  C   UNL     1      48.989  83.978  30.159  1.00  0.00     0.064 C 
ATOM     10  O   UNL     1      47.875  83.445  30.399  1.00  0.00    -0.545 OA
ATOM     11  O   UNL     1      49.090  84.919  29.140  1.00  0.00    -0.545 OA
ENDBRANCH   8   9
ENDBRANCH   1   7
BRANCH   4  12
ATOM     12  O   UNL     1      56.080  84.241  31.502  1.00  0.00    -0.504 OA
ATOM     13  H   UNL     1      56.340  84.970  32.155  1.00  0.00     0.293 HD
ENDBRANCH   4  12
BRANCH   6  14
ATOM     14  O   UNL     1      56.097  82.038  33.270  1.00  0.00    -0.504 OA
ATOM     15  H   UNL     1      56.285  82.395  34.199  1.00  0.00     0.293 HD
ENDBRANCH   6  14
TORSDOF 4
ENDMDL
MODEL 6
REMARK VINA RESULT:    -3.238      2.087      5.948
REMARK INTER + INTRA:          -3.942
REMARK INTER:                  -3.814
REMARK INTRA:                  -0.128
REMARK UNBOUND:                -0.136
REMARK SMILES O=C([O-])C=Cc1ccc(O)c(O)c1
REMARK SMILES IDX 6 1 13 2 7 3 11 4 8 5 9 6 5 7 4 8 2 9 1 10 3 11 12 12 10 14
REMARK H PARENT 12 13 10 15
REMARK Flexibility Score: inf
ROOT
ATOM      1  C   UNL     1      53.813  83.268  30.667  1.00  0.00    -0.022 A 
ATOM      2  C   UNL     1      53.485  82.014  31.209  1.00  0.00     0.058 A 
ATOM      3  C   UNL     1      52.844  84.291  30.688  1.00  0.00     0.012 A 
ATOM      4  C   UNL     1      52.225  81.787  31.783  1.00  0.00     0.157 A 
ATOM      5  C   UNL     1      51.589  84.065  31.260  1.00  0.00     0.051 A 
ATOM      6  C   UNL     1      51.275  82.821  31.811  1.00  0.00     0.157 A 
ENDROOT
BRANCH   1   7
ATOM      7  C   UNL     1      55.155  83.452  30.062  1.00  0.00     0.010 C 
ATOM      8  C   UNL     1      56.182  84.039  30.691  1.00  0.00     0.025 C 
BRANCH   8   9
ATOM      9  C   UNL     1      57.501  84.190  30.056  1.00  0.00     0.064 C 
ATOM     10  O   UNL     1      57.672  83.789  28.875  1.00  0.00    -0.545 OA
ATOM     11  O   UNL     1      58.564  84.767  30.741  1.00  0.00    -0.545 OA
ENDBRANCH   8   9
ENDBRANCH   1   7
BRANCH   4  12
ATOM     12  O   UNL     1      51.917  80.540  32.327  1.00  0.00    -0.504 OA
ATOM     13  H   UNL     1      51.973  80.367  33.323  1.00  0.00     0.293 HD
ENDBRANCH   4  12
BRANCH   6  14
ATOM     14  O   UNL     1      50.015  82.628  32.376  1.00  0.00    -0.504 OA
ATOM     15  H   UNL     1      49.534  83.361  32.883  1.00  0.00     0.293 HD
ENDBRANCH   6  14
TORSDOF 4
ENDMDL
MODEL 7
REMARK VINA RESULT:    -3.005      1.992      2.378
REMARK INTER + INTRA:          -3.668
REMARK INTER:                  -3.541
REMARK INTRA:                  -0.127
REMARK UNBOUND:                -0.136
REMARK SMILES O=C([O-])C=Cc1ccc(O)c(O)c1
REMARK SMILES IDX 6 1 13 2 7 3 11 4 8 5 9 6 5 7 4 8 2 9 1 10 3 11 12 12 10 14
REMARK H PARENT 12 13 10 15
REMARK Flexibility Score: inf
ROOT
ATOM      1  C   UNL     1      52.610  81.923  30.842  1.00  0.00    -0.022 A 
ATOM      2  C   UNL     1      53.722  82.498  31.482  1.00  0.00     0.058 A 
ATOM      3  C   UNL     1      52.810  81.209  29.646  1.00  0.00     0.012 A 
ATOM      4  C   UNL     1      55.012  82.345  30.954  1.00  0.00     0.157 A 
ATOM      5  C   UNL     1      54.096  81.056  29.119  1.00  0.00     0.051 A 
ATOM      6  C   UNL     1      55.198  81.617  29.768  1.00  0.00     0.157 A 
ENDROOT
BRANCH   1   7
ATOM      7  C   UNL     1      51.265  82.124  31.437  1.00  0.00     0.010 C 
ATOM      8  C   UNL     1      50.351  82.969  30.942  1.00  0.00     0.025 C 
BRANCH   8   9
ATOM      9  C   UNL     1      49.024  83.129  31.559  1.00  0.00     0.064 C 
ATOM     10  O   UNL     1      47.991  82.972  30.859  1.00  0.00    -0.545 OA
ATOM     11  O   UNL     1      48.894  83.454  32.905  1.00  0.00    -0.545 OA
ENDBRANCH   8   9
ENDBRANCH   1   7
BRANCH   4  12
ATOM     12  O   UNL     1      56.107  82.913  31.605  1.00  0.00    -0.504 OA
ATOM     13  H   UNL     1      56.081  83.862  31.958  1.00  0.00     0.293 HD
ENDBRANCH   4  12
BRANCH   6  14
ATOM     14  O   UNL     1      56.469  81.446  29.218  1.00  0.00    -0.504 OA
ATOM     15  H   UNL     1      57.279  81.240  29.790  1.00  0.00     0.293 HD
ENDBRANCH   6  14
TORSDOF 4
ENDMDL
MODEL 8
REMARK VINA RESULT:    -2.957      1.682      2.155
REMARK INTER + INTRA:          -3.611
REMARK INTER:                  -3.471
REMARK INTRA:                  -0.140
REMARK UNBOUND:                -0.136
REMARK SMILES O=C([O-])C=Cc1ccc(O)c(O)c1
REMARK SMILES IDX 6 1 13 2 7 3 11 4 8 5 9 6 5 7 4 8 2 9 1 10 3 11 12 12 10 14
REMARK H PARENT 12 13 10 15
REMARK Flexibility Score: inf
ROOT
ATOM      1  C   UNL     1      53.491  83.344  31.419  1.00  0.00    -0.022 A 
ATOM      2  C   UNL     1      54.762  83.798  31.813  1.00  0.00     0.058 A 
ATOM      3  C   UNL     1      53.371  82.622  30.215  1.00  0.00     0.012 A 
ATOM      4  C   UNL     1      55.896  83.517  31.037  1.00  0.00     0.157 A 
ATOM      5  C   UNL     1      54.501  82.343  29.442  1.00  0.00     0.051 A 
ATOM      6  C   UNL     1      55.764  82.783  29.847  1.00  0.00     0.157 A 
ENDROOT
BRANCH   1   7
ATOM      7  C   UNL     1      52.322  83.678  32.270  1.00  0.00     0.010 C 
ATOM      8  C   UNL     1      51.078  83.831  31.800  1.00  0.00     0.025 C 
BRANCH   8   9
ATOM      9  C   UNL     1      49.945  84.151  32.683  1.00  0.00     0.064 C 
ATOM     10  O   UNL     1      50.031  85.124  33.476  1.00  0.00    -0.545 OA
ATOM     11  O   UNL     1      48.780  83.392  32.657  1.00  0.00    -0.545 OA
ENDBRANCH   8   9
ENDBRANCH   1   7
BRANCH   4  12
ATOM     12  O   UNL     1      57.152  83.964  31.445  1.00  0.00    -0.504 OA
ATOM     13  H   UNL     1      57.991  83.425  31.268  1.00  0.00     0.293 HD
ENDBRANCH   4  12
BRANCH   6  14
ATOM     14  O   UNL     1      56.872  82.487  29.054  1.00  0.00    -0.504 OA
ATOM     15  H   UNL     1      57.623  83.151  28.909  1.00  0.00     0.293 HD
ENDBRANCH   6  14
TORSDOF 4
ENDMDL
MODEL 9
REMARK VINA RESULT:    -2.941      2.011      2.464
REMARK INTER + INTRA:          -3.593
REMARK INTER:                  -3.461
REMARK INTRA:                  -0.132
REMARK UNBOUND:                -0.136
REMARK SMILES O=C([O-])C=Cc1ccc(O)c(O)c1
REMARK SMILES IDX 6 1 13 2 7 3 11 4 8 5 9 6 5 7 4 8 2 9 1 10 3 11 12 12 10 14
REMARK H PARENT 12 13 10 15
REMARK Flexibility Score: inf
ROOT
ATOM      1  C   UNL     1      53.782  83.734  30.320  1.00  0.00    -0.022 A 
ATOM      2  C   UNL     1      54.625  82.849  29.626  1.00  0.00     0.058 A 
ATOM      3  C   UNL     1      54.357  84.821  31.005  1.00  0.00     0.012 A 
ATOM      4  C   UNL     1      56.012  83.055  29.594  1.00  0.00     0.157 A 
ATOM      5  C   UNL     1      55.739  85.027  30.975  1.00  0.00     0.051 A 
ATOM      6  C   UNL     1      56.570  84.153  30.270  1.00  0.00     0.157 A 
ENDROOT
BRANCH   1   7
ATOM      7  C   UNL     1      52.323  83.464  30.330  1.00  0.00     0.010 C 
ATOM      8  C   UNL     1      51.629  83.166  31.437  1.00  0.00     0.025 C 
BRANCH   8   9
ATOM      9  C   UNL     1      50.179  82.916  31.403  1.00  0.00     0.064 C 
ATOM     10  O   UNL     1      49.658  82.418  30.371  1.00  0.00    -0.545 OA
ATOM     11  O   UNL     1      49.373  83.225  32.493  1.00  0.00    -0.545 OA
ENDBRANCH   8   9
ENDBRANCH   1   7
BRANCH   4  12
ATOM     12  O   UNL     1      56.836  82.174  28.894  1.00  0.00    -0.504 OA
ATOM     13  H   UNL     1      57.023  82.295  27.905  1.00  0.00     0.293 HD
ENDBRANCH   4  12
BRANCH   6  14
ATOM     14  O   UNL     1      57.945  84.386  30.257  1.00  0.00    -0.504 OA
ATOM     15  H   UNL     1      58.436  84.657  29.414  1.00  0.00     0.293 HD
ENDBRANCH   6  14
TORSDOF 4
ENDMDL
