MODEL 1
REMARK VINA RESULT:    -3.486      0.000      0.000
REMARK INTER + INTRA:         -10.446
REMARK INTER:                  -7.562
REMARK INTRA:                  -2.884
REMARK UNBOUND:                -2.884
REMARK SMILES CCCCCCCCCCCCCCCCCCCCCC(=O)[O-]
REMARK SMILES IDX 12 1 11 2 10 3 9 4 8 5 7 6 6 7 5 8 4 9 3 10 2 11 1 12 13 13
REMARK SMILES IDX 14 14 15 15 16 16 17 17 18 18 19 19 20 20 21 21 22 22 23 23
REMARK SMILES IDX 24 24
REMARK H PARENT
REMARK Flexibility Score: inf
ROOT
ATOM      1  C   UNL     1      -6.595  -4.285  63.558  1.00  0.00     0.000 C 
ENDROOT
BRANCH   1   2
ATOM      2  C   UNL     1      -6.244  -5.228  62.394  1.00  0.00     0.000 C 
BRANCH   2   3
ATOM      3  C   UNL     1      -5.251  -4.606  61.395  1.00  0.00     0.000 C 
BRANCH   3   4
ATOM      4  C   UNL     1      -3.763  -4.765  61.764  1.00  0.00    -0.000 C 
BRANCH   4   5
ATOM      5  C   UNL     1      -2.954  -3.474  61.571  1.00  0.00    -0.000 C 
BRANCH   5   6
ATOM      6  C   UNL     1      -3.626  -2.555  60.540  1.00  0.00    -0.000 C 
BRANCH   6   7
ATOM      7  C   UNL     1      -2.629  -1.612  59.844  1.00  0.00    -0.000 C 
BRANCH   7   8
ATOM      8  C   UNL     1      -2.163  -2.077  58.451  1.00  0.00    -0.000 C 
BRANCH   8   9
ATOM      9  C   UNL     1      -2.122  -0.948  57.399  1.00  0.00    -0.000 C 
BRANCH   9  10
ATOM     10  C   UNL     1      -0.690  -0.647  56.923  1.00  0.00    -0.000 C 
BRANCH  10  11
ATOM     11  C   UNL     1       0.366  -1.492  57.651  1.00  0.00    -0.003 C 
ATOM     12  C   UNL     1       1.745  -0.829  57.673  1.00  0.00     0.004 C 
ENDBRANCH  10  11
ENDBRANCH   9  10
ENDBRANCH   8   9
ENDBRANCH   7   8
ENDBRANCH   6   7
ENDBRANCH   5   6
ENDBRANCH   4   5
ENDBRANCH   3   4
ENDBRANCH   2   3
ENDBRANCH   1   2
BRANCH   1  13
ATOM     13  C   UNL     1      -6.616  -2.807  63.137  1.00  0.00     0.000 C 
BRANCH  13  14
ATOM     14  C   UNL     1      -5.600  -1.949  63.912  1.00  0.00     0.000 C 
BRANCH  14  15
ATOM     15  C   UNL     1      -4.846  -2.757  64.981  1.00  0.00     0.000 C 
BRANCH  15  16
ATOM     16  C   UNL     1      -3.349  -2.416  65.040  1.00  0.00     0.000 C 
BRANCH  16  17
ATOM     17  C   UNL     1      -2.509  -3.682  65.271  1.00  0.00     0.000 C 
BRANCH  17  18
ATOM     18  C   UNL     1      -3.369  -4.955  65.334  1.00  0.00     0.000 C 
BRANCH  18  19
ATOM     19  C   UNL     1      -2.517  -6.236  65.330  1.00  0.00     0.000 C 
BRANCH  19  20
ATOM     20  C   UNL     1      -3.021  -7.280  64.321  1.00  0.00     0.006 C 
BRANCH  20  21
ATOM     21  C   UNL     1      -4.066  -8.232  64.919  1.00  0.00     0.053 C 
BRANCH  21  22
ATOM     22  C   UNL     1      -3.519  -9.622  65.012  1.00  0.00     0.041 C 
ATOM     23  O   UNL     1      -2.905 -10.126  64.035  1.00  0.00    -0.550 OA
ATOM     24  O   UNL     1      -3.656 -10.347  66.191  1.00  0.00    -0.550 OA
ENDBRANCH  21  22
ENDBRANCH  20  21
ENDBRANCH  19  20
ENDBRANCH  18  19
ENDBRANCH  17  18
ENDBRANCH  16  17
ENDBRANCH  15  16
ENDBRANCH  14  15
ENDBRANCH  13  14
ENDBRANCH   1  13
TORSDOF 20
ENDMDL
MODEL 2
REMARK VINA RESULT:    -3.446      4.441      7.433
REMARK INTER + INTRA:         -10.358
REMARK INTER:                  -8.910
REMARK INTRA:                  -1.449
REMARK UNBOUND:                -2.884
REMARK SMILES CCCCCCCCCCCCCCCCCCCCCC(=O)[O-]
REMARK SMILES IDX 12 1 11 2 10 3 9 4 8 5 7 6 6 7 5 8 4 9 3 10 2 11 1 12 13 13
REMARK SMILES IDX 14 14 15 15 16 16 17 17 18 18 19 19 20 20 21 21 22 22 23 23
REMARK SMILES IDX 24 24
REMARK H PARENT
REMARK Flexibility Score: inf
ROOT
ATOM      1  C   UNL     1      -3.040  -3.768  64.592  1.00  0.00     0.000 C 
ENDROOT
BRANCH   1   2
ATOM      2  C   UNL     1      -2.051  -4.740  65.258  1.00  0.00     0.000 C 
BRANCH   2   3
ATOM      3  C   UNL     1      -1.412  -4.166  66.537  1.00  0.00     0.000 C 
BRANCH   3   4
ATOM      4  C   UNL     1      -1.437  -2.629  66.650  1.00  0.00    -0.000 C 
BRANCH   4   5
ATOM      5  C   UNL     1      -0.231  -2.063  67.414  1.00  0.00    -0.000 C 
BRANCH   5   6
ATOM      6  C   UNL     1       0.987  -2.988  67.280  1.00  0.00    -0.000 C 
BRANCH   6   7
ATOM      7  C   UNL     1       2.119  -2.365  66.445  1.00  0.00    -0.000 C 
BRANCH   7   8
ATOM      8  C   UNL     1       3.383  -3.236  66.319  1.00  0.00    -0.000 C 
BRANCH   8   9
ATOM      9  C   UNL     1       4.502  -2.858  67.314  1.00  0.00    -0.000 C 
BRANCH   9  10
ATOM     10  C   UNL     1       4.781  -3.977  68.332  1.00  0.00    -0.000 C 
BRANCH  10  11
ATOM     11  C   UNL     1       4.377  -3.590  69.762  1.00  0.00    -0.003 C 
ATOM     12  C   UNL     1       4.843  -4.608  70.806  1.00  0.00     0.004 C 
ENDBRANCH  10  11
ENDBRANCH   9  10
ENDBRANCH   8   9
ENDBRANCH   7   8
ENDBRANCH   6   7
ENDBRANCH   5   6
ENDBRANCH   4   5
ENDBRANCH   3   4
ENDBRANCH   2   3
ENDBRANCH   1   2
BRANCH   1  13
ATOM     13  C   UNL     1      -4.255  -4.484  63.983  1.00  0.00     0.000 C 
BRANCH  13  14
ATOM     14  C   UNL     1      -4.098  -6.015  63.961  1.00  0.00     0.000 C 
BRANCH  14  15
ATOM     15  C   UNL     1      -5.109  -6.722  64.878  1.00  0.00     0.000 C 
BRANCH  15  16
ATOM     16  C   UNL     1      -4.751  -8.193  65.140  1.00  0.00     0.000 C 
BRANCH  16  17
ATOM     17  C   UNL     1      -3.376  -8.535  64.546  1.00  0.00     0.000 C 
BRANCH  17  18
ATOM     18  C   UNL     1      -3.169 -10.049  64.378  1.00  0.00     0.000 C 
BRANCH  18  19
ATOM     19  C   UNL     1      -3.414 -10.820  65.687  1.00  0.00     0.000 C 
BRANCH  19  20
ATOM     20  C   UNL     1      -4.404 -11.984  65.512  1.00  0.00     0.006 C 
BRANCH  20  21
ATOM     21  C   UNL     1      -4.906 -12.128  64.068  1.00  0.00     0.053 C 
BRANCH  21  22
ATOM     22  C   UNL     1      -5.234 -13.557  63.766  1.00  0.00     0.041 C 
ATOM     23  O   UNL     1      -4.875 -14.070  62.673  1.00  0.00    -0.550 OA
ATOM     24  O   UNL     1      -5.902 -14.332  64.707  1.00  0.00    -0.550 OA
ENDBRANCH  21  22
ENDBRANCH  20  21
ENDBRANCH  19  20
ENDBRANCH  18  19
ENDBRANCH  17  18
ENDBRANCH  16  17
ENDBRANCH  15  16
ENDBRANCH  14  15
ENDBRANCH  13  14
ENDBRANCH   1  13
TORSDOF 20
ENDMDL
MODEL 3
REMARK VINA RESULT:    -3.435      4.716      8.157
REMARK INTER + INTRA:         -10.335
REMARK INTER:                  -6.723
REMARK INTRA:                  -3.611
REMARK UNBOUND:                -2.884
REMARK SMILES CCCCCCCCCCCCCCCCCCCCCC(=O)[O-]
REMARK SMILES IDX 12 1 11 2 10 3 9 4 8 5 7 6 6 7 5 8 4 9 3 10 2 11 1 12 13 13
REMARK SMILES IDX 14 14 15 15 16 16 17 17 18 18 19 19 20 20 21 21 22 22 23 23
REMARK SMILES IDX 24 24
REMARK H PARENT
REMARK Flexibility Score: inf
ROOT
ATOM      1  C   UNL     1      -6.210  -9.262  65.319  1.00  0.00     0.000 C 
ENDROOT
BRANCH   1   2
ATOM      2  C   UNL     1      -6.586  -7.905  64.698  1.00  0.00     0.000 C 
BRANCH   2   3
ATOM      3  C   UNL     1      -5.687  -6.752  65.183  1.00  0.00     0.000 C 
BRANCH   3   4
ATOM      4  C   UNL     1      -5.364  -5.681  64.123  1.00  0.00    -0.000 C 
BRANCH   4   5
ATOM      5  C   UNL     1      -3.983  -5.870  63.478  1.00  0.00    -0.000 C 
BRANCH   5   6
ATOM      6  C   UNL     1      -3.048  -6.657  64.407  1.00  0.00    -0.000 C 
BRANCH   6   7
ATOM      7  C   UNL     1      -2.167  -5.743  65.278  1.00  0.00    -0.000 C 
BRANCH   7   8
ATOM      8  C   UNL     1      -2.085  -6.149  66.762  1.00  0.00    -0.000 C 
BRANCH   8   9
ATOM      9  C   UNL     1      -3.283  -5.665  67.607  1.00  0.00    -0.000 C 
BRANCH   9  10
ATOM     10  C   UNL     1      -3.667  -6.673  68.705  1.00  0.00    -0.000 C 
BRANCH  10  11
ATOM     11  C   UNL     1      -5.131  -6.533  69.149  1.00  0.00    -0.003 C 
ATOM     12  C   UNL     1      -5.990  -7.734  68.747  1.00  0.00     0.004 C 
ENDBRANCH  10  11
ENDBRANCH   9  10
ENDBRANCH   8   9
ENDBRANCH   7   8
ENDBRANCH   6   7
ENDBRANCH   5   6
ENDBRANCH   4   5
ENDBRANCH   3   4
ENDBRANCH   2   3
ENDBRANCH   1   2
BRANCH   1  13
ATOM     13  C   UNL     1      -5.228 -10.059  64.446  1.00  0.00     0.000 C 
BRANCH  13  14
ATOM     14  C   UNL     1      -3.841 -10.214  65.094  1.00  0.00     0.000 C 
BRANCH  14  15
ATOM     15  C   UNL     1      -3.811  -9.705  66.544  1.00  0.00     0.000 C 
BRANCH  15  16
ATOM     16  C   UNL     1      -3.608 -10.832  67.568  1.00  0.00     0.000 C 
BRANCH  16  17
ATOM     17  C   UNL     1      -3.373 -12.176  66.862  1.00  0.00     0.000 C 
BRANCH  17  18
ATOM     18  C   UNL     1      -3.979 -13.360  67.635  1.00  0.00     0.000 C 
BRANCH  18  19
ATOM     19  C   UNL     1      -5.517 -13.345  67.614  1.00  0.00     0.000 C 
BRANCH  19  20
ATOM     20  C   UNL     1      -6.088 -13.000  66.228  1.00  0.00     0.006 C 
BRANCH  20  21
ATOM     21  C   UNL     1      -6.136 -14.210  65.285  1.00  0.00     0.053 C 
BRANCH  21  22
ATOM     22  C   UNL     1      -5.180 -14.029  64.148  1.00  0.00     0.041 C 
ATOM     23  O   UNL     1      -5.535 -13.394  63.119  1.00  0.00    -0.550 OA
ATOM     24  O   UNL     1      -3.887 -14.530  64.239  1.00  0.00    -0.550 OA
ENDBRANCH  21  22
ENDBRANCH  20  21
ENDBRANCH  19  20
ENDBRANCH  18  19
ENDBRANCH  17  18
ENDBRANCH  16  17
ENDBRANCH  15  16
ENDBRANCH  14  15
ENDBRANCH  13  14
ENDBRANCH   1  13
TORSDOF 20
ENDMDL
MODEL 4
REMARK VINA RESULT:    -3.434      5.837     10.183
REMARK INTER + INTRA:         -10.333
REMARK INTER:                  -6.571
REMARK INTRA:                  -3.762
REMARK UNBOUND:                -2.884
REMARK SMILES CCCCCCCCCCCCCCCCCCCCCC(=O)[O-]
REMARK SMILES IDX 12 1 11 2 10 3 9 4 8 5 7 6 6 7 5 8 4 9 3 10 2 11 1 12 13 13
REMARK SMILES IDX 14 14 15 15 16 16 17 17 18 18 19 19 20 20 21 21 22 22 23 23
REMARK SMILES IDX 24 24
REMARK H PARENT
REMARK Flexibility Score: inf
ROOT
ATOM      1  C   UNL     1      -4.762 -12.035  64.017  1.00  0.00     0.000 C 
ENDROOT
BRANCH   1   2
ATOM      2  C   UNL     1      -4.122 -13.361  63.569  1.00  0.00     0.000 C 
BRANCH   2   3
ATOM      3  C   UNL     1      -4.468 -14.540  64.498  1.00  0.00     0.000 C 
BRANCH   3   4
ATOM      4  C   UNL     1      -4.317 -14.255  66.005  1.00  0.00    -0.000 C 
BRANCH   4   5
ATOM      5  C   UNL     1      -5.534 -14.704  66.827  1.00  0.00    -0.000 C 
BRANCH   5   6
ATOM      6  C   UNL     1      -6.790 -13.920  66.420  1.00  0.00    -0.000 C 
BRANCH   6   7
ATOM      7  C   UNL     1      -6.839 -12.512  67.038  1.00  0.00    -0.000 C 
BRANCH   7   8
ATOM      8  C   UNL     1      -6.803 -12.481  68.578  1.00  0.00    -0.000 C 
BRANCH   8   9
ATOM      9  C   UNL     1      -5.598 -11.710  69.158  1.00  0.00    -0.000 C 
BRANCH   9  10
ATOM     10  C   UNL     1      -4.869 -10.878  68.088  1.00  0.00    -0.000 C 
BRANCH  10  11
ATOM     11  C   UNL     1      -3.343 -11.052  68.141  1.00  0.00    -0.003 C 
ATOM     12  C   UNL     1      -2.921 -12.376  68.782  1.00  0.00     0.004 C 
ENDBRANCH  10  11
ENDBRANCH   9  10
ENDBRANCH   8   9
ENDBRANCH   7   8
ENDBRANCH   6   7
ENDBRANCH   5   6
ENDBRANCH   4   5
ENDBRANCH   3   4
ENDBRANCH   2   3
ENDBRANCH   1   2
BRANCH   1  13
ATOM     13  C   UNL     1      -3.720 -10.972  64.397  1.00  0.00     0.000 C 
BRANCH  13  14
ATOM     14  C   UNL     1      -4.354  -9.632  64.809  1.00  0.00     0.000 C 
BRANCH  14  15
ATOM     15  C   UNL     1      -5.888  -9.655  64.710  1.00  0.00     0.000 C 
BRANCH  15  16
ATOM     16  C   UNL     1      -6.556  -8.553  65.547  1.00  0.00     0.000 C 
BRANCH  16  17
ATOM     17  C   UNL     1      -5.962  -7.176  65.213  1.00  0.00     0.000 C 
BRANCH  17  18
ATOM     18  C   UNL     1      -5.701  -6.328  66.469  1.00  0.00     0.000 C 
BRANCH  18  19
ATOM     19  C   UNL     1      -5.070  -7.150  67.607  1.00  0.00     0.000 C 
BRANCH  19  20
ATOM     20  C   UNL     1      -3.559  -7.365  67.416  1.00  0.00     0.006 C 
BRANCH  20  21
ATOM     21  C   UNL     1      -2.757  -6.059  67.496  1.00  0.00     0.053 C 
BRANCH  21  22
ATOM     22  C   UNL     1      -2.158  -5.727  66.165  1.00  0.00     0.041 C 
ATOM     23  O   UNL     1      -1.446  -4.697  66.032  1.00  0.00    -0.550 OA
ATOM     24  O   UNL     1      -2.356  -6.576  65.081  1.00  0.00    -0.550 OA
ENDBRANCH  21  22
ENDBRANCH  20  21
ENDBRANCH  19  20
ENDBRANCH  18  19
ENDBRANCH  17  18
ENDBRANCH  16  17
ENDBRANCH  15  16
ENDBRANCH  14  15
ENDBRANCH  13  14
ENDBRANCH   1  13
TORSDOF 20
ENDMDL
MODEL 5
REMARK VINA RESULT:    -3.397      6.678      9.310
REMARK INTER + INTRA:         -10.252
REMARK INTER:                  -7.083
REMARK INTRA:                  -3.170
REMARK UNBOUND:                -2.884
REMARK SMILES CCCCCCCCCCCCCCCCCCCCCC(=O)[O-]
REMARK SMILES IDX 12 1 11 2 10 3 9 4 8 5 7 6 6 7 5 8 4 9 3 10 2 11 1 12 13 13
REMARK SMILES IDX 14 14 15 15 16 16 17 17 18 18 19 19 20 20 21 21 22 22 23 23
REMARK SMILES IDX 24 24
REMARK H PARENT
REMARK Flexibility Score: inf
ROOT
ATOM      1  C   UNL     1       4.535  -2.590  68.200  1.00  0.00     0.000 C 
ENDROOT
BRANCH   1   2
ATOM      2  C   UNL     1       4.054  -3.216  69.521  1.00  0.00     0.000 C 
BRANCH   2   3
ATOM      3  C   UNL     1       2.969  -2.377  70.223  1.00  0.00     0.000 C 
BRANCH   3   4
ATOM      4  C   UNL     1       3.158  -0.850  70.131  1.00  0.00    -0.000 C 
BRANCH   4   5
ATOM      5  C   UNL     1       1.832  -0.087  69.998  1.00  0.00    -0.000 C 
BRANCH   5   6
ATOM      6  C   UNL     1       2.076   1.366  69.565  1.00  0.00    -0.000 C 
BRANCH   6   7
ATOM      7  C   UNL     1       1.524   1.669  68.161  1.00  0.00    -0.000 C 
BRANCH   7   8
ATOM      8  C   UNL     1       2.590   2.055  67.118  1.00  0.00    -0.000 C 
BRANCH   8   9
ATOM      9  C   UNL     1       4.007   1.542  67.456  1.00  0.00    -0.000 C 
BRANCH   9  10
ATOM     10  C   UNL     1       4.972   2.686  67.813  1.00  0.00    -0.000 C 
BRANCH  10  11
ATOM     11  C   UNL     1       6.046   2.259  68.825  1.00  0.00    -0.003 C 
ATOM     12  C   UNL     1       6.227   0.741  68.891  1.00  0.00     0.004 C 
ENDBRANCH  10  11
ENDBRANCH   9  10
ENDBRANCH   8   9
ENDBRANCH   7   8
ENDBRANCH   6   7
ENDBRANCH   5   6
ENDBRANCH   4   5
ENDBRANCH   3   4
ENDBRANCH   2   3
ENDBRANCH   1   2
BRANCH   1  13
ATOM     13  C   UNL     1       4.382  -3.543  67.003  1.00  0.00     0.000 C 
BRANCH  13  14
ATOM     14  C   UNL     1       3.202  -3.170  66.089  1.00  0.00     0.000 C 
BRANCH  14  15
ATOM     15  C   UNL     1       2.728  -1.724  66.304  1.00  0.00     0.000 C 
BRANCH  15  16
ATOM     16  C   UNL     1       1.238  -1.631  66.666  1.00  0.00     0.000 C 
BRANCH  16  17
ATOM     17  C   UNL     1       0.779  -2.889  67.419  1.00  0.00     0.000 C 
BRANCH  17  18
ATOM     18  C   UNL     1      -0.272  -3.692  66.636  1.00  0.00     0.000 C 
BRANCH  18  19
ATOM     19  C   UNL     1      -1.694  -3.134  66.825  1.00  0.00     0.000 C 
BRANCH  19  20
ATOM     20  C   UNL     1      -2.781  -4.096  66.318  1.00  0.00     0.006 C 
BRANCH  20  21
ATOM     21  C   UNL     1      -2.392  -5.573  66.477  1.00  0.00     0.053 C 
BRANCH  21  22
ATOM     22  C   UNL     1      -2.470  -6.282  65.161  1.00  0.00     0.041 C 
ATOM     23  O   UNL     1      -2.082  -5.706  64.109  1.00  0.00    -0.550 OA
ATOM     24  O   UNL     1      -2.936  -7.590  65.102  1.00  0.00    -0.550 OA
ENDBRANCH  21  22
ENDBRANCH  20  21
ENDBRANCH  19  20
ENDBRANCH  18  19
ENDBRANCH  17  18
ENDBRANCH  16  17
ENDBRANCH  15  16
ENDBRANCH  14  15
ENDBRANCH  13  14
ENDBRANCH   1  13
TORSDOF 20
ENDMDL
MODEL 6
REMARK VINA RESULT:    -3.347      4.208      9.718
REMARK INTER + INTRA:         -10.144
REMARK INTER:                  -8.355
REMARK INTRA:                  -1.790
REMARK UNBOUND:                -2.884
REMARK SMILES CCCCCCCCCCCCCCCCCCCCCC(=O)[O-]
REMARK SMILES IDX 12 1 11 2 10 3 9 4 8 5 7 6 6 7 5 8 4 9 3 10 2 11 1 12 13 13
REMARK SMILES IDX 14 14 15 15 16 16 17 17 18 18 19 19 20 20 21 21 22 22 23 23
REMARK SMILES IDX 24 24
REMARK H PARENT
REMARK Flexibility Score: inf
ROOT
ATOM      1  C   UNL     1      -3.432  -6.615  66.129  1.00  0.00     0.000 C 
ENDROOT
BRANCH   1   2
ATOM      2  C   UNL     1      -4.947  -6.843  66.276  1.00  0.00     0.000 C 
BRANCH   2   3
ATOM      3  C   UNL     1      -5.613  -7.318  64.971  1.00  0.00     0.000 C 
BRANCH   3   4
ATOM      4  C   UNL     1      -6.671  -8.425  65.140  1.00  0.00    -0.000 C 
BRANCH   4   5
ATOM      5  C   UNL     1      -6.060  -9.800  65.448  1.00  0.00    -0.000 C 
BRANCH   5   6
ATOM      6  C   UNL     1      -5.099 -10.235  64.332  1.00  0.00    -0.000 C 
BRANCH   6   7
ATOM      7  C   UNL     1      -3.779 -10.810  64.874  1.00  0.00    -0.000 C 
BRANCH   7   8
ATOM      8  C   UNL     1      -3.875 -11.435  66.279  1.00  0.00    -0.000 C 
BRANCH   8   9
ATOM      9  C   UNL     1      -4.478 -12.856  66.289  1.00  0.00    -0.000 C 
BRANCH   9  10
ATOM     10  C   UNL     1      -4.075 -13.669  65.046  1.00  0.00    -0.000 C 
BRANCH  10  11
ATOM     11  C   UNL     1      -5.281 -14.058  64.177  1.00  0.00    -0.003 C 
ATOM     12  C   UNL     1      -4.930 -14.169  62.692  1.00  0.00     0.004 C 
ENDBRANCH  10  11
ENDBRANCH   9  10
ENDBRANCH   8   9
ENDBRANCH   7   8
ENDBRANCH   6   7
ENDBRANCH   5   6
ENDBRANCH   4   5
ENDBRANCH   3   4
ENDBRANCH   2   3
ENDBRANCH   1   2
BRANCH   1  13
ATOM     13  C   UNL     1      -2.937  -6.837  64.691  1.00  0.00     0.000 C 
BRANCH  13  14
ATOM     14  C   UNL     1      -2.188  -5.620  64.121  1.00  0.00     0.000 C 
BRANCH  14  15
ATOM     15  C   UNL     1      -3.140  -4.477  63.731  1.00  0.00     0.000 C 
BRANCH  15  16
ATOM     16  C   UNL     1      -3.476  -4.466  62.231  1.00  0.00     0.000 C 
BRANCH  16  17
ATOM     17  C   UNL     1      -3.490  -3.030  61.684  1.00  0.00     0.000 C 
BRANCH  17  18
ATOM     18  C   UNL     1      -2.455  -2.817  60.567  1.00  0.00     0.000 C 
BRANCH  18  19
ATOM     19  C   UNL     1      -2.818  -1.632  59.654  1.00  0.00     0.000 C 
BRANCH  19  20
ATOM     20  C   UNL     1      -2.211  -1.761  58.247  1.00  0.00     0.006 C 
BRANCH  20  21
ATOM     21  C   UNL     1      -0.689  -1.962  58.270  1.00  0.00     0.053 C 
BRANCH  21  22
ATOM     22  C   UNL     1       0.016  -0.674  57.980  1.00  0.00     0.041 C 
ATOM     23  O   UNL     1       0.786  -0.585  56.987  1.00  0.00    -0.550 OA
ATOM     24  O   UNL     1      -0.205   0.437  58.786  1.00  0.00    -0.550 OA
ENDBRANCH  21  22
ENDBRANCH  20  21
ENDBRANCH  19  20
ENDBRANCH  18  19
ENDBRANCH  17  18
ENDBRANCH  16  17
ENDBRANCH  15  16
ENDBRANCH  14  15
ENDBRANCH  13  14
ENDBRANCH   1  13
TORSDOF 20
ENDMDL
MODEL 7
REMARK VINA RESULT:    -3.326      4.306      7.742
REMARK INTER + INTRA:         -10.098
REMARK INTER:                  -6.675
REMARK INTRA:                  -3.423
REMARK UNBOUND:                -2.884
REMARK SMILES CCCCCCCCCCCCCCCCCCCCCC(=O)[O-]
REMARK SMILES IDX 12 1 11 2 10 3 9 4 8 5 7 6 6 7 5 8 4 9 3 10 2 11 1 12 13 13
REMARK SMILES IDX 14 14 15 15 16 16 17 17 18 18 19 19 20 20 21 21 22 22 23 23
REMARK SMILES IDX 24 24
REMARK H PARENT
REMARK Flexibility Score: inf
ROOT
ATOM      1  C   UNL     1      -4.195  -9.383  64.802  1.00  0.00     0.000 C 
ENDROOT
BRANCH   1   2
ATOM      2  C   UNL     1      -5.688  -9.422  65.170  1.00  0.00     0.000 C 
BRANCH   2   3
ATOM      3  C   UNL     1      -6.457  -8.173  64.697  1.00  0.00     0.000 C 
BRANCH   3   4
ATOM      4  C   UNL     1      -6.513  -7.013  65.711  1.00  0.00    -0.000 C 
BRANCH   4   5
ATOM      5  C   UNL     1      -6.310  -5.637  65.061  1.00  0.00    -0.000 C 
BRANCH   5   6
ATOM      6  C   UNL     1      -6.281  -5.752  63.530  1.00  0.00    -0.000 C 
BRANCH   6   7
ATOM      7  C   UNL     1      -5.002  -5.159  62.914  1.00  0.00    -0.000 C 
BRANCH   7   8
ATOM      8  C   UNL     1      -3.692  -5.826  63.376  1.00  0.00    -0.000 C 
BRANCH   8   9
ATOM      9  C   UNL     1      -2.621  -4.826  63.861  1.00  0.00    -0.000 C 
BRANCH   9  10
ATOM     10  C   UNL     1      -2.415  -4.885  65.384  1.00  0.00    -0.000 C 
BRANCH  10  11
ATOM     11  C   UNL     1      -2.261  -6.322  65.905  1.00  0.00    -0.003 C 
ATOM     12  C   UNL     1      -3.165  -6.617  67.104  1.00  0.00     0.004 C 
ENDBRANCH  10  11
ENDBRANCH   9  10
ENDBRANCH   8   9
ENDBRANCH   7   8
ENDBRANCH   6   7
ENDBRANCH   5   6
ENDBRANCH   4   5
ENDBRANCH   3   4
ENDBRANCH   2   3
ENDBRANCH   1   2
BRANCH   1  13
ATOM     13  C   UNL     1      -3.650 -10.760  64.391  1.00  0.00     0.000 C 
BRANCH  13  14
ATOM     14  C   UNL     1      -4.763 -11.759  64.029  1.00  0.00     0.000 C 
BRANCH  14  15
ATOM     15  C   UNL     1      -4.334 -13.219  64.247  1.00  0.00     0.000 C 
BRANCH  15  16
ATOM     16  C   UNL     1      -5.378 -14.039  65.020  1.00  0.00     0.000 C 
BRANCH  16  17
ATOM     17  C   UNL     1      -4.766 -14.644  66.293  1.00  0.00     0.000 C 
BRANCH  17  18
ATOM     18  C   UNL     1      -4.235 -13.571  67.257  1.00  0.00     0.000 C 
BRANCH  18  19
ATOM     19  C   UNL     1      -5.351 -12.641  67.766  1.00  0.00     0.000 C 
BRANCH  19  20
ATOM     20  C   UNL     1      -4.815 -11.287  68.260  1.00  0.00     0.006 C 
BRANCH  20  21
ATOM     21  C   UNL     1      -3.310 -11.116  68.013  1.00  0.00     0.053 C 
BRANCH  21  22
ATOM     22  C   UNL     1      -2.580 -10.946  69.309  1.00  0.00     0.041 C 
ATOM     23  O   UNL     1      -2.365 -11.943  70.048  1.00  0.00    -0.550 OA
ATOM     24  O   UNL     1      -2.106  -9.694  69.683  1.00  0.00    -0.550 OA
ENDBRANCH  21  22
ENDBRANCH  20  21
ENDBRANCH  19  20
ENDBRANCH  18  19
ENDBRANCH  17  18
ENDBRANCH  16  17
ENDBRANCH  15  16
ENDBRANCH  14  15
ENDBRANCH  13  14
ENDBRANCH   1  13
TORSDOF 20
ENDMDL
MODEL 8
REMARK VINA RESULT:    -3.318      4.559      9.388
REMARK INTER + INTRA:         -10.082
REMARK INTER:                  -5.991
REMARK INTRA:                  -4.091
REMARK UNBOUND:                -2.884
REMARK SMILES CCCCCCCCCCCCCCCCCCCCCC(=O)[O-]
REMARK SMILES IDX 12 1 11 2 10 3 9 4 8 5 7 6 6 7 5 8 4 9 3 10 2 11 1 12 13 13
REMARK SMILES IDX 14 14 15 15 16 16 17 17 18 18 19 19 20 20 21 21 22 22 23 23
REMARK SMILES IDX 24 24
REMARK H PARENT
REMARK Flexibility Score: inf
ROOT
ATOM      1  C   UNL     1      -5.731  -9.725  64.383  1.00  0.00     0.000 C 
ENDROOT
BRANCH   1   2
ATOM      2  C   UNL     1      -4.249  -9.699  64.799  1.00  0.00     0.000 C 
BRANCH   2   3
ATOM      3  C   UNL     1      -3.559 -11.068  64.650  1.00  0.00     0.000 C 
BRANCH   3   4
ATOM      4  C   UNL     1      -4.510 -12.279  64.580  1.00  0.00    -0.000 C 
BRANCH   4   5
ATOM      5  C   UNL     1      -4.042 -13.462  65.440  1.00  0.00    -0.000 C 
BRANCH   5   6
ATOM      6  C   UNL     1      -5.228 -14.122  66.157  1.00  0.00    -0.000 C 
BRANCH   6   7
ATOM      7  C   UNL     1      -6.460 -13.204  66.240  1.00  0.00    -0.000 C 
BRANCH   7   8
ATOM      8  C   UNL     1      -6.730 -12.610  67.636  1.00  0.00    -0.000 C 
BRANCH   8   9
ATOM      9  C   UNL     1      -6.062 -11.238  67.869  1.00  0.00    -0.000 C 
BRANCH   9  10
ATOM     10  C   UNL     1      -4.919 -11.313  68.897  1.00  0.00    -0.000 C 
BRANCH  10  11
ATOM     11  C   UNL     1      -3.547 -10.998  68.279  1.00  0.00    -0.003 C 
ATOM     12  C   UNL     1      -2.511 -10.575  69.323  1.00  0.00     0.004 C 
ENDBRANCH  10  11
ENDBRANCH   9  10
ENDBRANCH   8   9
ENDBRANCH   7   8
ENDBRANCH   6   7
ENDBRANCH   5   6
ENDBRANCH   4   5
ENDBRANCH   3   4
ENDBRANCH   2   3
ENDBRANCH   1   2
BRANCH   1  13
ATOM     13  C   UNL     1      -6.615  -8.855  65.289  1.00  0.00     0.000 C 
BRANCH  13  14
ATOM     14  C   UNL     1      -6.514  -7.354  64.962  1.00  0.00     0.000 C 
BRANCH  14  15
ATOM     15  C   UNL     1      -6.027  -6.525  66.162  1.00  0.00     0.000 C 
BRANCH  15  16
ATOM     16  C   UNL     1      -5.657  -7.391  67.376  1.00  0.00     0.000 C 
BRANCH  16  17
ATOM     17  C   UNL     1      -4.142  -7.360  67.628  1.00  0.00     0.000 C 
BRANCH  17  18
ATOM     18  C   UNL     1      -3.466  -6.133  66.995  1.00  0.00     0.000 C 
BRANCH  18  19
ATOM     19  C   UNL     1      -2.345  -6.524  66.016  1.00  0.00     0.000 C 
BRANCH  19  20
ATOM     20  C   UNL     1      -2.334  -5.653  64.749  1.00  0.00     0.006 C 
BRANCH  20  21
ATOM     21  C   UNL     1      -3.214  -6.220  63.628  1.00  0.00     0.053 C 
BRANCH  21  22
ATOM     22  C   UNL     1      -4.091  -5.150  63.055  1.00  0.00     0.041 C 
ATOM     23  O   UNL     1      -4.584  -4.268  63.807  1.00  0.00    -0.550 OA
ATOM     24  O   UNL     1      -4.332  -5.105  61.687  1.00  0.00    -0.550 OA
ENDBRANCH  21  22
ENDBRANCH  20  21
ENDBRANCH  19  20
ENDBRANCH  18  19
ENDBRANCH  17  18
ENDBRANCH  16  17
ENDBRANCH  15  16
ENDBRANCH  14  15
ENDBRANCH  13  14
ENDBRANCH   1  13
TORSDOF 20
ENDMDL
MODEL 9
REMARK VINA RESULT:    -3.274      5.264      9.625
REMARK INTER + INTRA:          -9.986
REMARK INTER:                  -5.921
REMARK INTRA:                  -4.066
REMARK UNBOUND:                -2.884
REMARK SMILES CCCCCCCCCCCCCCCCCCCCCC(=O)[O-]
REMARK SMILES IDX 12 1 11 2 10 3 9 4 8 5 7 6 6 7 5 8 4 9 3 10 2 11 1 12 13 13
REMARK SMILES IDX 14 14 15 15 16 16 17 17 18 18 19 19 20 20 21 21 22 22 23 23
REMARK SMILES IDX 24 24
REMARK H PARENT
REMARK Flexibility Score: inf
ROOT
ATOM      1  C   UNL     1      -4.018 -11.628  64.504  1.00  0.00     0.000 C 
ENDROOT
BRANCH   1   2
ATOM      2  C   UNL     1      -4.270 -13.028  63.917  1.00  0.00     0.000 C 
BRANCH   2   3
ATOM      3  C   UNL     1      -4.610 -14.078  64.991  1.00  0.00     0.000 C 
BRANCH   3   4
ATOM      4  C   UNL     1      -6.087 -14.113  65.431  1.00  0.00    -0.000 C 
BRANCH   4   5
ATOM      5  C   UNL     1      -6.283 -13.746  66.908  1.00  0.00    -0.000 C 
BRANCH   5   6
ATOM      6  C   UNL     1      -6.819 -12.314  67.051  1.00  0.00    -0.000 C 
BRANCH   6   7
ATOM      7  C   UNL     1      -5.924 -11.429  67.936  1.00  0.00    -0.000 C 
BRANCH   7   8
ATOM      8  C   UNL     1      -4.472 -11.922  68.085  1.00  0.00    -0.000 C 
BRANCH   8   9
ATOM      9  C   UNL     1      -3.431 -10.784  68.149  1.00  0.00    -0.000 C 
BRANCH   9  10
ATOM     10  C   UNL     1      -3.354 -10.142  69.545  1.00  0.00    -0.000 C 
BRANCH  10  11
ATOM     11  C   UNL     1      -2.276  -9.051  69.635  1.00  0.00    -0.003 C 
ATOM     12  C   UNL     1      -2.667  -7.908  70.575  1.00  0.00     0.004 C 
ENDBRANCH  10  11
ENDBRANCH   9  10
ENDBRANCH   8   9
ENDBRANCH   7   8
ENDBRANCH   6   7
ENDBRANCH   5   6
ENDBRANCH   4   5
ENDBRANCH   3   4
ENDBRANCH   2   3
ENDBRANCH   1   2
BRANCH   1  13
ATOM     13  C   UNL     1      -5.203 -10.673  64.289  1.00  0.00     0.000 C 
BRANCH  13  14
ATOM     14  C   UNL     1      -5.011  -9.314  64.984  1.00  0.00     0.000 C 
BRANCH  14  15
ATOM     15  C   UNL     1      -6.333  -8.547  65.147  1.00  0.00     0.000 C 
BRANCH  15  16
ATOM     16  C   UNL     1      -6.538  -8.006  66.570  1.00  0.00     0.000 C 
BRANCH  16  17
ATOM     17  C   UNL     1      -5.188  -7.752  67.259  1.00  0.00     0.000 C 
BRANCH  17  18
ATOM     18  C   UNL     1      -5.077  -6.329  67.828  1.00  0.00     0.000 C 
BRANCH  18  19
ATOM     19  C   UNL     1      -3.647  -5.770  67.730  1.00  0.00     0.000 C 
BRANCH  19  20
ATOM     20  C   UNL     1      -2.741  -6.617  66.821  1.00  0.00     0.006 C 
BRANCH  20  21
ATOM     21  C   UNL     1      -2.281  -5.862  65.566  1.00  0.00     0.053 C 
BRANCH  21  22
ATOM     22  C   UNL     1      -3.143  -6.216  64.394  1.00  0.00     0.041 C 
ATOM     23  O   UNL     1      -2.713  -7.001  63.508  1.00  0.00    -0.550 OA
ATOM     24  O   UNL     1      -4.433  -5.707  64.300  1.00  0.00    -0.550 OA
ENDBRANCH  21  22
ENDBRANCH  20  21
ENDBRANCH  19  20
ENDBRANCH  18  19
ENDBRANCH  17  18
ENDBRANCH  16  17
ENDBRANCH  15  16
ENDBRANCH  14  15
ENDBRANCH  13  14
ENDBRANCH   1  13
TORSDOF 20
ENDMDL
