MODEL 1
REMARK VINA RESULT:    -5.109      0.000      0.000
REMARK INTER + INTRA:          -5.109
REMARK INTER:                  -5.109
REMARK INTRA:                   0.000
REMARK UNBOUND:                 0.000
REMARK SMILES CC1=CC[C@]2(C)CCCC(C)(C)[C@]23C[C@H]13
REMARK SMILES IDX 1 1 2 2 3 3 4 4 5 5 7 6 8 7 9 8 10 9 13 10 15 11 14 12 11 13
REMARK SMILES IDX 12 14 6 15
REMARK H PARENT
REMARK Flexibility Score: inf
ROOT
ATOM      1  C   UNL     1       1.126  11.002  13.772  1.00  0.00     0.039 C 
ATOM      2  C   UNL     1       1.301  12.480  13.980  1.00  0.00    -0.074 C 
ATOM      3  C   UNL     1       1.156  13.314  12.928  1.00  0.00    -0.027 C 
ATOM      4  C   UNL     1       1.328  14.807  13.063  1.00  0.00     0.034 C 
ATOM      5  C   UNL     1       0.834  15.303  14.455  1.00  0.00    -0.022 C 
ATOM      6  C   UNL     1       1.196  16.800  14.610  1.00  0.00     0.008 C 
ATOM      7  C   UNL     1       0.888  17.359  16.010  1.00  0.00     0.001 C 
ATOM      8  C   UNL     1       1.583  16.563  17.126  1.00  0.00     0.007 C 
ATOM      9  C   UNL     1       1.298  15.034  17.114  1.00  0.00    -0.029 C 
ATOM     10  C   UNL     1       1.521  14.503  15.635  1.00  0.00    -0.012 C 
ATOM     11  C   UNL     1       1.637  12.993  15.372  1.00  0.00     0.022 C 
ATOM     12  C   UNL     1       2.905  13.844  15.381  1.00  0.00     0.017 C 
ATOM     13  C   UNL     1      -0.146  14.740  17.594  1.00  0.00     0.012 C 
ATOM     14  C   UNL     1       2.241  14.403  18.182  1.00  0.00     0.012 C 
ATOM     15  C   UNL     1      -0.715  15.118  14.462  1.00  0.00     0.012 C 
ENDROOT
TORSDOF 0
ENDMDL
MODEL 2
REMARK VINA RESULT:    -5.095      1.432      3.830
REMARK INTER + INTRA:          -5.095
REMARK INTER:                  -5.095
REMARK INTRA:                   0.000
REMARK UNBOUND:                 0.000
REMARK SMILES CC1=CC[C@]2(C)CCCC(C)(C)[C@]23C[C@H]13
REMARK SMILES IDX 1 1 2 2 3 3 4 4 5 5 7 6 8 7 9 8 10 9 13 10 15 11 14 12 11 13
REMARK SMILES IDX 12 14 6 15
REMARK H PARENT
REMARK Flexibility Score: inf
ROOT
ATOM      1  C   UNL     1      -0.376  12.375  19.319  1.00  0.00     0.039 C 
ATOM      2  C   UNL     1      -0.385  13.344  18.170  1.00  0.00    -0.074 C 
ATOM      3  C   UNL     1      -0.930  14.567  18.345  1.00  0.00    -0.027 C 
ATOM      4  C   UNL     1      -0.982  15.584  17.232  1.00  0.00     0.034 C 
ATOM      5  C   UNL     1       0.272  15.474  16.315  1.00  0.00    -0.022 C 
ATOM      6  C   UNL     1       0.084  16.410  15.096  1.00  0.00     0.008 C 
ATOM      7  C   UNL     1       1.199  16.270  14.044  1.00  0.00     0.001 C 
ATOM      8  C   UNL     1       1.355  14.826  13.541  1.00  0.00     0.007 C 
ATOM      9  C   UNL     1       1.572  13.765  14.657  1.00  0.00    -0.029 C 
ATOM     10  C   UNL     1       0.475  13.999  15.781  1.00  0.00    -0.012 C 
ATOM     11  C   UNL     1       0.222  12.917  16.842  1.00  0.00     0.022 C 
ATOM     12  C   UNL     1      -0.763  13.065  15.685  1.00  0.00     0.017 C 
ATOM     13  C   UNL     1       3.000  13.875  15.250  1.00  0.00     0.012 C 
ATOM     14  C   UNL     1       1.504  12.374  13.960  1.00  0.00     0.012 C 
ATOM     15  C   UNL     1       1.487  15.945  17.174  1.00  0.00     0.012 C 
ENDROOT
TORSDOF 0
ENDMDL
MODEL 3
REMARK VINA RESULT:    -5.063      1.281      3.219
REMARK INTER + INTRA:          -5.063
REMARK INTER:                  -5.063
REMARK INTRA:                   0.000
REMARK UNBOUND:                 0.000
REMARK SMILES CC1=CC[C@]2(C)CCCC(C)(C)[C@]23C[C@H]13
REMARK SMILES IDX 1 1 2 2 3 3 4 4 5 5 7 6 8 7 9 8 10 9 13 10 15 11 14 12 11 13
REMARK SMILES IDX 12 14 6 15
REMARK H PARENT
REMARK Flexibility Score: inf
ROOT
ATOM      1  C   UNL     1       4.125  13.875  13.375  1.00  0.00     0.039 C 
ATOM      2  C   UNL     1       2.821  13.968  14.116  1.00  0.00    -0.074 C 
ATOM      3  C   UNL     1       2.382  12.897  14.812  1.00  0.00    -0.027 C 
ATOM      4  C   UNL     1       1.078  12.918  15.570  1.00  0.00     0.034 C 
ATOM      5  C   UNL     1       0.797  14.331  16.162  1.00  0.00    -0.022 C 
ATOM      6  C   UNL     1      -0.626  14.346  16.771  1.00  0.00     0.008 C 
ATOM      7  C   UNL     1      -1.068  15.739  17.254  1.00  0.00     0.001 C 
ATOM      8  C   UNL     1      -0.994  16.797  16.141  1.00  0.00     0.007 C 
ATOM      9  C   UNL     1       0.390  16.915  15.442  1.00  0.00    -0.029 C 
ATOM     10  C   UNL     1       0.871  15.453  15.049  1.00  0.00    -0.012 C 
ATOM     11  C   UNL     1       2.034  15.269  14.062  1.00  0.00     0.022 C 
ATOM     12  C   UNL     1       0.604  15.055  13.571  1.00  0.00     0.017 C 
ATOM     13  C   UNL     1       1.420  17.603  16.374  1.00  0.00     0.012 C 
ATOM     14  C   UNL     1       0.193  17.881  14.236  1.00  0.00     0.012 C 
ATOM     15  C   UNL     1       1.864  14.559  17.278  1.00  0.00     0.012 C 
ENDROOT
TORSDOF 0
ENDMDL
MODEL 4
REMARK VINA RESULT:    -4.943      1.476      4.102
REMARK INTER + INTRA:          -4.943
REMARK INTER:                  -4.943
REMARK INTRA:                   0.000
REMARK UNBOUND:                 0.000
REMARK SMILES CC1=CC[C@]2(C)CCCC(C)(C)[C@]23C[C@H]13
REMARK SMILES IDX 1 1 2 2 3 3 4 4 5 5 7 6 8 7 9 8 10 9 13 10 15 11 14 12 11 13
REMARK SMILES IDX 12 14 6 15
REMARK H PARENT
REMARK Flexibility Score: inf
ROOT
ATOM      1  C   UNL     1       2.458  18.383  17.497  1.00  0.00     0.039 C 
ATOM      2  C   UNL     1       1.475  17.526  16.750  1.00  0.00    -0.074 C 
ATOM      3  C   UNL     1       0.780  18.064  15.724  1.00  0.00    -0.027 C 
ATOM      4  C   UNL     1      -0.230  17.265  14.938  1.00  0.00     0.034 C 
ATOM      5  C   UNL     1       0.211  15.776  14.813  1.00  0.00    -0.022 C 
ATOM      6  C   UNL     1      -0.936  14.968  14.158  1.00  0.00     0.008 C 
ATOM      7  C   UNL     1      -0.668  13.453  14.120  1.00  0.00     0.001 C 
ATOM      8  C   UNL     1      -0.385  12.871  15.515  1.00  0.00     0.007 C 
ATOM      9  C   UNL     1       0.764  13.572  16.295  1.00  0.00    -0.029 C 
ATOM     10  C   UNL     1       0.521  15.140  16.228  1.00  0.00    -0.012 C 
ATOM     11  C   UNL     1       1.293  16.076  17.171  1.00  0.00     0.022 C 
ATOM     12  C   UNL     1      -0.165  15.746  17.483  1.00  0.00     0.017 C 
ATOM     13  C   UNL     1       2.143  13.201  15.692  1.00  0.00     0.012 C 
ATOM     14  C   UNL     1       0.750  12.972  17.732  1.00  0.00     0.012 C 
ATOM     15  C   UNL     1       1.471  15.768  13.892  1.00  0.00     0.012 C 
ENDROOT
TORSDOF 0
ENDMDL
MODEL 5
REMARK VINA RESULT:    -4.841      1.503      3.273
REMARK INTER + INTRA:          -4.841
REMARK INTER:                  -4.841
REMARK INTRA:                   0.000
REMARK UNBOUND:                 0.000
REMARK SMILES CC1=CC[C@]2(C)CCCC(C)(C)[C@]23C[C@H]13
REMARK SMILES IDX 1 1 2 2 3 3 4 4 5 5 7 6 8 7 9 8 10 9 13 10 15 11 14 12 11 13
REMARK SMILES IDX 12 14 6 15
REMARK H PARENT
REMARK Flexibility Score: inf
ROOT
ATOM      1  C   UNL     1       0.062  12.809  17.415  1.00  0.00     0.039 C 
ATOM      2  C   UNL     1       0.807  13.640  16.408  1.00  0.00    -0.074 C 
ATOM      3  C   UNL     1       1.848  13.093  15.744  1.00  0.00    -0.027 C 
ATOM      4  C   UNL     1       2.646  13.873  14.729  1.00  0.00     0.034 C 
ATOM      5  C   UNL     1       1.739  14.875  13.955  1.00  0.00    -0.022 C 
ATOM      6  C   UNL     1       2.631  15.770  13.060  1.00  0.00     0.008 C 
ATOM      7  C   UNL     1       1.854  16.899  12.360  1.00  0.00     0.001 C 
ATOM      8  C   UNL     1       1.094  17.793  13.354  1.00  0.00     0.007 C 
ATOM      9  C   UNL     1       0.135  17.034  14.315  1.00  0.00    -0.029 C 
ATOM     10  C   UNL     1       0.931  15.811  14.942  1.00  0.00    -0.012 C 
ATOM     11  C   UNL     1       0.365  15.076  16.167  1.00  0.00     0.022 C 
ATOM     12  C   UNL     1       1.508  16.070  16.362  1.00  0.00     0.017 C 
ATOM     13  C   UNL     1      -1.125  16.542  13.559  1.00  0.00     0.012 C 
ATOM     14  C   UNL     1      -0.369  18.082  15.351  1.00  0.00     0.012 C 
ATOM     15  C   UNL     1       0.784  14.012  13.074  1.00  0.00     0.012 C 
ENDROOT
TORSDOF 0
ENDMDL
MODEL 6
REMARK VINA RESULT:    -4.812      1.202      4.017
REMARK INTER + INTRA:          -4.812
REMARK INTER:                  -4.812
REMARK INTRA:                   0.000
REMARK UNBOUND:                 0.000
REMARK SMILES CC1=CC[C@]2(C)CCCC(C)(C)[C@]23C[C@H]13
REMARK SMILES IDX 1 1 2 2 3 3 4 4 5 5 7 6 8 7 9 8 10 9 13 10 15 11 14 12 11 13
REMARK SMILES IDX 12 14 6 15
REMARK H PARENT
REMARK Flexibility Score: inf
ROOT
ATOM      1  C   UNL     1       0.460  18.002  13.668  1.00  0.00     0.039 C 
ATOM      2  C   UNL     1       0.840  17.069  14.783  1.00  0.00    -0.074 C 
ATOM      3  C   UNL     1       1.155  17.581  15.992  1.00  0.00    -0.027 C 
ATOM      4  C   UNL     1       1.555  16.703  17.152  1.00  0.00     0.034 C 
ATOM      5  C   UNL     1       0.789  15.348  17.117  1.00  0.00    -0.022 C 
ATOM      6  C   UNL     1       1.363  14.420  18.216  1.00  0.00     0.008 C 
ATOM      7  C   UNL     1       0.781  12.996  18.176  1.00  0.00     0.001 C 
ATOM      8  C   UNL     1       0.972  12.321  16.808  1.00  0.00     0.007 C 
ATOM      9  C   UNL     1       0.424  13.130  15.598  1.00  0.00    -0.029 C 
ATOM     10  C   UNL     1       0.953  14.622  15.721  1.00  0.00    -0.012 C 
ATOM     11  C   UNL     1       0.857  15.571  14.516  1.00  0.00     0.022 C 
ATOM     12  C   UNL     1       2.206  14.941  14.858  1.00  0.00     0.017 C 
ATOM     13  C   UNL     1      -1.125  13.095  15.569  1.00  0.00     0.012 C 
ATOM     14  C   UNL     1       0.892  12.377  14.317  1.00  0.00     0.012 C 
ATOM     15  C   UNL     1      -0.705  15.680  17.418  1.00  0.00     0.012 C 
ENDROOT
TORSDOF 0
ENDMDL
MODEL 7
REMARK VINA RESULT:    -4.681      1.356      4.554
REMARK INTER + INTRA:          -4.681
REMARK INTER:                  -4.681
REMARK INTRA:                   0.000
REMARK UNBOUND:                 0.000
REMARK SMILES CC1=CC[C@]2(C)CCCC(C)(C)[C@]23C[C@H]13
REMARK SMILES IDX 1 1 2 2 3 3 4 4 5 5 7 6 8 7 9 8 10 9 13 10 15 11 14 12 11 13
REMARK SMILES IDX 12 14 6 15
REMARK H PARENT
REMARK Flexibility Score: inf
ROOT
ATOM      1  C   UNL     1       0.853  16.514  16.919  1.00  0.00     0.039 C 
ATOM      2  C   UNL     1       1.003  15.159  16.286  1.00  0.00    -0.074 C 
ATOM      3  C   UNL     1       0.256  14.132  16.744  1.00  0.00    -0.027 C 
ATOM      4  C   UNL     1       0.364  12.745  16.162  1.00  0.00     0.034 C 
ATOM      5  C   UNL     1       0.660  12.801  14.634  1.00  0.00    -0.022 C 
ATOM      6  C   UNL     1       0.938  11.365  14.125  1.00  0.00     0.008 C 
ATOM      7  C   UNL     1       1.389  11.318  12.654  1.00  0.00     0.001 C 
ATOM      8  C   UNL     1       2.630  12.185  12.392  1.00  0.00     0.007 C 
ATOM      9  C   UNL     1       2.496  13.670  12.836  1.00  0.00    -0.029 C 
ATOM     10  C   UNL     1       1.928  13.692  14.319  1.00  0.00    -0.012 C 
ATOM     11  C   UNL     1       1.995  14.986  15.146  1.00  0.00     0.022 C 
ATOM     12  C   UNL     1       3.004  13.874  15.425  1.00  0.00     0.017 C 
ATOM     13  C   UNL     1       1.561  14.448  11.876  1.00  0.00     0.012 C 
ATOM     14  C   UNL     1       3.907  14.308  12.670  1.00  0.00     0.012 C 
ATOM     15  C   UNL     1      -0.626  13.373  13.959  1.00  0.00     0.012 C 
ENDROOT
TORSDOF 0
ENDMDL
MODEL 8
REMARK VINA RESULT:    -4.430      1.379      4.219
REMARK INTER + INTRA:          -4.430
REMARK INTER:                  -4.430
REMARK INTRA:                   0.000
REMARK UNBOUND:                 0.000
REMARK SMILES CC1=CC[C@]2(C)CCCC(C)(C)[C@]23C[C@H]13
REMARK SMILES IDX 1 1 2 2 3 3 4 4 5 5 7 6 8 7 9 8 10 9 13 10 15 11 14 12 11 13
REMARK SMILES IDX 12 14 6 15
REMARK H PARENT
REMARK Flexibility Score: inf
ROOT
ATOM      1  C   UNL     1       0.602  12.774  18.959  1.00  0.00     0.039 C 
ATOM      2  C   UNL     1       0.667  13.441  17.614  1.00  0.00    -0.074 C 
ATOM      3  C   UNL     1       1.291  14.633  17.499  1.00  0.00    -0.027 C 
ATOM      4  C   UNL     1       1.383  15.362  16.182  1.00  0.00     0.034 C 
ATOM      5  C   UNL     1       1.511  14.361  14.996  1.00  0.00    -0.022 C 
ATOM      6  C   UNL     1       1.421  15.147  13.665  1.00  0.00     0.008 C 
ATOM      7  C   UNL     1       1.386  14.239  12.423  1.00  0.00     0.001 C 
ATOM      8  C   UNL     1       0.239  13.218  12.474  1.00  0.00     0.007 C 
ATOM      9  C   UNL     1       0.206  12.333  13.752  1.00  0.00    -0.029 C 
ATOM     10  C   UNL     1       0.350  13.285  15.015  1.00  0.00    -0.012 C 
ATOM     11  C   UNL     1       0.026  12.751  16.419  1.00  0.00     0.022 C 
ATOM     12  C   UNL     1      -0.989  13.648  15.714  1.00  0.00     0.017 C 
ATOM     13  C   UNL     1       1.344  11.282  13.722  1.00  0.00     0.012 C 
ATOM     14  C   UNL     1      -1.125  11.526  13.695  1.00  0.00     0.012 C 
ATOM     15  C   UNL     1       2.914  13.693  15.135  1.00  0.00     0.012 C 
ENDROOT
TORSDOF 0
ENDMDL
MODEL 9
REMARK VINA RESULT:    -4.357      1.167      3.266
REMARK INTER + INTRA:          -4.357
REMARK INTER:                  -4.357
REMARK INTRA:                   0.000
REMARK UNBOUND:                 0.000
REMARK SMILES CC1=CC[C@]2(C)CCCC(C)(C)[C@]23C[C@H]13
REMARK SMILES IDX 1 1 2 2 3 3 4 4 5 5 7 6 8 7 9 8 10 9 13 10 15 11 14 12 11 13
REMARK SMILES IDX 12 14 6 15
REMARK H PARENT
REMARK Flexibility Score: inf
ROOT
ATOM      1  C   UNL     1       0.731  11.267  11.984  1.00  0.00     0.039 C 
ATOM      2  C   UNL     1       0.712  12.174  13.182  1.00  0.00    -0.074 C 
ATOM      3  C   UNL     1       1.084  11.686  14.384  1.00  0.00    -0.027 C 
ATOM      4  C   UNL     1       1.077  12.538  15.629  1.00  0.00     0.034 C 
ATOM      5  C   UNL     1       1.455  14.012  15.299  1.00  0.00    -0.022 C 
ATOM      6  C   UNL     1       1.260  14.875  16.569  1.00  0.00     0.008 C 
ATOM      7  C   UNL     1       1.462  16.381  16.320  1.00  0.00     0.001 C 
ATOM      8  C   UNL     1       0.546  16.920  15.209  1.00  0.00     0.007 C 
ATOM      9  C   UNL     1       0.644  16.161  13.855  1.00  0.00    -0.029 C 
ATOM     10  C   UNL     1       0.539  14.605  14.153  1.00  0.00    -0.012 C 
ATOM     11  C   UNL     1       0.275  13.621  13.003  1.00  0.00     0.022 C 
ATOM     12  C   UNL     1      -0.873  13.994  13.938  1.00  0.00     0.017 C 
ATOM     13  C   UNL     1       1.972  16.496  13.132  1.00  0.00     0.012 C 
ATOM     14  C   UNL     1      -0.491  16.728  12.950  1.00  0.00     0.012 C 
ATOM     15  C   UNL     1       2.958  13.997  14.882  1.00  0.00     0.012 C 
ENDROOT
TORSDOF 0
ENDMDL
