MODEL 1
REMARK VINA RESULT:    -3.627      0.000      0.000
REMARK INTER + INTRA:          -6.930
REMARK INTER:                  -6.172
REMARK INTRA:                  -0.758
REMARK UNBOUND:                -0.758
REMARK SMILES CCCCCCCCCCCCCC(=O)[O-]
REMARK SMILES IDX 8 1 9 2 10 3 11 4 12 5 13 6 14 7 15 8 16 9 7 10 6 11 5 12
REMARK SMILES IDX 4 13 3 14 2 15 1 16
REMARK H PARENT
REMARK Flexibility Score: inf
ROOT
ATOM      1  C   UNL     1     -29.474   3.642 -37.670  1.00  0.00     0.000 C 
ENDROOT
BRANCH   1   2
ATOM      2  C   UNL     1     -28.133   4.138 -38.235  1.00  0.00     0.000 C 
BRANCH   2   3
ATOM      3  C   UNL     1     -27.023   4.174 -37.171  1.00  0.00     0.000 C 
BRANCH   3   4
ATOM      4  C   UNL     1     -26.778   5.588 -36.620  1.00  0.00     0.000 C 
BRANCH   4   5
ATOM      5  C   UNL     1     -26.441   5.592 -35.122  1.00  0.00     0.006 C 
BRANCH   5   6
ATOM      6  C   UNL     1     -25.574   4.386 -34.751  1.00  0.00     0.053 C 
BRANCH   6   7
ATOM      7  C   UNL     1     -24.611   4.744 -33.664  1.00  0.00     0.041 C 
ATOM      8  O   UNL     1     -25.010   5.359 -32.641  1.00  0.00    -0.550 OA
ATOM      9  O   UNL     1     -23.262   4.444 -33.805  1.00  0.00    -0.550 OA
ENDBRANCH   6   7
ENDBRANCH   5   6
ENDBRANCH   4   5
ENDBRANCH   3   4
ENDBRANCH   2   3
ENDBRANCH   1   2
BRANCH   1  10
ATOM     10  C   UNL     1     -30.686   4.201 -38.439  1.00  0.00     0.000 C 
BRANCH  10  11
ATOM     11  C   UNL     1     -31.026   3.370 -39.687  1.00  0.00    -0.000 C 
BRANCH  11  12
ATOM     12  C   UNL     1     -32.502   2.943 -39.727  1.00  0.00    -0.000 C 
BRANCH  12  13
ATOM     13  C   UNL     1     -32.902   2.236 -38.423  1.00  0.00    -0.000 C 
BRANCH  13  14
ATOM     14  C   UNL     1     -33.105   0.724 -38.607  1.00  0.00    -0.000 C 
BRANCH  14  15
ATOM     15  C   UNL     1     -31.969  -0.105 -37.990  1.00  0.00    -0.003 C 
ATOM     16  C   UNL     1     -31.089  -0.723 -39.074  1.00  0.00     0.004 C 
ENDBRANCH  14  15
ENDBRANCH  13  14
ENDBRANCH  12  13
ENDBRANCH  11  12
ENDBRANCH  10  11
ENDBRANCH   1  10
TORSDOF 12
ENDMDL
MODEL 2
REMARK VINA RESULT:    -3.564      6.455     10.442
REMARK INTER + INTRA:          -6.823
REMARK INTER:                  -5.070
REMARK INTRA:                  -1.754
REMARK UNBOUND:                -0.758
REMARK SMILES CCCCCCCCCCCCCC(=O)[O-]
REMARK SMILES IDX 8 1 9 2 10 3 11 4 12 5 13 6 14 7 15 8 16 9 7 10 6 11 5 12
REMARK SMILES IDX 4 13 3 14 2 15 1 16
REMARK H PARENT
REMARK Flexibility Score: inf
ROOT
ATOM      1  C   UNL     1     -25.381   3.133 -28.318  1.00  0.00     0.000 C 
ENDROOT
BRANCH   1   2
ATOM      2  C   UNL     1     -25.218   3.314 -29.836  1.00  0.00     0.000 C 
BRANCH   2   3
ATOM      3  C   UNL     1     -23.744   3.434 -30.259  1.00  0.00     0.000 C 
BRANCH   3   4
ATOM      4  C   UNL     1     -23.365   4.862 -30.684  1.00  0.00     0.000 C 
BRANCH   4   5
ATOM      5  C   UNL     1     -24.465   5.549 -31.506  1.00  0.00     0.006 C 
BRANCH   5   6
ATOM      6  C   UNL     1     -24.312   5.234 -32.997  1.00  0.00     0.053 C 
BRANCH   6   7
ATOM      7  C   UNL     1     -25.633   4.868 -33.595  1.00  0.00     0.041 C 
ATOM      8  O   UNL     1     -25.748   4.730 -34.841  1.00  0.00    -0.550 OA
ATOM      9  O   UNL     1     -26.750   4.729 -32.781  1.00  0.00    -0.550 OA
ENDBRANCH   6   7
ENDBRANCH   5   6
ENDBRANCH   4   5
ENDBRANCH   3   4
ENDBRANCH   2   3
ENDBRANCH   1   2
BRANCH   1  10
ATOM     10  C   UNL     1     -26.103   4.320 -27.653  1.00  0.00     0.000 C 
BRANCH  10  11
ATOM     11  C   UNL     1     -25.218   5.049 -26.628  1.00  0.00    -0.000 C 
BRANCH  11  12
ATOM     12  C   UNL     1     -24.125   5.901 -27.292  1.00  0.00    -0.000 C 
BRANCH  12  13
ATOM     13  C   UNL     1     -24.508   7.389 -27.278  1.00  0.00    -0.000 C 
BRANCH  13  14
ATOM     14  C   UNL     1     -24.636   7.981 -28.690  1.00  0.00    -0.000 C 
BRANCH  14  15
ATOM     15  C   UNL     1     -26.068   7.903 -29.238  1.00  0.00    -0.003 C 
ATOM     16  C   UNL     1     -27.094   8.125 -28.129  1.00  0.00     0.004 C 
ENDBRANCH  14  15
ENDBRANCH  13  14
ENDBRANCH  12  13
ENDBRANCH  11  12
ENDBRANCH  10  11
ENDBRANCH   1  10
TORSDOF 12
ENDMDL
MODEL 3
REMARK VINA RESULT:    -3.541      9.776     12.987
REMARK INTER + INTRA:          -6.783
REMARK INTER:                  -4.954
REMARK INTRA:                  -1.829
REMARK UNBOUND:                -0.758
REMARK SMILES CCCCCCCCCCCCCC(=O)[O-]
REMARK SMILES IDX 8 1 9 2 10 3 11 4 12 5 13 6 14 7 15 8 16 9 7 10 6 11 5 12
REMARK SMILES IDX 4 13 3 14 2 15 1 16
REMARK H PARENT
REMARK Flexibility Score: inf
ROOT
ATOM      1  C   UNL     1     -33.775  -7.984 -31.371  1.00  0.00     0.000 C 
ENDROOT
BRANCH   1   2
ATOM      2  C   UNL     1     -33.957  -6.803 -30.404  1.00  0.00     0.000 C 
BRANCH   2   3
ATOM      3  C   UNL     1     -34.638  -5.595 -31.071  1.00  0.00     0.000 C 
BRANCH   3   4
ATOM      4  C   UNL     1     -35.028  -5.869 -32.532  1.00  0.00     0.000 C 
BRANCH   4   5
ATOM      5  C   UNL     1     -34.430  -4.845 -33.509  1.00  0.00     0.006 C 
BRANCH   5   6
ATOM      6  C   UNL     1     -33.716  -3.720 -32.754  1.00  0.00     0.053 C 
BRANCH   6   7
ATOM      7  C   UNL     1     -33.052  -2.783 -33.713  1.00  0.00     0.041 C 
ATOM      8  O   UNL     1     -33.678  -1.788 -34.162  1.00  0.00    -0.550 OA
ATOM      9  O   UNL     1     -31.758  -3.038 -34.149  1.00  0.00    -0.550 OA
ENDBRANCH   6   7
ENDBRANCH   5   6
ENDBRANCH   4   5
ENDBRANCH   3   4
ENDBRANCH   2   3
ENDBRANCH   1   2
BRANCH   1  10
ATOM     10  C   UNL     1     -32.794  -9.044 -30.837  1.00  0.00     0.000 C 
BRANCH  10  11
ATOM     11  C   UNL     1     -32.152  -8.633 -29.502  1.00  0.00    -0.000 C 
BRANCH  11  12
ATOM     12  C   UNL     1     -30.620  -8.540 -29.588  1.00  0.00    -0.000 C 
BRANCH  12  13
ATOM     13  C   UNL     1     -30.152  -8.564 -31.051  1.00  0.00    -0.000 C 
BRANCH  13  14
ATOM     14  C   UNL     1     -29.528  -7.233 -31.495  1.00  0.00    -0.000 C 
BRANCH  14  15
ATOM     15  C   UNL     1     -30.568  -6.241 -32.036  1.00  0.00    -0.003 C 
ATOM     16  C   UNL     1     -30.723  -5.043 -31.103  1.00  0.00     0.004 C 
ENDBRANCH  14  15
ENDBRANCH  13  14
ENDBRANCH  12  13
ENDBRANCH  11  12
ENDBRANCH  10  11
ENDBRANCH   1  10
TORSDOF 12
ENDMDL
MODEL 4
REMARK VINA RESULT:    -3.506      4.629      6.755
REMARK INTER + INTRA:          -6.725
REMARK INTER:                  -4.793
REMARK INTRA:                  -1.932
REMARK UNBOUND:                -0.758
REMARK SMILES CCCCCCCCCCCCCC(=O)[O-]
REMARK SMILES IDX 8 1 9 2 10 3 11 4 12 5 13 6 14 7 15 8 16 9 7 10 6 11 5 12
REMARK SMILES IDX 4 13 3 14 2 15 1 16
REMARK H PARENT
REMARK Flexibility Score: inf
ROOT
ATOM      1  C   UNL     1     -31.923  -0.045 -36.824  1.00  0.00     0.000 C 
ENDROOT
BRANCH   1   2
ATOM      2  C   UNL     1     -30.747  -0.632 -37.621  1.00  0.00     0.000 C 
BRANCH   2   3
ATOM      3  C   UNL     1     -31.158  -1.079 -39.035  1.00  0.00     0.000 C 
BRANCH   3   4
ATOM      4  C   UNL     1     -29.966  -1.151 -40.002  1.00  0.00     0.000 C 
BRANCH   4   5
ATOM      5  C   UNL     1     -28.665  -1.584 -39.310  1.00  0.00     0.006 C 
BRANCH   5   6
ATOM      6  C   UNL     1     -28.497  -3.106 -39.363  1.00  0.00     0.053 C 
BRANCH   6   7
ATOM      7  C   UNL     1     -28.009  -3.626 -38.048  1.00  0.00     0.041 C 
ATOM      8  O   UNL     1     -26.905  -4.226 -37.975  1.00  0.00    -0.550 OA
ATOM      9  O   UNL     1     -28.798  -3.493 -36.913  1.00  0.00    -0.550 OA
ENDBRANCH   6   7
ENDBRANCH   5   6
ENDBRANCH   4   5
ENDBRANCH   3   4
ENDBRANCH   2   3
ENDBRANCH   1   2
BRANCH   1  10
ATOM     10  C   UNL     1     -33.098   0.379 -37.725  1.00  0.00     0.000 C 
BRANCH  10  11
ATOM     11  C   UNL     1     -33.104   1.889 -38.015  1.00  0.00    -0.000 C 
BRANCH  11  12
ATOM     12  C   UNL     1     -32.730   2.212 -39.470  1.00  0.00    -0.000 C 
BRANCH  12  13
ATOM     13  C   UNL     1     -31.345   2.873 -39.545  1.00  0.00    -0.000 C 
BRANCH  13  14
ATOM     14  C   UNL     1     -30.782   3.226 -38.160  1.00  0.00    -0.000 C 
BRANCH  14  15
ATOM     15  C   UNL     1     -29.316   2.804 -37.992  1.00  0.00    -0.003 C 
ATOM     16  C   UNL     1     -28.750   2.247 -39.296  1.00  0.00     0.004 C 
ENDBRANCH  14  15
ENDBRANCH  13  14
ENDBRANCH  12  13
ENDBRANCH  11  12
ENDBRANCH  10  11
ENDBRANCH   1  10
TORSDOF 12
ENDMDL
MODEL 5
REMARK VINA RESULT:    -3.504      2.267      4.203
REMARK INTER + INTRA:          -6.721
REMARK INTER:                  -4.987
REMARK INTRA:                  -1.733
REMARK UNBOUND:                -0.758
REMARK SMILES CCCCCCCCCCCCCC(=O)[O-]
REMARK SMILES IDX 8 1 9 2 10 3 11 4 12 5 13 6 14 7 15 8 16 9 7 10 6 11 5 12
REMARK SMILES IDX 4 13 3 14 2 15 1 16
REMARK H PARENT
REMARK Flexibility Score: inf
ROOT
ATOM      1  C   UNL     1     -30.660  -0.601 -39.403  1.00  0.00     0.000 C 
ENDROOT
BRANCH   1   2
ATOM      2  C   UNL     1     -29.231  -0.039 -39.335  1.00  0.00     0.000 C 
BRANCH   2   3
ATOM      3  C   UNL     1     -29.161   1.302 -38.585  1.00  0.00     0.000 C 
BRANCH   3   4
ATOM      4  C   UNL     1     -29.170   2.511 -39.534  1.00  0.00     0.000 C 
BRANCH   4   5
ATOM      5  C   UNL     1     -28.599   3.780 -38.884  1.00  0.00     0.006 C 
BRANCH   5   6
ATOM      6  C   UNL     1     -27.958   3.463 -37.530  1.00  0.00     0.053 C 
BRANCH   6   7
ATOM      7  C   UNL     1     -26.942   4.500 -37.173  1.00  0.00     0.041 C 
ATOM      8  O   UNL     1     -25.777   4.158 -36.839  1.00  0.00    -0.550 OA
ATOM      9  O   UNL     1     -27.295   5.844 -37.161  1.00  0.00    -0.550 OA
ENDBRANCH   6   7
ENDBRANCH   5   6
ENDBRANCH   4   5
ENDBRANCH   3   4
ENDBRANCH   2   3
ENDBRANCH   1   2
BRANCH   1  10
ATOM     10  C   UNL     1     -31.479  -0.299 -38.134  1.00  0.00     0.000 C 
BRANCH  10  11
ATOM     11  C   UNL     1     -32.872   0.267 -38.451  1.00  0.00    -0.000 C 
BRANCH  11  12
ATOM     12  C   UNL     1     -32.813   1.687 -39.035  1.00  0.00    -0.000 C 
BRANCH  12  13
ATOM     13  C   UNL     1     -33.240   2.727 -37.988  1.00  0.00    -0.000 C 
BRANCH  13  14
ATOM     14  C   UNL     1     -32.053   3.530 -37.433  1.00  0.00    -0.000 C 
BRANCH  14  15
ATOM     15  C   UNL     1     -31.427   2.880 -36.191  1.00  0.00    -0.003 C 
ATOM     16  C   UNL     1     -31.447   3.835 -35.000  1.00  0.00     0.004 C 
ENDBRANCH  14  15
ENDBRANCH  13  14
ENDBRANCH  12  13
ENDBRANCH  11  12
ENDBRANCH  10  11
ENDBRANCH   1  10
TORSDOF 12
ENDMDL
MODEL 6
REMARK VINA RESULT:    -3.477      1.622      3.157
REMARK INTER + INTRA:          -6.675
REMARK INTER:                  -5.195
REMARK INTRA:                  -1.479
REMARK UNBOUND:                -0.758
REMARK SMILES CCCCCCCCCCCCCC(=O)[O-]
REMARK SMILES IDX 8 1 9 2 10 3 11 4 12 5 13 6 14 7 15 8 16 9 7 10 6 11 5 12
REMARK SMILES IDX 4 13 3 14 2 15 1 16
REMARK H PARENT
REMARK Flexibility Score: inf
ROOT
ATOM      1  C   UNL     1     -31.564   2.630 -37.332  1.00  0.00     0.000 C 
ENDROOT
BRANCH   1   2
ATOM      2  C   UNL     1     -31.030   4.068 -37.439  1.00  0.00     0.000 C 
BRANCH   2   3
ATOM      3  C   UNL     1     -30.380   4.354 -38.803  1.00  0.00     0.000 C 
BRANCH   3   4
ATOM      4  C   UNL     1     -28.952   4.907 -38.673  1.00  0.00     0.000 C 
BRANCH   4   5
ATOM      5  C   UNL     1     -28.172   4.270 -37.514  1.00  0.00     0.006 C 
BRANCH   5   6
ATOM      6  C   UNL     1     -26.955   5.122 -37.138  1.00  0.00     0.053 C 
BRANCH   6   7
ATOM      7  C   UNL     1     -26.452   4.749 -35.780  1.00  0.00     0.041 C 
ATOM      8  O   UNL     1     -25.783   3.695 -35.620  1.00  0.00    -0.550 OA
ATOM      9  O   UNL     1     -26.765   5.540 -34.682  1.00  0.00    -0.550 OA
ENDBRANCH   6   7
ENDBRANCH   5   6
ENDBRANCH   4   5
ENDBRANCH   3   4
ENDBRANCH   2   3
ENDBRANCH   1   2
BRANCH   1  10
ATOM     10  C   UNL     1     -32.941   2.456 -38.000  1.00  0.00     0.000 C 
BRANCH  10  11
ATOM     11  C   UNL     1     -32.991   1.242 -38.940  1.00  0.00    -0.000 C 
BRANCH  11  12
ATOM     12  C   UNL     1     -32.446  -0.036 -38.284  1.00  0.00    -0.000 C 
BRANCH  12  13
ATOM     13  C   UNL     1     -31.235  -0.576 -39.061  1.00  0.00    -0.000 C 
BRANCH  13  14
ATOM     14  C   UNL     1     -29.936  -0.525 -38.243  1.00  0.00    -0.000 C 
BRANCH  14  15
ATOM     15  C   UNL     1     -28.911   0.463 -38.820  1.00  0.00    -0.003 C 
ATOM     16  C   UNL     1     -29.413   1.076 -40.125  1.00  0.00     0.004 C 
ENDBRANCH  14  15
ENDBRANCH  13  14
ENDBRANCH  12  13
ENDBRANCH  11  12
ENDBRANCH  10  11
ENDBRANCH   1  10
TORSDOF 12
ENDMDL
MODEL 7
REMARK VINA RESULT:    -3.459      5.712      7.758
REMARK INTER + INTRA:          -6.644
REMARK INTER:                  -5.211
REMARK INTRA:                  -1.433
REMARK UNBOUND:                -0.758
REMARK SMILES CCCCCCCCCCCCCC(=O)[O-]
REMARK SMILES IDX 8 1 9 2 10 3 11 4 12 5 13 6 14 7 15 8 16 9 7 10 6 11 5 12
REMARK SMILES IDX 4 13 3 14 2 15 1 16
REMARK H PARENT
REMARK Flexibility Score: inf
ROOT
ATOM      1  C   UNL     1     -30.778  -0.942 -37.431  1.00  0.00     0.000 C 
ENDROOT
BRANCH   1   2
ATOM      2  C   UNL     1     -30.542   0.261 -36.504  1.00  0.00     0.000 C 
BRANCH   2   3
ATOM      3  C   UNL     1     -31.004  -0.007 -35.061  1.00  0.00     0.000 C 
BRANCH   3   4
ATOM      4  C   UNL     1     -32.245  -0.911 -34.997  1.00  0.00     0.000 C 
BRANCH   4   5
ATOM      5  C   UNL     1     -32.135  -1.995 -33.914  1.00  0.00     0.006 C 
BRANCH   5   6
ATOM      6  C   UNL     1     -33.502  -2.626 -33.629  1.00  0.00     0.053 C 
BRANCH   6   7
ATOM      7  C   UNL     1     -33.355  -4.082 -33.321  1.00  0.00     0.041 C 
ATOM      8  O   UNL     1     -32.229  -4.637 -33.409  1.00  0.00    -0.550 OA
ATOM      9  O   UNL     1     -34.471  -4.837 -32.984  1.00  0.00    -0.550 OA
ENDBRANCH   6   7
ENDBRANCH   5   6
ENDBRANCH   4   5
ENDBRANCH   3   4
ENDBRANCH   2   3
ENDBRANCH   1   2
BRANCH   1  10
ATOM     10  C   UNL     1     -31.593  -0.575 -38.685  1.00  0.00     0.000 C 
BRANCH  10  11
ATOM     11  C   UNL     1     -32.926   0.110 -38.342  1.00  0.00    -0.000 C 
BRANCH  11  12
ATOM     12  C   UNL     1     -33.103   1.454 -39.065  1.00  0.00    -0.000 C 
BRANCH  12  13
ATOM     13  C   UNL     1     -32.854   2.628 -38.105  1.00  0.00    -0.000 C 
BRANCH  13  14
ATOM     14  C   UNL     1     -31.558   3.390 -38.425  1.00  0.00    -0.000 C 
BRANCH  14  15
ATOM     15  C   UNL     1     -30.975   3.018 -39.795  1.00  0.00    -0.003 C 
ATOM     16  C   UNL     1     -29.549   2.490 -39.661  1.00  0.00     0.004 C 
ENDBRANCH  14  15
ENDBRANCH  13  14
ENDBRANCH  12  13
ENDBRANCH  11  12
ENDBRANCH  10  11
ENDBRANCH   1  10
TORSDOF 12
ENDMDL
MODEL 8
REMARK VINA RESULT:    -3.416      6.363      9.431
REMARK INTER + INTRA:          -6.570
REMARK INTER:                  -4.499
REMARK INTRA:                  -2.071
REMARK UNBOUND:                -0.758
REMARK SMILES CCCCCCCCCCCCCC(=O)[O-]
REMARK SMILES IDX 8 1 9 2 10 3 11 4 12 5 13 6 14 7 15 8 16 9 7 10 6 11 5 12
REMARK SMILES IDX 4 13 3 14 2 15 1 16
REMARK H PARENT
REMARK Flexibility Score: inf
ROOT
ATOM      1  C   UNL     1     -26.216   2.705 -29.256  1.00  0.00     0.000 C 
ENDROOT
BRANCH   1   2
ATOM      2  C   UNL     1     -27.055   3.791 -29.948  1.00  0.00     0.000 C 
BRANCH   2   3
ATOM      3  C   UNL     1     -27.092   3.621 -31.477  1.00  0.00     0.000 C 
BRANCH   3   4
ATOM      4  C   UNL     1     -26.705   4.908 -32.224  1.00  0.00     0.000 C 
BRANCH   4   5
ATOM      5  C   UNL     1     -25.763   4.647 -33.408  1.00  0.00     0.006 C 
BRANCH   5   6
ATOM      6  C   UNL     1     -25.237   3.208 -33.384  1.00  0.00     0.053 C 
BRANCH   6   7
ATOM      7  C   UNL     1     -23.780   3.176 -33.718  1.00  0.00     0.041 C 
ATOM      8  O   UNL     1     -23.173   2.076 -33.799  1.00  0.00    -0.550 OA
ATOM      9  O   UNL     1     -23.080   4.364 -33.891  1.00  0.00    -0.550 OA
ENDBRANCH   6   7
ENDBRANCH   5   6
ENDBRANCH   4   5
ENDBRANCH   3   4
ENDBRANCH   2   3
ENDBRANCH   1   2
BRANCH   1  10
ATOM     10  C   UNL     1     -24.711   2.834 -29.559  1.00  0.00     0.000 C 
BRANCH  10  11
ATOM     11  C   UNL     1     -24.160   4.229 -29.226  1.00  0.00    -0.000 C 
BRANCH  11  12
ATOM     12  C   UNL     1     -23.435   4.877 -30.416  1.00  0.00    -0.000 C 
BRANCH  12  13
ATOM     13  C   UNL     1     -23.731   6.383 -30.483  1.00  0.00    -0.000 C 
BRANCH  13  14
ATOM     14  C   UNL     1     -24.141   6.967 -29.122  1.00  0.00    -0.000 C 
BRANCH  14  15
ATOM     15  C   UNL     1     -25.234   8.038 -29.242  1.00  0.00    -0.003 C 
ATOM     16  C   UNL     1     -26.625   7.412 -29.191  1.00  0.00     0.004 C 
ENDBRANCH  14  15
ENDBRANCH  13  14
ENDBRANCH  12  13
ENDBRANCH  11  12
ENDBRANCH  10  11
ENDBRANCH   1  10
TORSDOF 12
ENDMDL
MODEL 9
REMARK VINA RESULT:    -3.361      1.769      2.797
REMARK INTER + INTRA:          -6.476
REMARK INTER:                  -4.778
REMARK INTRA:                  -1.698
REMARK UNBOUND:                -0.758
REMARK SMILES CCCCCCCCCCCCCC(=O)[O-]
REMARK SMILES IDX 8 1 9 2 10 3 11 4 12 5 13 6 14 7 15 8 16 9 7 10 6 11 5 12
REMARK SMILES IDX 4 13 3 14 2 15 1 16
REMARK H PARENT
REMARK Flexibility Score: inf
ROOT
ATOM      1  C   UNL     1     -28.576   1.616 -39.794  1.00  0.00     0.000 C 
ENDROOT
BRANCH   1   2
ATOM      2  C   UNL     1     -28.995   3.055 -39.454  1.00  0.00     0.000 C 
BRANCH   2   3
ATOM      3  C   UNL     1     -28.578   3.470 -38.033  1.00  0.00     0.000 C 
BRANCH   3   4
ATOM      4  C   UNL     1     -28.401   4.990 -37.889  1.00  0.00     0.000 C 
BRANCH   4   5
ATOM      5  C   UNL     1     -27.085   5.371 -37.194  1.00  0.00     0.006 C 
BRANCH   5   6
ATOM      6  C   UNL     1     -26.385   4.133 -36.627  1.00  0.00     0.053 C 
BRANCH   6   7
ATOM      7  C   UNL     1     -25.956   4.371 -35.215  1.00  0.00     0.041 C 
ATOM      8  O   UNL     1     -26.093   5.510 -34.695  1.00  0.00    -0.550 OA
ATOM      9  O   UNL     1     -25.360   3.349 -34.488  1.00  0.00    -0.550 OA
ENDBRANCH   6   7
ENDBRANCH   5   6
ENDBRANCH   4   5
ENDBRANCH   3   4
ENDBRANCH   2   3
ENDBRANCH   1   2
BRANCH   1  10
ATOM     10  C   UNL     1     -28.256   0.779 -38.542  1.00  0.00     0.000 C 
BRANCH  10  11
ATOM     11  C   UNL     1     -29.172  -0.448 -38.402  1.00  0.00    -0.000 C 
BRANCH  11  12
ATOM     12  C   UNL     1     -30.369  -0.403 -39.363  1.00  0.00    -0.000 C 
BRANCH  12  13
ATOM     13  C   UNL     1     -31.667  -0.081 -38.606  1.00  0.00    -0.000 C 
BRANCH  13  14
ATOM     14  C   UNL     1     -32.255   1.285 -38.991  1.00  0.00    -0.000 C 
BRANCH  14  15
ATOM     15  C   UNL     1     -32.359   2.243 -37.796  1.00  0.00    -0.003 C 
ATOM     16  C   UNL     1     -31.590   1.706 -36.592  1.00  0.00     0.004 C 
ENDBRANCH  14  15
ENDBRANCH  13  14
ENDBRANCH  12  13
ENDBRANCH  11  12
ENDBRANCH  10  11
ENDBRANCH   1  10
TORSDOF 12
ENDMDL
