MODEL 1
REMARK VINA RESULT:    -6.788      0.000      0.000
REMARK INTER + INTRA:         -10.017
REMARK INTER:                  -9.367
REMARK INTRA:                  -0.650
REMARK UNBOUND:                -0.650
REMARK SMILES O=C([O-])[C@@H]1O[C@@H](Oc2cc3oc(-c4ccccc4)cc(=O)c3c(O)c2O)[C@@H](O)[C@H](O)[C@@H]1O
REMARK SMILES IDX 7 1 6 2 4 3 31 4 5 5 29 6 27 7 2 8 1 9 3 10 32 11 30 13
REMARK SMILES IDX 28 15 8 17 25 18 9 19 23 20 10 21 22 22 11 23 20 24 12 25
REMARK SMILES IDX 19 26 21 27 26 28 24 30 13 32 14 33 18 34 15 35 17 36 16 37
REMARK H PARENT 32 12 30 14 28 16 26 29 24 31
REMARK Flexibility Score: inf
ROOT
ATOM      1  O   UNL     1      62.151  44.399  17.406  1.00  0.00    -0.458 OA
ENDROOT
BRANCH   1   2
ATOM      2  C   UNL     1      61.153  43.448  16.997  1.00  0.00     0.339 C 
ATOM      3  C   UNL     1      62.205  43.147  14.917  1.00  0.00     0.199 C 
ATOM      4  C   UNL     1      61.050  43.800  14.116  1.00  0.00     0.180 C 
ATOM      5  O   UNL     1      61.725  42.512  16.095  1.00  0.00    -0.328 OA
ATOM      6  C   UNL     1      60.276  44.785  15.012  1.00  0.00     0.181 C 
ATOM      7  C   UNL     1      59.910  44.119  16.359  1.00  0.00     0.214 C 
BRANCH   3   8
ATOM      8  C   UNL     1      62.926  42.141  14.066  1.00  0.00     0.073 C 
ATOM      9  O   UNL     1      63.364  41.073  14.569  1.00  0.00    -0.547 OA
ATOM     10  O   UNL     1      63.066  42.360  12.702  1.00  0.00    -0.547 OA
ENDBRANCH   3   8
BRANCH   4  11
ATOM     11  O   UNL     1      60.189  42.840  13.547  1.00  0.00    -0.387 OA
ATOM     12  H   UNL     1      59.706  42.381  14.281  1.00  0.00     0.211 HD
ENDBRANCH   4  11
BRANCH   6  13
ATOM     13  O   UNL     1      59.115  45.214  14.345  1.00  0.00    -0.387 OA
ATOM     14  H   UNL     1      59.243  45.010  13.381  1.00  0.00     0.211 HD
ENDBRANCH   6  13
BRANCH   7  15
ATOM     15  O   UNL     1      59.289  45.013  17.251  1.00  0.00    -0.384 OA
ATOM     16  H   UNL     1      59.994  45.499  17.753  1.00  0.00     0.211 HD
ENDBRANCH   7  15
ENDBRANCH   1   2
BRANCH   1  17
ATOM     17  C   UNL     1      61.957  45.584  18.138  1.00  0.00     0.172 A 
ATOM     18  C   UNL     1      62.180  46.876  17.611  1.00  0.00     0.201 A 
ATOM     19  C   UNL     1      61.489  45.444  19.444  1.00  0.00     0.098 A 
ATOM     20  C   UNL     1      62.023  48.014  18.446  1.00  0.00     0.176 A 
ATOM     21  C   UNL     1      61.285  46.553  20.259  1.00  0.00     0.146 A 
ATOM     22  C   UNL     1      61.554  47.850  19.773  1.00  0.00     0.111 A 
ATOM     23  O   UNL     1      60.840  46.370  21.498  1.00  0.00    -0.456 OA
ATOM     24  C   UNL     1      61.340  48.932  20.656  1.00  0.00     0.197 A 
ATOM     25  C   UNL     1      60.617  47.367  22.350  1.00  0.00     0.138 A 
ATOM     26  C   UNL     1      60.871  48.687  21.948  1.00  0.00     0.100 A 
ATOM     27  O   UNL     1      61.564  50.122  20.308  1.00  0.00    -0.289 OA
BRANCH  18  28
ATOM     28  O   UNL     1      62.506  47.013  16.261  1.00  0.00    -0.502 OA
ATOM     29  H   UNL     1      63.206  47.649  15.904  1.00  0.00     0.293 HD
ENDBRANCH  18  28
BRANCH  20  30
ATOM     30  O   UNL     1      62.335  49.297  17.987  1.00  0.00    -0.504 OA
ATOM     31  H   UNL     1      62.713  50.032  18.567  1.00  0.00     0.293 HD
ENDBRANCH  20  30
BRANCH  25  32
ATOM     32  C   UNL     1      60.117  47.046  23.710  1.00  0.00     0.017 A 
ATOM     33  C   UNL     1      60.350  47.900  24.806  1.00  0.00     0.012 A 
ATOM     34  C   UNL     1      59.364  45.875  23.911  1.00  0.00     0.012 A 
ATOM     35  C   UNL     1      59.857  47.577  26.073  1.00  0.00     0.001 A 
ATOM     36  C   UNL     1      58.875  45.555  25.181  1.00  0.00     0.001 A 
ATOM     37  C   UNL     1      59.123  46.404  26.262  1.00  0.00     0.000 A 
ENDBRANCH  25  32
ENDBRANCH   1  17
TORSDOF 9
ENDMDL
MODEL 2
REMARK VINA RESULT:    -6.721      1.510      2.358
REMARK INTER + INTRA:          -9.925
REMARK INTER:                  -8.599
REMARK INTRA:                  -1.326
REMARK UNBOUND:                -0.650
REMARK SMILES O=C([O-])[C@@H]1O[C@@H](Oc2cc3oc(-c4ccccc4)cc(=O)c3c(O)c2O)[C@@H](O)[C@H](O)[C@@H]1O
REMARK SMILES IDX 7 1 6 2 4 3 31 4 5 5 29 6 27 7 2 8 1 9 3 10 32 11 30 13
REMARK SMILES IDX 28 15 8 17 25 18 9 19 23 20 10 21 22 22 11 23 20 24 12 25
REMARK SMILES IDX 19 26 21 27 26 28 24 30 13 32 14 33 18 34 15 35 17 36 16 37
REMARK H PARENT 32 12 30 14 28 16 26 29 24 31
REMARK Flexibility Score: inf
ROOT
ATOM      1  O   UNL     1      61.862  45.013  16.504  1.00  0.00    -0.458 OA
ENDROOT
BRANCH   1   2
ATOM      2  C   UNL     1      62.915  44.179  15.990  1.00  0.00     0.339 C 
ATOM      3  C   UNL     1      62.494  44.898  13.792  1.00  0.00     0.199 C 
ATOM      4  C   UNL     1      61.984  43.513  13.322  1.00  0.00     0.180 C 
ATOM      5  O   UNL     1      63.466  44.770  14.823  1.00  0.00    -0.328 OA
ATOM      6  C   UNL     1      61.434  42.716  14.519  1.00  0.00     0.181 C 
ATOM      7  C   UNL     1      62.445  42.734  15.690  1.00  0.00     0.214 C 
BRANCH   3   8
ATOM      8  C   UNL     1      63.086  45.656  12.639  1.00  0.00     0.073 C 
ATOM      9  O   UNL     1      62.480  46.641  12.141  1.00  0.00    -0.547 OA
ATOM     10  O   UNL     1      64.338  45.307  12.150  1.00  0.00    -0.547 OA
ENDBRANCH   3   8
BRANCH   4  11
ATOM     11  O   UNL     1      62.977  42.786  12.635  1.00  0.00    -0.387 OA
ATOM     12  H   UNL     1      62.648  41.861  12.497  1.00  0.00     0.211 HD
ENDBRANCH   4  11
BRANCH   6  13
ATOM     13  O   UNL     1      61.167  41.394  14.122  1.00  0.00    -0.387 OA
ATOM     14  H   UNL     1      60.498  41.030  14.760  1.00  0.00     0.211 HD
ENDBRANCH   6  13
BRANCH   7  15
ATOM     15  O   UNL     1      61.943  42.103  16.844  1.00  0.00    -0.384 OA
ATOM     16  H   UNL     1      61.492  41.260  16.574  1.00  0.00     0.211 HD
ENDBRANCH   7  15
ENDBRANCH   1   2
BRANCH   1  17
ATOM     17  C   UNL     1      61.979  46.073  17.421  1.00  0.00     0.172 A 
ATOM     18  C   UNL     1      62.615  47.300  17.124  1.00  0.00     0.201 A 
ATOM     19  C   UNL     1      61.397  45.884  18.674  1.00  0.00     0.098 A 
ATOM     20  C   UNL     1      62.746  48.287  18.136  1.00  0.00     0.176 A 
ATOM     21  C   UNL     1      61.475  46.863  19.659  1.00  0.00     0.146 A 
ATOM     22  C   UNL     1      62.154  48.074  19.406  1.00  0.00     0.111 A 
ATOM     23  O   UNL     1      60.908  46.636  20.840  1.00  0.00    -0.456 OA
ATOM     24  C   UNL     1      62.210  49.019  20.453  1.00  0.00     0.197 A 
ATOM     25  C   UNL     1      60.932  47.511  21.843  1.00  0.00     0.138 A 
ATOM     26  C   UNL     1      61.597  48.735  21.674  1.00  0.00     0.100 A 
ATOM     27  O   UNL     1      62.804  50.122  20.316  1.00  0.00    -0.289 OA
BRANCH  18  28
ATOM     28  O   UNL     1      63.063  47.536  15.824  1.00  0.00    -0.502 OA
ATOM     29  H   UNL     1      63.551  48.372  15.532  1.00  0.00     0.293 HD
ENDBRANCH  18  28
BRANCH  20  30
ATOM     30  O   UNL     1      63.459  49.468  17.907  1.00  0.00    -0.504 OA
ATOM     31  H   UNL     1      63.540  49.917  17.006  1.00  0.00     0.293 HD
ENDBRANCH  20  30
BRANCH  25  32
ATOM     32  C   UNL     1      60.263  47.153  23.118  1.00  0.00     0.017 A 
ATOM     33  C   UNL     1      59.581  45.931  23.280  1.00  0.00     0.012 A 
ATOM     34  C   UNL     1      60.334  48.040  24.209  1.00  0.00     0.012 A 
ATOM     35  C   UNL     1      58.970  45.617  24.498  1.00  0.00     0.001 A 
ATOM     36  C   UNL     1      59.720  47.722  25.423  1.00  0.00     0.001 A 
ATOM     37  C   UNL     1      59.036  46.512  25.567  1.00  0.00     0.000 A 
ENDBRANCH  25  32
ENDBRANCH   1  17
TORSDOF 9
ENDMDL
MODEL 3
REMARK VINA RESULT:    -6.281      2.005      3.875
REMARK INTER + INTRA:          -9.317
REMARK INTER:                  -9.230
REMARK INTRA:                  -0.087
REMARK UNBOUND:                -0.650
REMARK SMILES O=C([O-])[C@@H]1O[C@@H](Oc2cc3oc(-c4ccccc4)cc(=O)c3c(O)c2O)[C@@H](O)[C@H](O)[C@@H]1O
REMARK SMILES IDX 7 1 6 2 4 3 31 4 5 5 29 6 27 7 2 8 1 9 3 10 32 11 30 13
REMARK SMILES IDX 28 15 8 17 25 18 9 19 23 20 10 21 22 22 11 23 20 24 12 25
REMARK SMILES IDX 19 26 21 27 26 28 24 30 13 32 14 33 18 34 15 35 17 36 16 37
REMARK H PARENT 32 12 30 14 28 16 26 29 24 31
REMARK Flexibility Score: inf
ROOT
ATOM      1  O   UNL     1      61.192  43.150  15.893  1.00  0.00    -0.458 OA
ENDROOT
BRANCH   1   2
ATOM      2  C   UNL     1      62.551  42.749  15.649  1.00  0.00     0.339 C 
ATOM      3  C   UNL     1      63.109  44.897  14.877  1.00  0.00     0.199 C 
ATOM      4  C   UNL     1      63.342  44.431  13.419  1.00  0.00     0.180 C 
ATOM      5  O   UNL     1      63.414  43.865  15.807  1.00  0.00    -0.328 OA
ATOM      6  C   UNL     1      62.526  43.156  13.133  1.00  0.00     0.181 C 
ATOM      7  C   UNL     1      62.748  42.111  14.252  1.00  0.00     0.214 C 
BRANCH   3   8
ATOM      8  C   UNL     1      63.949  46.106  15.180  1.00  0.00     0.073 C 
ATOM      9  O   UNL     1      63.416  47.170  15.592  1.00  0.00    -0.547 OA
ATOM     10  O   UNL     1      65.331  46.037  15.059  1.00  0.00    -0.547 OA
ENDBRANCH   3   8
BRANCH   4  11
ATOM     11  O   UNL     1      64.709  44.238  13.135  1.00  0.00    -0.387 OA
ATOM     12  H   UNL     1      65.160  43.936  13.964  1.00  0.00     0.211 HD
ENDBRANCH   4  11
BRANCH   6  13
ATOM     13  O   UNL     1      62.900  42.627  11.886  1.00  0.00    -0.387 OA
ATOM     14  H   UNL     1      63.827  42.283  11.984  1.00  0.00     0.211 HD
ENDBRANCH   6  13
BRANCH   7  15
ATOM     15  O   UNL     1      61.944  40.967  14.087  1.00  0.00    -0.384 OA
ATOM     16  H   UNL     1      62.268  40.463  13.295  1.00  0.00     0.211 HD
ENDBRANCH   7  15
ENDBRANCH   1   2
BRANCH   1  17
ATOM     17  C   UNL     1      60.717  44.443  16.175  1.00  0.00     0.172 A 
ATOM     18  C   UNL     1      59.938  45.206  15.275  1.00  0.00     0.201 A 
ATOM     19  C   UNL     1      61.024  44.963  17.432  1.00  0.00     0.098 A 
ATOM     20  C   UNL     1      59.561  46.531  15.619  1.00  0.00     0.176 A 
ATOM     21  C   UNL     1      60.620  46.242  17.801  1.00  0.00     0.146 A 
ATOM     22  C   UNL     1      59.888  47.044  16.899  1.00  0.00     0.111 A 
ATOM     23  O   UNL     1      60.938  46.696  19.010  1.00  0.00    -0.456 OA
ATOM     24  C   UNL     1      59.522  48.338  17.330  1.00  0.00     0.197 A 
ATOM     25  C   UNL     1      60.597  47.904  19.450  1.00  0.00     0.138 A 
ATOM     26  C   UNL     1      59.879  48.767  18.609  1.00  0.00     0.100 A 
ATOM     27  O   UNL     1      58.876  49.123  16.585  1.00  0.00    -0.289 OA
BRANCH  18  28
ATOM     28  O   UNL     1      59.512  44.622  14.082  1.00  0.00    -0.502 OA
ATOM     29  H   UNL     1      58.634  44.830  13.626  1.00  0.00     0.293 HD
ENDBRANCH  18  28
BRANCH  20  30
ATOM     30  O   UNL     1      58.879  47.347  14.712  1.00  0.00    -0.504 OA
ATOM     31  H   UNL     1      58.437  47.014  13.868  1.00  0.00     0.293 HD
ENDBRANCH  20  30
BRANCH  25  32
ATOM     32  C   UNL     1      61.005  48.306  20.819  1.00  0.00     0.017 A 
ATOM     33  C   UNL     1      61.668  49.523  21.068  1.00  0.00     0.012 A 
ATOM     34  C   UNL     1      60.696  47.468  21.906  1.00  0.00     0.012 A 
ATOM     35  C   UNL     1      62.029  49.880  22.371  1.00  0.00     0.001 A 
ATOM     36  C   UNL     1      61.061  47.828  23.206  1.00  0.00     0.001 A 
ATOM     37  C   UNL     1      61.729  49.032  23.438  1.00  0.00     0.000 A 
ENDBRANCH  25  32
ENDBRANCH   1  17
TORSDOF 9
ENDMDL
MODEL 4
REMARK VINA RESULT:    -6.135      4.755      8.242
REMARK INTER + INTRA:          -9.116
REMARK INTER:                  -8.485
REMARK INTRA:                  -0.631
REMARK UNBOUND:                -0.650
REMARK SMILES O=C([O-])[C@@H]1O[C@@H](Oc2cc3oc(-c4ccccc4)cc(=O)c3c(O)c2O)[C@@H](O)[C@H](O)[C@@H]1O
REMARK SMILES IDX 7 1 6 2 4 3 31 4 5 5 29 6 27 7 2 8 1 9 3 10 32 11 30 13
REMARK SMILES IDX 28 15 8 17 25 18 9 19 23 20 10 21 22 22 11 23 20 24 12 25
REMARK SMILES IDX 19 26 21 27 26 28 24 30 13 32 14 33 18 34 15 35 17 36 16 37
REMARK H PARENT 32 12 30 14 28 16 26 29 24 31
REMARK Flexibility Score: inf
ROOT
ATOM      1  O   UNL     1      62.846  43.958  13.919  1.00  0.00    -0.458 OA
ENDROOT
BRANCH   1   2
ATOM      2  C   UNL     1      61.486  43.623  14.245  1.00  0.00     0.339 C 
ATOM      3  C   UNL     1      61.609  44.823  16.262  1.00  0.00     0.199 C 
ATOM      4  C   UNL     1      61.502  43.556  17.147  1.00  0.00     0.180 C 
ATOM      5  O   UNL     1      60.914  44.657  15.032  1.00  0.00    -0.328 OA
ATOM      6  C   UNL     1      62.009  42.324  16.375  1.00  0.00     0.181 C 
ATOM      7  C   UNL     1      61.360  42.261  14.972  1.00  0.00     0.214 C 
BRANCH   3   8
ATOM      8  C   UNL     1      61.060  46.016  16.989  1.00  0.00     0.073 C 
ATOM      9  O   UNL     1      60.457  46.928  16.362  1.00  0.00    -0.547 OA
ATOM     10  O   UNL     1      61.165  46.094  18.372  1.00  0.00    -0.547 OA
ENDBRANCH   3   8
BRANCH   4  11
ATOM     11  O   UNL     1      60.192  43.354  17.629  1.00  0.00    -0.387 OA
ATOM     12  H   UNL     1      59.584  43.267  16.851  1.00  0.00     0.211 HD
ENDBRANCH   4  11
BRANCH   6  13
ATOM     13  O   UNL     1      61.718  41.158  17.104  1.00  0.00    -0.387 OA
ATOM     14  H   UNL     1      62.275  40.431  16.721  1.00  0.00     0.211 HD
ENDBRANCH   6  13
BRANCH   7  15
ATOM     15  O   UNL     1      61.870  41.207  14.190  1.00  0.00    -0.384 OA
ATOM     16  H   UNL     1      62.277  41.590  13.369  1.00  0.00     0.211 HD
ENDBRANCH   7  15
ENDBRANCH   1   2
BRANCH   1  17
ATOM     17  C   UNL     1      63.376  45.236  13.664  1.00  0.00     0.172 A 
ATOM     18  C   UNL     1      62.681  46.248  12.965  1.00  0.00     0.201 A 
ATOM     19  C   UNL     1      64.650  45.496  14.167  1.00  0.00     0.098 A 
ATOM     20  C   UNL     1      63.323  47.485  12.694  1.00  0.00     0.176 A 
ATOM     21  C   UNL     1      65.273  46.721  13.951  1.00  0.00     0.146 A 
ATOM     22  C   UNL     1      64.621  47.729  13.208  1.00  0.00     0.111 A 
ATOM     23  O   UNL     1      66.489  46.923  14.448  1.00  0.00    -0.456 OA
ATOM     24  C   UNL     1      65.314  48.943  13.012  1.00  0.00     0.197 A 
ATOM     25  C   UNL     1      67.164  48.060  14.292  1.00  0.00     0.138 A 
ATOM     26  C   UNL     1      66.589  49.107  13.555  1.00  0.00     0.100 A 
ATOM     27  O   UNL     1      64.810  49.892  12.353  1.00  0.00    -0.289 OA
BRANCH  18  28
ATOM     28  O   UNL     1      61.354  46.029  12.594  1.00  0.00    -0.502 OA
ATOM     29  H   UNL     1      60.558  46.192  13.198  1.00  0.00     0.293 HD
ENDBRANCH  18  28
BRANCH  20  30
ATOM     30  O   UNL     1      62.702  48.468  11.918  1.00  0.00    -0.504 OA
ATOM     31  H   UNL     1      61.732  48.445  11.641  1.00  0.00     0.293 HD
ENDBRANCH  20  30
BRANCH  25  32
ATOM     32  C   UNL     1      68.516  48.176  14.893  1.00  0.00     0.017 A 
ATOM     33  C   UNL     1      69.317  49.319  14.701  1.00  0.00     0.012 A 
ATOM     34  C   UNL     1      69.004  47.133  15.702  1.00  0.00     0.012 A 
ATOM     35  C   UNL     1      70.581  49.405  15.290  1.00  0.00     0.001 A 
ATOM     36  C   UNL     1      70.270  47.223  16.286  1.00  0.00     0.001 A 
ATOM     37  C   UNL     1      71.059  48.357  16.079  1.00  0.00     0.000 A 
ENDBRANCH  25  32
ENDBRANCH   1  17
TORSDOF 9
ENDMDL
MODEL 5
REMARK VINA RESULT:    -5.788      2.255      8.577
REMARK INTER + INTRA:          -8.637
REMARK INTER:                  -7.499
REMARK INTRA:                  -1.138
REMARK UNBOUND:                -0.650
REMARK SMILES O=C([O-])[C@@H]1O[C@@H](Oc2cc3oc(-c4ccccc4)cc(=O)c3c(O)c2O)[C@@H](O)[C@H](O)[C@@H]1O
REMARK SMILES IDX 7 1 6 2 4 3 31 4 5 5 29 6 27 7 2 8 1 9 3 10 32 11 30 13
REMARK SMILES IDX 28 15 8 17 25 18 9 19 23 20 10 21 22 22 11 23 20 24 12 25
REMARK SMILES IDX 19 26 21 27 26 28 24 30 13 32 14 33 18 34 15 35 17 36 16 37
REMARK H PARENT 32 12 30 14 28 16 26 29 24 31
REMARK Flexibility Score: inf
ROOT
ATOM      1  O   UNL     1      60.341  48.042  20.378  1.00  0.00    -0.458 OA
ENDROOT
BRANCH   1   2
ATOM      2  C   UNL     1      61.432  47.637  21.222  1.00  0.00     0.339 C 
ATOM      3  C   UNL     1      59.948  46.887  22.883  1.00  0.00     0.199 C 
ATOM      4  C   UNL     1      60.358  47.985  23.897  1.00  0.00     0.180 C 
ATOM      5  O   UNL     1      61.031  46.540  22.029  1.00  0.00    -0.328 OA
ATOM      6  C   UNL     1      60.907  49.216  23.152  1.00  0.00     0.181 C 
ATOM      7  C   UNL     1      61.966  48.789  22.109  1.00  0.00     0.214 C 
BRANCH   3   8
ATOM      8  C   UNL     1      59.469  45.661  23.606  1.00  0.00     0.073 C 
ATOM      9  O   UNL     1      58.897  45.758  24.724  1.00  0.00    -0.547 OA
ATOM     10  O   UNL     1      59.603  44.412  23.015  1.00  0.00    -0.547 OA
ENDBRANCH   3   8
BRANCH   4  11
ATOM     11  O   UNL     1      61.282  47.509  24.849  1.00  0.00    -0.387 OA
ATOM     12  H   UNL     1      61.067  47.921  25.725  1.00  0.00     0.211 HD
ENDBRANCH   4  11
BRANCH   6  13
ATOM     13  O   UNL     1      61.464  50.116  24.077  1.00  0.00    -0.387 OA
ATOM     14  H   UNL     1      61.255  49.765  24.983  1.00  0.00     0.211 HD
ENDBRANCH   6  13
BRANCH   7  15
ATOM     15  O   UNL     1      62.422  49.871  21.332  1.00  0.00    -0.384 OA
ATOM     16  H   UNL     1      62.875  50.521  21.930  1.00  0.00     0.211 HD
ENDBRANCH   7  15
ENDBRANCH   1   2
BRANCH   1  17
ATOM     17  C   UNL     1      60.256  47.937  18.977  1.00  0.00     0.172 A 
ATOM     18  C   UNL     1      59.671  48.924  18.151  1.00  0.00     0.201 A 
ATOM     19  C   UNL     1      60.815  46.798  18.400  1.00  0.00     0.098 A 
ATOM     20  C   UNL     1      59.569  48.700  16.753  1.00  0.00     0.176 A 
ATOM     21  C   UNL     1      60.765  46.589  17.025  1.00  0.00     0.146 A 
ATOM     22  C   UNL     1      60.137  47.533  16.185  1.00  0.00     0.111 A 
ATOM     23  O   UNL     1      61.310  45.486  16.520  1.00  0.00    -0.456 OA
ATOM     24  C   UNL     1      60.107  47.253  14.801  1.00  0.00     0.197 A 
ATOM     25  C   UNL     1      61.309  45.199  15.221  1.00  0.00     0.138 A 
ATOM     26  C   UNL     1      60.695  46.082  14.320  1.00  0.00     0.100 A 
ATOM     27  O   UNL     1      59.559  48.037  13.981  1.00  0.00    -0.289 OA
BRANCH  18  28
ATOM     28  O   UNL     1      59.248  50.124  18.722  1.00  0.00    -0.502 OA
ATOM     29  H   UNL     1      58.281  50.363  18.896  1.00  0.00     0.293 HD
ENDBRANCH  18  28
BRANCH  20  30
ATOM     30  O   UNL     1      58.906  49.608  15.922  1.00  0.00    -0.504 OA
ATOM     31  H   UNL     1      58.294  49.342  15.164  1.00  0.00     0.293 HD
ENDBRANCH  20  30
BRANCH  25  32
ATOM     32  C   UNL     1      61.949  43.939  14.768  1.00  0.00     0.017 A 
ATOM     33  C   UNL     1      62.279  42.909  15.670  1.00  0.00     0.012 A 
ATOM     34  C   UNL     1      62.209  43.749  13.398  1.00  0.00     0.012 A 
ATOM     35  C   UNL     1      62.871  41.728  15.212  1.00  0.00     0.001 A 
ATOM     36  C   UNL     1      62.803  42.568  12.946  1.00  0.00     0.001 A 
ATOM     37  C   UNL     1      63.135  41.559  13.852  1.00  0.00     0.000 A 
ENDBRANCH  25  32
ENDBRANCH   1  17
TORSDOF 9
ENDMDL
MODEL 6
REMARK VINA RESULT:    -5.754      4.260      8.376
REMARK INTER + INTRA:          -8.590
REMARK INTER:                  -7.882
REMARK INTRA:                  -0.708
REMARK UNBOUND:                -0.650
REMARK SMILES O=C([O-])[C@@H]1O[C@@H](Oc2cc3oc(-c4ccccc4)cc(=O)c3c(O)c2O)[C@@H](O)[C@H](O)[C@@H]1O
REMARK SMILES IDX 7 1 6 2 4 3 31 4 5 5 29 6 27 7 2 8 1 9 3 10 32 11 30 13
REMARK SMILES IDX 28 15 8 17 25 18 9 19 23 20 10 21 22 22 11 23 20 24 12 25
REMARK SMILES IDX 19 26 21 27 26 28 24 30 13 32 14 33 18 34 15 35 17 36 16 37
REMARK H PARENT 32 12 30 14 28 16 26 29 24 31
REMARK Flexibility Score: inf
ROOT
ATOM      1  O   UNL     1      61.844  44.593  16.800  1.00  0.00    -0.458 OA
ENDROOT
BRANCH   1   2
ATOM      2  C   UNL     1      60.724  44.925  17.639  1.00  0.00     0.339 C 
ATOM      3  C   UNL     1      61.937  46.645  18.682  1.00  0.00     0.199 C 
ATOM      4  C   UNL     1      61.986  45.927  20.054  1.00  0.00     0.180 C 
ATOM      5  O   UNL     1      60.760  46.307  17.960  1.00  0.00    -0.328 OA
ATOM      6  C   UNL     1      61.862  44.404  19.859  1.00  0.00     0.181 C 
ATOM      7  C   UNL     1      60.669  44.073  18.931  1.00  0.00     0.214 C 
BRANCH   3   8
ATOM      8  C   UNL     1      61.997  48.134  18.870  1.00  0.00     0.073 C 
ATOM      9  O   UNL     1      62.796  48.645  19.699  1.00  0.00    -0.547 OA
ATOM     10  O   UNL     1      61.207  48.964  18.085  1.00  0.00    -0.547 OA
ENDBRANCH   3   8
BRANCH   4  11
ATOM     11  O   UNL     1      61.003  46.411  20.942  1.00  0.00    -0.387 OA
ATOM     12  H   UNL     1      60.181  46.602  20.422  1.00  0.00     0.211 HD
ENDBRANCH   4  11
BRANCH   6  13
ATOM     13  O   UNL     1      61.699  43.782  21.109  1.00  0.00    -0.387 OA
ATOM     14  H   UNL     1      61.666  42.803  20.942  1.00  0.00     0.211 HD
ENDBRANCH   6  13
BRANCH   7  15
ATOM     15  O   UNL     1      60.578  42.698  18.642  1.00  0.00    -0.384 OA
ATOM     16  H   UNL     1      59.760  42.542  18.101  1.00  0.00     0.211 HD
ENDBRANCH   7  15
ENDBRANCH   1   2
BRANCH   1  17
ATOM     17  C   UNL     1      62.432  45.391  15.800  1.00  0.00     0.172 A 
ATOM     18  C   UNL     1      61.744  45.842  14.651  1.00  0.00     0.201 A 
ATOM     19  C   UNL     1      63.760  45.764  15.999  1.00  0.00     0.098 A 
ATOM     20  C   UNL     1      62.439  46.585  13.662  1.00  0.00     0.176 A 
ATOM     21  C   UNL     1      64.440  46.533  15.060  1.00  0.00     0.146 A 
ATOM     22  C   UNL     1      63.791  46.949  13.879  1.00  0.00     0.111 A 
ATOM     23  O   UNL     1      65.707  46.863  15.292  1.00  0.00    -0.456 OA
ATOM     24  C   UNL     1      64.542  47.715  12.959  1.00  0.00     0.197 A 
ATOM     25  C   UNL     1      66.438  47.593  14.453  1.00  0.00     0.138 A 
ATOM     26  C   UNL     1      65.869  48.036  13.249  1.00  0.00     0.100 A 
ATOM     27  O   UNL     1      64.044  48.120  11.875  1.00  0.00    -0.289 OA
BRANCH  18  28
ATOM     28  O   UNL     1      60.377  45.587  14.534  1.00  0.00    -0.502 OA
ATOM     29  H   UNL     1      59.917  45.326  13.672  1.00  0.00     0.293 HD
ENDBRANCH  18  28
BRANCH  20  30
ATOM     30  O   UNL     1      61.816  46.959  12.467  1.00  0.00    -0.504 OA
ATOM     31  H   UNL     1      62.290  47.035  11.579  1.00  0.00     0.293 HD
ENDBRANCH  20  30
BRANCH  25  32
ATOM     32  C   UNL     1      67.844  47.903  14.815  1.00  0.00     0.017 A 
ATOM     33  C   UNL     1      68.591  47.067  15.667  1.00  0.00     0.012 A 
ATOM     34  C   UNL     1      68.462  49.044  14.271  1.00  0.00     0.012 A 
ATOM     35  C   UNL     1      69.917  47.379  15.981  1.00  0.00     0.001 A 
ATOM     36  C   UNL     1      69.787  49.352  14.589  1.00  0.00     0.001 A 
ATOM     37  C   UNL     1      70.514  48.521  15.445  1.00  0.00     0.000 A 
ENDBRANCH  25  32
ENDBRANCH   1  17
TORSDOF 9
ENDMDL
MODEL 7
REMARK VINA RESULT:    -5.666      4.611      7.814
REMARK INTER + INTRA:          -8.470
REMARK INTER:                  -7.421
REMARK INTRA:                  -1.049
REMARK UNBOUND:                -0.650
REMARK SMILES O=C([O-])[C@@H]1O[C@@H](Oc2cc3oc(-c4ccccc4)cc(=O)c3c(O)c2O)[C@@H](O)[C@H](O)[C@@H]1O
REMARK SMILES IDX 7 1 6 2 4 3 31 4 5 5 29 6 27 7 2 8 1 9 3 10 32 11 30 13
REMARK SMILES IDX 28 15 8 17 25 18 9 19 23 20 10 21 22 22 11 23 20 24 12 25
REMARK SMILES IDX 19 26 21 27 26 28 24 30 13 32 14 33 18 34 15 35 17 36 16 37
REMARK H PARENT 32 12 30 14 28 16 26 29 24 31
REMARK Flexibility Score: inf
ROOT
ATOM      1  O   UNL     1      61.916  46.089  16.710  1.00  0.00    -0.458 OA
ENDROOT
BRANCH   1   2
ATOM      2  C   UNL     1      62.517  45.056  17.509  1.00  0.00     0.339 C 
ATOM      3  C   UNL     1      61.933  43.413  15.934  1.00  0.00     0.199 C 
ATOM      4  C   UNL     1      60.917  42.718  16.874  1.00  0.00     0.180 C 
ATOM      5  O   UNL     1      62.992  44.016  16.667  1.00  0.00    -0.328 OA
ATOM      6  C   UNL     1      60.383  43.722  17.913  1.00  0.00     0.181 C 
ATOM      7  C   UNL     1      61.553  44.485  18.578  1.00  0.00     0.214 C 
BRANCH   3   8
ATOM      8  C   UNL     1      62.502  42.425  14.957  1.00  0.00     0.073 C 
ATOM      9  O   UNL     1      61.792  41.487  14.506  1.00  0.00    -0.547 OA
ATOM     10  O   UNL     1      63.805  42.573  14.500  1.00  0.00    -0.547 OA
ENDBRANCH   3   8
BRANCH   4  11
ATOM     11  O   UNL     1      61.465  41.579  17.498  1.00  0.00    -0.387 OA
ATOM     12  H   UNL     1      61.108  40.773  17.045  1.00  0.00     0.211 HD
ENDBRANCH   4  11
BRANCH   6  13
ATOM     13  O   UNL     1      59.627  43.040  18.882  1.00  0.00    -0.387 OA
ATOM     14  H   UNL     1      59.116  43.726  19.386  1.00  0.00     0.211 HD
ENDBRANCH   6  13
BRANCH   7  15
ATOM     15  O   UNL     1      61.109  45.486  19.463  1.00  0.00    -0.384 OA
ATOM     16  H   UNL     1      61.303  46.373  19.061  1.00  0.00     0.211 HD
ENDBRANCH   7  15
ENDBRANCH   1   2
BRANCH   1  17
ATOM     17  C   UNL     1      62.556  46.953  15.803  1.00  0.00     0.172 A 
ATOM     18  C   UNL     1      61.868  47.748  14.859  1.00  0.00     0.201 A 
ATOM     19  C   UNL     1      63.946  47.027  15.884  1.00  0.00     0.098 A 
ATOM     20  C   UNL     1      62.602  48.539  13.936  1.00  0.00     0.176 A 
ATOM     21  C   UNL     1      64.675  47.835  15.017  1.00  0.00     0.146 A 
ATOM     22  C   UNL     1      64.015  48.596  14.030  1.00  0.00     0.111 A 
ATOM     23  O   UNL     1      66.000  47.871  15.131  1.00  0.00    -0.456 OA
ATOM     24  C   UNL     1      64.815  49.383  13.172  1.00  0.00     0.197 A 
ATOM     25  C   UNL     1      66.780  48.611  14.347  1.00  0.00     0.138 A 
ATOM     26  C   UNL     1      66.201  49.388  13.333  1.00  0.00     0.100 A 
ATOM     27  O   UNL     1      64.308  50.086  12.258  1.00  0.00    -0.289 OA
BRANCH  18  28
ATOM     28  O   UNL     1      60.473  47.778  14.884  1.00  0.00    -0.502 OA
ATOM     29  H   UNL     1      59.881  46.987  14.668  1.00  0.00     0.293 HD
ENDBRANCH  18  28
BRANCH  20  30
ATOM     30  O   UNL     1      61.957  49.257  12.925  1.00  0.00    -0.504 OA
ATOM     31  H   UNL     1      62.408  49.944  12.339  1.00  0.00     0.293 HD
ENDBRANCH  20  30
BRANCH  25  32
ATOM     32  C   UNL     1      68.248  48.577  14.565  1.00  0.00     0.017 A 
ATOM     33  C   UNL     1      69.126  49.397  13.829  1.00  0.00     0.012 A 
ATOM     34  C   UNL     1      68.781  47.727  15.552  1.00  0.00     0.012 A 
ATOM     35  C   UNL     1      70.503  49.351  14.065  1.00  0.00     0.001 A 
ATOM     36  C   UNL     1      70.158  47.684  15.782  1.00  0.00     0.001 A 
ATOM     37  C   UNL     1      71.019  48.494  15.038  1.00  0.00     0.000 A 
ENDBRANCH  25  32
ENDBRANCH   1  17
TORSDOF 9
ENDMDL
MODEL 8
REMARK VINA RESULT:    -5.600      3.252      5.648
REMARK INTER + INTRA:          -8.378
REMARK INTER:                  -8.085
REMARK INTRA:                  -0.293
REMARK UNBOUND:                -0.650
REMARK SMILES O=C([O-])[C@@H]1O[C@@H](Oc2cc3oc(-c4ccccc4)cc(=O)c3c(O)c2O)[C@@H](O)[C@H](O)[C@@H]1O
REMARK SMILES IDX 7 1 6 2 4 3 31 4 5 5 29 6 27 7 2 8 1 9 3 10 32 11 30 13
REMARK SMILES IDX 28 15 8 17 25 18 9 19 23 20 10 21 22 22 11 23 20 24 12 25
REMARK SMILES IDX 19 26 21 27 26 28 24 30 13 32 14 33 18 34 15 35 17 36 16 37
REMARK H PARENT 32 12 30 14 28 16 26 29 24 31
REMARK Flexibility Score: inf
ROOT
ATOM      1  O   UNL     1      64.255  45.395  13.633  1.00  0.00    -0.458 OA
ENDROOT
BRANCH   1   2
ATOM      2  C   UNL     1      63.786  45.976  12.404  1.00  0.00     0.339 C 
ATOM      3  C   UNL     1      64.923  47.984  12.849  1.00  0.00     0.199 C 
ATOM      4  C   UNL     1      63.623  48.805  13.034  1.00  0.00     0.180 C 
ATOM      5  O   UNL     1      64.737  46.917  11.927  1.00  0.00    -0.328 OA
ATOM      6  C   UNL     1      62.469  47.881  13.467  1.00  0.00     0.181 C 
ATOM      7  C   UNL     1      62.395  46.641  12.546  1.00  0.00     0.214 C 
BRANCH   3   8
ATOM      8  C   UNL     1      66.037  48.869  12.368  1.00  0.00     0.073 C 
ATOM      9  O   UNL     1      65.892  50.120  12.332  1.00  0.00    -0.547 OA
ATOM     10  O   UNL     1      67.259  48.314  12.013  1.00  0.00    -0.547 OA
ENDBRANCH   3   8
BRANCH   4  11
ATOM     11  O   UNL     1      63.286  49.535  11.875  1.00  0.00    -0.387 OA
ATOM     12  H   UNL     1      63.244  50.496  12.113  1.00  0.00     0.211 HD
ENDBRANCH   4  11
BRANCH   6  13
ATOM     13  O   UNL     1      61.257  48.593  13.431  1.00  0.00    -0.387 OA
ATOM     14  H   UNL     1      60.527  47.921  13.471  1.00  0.00     0.211 HD
ENDBRANCH   6  13
BRANCH   7  15
ATOM     15  O   UNL     1      61.419  45.717  12.965  1.00  0.00    -0.384 OA
ATOM     16  H   UNL     1      61.661  44.820  12.614  1.00  0.00     0.211 HD
ENDBRANCH   7  15
ENDBRANCH   1   2
BRANCH   1  17
ATOM     17  C   UNL     1      63.484  44.796  14.647  1.00  0.00     0.172 A 
ATOM     18  C   UNL     1      63.033  43.457  14.601  1.00  0.00     0.201 A 
ATOM     19  C   UNL     1      63.192  45.584  15.759  1.00  0.00     0.098 A 
ATOM     20  C   UNL     1      62.202  42.959  15.639  1.00  0.00     0.176 A 
ATOM     21  C   UNL     1      62.418  45.093  16.806  1.00  0.00     0.146 A 
ATOM     22  C   UNL     1      61.910  43.778  16.758  1.00  0.00     0.111 A 
ATOM     23  O   UNL     1      62.163  45.883  17.845  1.00  0.00    -0.456 OA
ATOM     24  C   UNL     1      61.119  43.346  17.846  1.00  0.00     0.197 A 
ATOM     25  C   UNL     1      61.433  45.502  18.890  1.00  0.00     0.138 A 
ATOM     26  C   UNL     1      60.881  44.213  18.913  1.00  0.00     0.100 A 
ATOM     27  O   UNL     1      60.618  42.191  17.880  1.00  0.00    -0.289 OA
BRANCH  18  28
ATOM     28  O   UNL     1      63.454  42.634  13.557  1.00  0.00    -0.502 OA
ATOM     29  H   UNL     1      63.641  42.955  12.616  1.00  0.00     0.293 HD
ENDBRANCH  18  28
BRANCH  20  30
ATOM     30  O   UNL     1      61.655  41.674  15.574  1.00  0.00    -0.504 OA
ATOM     31  H   UNL     1      62.156  40.830  15.811  1.00  0.00     0.293 HD
ENDBRANCH  20  30
BRANCH  25  32
ATOM     32  C   UNL     1      61.213  46.467  19.996  1.00  0.00     0.017 A 
ATOM     33  C   UNL     1      61.038  47.844  19.755  1.00  0.00     0.012 A 
ATOM     34  C   UNL     1      61.147  45.997  21.321  1.00  0.00     0.012 A 
ATOM     35  C   UNL     1      60.821  48.727  20.817  1.00  0.00     0.001 A 
ATOM     36  C   UNL     1      60.932  46.885  22.379  1.00  0.00     0.001 A 
ATOM     37  C   UNL     1      60.771  48.249  22.127  1.00  0.00     0.000 A 
ENDBRANCH  25  32
ENDBRANCH   1  17
TORSDOF 9
ENDMDL
MODEL 9
REMARK VINA RESULT:    -5.544      5.149      7.604
REMARK INTER + INTRA:          -8.300
REMARK INTER:                  -8.360
REMARK INTRA:                   0.060
REMARK UNBOUND:                -0.650
REMARK SMILES O=C([O-])[C@@H]1O[C@@H](Oc2cc3oc(-c4ccccc4)cc(=O)c3c(O)c2O)[C@@H](O)[C@H](O)[C@@H]1O
REMARK SMILES IDX 7 1 6 2 4 3 31 4 5 5 29 6 27 7 2 8 1 9 3 10 32 11 30 13
REMARK SMILES IDX 28 15 8 17 25 18 9 19 23 20 10 21 22 22 11 23 20 24 12 25
REMARK SMILES IDX 19 26 21 27 26 28 24 30 13 32 14 33 18 34 15 35 17 36 16 37
REMARK H PARENT 32 12 30 14 28 16 26 29 24 31
REMARK Flexibility Score: inf
ROOT
ATOM      1  O   UNL     1      61.905  45.707  16.307  1.00  0.00    -0.458 OA
ENDROOT
BRANCH   1   2
ATOM      2  C   UNL     1      61.853  44.270  16.319  1.00  0.00     0.339 C 
ATOM      3  C   UNL     1      62.574  44.165  14.084  1.00  0.00     0.199 C 
ATOM      4  C   UNL     1      61.225  43.612  13.562  1.00  0.00     0.180 C 
ATOM      5  O   UNL     1      62.823  43.750  15.421  1.00  0.00    -0.328 OA
ATOM      6  C   UNL     1      60.080  44.029  14.504  1.00  0.00     0.181 C 
ATOM      7  C   UNL     1      60.449  43.716  15.973  1.00  0.00     0.214 C 
BRANCH   3   8
ATOM      8  C   UNL     1      63.702  43.712  13.203  1.00  0.00     0.073 C 
ATOM      9  O   UNL     1      64.890  43.732  13.619  1.00  0.00    -0.547 OA
ATOM     10  O   UNL     1      63.432  43.211  11.935  1.00  0.00    -0.547 OA
ENDBRANCH   3   8
BRANCH   4  11
ATOM     11  O   UNL     1      61.258  42.214  13.384  1.00  0.00    -0.387 OA
ATOM     12  H   UNL     1      60.510  41.816  13.899  1.00  0.00     0.211 HD
ENDBRANCH   4  11
BRANCH   6  13
ATOM     13  O   UNL     1      58.902  43.355  14.139  1.00  0.00    -0.387 OA
ATOM     14  H   UNL     1      58.310  43.355  14.938  1.00  0.00     0.211 HD
ENDBRANCH   6  13
BRANCH   7  15
ATOM     15  O   UNL     1      59.475  44.173  16.881  1.00  0.00    -0.384 OA
ATOM     16  H   UNL     1      58.753  43.493  16.941  1.00  0.00     0.211 HD
ENDBRANCH   7  15
ENDBRANCH   1   2
BRANCH   1  17
ATOM     17  C   UNL     1      62.661  46.531  15.453  1.00  0.00     0.172 A 
ATOM     18  C   UNL     1      62.112  47.245  14.364  1.00  0.00     0.201 A 
ATOM     19  C   UNL     1      64.020  46.652  15.742  1.00  0.00     0.098 A 
ATOM     20  C   UNL     1      62.965  47.998  13.515  1.00  0.00     0.176 A 
ATOM     21  C   UNL     1      64.859  47.425  14.946  1.00  0.00     0.146 A 
ATOM     22  C   UNL     1      64.345  48.103  13.821  1.00  0.00     0.111 A 
ATOM     23  O   UNL     1      66.149  47.509  15.259  1.00  0.00    -0.456 OA
ATOM     24  C   UNL     1      65.253  48.858  13.046  1.00  0.00     0.197 A 
ATOM     25  C   UNL     1      67.027  48.221  14.558  1.00  0.00     0.138 A 
ATOM     26  C   UNL     1      66.597  48.915  13.417  1.00  0.00     0.100 A 
ATOM     27  O   UNL     1      64.880  49.487  12.019  1.00  0.00    -0.289 OA
BRANCH  18  28
ATOM     28  O   UNL     1      60.731  47.235  14.172  1.00  0.00    -0.502 OA
ATOM     29  H   UNL     1      60.130  46.451  14.390  1.00  0.00     0.293 HD
ENDBRANCH  18  28
BRANCH  20  30
ATOM     30  O   UNL     1      62.471  48.631  12.370  1.00  0.00    -0.504 OA
ATOM     31  H   UNL     1      61.491  48.797  12.191  1.00  0.00     0.293 HD
ENDBRANCH  20  30
BRANCH  25  32
ATOM     32  C   UNL     1      68.443  48.244  15.001  1.00  0.00     0.017 A 
ATOM     33  C   UNL     1      69.281  49.348  14.747  1.00  0.00     0.012 A 
ATOM     34  C   UNL     1      68.960  47.151  15.720  1.00  0.00     0.012 A 
ATOM     35  C   UNL     1      70.608  49.346  15.187  1.00  0.00     0.001 A 
ATOM     36  C   UNL     1      70.288  47.154  16.156  1.00  0.00     0.001 A 
ATOM     37  C   UNL     1      71.112  48.249  15.888  1.00  0.00     0.000 A 
ENDBRANCH  25  32
ENDBRANCH   1  17
TORSDOF 9
ENDMDL
