MODEL 1
REMARK VINA RESULT:    -6.215      0.000      0.000
REMARK INTER + INTRA:          -9.232
REMARK INTER:                  -8.395
REMARK INTRA:                  -0.837
REMARK UNBOUND:                -0.837
REMARK SMILES CC(=O)CCC=C(C)CCC=C(C)C
REMARK SMILES IDX 7 1 6 2 8 3 9 4 10 5 11 6 13 7 12 8 14 9 5 10 4 11 2 12 3 13
REMARK SMILES IDX 1 14
REMARK H PARENT
REMARK Flexibility Score: inf
ROOT
ATOM      1  C   UNL     1      -4.147 -12.280  28.491  1.00  0.00    -0.077 C 
ATOM      2  C   UNL     1      -4.802 -13.451  28.332  1.00  0.00    -0.028 C 
ATOM      3  C   UNL     1      -4.805 -11.097  29.160  1.00  0.00     0.039 C 
ENDROOT
BRANCH   1   4
ATOM      4  C   UNL     1      -2.729 -12.152  27.978  1.00  0.00     0.034 C 
BRANCH   4   5
ATOM      5  C   UNL     1      -1.885 -13.362  28.396  1.00  0.00     0.032 C 
BRANCH   5   6
ATOM      6  C   UNL     1      -0.801 -12.966  29.368  1.00  0.00    -0.028 C 
ATOM      7  C   UNL     1      -2.234 -13.530  31.334  1.00  0.00     0.039 C 
ATOM      8  C   UNL     1      -0.951 -13.038  30.708  1.00  0.00    -0.080 C 
ATOM      9  C   UNL     1       0.197 -12.617  31.589  1.00  0.00     0.039 C 
ENDBRANCH   5   6
ENDBRANCH   4   5
ENDBRANCH   1   4
BRANCH   2  10
ATOM     10  C   UNL     1      -6.217 -13.679  28.815  1.00  0.00     0.035 C 
BRANCH  10  11
ATOM     11  C   UNL     1      -6.323 -14.919  29.714  1.00  0.00     0.079 C 
BRANCH  11  12
ATOM     12  C   UNL     1      -7.383 -15.872  29.223  1.00  0.00     0.130 C 
ATOM     13  O   UNL     1      -7.206 -17.076  29.326  1.00  0.00    -0.300 OA
ATOM     14  C   UNL     1      -8.661 -15.373  28.616  1.00  0.00     0.087 C 
ENDBRANCH  11  12
ENDBRANCH  10  11
ENDBRANCH   2  10
TORSDOF 6
ENDMDL
MODEL 2
REMARK VINA RESULT:    -6.156      2.905      5.455
REMARK INTER + INTRA:          -9.152
REMARK INTER:                  -8.072
REMARK INTRA:                  -1.080
REMARK UNBOUND:                -0.837
REMARK SMILES CC(=O)CCC=C(C)CCC=C(C)C
REMARK SMILES IDX 7 1 6 2 8 3 9 4 10 5 11 6 13 7 12 8 14 9 5 10 4 11 2 12 3 13
REMARK SMILES IDX 1 14
REMARK H PARENT
REMARK Flexibility Score: inf
ROOT
ATOM      1  C   UNL     1      -3.554 -13.416  27.758  1.00  0.00    -0.077 C 
ATOM      2  C   UNL     1      -2.537 -14.005  28.424  1.00  0.00    -0.028 C 
ATOM      3  C   UNL     1      -3.377 -12.082  27.073  1.00  0.00     0.039 C 
ENDROOT
BRANCH   1   4
ATOM      4  C   UNL     1      -4.900 -14.107  27.706  1.00  0.00     0.034 C 
BRANCH   4   5
ATOM      5  C   UNL     1      -5.850 -13.535  28.764  1.00  0.00     0.032 C 
BRANCH   5   6
ATOM      6  C   UNL     1      -5.948 -14.446  29.963  1.00  0.00    -0.028 C 
ATOM      7  C   UNL     1      -4.560 -12.907  31.357  1.00  0.00     0.039 C 
ATOM      8  C   UNL     1      -5.363 -14.169  31.148  1.00  0.00    -0.080 C 
ATOM      9  C   UNL     1      -5.525 -15.148  32.282  1.00  0.00     0.039 C 
ENDBRANCH   5   6
ENDBRANCH   4   5
ENDBRANCH   1   4
BRANCH   2  10
ATOM     10  C   UNL     1      -1.155 -13.398  28.527  1.00  0.00     0.035 C 
BRANCH  10  11
ATOM     11  C   UNL     1      -0.468 -13.757  29.852  1.00  0.00     0.079 C 
BRANCH  11  12
ATOM     12  C   UNL     1      -0.396 -12.572  30.780  1.00  0.00     0.130 C 
ATOM     13  O   UNL     1       0.401 -12.578  31.705  1.00  0.00    -0.300 OA
ATOM     14  C   UNL     1      -1.280 -11.375  30.588  1.00  0.00     0.087 C 
ENDBRANCH  11  12
ENDBRANCH  10  11
ENDBRANCH   2  10
TORSDOF 6
ENDMDL
MODEL 3
REMARK VINA RESULT:    -6.053      2.164      5.537
REMARK INTER + INTRA:          -9.012
REMARK INTER:                  -8.202
REMARK INTRA:                  -0.811
REMARK UNBOUND:                -0.837
REMARK SMILES CC(=O)CCC=C(C)CCC=C(C)C
REMARK SMILES IDX 7 1 6 2 8 3 9 4 10 5 11 6 13 7 12 8 14 9 5 10 4 11 2 12 3 13
REMARK SMILES IDX 1 14
REMARK H PARENT
REMARK Flexibility Score: inf
ROOT
ATOM      1  C   UNL     1      -3.867 -11.590  28.799  1.00  0.00    -0.077 C 
ATOM      2  C   UNL     1      -2.605 -11.445  29.262  1.00  0.00    -0.028 C 
ATOM      3  C   UNL     1      -5.028 -10.872  29.445  1.00  0.00     0.039 C 
ENDROOT
BRANCH   1   4
ATOM      4  C   UNL     1      -4.118 -12.498  27.615  1.00  0.00     0.034 C 
BRANCH   4   5
ATOM      5  C   UNL     1      -4.312 -13.949  28.069  1.00  0.00     0.032 C 
BRANCH   5   6
ATOM      6  C   UNL     1      -5.753 -14.377  27.939  1.00  0.00    -0.028 C 
ATOM      7  C   UNL     1      -5.998 -14.621  30.412  1.00  0.00     0.039 C 
ATOM      8  C   UNL     1      -6.529 -14.685  29.000  1.00  0.00    -0.080 C 
ATOM      9  C   UNL     1      -7.957 -15.100  28.757  1.00  0.00     0.039 C 
ENDBRANCH   5   6
ENDBRANCH   4   5
ENDBRANCH   1   4
BRANCH   2  10
ATOM     10  C   UNL     1      -2.252 -10.556  30.433  1.00  0.00     0.035 C 
BRANCH  10  11
ATOM     11  C   UNL     1      -2.217 -11.335  31.754  1.00  0.00     0.079 C 
BRANCH  11  12
ATOM     12  C   UNL     1      -1.451 -12.626  31.619  1.00  0.00     0.130 C 
ATOM     13  O   UNL     1      -2.047 -13.690  31.676  1.00  0.00    -0.300 OA
ATOM     14  C   UNL     1       0.035 -12.634  31.407  1.00  0.00     0.087 C 
ENDBRANCH  11  12
ENDBRANCH  10  11
ENDBRANCH   2  10
TORSDOF 6
ENDMDL
MODEL 4
REMARK VINA RESULT:    -5.999      2.454      4.230
REMARK INTER + INTRA:          -8.941
REMARK INTER:                  -7.860
REMARK INTRA:                  -1.081
REMARK UNBOUND:                -0.837
REMARK SMILES CC(=O)CCC=C(C)CCC=C(C)C
REMARK SMILES IDX 7 1 6 2 8 3 9 4 10 5 11 6 13 7 12 8 14 9 5 10 4 11 2 12 3 13
REMARK SMILES IDX 1 14
REMARK H PARENT
REMARK Flexibility Score: inf
ROOT
ATOM      1  C   UNL     1      -5.164 -13.228  29.952  1.00  0.00    -0.077 C 
ATOM      2  C   UNL     1      -4.867 -11.912  30.037  1.00  0.00    -0.028 C 
ATOM      3  C   UNL     1      -5.547 -13.862  28.636  1.00  0.00     0.039 C 
ENDROOT
BRANCH   1   4
ATOM      4  C   UNL     1      -5.120 -14.077  31.203  1.00  0.00     0.034 C 
BRANCH   4   5
ATOM      5  C   UNL     1      -4.008 -13.603  32.147  1.00  0.00     0.032 C 
BRANCH   5   6
ATOM      6  C   UNL     1      -2.643 -13.839  31.548  1.00  0.00    -0.028 C 
ATOM      7  C   UNL     1      -1.954 -11.475  31.963  1.00  0.00     0.039 C 
ATOM      8  C   UNL     1      -1.701 -12.875  31.459  1.00  0.00    -0.080 C 
ATOM      9  C   UNL     1      -0.369 -13.218  30.843  1.00  0.00     0.039 C 
ENDBRANCH   5   6
ENDBRANCH   4   5
ENDBRANCH   1   4
BRANCH   2  10
ATOM     10  C   UNL     1      -4.877 -10.983  28.844  1.00  0.00     0.035 C 
BRANCH  10  11
ATOM     11  C   UNL     1      -3.457 -10.617  28.392  1.00  0.00     0.079 C 
BRANCH  11  12
ATOM     12  C   UNL     1      -2.904 -11.627  27.419  1.00  0.00     0.130 C 
ATOM     13  O   UNL     1      -2.199 -12.536  27.830  1.00  0.00    -0.300 OA
ATOM     14  C   UNL     1      -3.209 -11.548  25.952  1.00  0.00     0.087 C 
ENDBRANCH  11  12
ENDBRANCH  10  11
ENDBRANCH   2  10
TORSDOF 6
ENDMDL
MODEL 5
REMARK VINA RESULT:    -5.975      2.586      5.837
REMARK INTER + INTRA:          -8.908
REMARK INTER:                  -8.023
REMARK INTRA:                  -0.885
REMARK UNBOUND:                -0.837
REMARK SMILES CC(=O)CCC=C(C)CCC=C(C)C
REMARK SMILES IDX 7 1 6 2 8 3 9 4 10 5 11 6 13 7 12 8 14 9 5 10 4 11 2 12 3 13
REMARK SMILES IDX 1 14
REMARK H PARENT
REMARK Flexibility Score: inf
ROOT
ATOM      1  C   UNL     1      -3.881 -12.266  32.141  1.00  0.00    -0.077 C 
ATOM      2  C   UNL     1      -2.689 -12.769  31.751  1.00  0.00    -0.028 C 
ATOM      3  C   UNL     1      -4.129 -10.777  32.183  1.00  0.00     0.039 C 
ENDROOT
BRANCH   1   4
ATOM      4  C   UNL     1      -4.984 -13.217  32.551  1.00  0.00     0.034 C 
BRANCH   4   5
ATOM      5  C   UNL     1      -4.873 -14.545  31.793  1.00  0.00     0.032 C 
BRANCH   5   6
ATOM      6  C   UNL     1      -6.057 -14.756  30.881  1.00  0.00    -0.028 C 
ATOM      7  C   UNL     1      -4.796 -13.908  28.900  1.00  0.00     0.039 C 
ATOM      8  C   UNL     1      -6.031 -14.469  29.562  1.00  0.00    -0.080 C 
ATOM      9  C   UNL     1      -7.270 -14.720  28.742  1.00  0.00     0.039 C 
ENDBRANCH   5   6
ENDBRANCH   4   5
ENDBRANCH   1   4
BRANCH   2  10
ATOM     10  C   UNL     1      -1.529 -11.903  31.315  1.00  0.00     0.035 C 
BRANCH  10  11
ATOM     11  C   UNL     1      -0.447 -12.715  30.589  1.00  0.00     0.079 C 
BRANCH  11  12
ATOM     12  C   UNL     1      -0.877 -13.092  29.195  1.00  0.00     0.130 C 
ATOM     13  O   UNL     1      -1.668 -12.380  28.594  1.00  0.00    -0.300 OA
ATOM     14  C   UNL     1      -0.349 -14.323  28.520  1.00  0.00     0.087 C 
ENDBRANCH  11  12
ENDBRANCH  10  11
ENDBRANCH   2  10
TORSDOF 6
ENDMDL
MODEL 6
REMARK VINA RESULT:    -5.920      2.362      4.561
REMARK INTER + INTRA:          -8.833
REMARK INTER:                  -7.974
REMARK INTRA:                  -0.859
REMARK UNBOUND:                -0.837
REMARK SMILES CC(=O)CCC=C(C)CCC=C(C)C
REMARK SMILES IDX 7 1 6 2 8 3 9 4 10 5 11 6 13 7 12 8 14 9 5 10 4 11 2 12 3 13
REMARK SMILES IDX 1 14
REMARK H PARENT
REMARK Flexibility Score: inf
ROOT
ATOM      1  C   UNL     1      -6.324 -14.721  28.681  1.00  0.00    -0.077 C 
ATOM      2  C   UNL     1      -5.566 -14.450  29.766  1.00  0.00    -0.028 C 
ATOM      3  C   UNL     1      -7.751 -15.193  28.818  1.00  0.00     0.039 C 
ENDROOT
BRANCH   1   4
ATOM      4  C   UNL     1      -5.724 -14.555  27.301  1.00  0.00     0.034 C 
BRANCH   4   5
ATOM      5  C   UNL     1      -4.200 -14.406  27.382  1.00  0.00     0.032 C 
BRANCH   5   6
ATOM      6  C   UNL     1      -3.702 -13.341  26.435  1.00  0.00    -0.028 C 
ATOM      7  C   UNL     1      -3.636 -11.631  28.254  1.00  0.00     0.039 C 
ATOM      8  C   UNL     1      -3.443 -12.074  26.823  1.00  0.00    -0.080 C 
ATOM      9  C   UNL     1      -2.949 -11.089  25.796  1.00  0.00     0.039 C 
ENDBRANCH   5   6
ENDBRANCH   4   5
ENDBRANCH   1   4
BRANCH   2  10
ATOM     10  C   UNL     1      -6.075 -14.578  31.184  1.00  0.00     0.035 C 
BRANCH  10  11
ATOM     11  C   UNL     1      -4.932 -14.574  32.207  1.00  0.00     0.079 C 
BRANCH  11  12
ATOM     12  C   UNL     1      -4.089 -13.329  32.094  1.00  0.00     0.130 C 
ATOM     13  O   UNL     1      -4.532 -12.263  32.494  1.00  0.00    -0.300 OA
ATOM     14  C   UNL     1      -2.710 -13.371  31.506  1.00  0.00     0.087 C 
ENDBRANCH  11  12
ENDBRANCH  10  11
ENDBRANCH   2  10
TORSDOF 6
ENDMDL
MODEL 7
REMARK VINA RESULT:    -5.850      1.409      2.174
REMARK INTER + INTRA:          -8.738
REMARK INTER:                  -7.680
REMARK INTRA:                  -1.058
REMARK UNBOUND:                -0.837
REMARK SMILES CC(=O)CCC=C(C)CCC=C(C)C
REMARK SMILES IDX 7 1 6 2 8 3 9 4 10 5 11 6 13 7 12 8 14 9 5 10 4 11 2 12 3 13
REMARK SMILES IDX 1 14
REMARK H PARENT
REMARK Flexibility Score: inf
ROOT
ATOM      1  C   UNL     1      -2.732 -12.962  28.156  1.00  0.00    -0.077 C 
ATOM      2  C   UNL     1      -3.546 -14.030  28.307  1.00  0.00    -0.028 C 
ATOM      3  C   UNL     1      -3.161 -11.754  27.359  1.00  0.00     0.039 C 
ENDROOT
BRANCH   1   4
ATOM      4  C   UNL     1      -1.359 -12.986  28.793  1.00  0.00     0.034 C 
BRANCH   4   5
ATOM      5  C   UNL     1      -1.459 -13.248  30.300  1.00  0.00     0.032 C 
BRANCH   5   6
ATOM      6  C   UNL     1      -2.241 -12.160  30.995  1.00  0.00    -0.028 C 
ATOM      7  C   UNL     1      -3.892 -13.801  31.900  1.00  0.00     0.039 C 
ATOM      8  C   UNL     1      -3.350 -12.402  31.726  1.00  0.00    -0.080 C 
ATOM      9  C   UNL     1      -4.055 -11.241  32.379  1.00  0.00     0.039 C 
ENDBRANCH   5   6
ENDBRANCH   4   5
ENDBRANCH   1   4
BRANCH   2  10
ATOM     10  C   UNL     1      -4.936 -14.099  27.717  1.00  0.00     0.035 C 
BRANCH  10  11
ATOM     11  C   UNL     1      -6.007 -13.632  28.712  1.00  0.00     0.079 C 
BRANCH  11  12
ATOM     12  C   UNL     1      -6.800 -14.791  29.261  1.00  0.00     0.130 C 
ATOM     13  O   UNL     1      -6.379 -15.405  30.229  1.00  0.00    -0.300 OA
ATOM     14  C   UNL     1      -8.104 -15.204  28.646  1.00  0.00     0.087 C 
ENDBRANCH  11  12
ENDBRANCH  10  11
ENDBRANCH   2  10
TORSDOF 6
ENDMDL
MODEL 8
REMARK VINA RESULT:    -5.722      2.319      5.492
REMARK INTER + INTRA:          -8.566
REMARK INTER:                  -7.753
REMARK INTRA:                  -0.813
REMARK UNBOUND:                -0.837
REMARK SMILES CC(=O)CCC=C(C)CCC=C(C)C
REMARK SMILES IDX 7 1 6 2 8 3 9 4 10 5 11 6 13 7 12 8 14 9 5 10 4 11 2 12 3 13
REMARK SMILES IDX 1 14
REMARK H PARENT
REMARK Flexibility Score: inf
ROOT
ATOM      1  C   UNL     1      -2.878 -13.116  31.119  1.00  0.00    -0.077 C 
ATOM      2  C   UNL     1      -3.417 -12.002  30.575  1.00  0.00    -0.028 C 
ATOM      3  C   UNL     1      -1.428 -13.476  30.897  1.00  0.00     0.039 C 
ENDROOT
BRANCH   1   4
ATOM      4  C   UNL     1      -3.751 -14.023  31.959  1.00  0.00     0.034 C 
BRANCH   4   5
ATOM      5  C   UNL     1      -5.233 -13.680  31.775  1.00  0.00     0.032 C 
BRANCH   5   6
ATOM      6  C   UNL     1      -5.971 -14.792  31.070  1.00  0.00    -0.028 C 
ATOM      7  C   UNL     1      -5.983 -13.537  28.911  1.00  0.00     0.039 C 
ATOM      8  C   UNL     1      -6.317 -14.736  29.766  1.00  0.00    -0.080 C 
ATOM      9  C   UNL     1      -7.051 -15.904  29.161  1.00  0.00     0.039 C 
ENDBRANCH   5   6
ENDBRANCH   4   5
ENDBRANCH   1   4
BRANCH   2  10
ATOM     10  C   UNL     1      -2.626 -11.030  29.728  1.00  0.00     0.035 C 
BRANCH  10  11
ATOM     11  C   UNL     1      -3.329 -10.726  28.398  1.00  0.00     0.079 C 
BRANCH  11  12
ATOM     12  C   UNL     1      -2.950 -11.719  27.329  1.00  0.00     0.130 C 
ATOM     13  O   UNL     1      -2.362 -12.744  27.640  1.00  0.00    -0.300 OA
ATOM     14  C   UNL     1      -3.287 -11.481  25.887  1.00  0.00     0.087 C 
ENDBRANCH  11  12
ENDBRANCH  10  11
ENDBRANCH   2  10
TORSDOF 6
ENDMDL
MODEL 9
REMARK VINA RESULT:    -5.720      2.848      4.888
REMARK INTER + INTRA:          -8.563
REMARK INTER:                  -7.618
REMARK INTRA:                  -0.946
REMARK UNBOUND:                -0.837
REMARK SMILES CC(=O)CCC=C(C)CCC=C(C)C
REMARK SMILES IDX 7 1 6 2 8 3 9 4 10 5 11 6 13 7 12 8 14 9 5 10 4 11 2 12 3 13
REMARK SMILES IDX 1 14
REMARK H PARENT
REMARK Flexibility Score: inf
ROOT
ATOM      1  C   UNL     1      -6.007 -14.592  29.967  1.00  0.00    -0.077 C 
ATOM      2  C   UNL     1      -4.937 -14.039  29.355  1.00  0.00    -0.028 C 
ATOM      3  C   UNL     1      -7.258 -14.942  29.197  1.00  0.00     0.039 C 
ENDROOT
BRANCH   1   4
ATOM      4  C   UNL     1      -5.951 -14.856  31.456  1.00  0.00     0.034 C 
BRANCH   4   5
ATOM      5  C   UNL     1      -4.719 -14.193  32.083  1.00  0.00     0.032 C 
BRANCH   5   6
ATOM      6  C   UNL     1      -5.096 -12.946  32.845  1.00  0.00    -0.028 C 
ATOM      7  C   UNL     1      -3.501 -11.550  31.524  1.00  0.00     0.039 C 
ATOM      8  C   UNL     1      -4.546 -11.737  32.597  1.00  0.00    -0.080 C 
ATOM      9  C   UNL     1      -4.996 -10.556  33.417  1.00  0.00     0.039 C 
ENDBRANCH   5   6
ENDBRANCH   4   5
ENDBRANCH   1   4
BRANCH   2  10
ATOM     10  C   UNL     1      -4.893 -13.744  27.873  1.00  0.00     0.035 C 
BRANCH  10  11
ATOM     11  C   UNL     1      -3.469 -13.842  27.310  1.00  0.00     0.079 C 
BRANCH  11  12
ATOM     12  C   UNL     1      -2.534 -12.875  27.991  1.00  0.00     0.130 C 
ATOM     13  O   UNL     1      -2.722 -11.673  27.877  1.00  0.00    -0.300 OA
ATOM     14  C   UNL     1      -1.377 -13.356  28.816  1.00  0.00     0.087 C 
ENDBRANCH  11  12
ENDBRANCH  10  11
ENDBRANCH   2  10
TORSDOF 6
ENDMDL
