MODEL 1
REMARK VINA RESULT:    -4.739      0.000      0.000
REMARK INTER + INTRA:          -5.189
REMARK INTER:                  -5.155
REMARK INTRA:                  -0.034
REMARK UNBOUND:                -0.034
REMARK SMILES O=C([O-])c1ccc(O)cc1
REMARK SMILES IDX 4 1 5 2 10 3 6 4 9 5 7 6 2 7 1 8 3 9 8 10
REMARK H PARENT 8 11
REMARK Flexibility Score: inf
ROOT
ATOM      1  C   UNL     1     -13.071  45.029  22.937  1.00  0.00    -0.003 A 
ATOM      2  C   UNL     1     -12.692  45.888  23.984  1.00  0.00     0.014 A 
ATOM      3  C   UNL     1     -14.262  44.290  23.059  1.00  0.00     0.014 A 
ATOM      4  C   UNL     1     -13.488  46.005  25.128  1.00  0.00     0.047 A 
ATOM      5  C   UNL     1     -15.055  44.409  24.204  1.00  0.00     0.047 A 
ATOM      6  C   UNL     1     -14.670  45.266  25.242  1.00  0.00     0.115 A 
ENDROOT
BRANCH   1   7
ATOM      7  C   UNL     1     -12.227  44.908  21.728  1.00  0.00     0.071 C 
ATOM      8  O   UNL     1     -12.738  44.598  20.618  1.00  0.00    -0.545 OA
ATOM      9  O   UNL     1     -10.857  45.134  21.799  1.00  0.00    -0.545 OA
ENDBRANCH   1   7
BRANCH   6  10
ATOM     10  O   UNL     1     -15.452  45.393  26.387  1.00  0.00    -0.508 OA
ATOM     11  H   UNL     1     -15.487  46.261  26.911  1.00  0.00     0.293 HD
ENDBRANCH   6  10
TORSDOF 2
ENDMDL
MODEL 2
REMARK VINA RESULT:    -4.722      0.175      1.540
REMARK INTER + INTRA:          -5.170
REMARK INTER:                  -5.136
REMARK INTRA:                  -0.034
REMARK UNBOUND:                -0.034
REMARK SMILES O=C([O-])c1ccc(O)cc1
REMARK SMILES IDX 4 1 5 2 10 3 6 4 9 5 7 6 2 7 1 8 3 9 8 10
REMARK H PARENT 8 11
REMARK Flexibility Score: inf
ROOT
ATOM      1  C   UNL     1     -13.082  45.010  22.875  1.00  0.00    -0.003 A 
ATOM      2  C   UNL     1     -14.235  44.206  22.939  1.00  0.00     0.014 A 
ATOM      3  C   UNL     1     -12.789  45.869  23.951  1.00  0.00     0.014 A 
ATOM      4  C   UNL     1     -15.074  44.259  24.056  1.00  0.00     0.047 A 
ATOM      5  C   UNL     1     -13.631  45.920  25.066  1.00  0.00     0.047 A 
ATOM      6  C   UNL     1     -14.776  45.115  25.121  1.00  0.00     0.115 A 
ENDROOT
BRANCH   1   7
ATOM      7  C   UNL     1     -12.196  44.952  21.692  1.00  0.00     0.071 C 
ATOM      8  O   UNL     1     -12.650  44.611  20.567  1.00  0.00    -0.545 OA
ATOM      9  O   UNL     1     -10.847  45.272  21.805  1.00  0.00    -0.545 OA
ENDBRANCH   1   7
BRANCH   6  10
ATOM     10  O   UNL     1     -15.622  45.158  26.226  1.00  0.00    -0.508 OA
ATOM     11  H   UNL     1     -16.607  44.930  26.148  1.00  0.00     0.293 HD
ENDBRANCH   6  10
TORSDOF 2
ENDMDL
MODEL 3
REMARK VINA RESULT:    -4.578     19.019     20.085
REMARK INTER + INTRA:          -5.013
REMARK INTER:                  -4.983
REMARK INTRA:                  -0.030
REMARK UNBOUND:                -0.034
REMARK SMILES O=C([O-])c1ccc(O)cc1
REMARK SMILES IDX 4 1 5 2 10 3 6 4 9 5 7 6 2 7 1 8 3 9 8 10
REMARK H PARENT 8 11
REMARK Flexibility Score: inf
ROOT
ATOM      1  C   UNL     1     -22.990  61.514  28.838  1.00  0.00    -0.003 A 
ATOM      2  C   UNL     1     -23.137  62.105  30.106  1.00  0.00     0.014 A 
ATOM      3  C   UNL     1     -24.064  60.785  28.296  1.00  0.00     0.014 A 
ATOM      4  C   UNL     1     -24.335  61.970  30.816  1.00  0.00     0.047 A 
ATOM      5  C   UNL     1     -25.260  60.652  29.008  1.00  0.00     0.047 A 
ATOM      6  C   UNL     1     -25.398  61.243  30.270  1.00  0.00     0.115 A 
ENDROOT
BRANCH   1   7
ATOM      7  C   UNL     1     -21.722  61.658  28.090  1.00  0.00     0.071 C 
ATOM      8  O   UNL     1     -21.723  62.082  26.903  1.00  0.00    -0.545 OA
ATOM      9  O   UNL     1     -20.510  61.329  28.686  1.00  0.00    -0.545 OA
ENDBRANCH   1   7
BRANCH   6  10
ATOM     10  O   UNL     1     -26.584  61.118  30.989  1.00  0.00    -0.508 OA
ATOM     11  H   UNL     1     -27.305  61.829  30.949  1.00  0.00     0.293 HD
ENDBRANCH   6  10
TORSDOF 2
ENDMDL
MODEL 4
REMARK VINA RESULT:    -4.542     20.889     22.618
REMARK INTER + INTRA:          -4.974
REMARK INTER:                  -4.939
REMARK INTRA:                  -0.036
REMARK UNBOUND:                -0.034
REMARK SMILES O=C([O-])c1ccc(O)cc1
REMARK SMILES IDX 4 1 5 2 10 3 6 4 9 5 7 6 2 7 1 8 3 9 8 10
REMARK H PARENT 8 11
REMARK Flexibility Score: inf
ROOT
ATOM      1  C   UNL     1     -26.334  60.184  32.751  1.00  0.00    -0.003 A 
ATOM      2  C   UNL     1     -25.894  60.386  34.072  1.00  0.00     0.014 A 
ATOM      3  C   UNL     1     -27.386  60.975  32.254  1.00  0.00     0.014 A 
ATOM      4  C   UNL     1     -26.493  61.361  34.876  1.00  0.00     0.047 A 
ATOM      5  C   UNL     1     -27.982  61.948  33.061  1.00  0.00     0.047 A 
ATOM      6  C   UNL     1     -27.538  62.143  34.375  1.00  0.00     0.115 A 
ENDROOT
BRANCH   1   7
ATOM      7  C   UNL     1     -25.699  59.152  31.903  1.00  0.00     0.071 C 
ATOM      8  O   UNL     1     -25.962  59.083  30.672  1.00  0.00    -0.545 OA
ATOM      9  O   UNL     1     -24.801  58.242  32.451  1.00  0.00    -0.545 OA
ENDBRANCH   1   7
BRANCH   6  10
ATOM     10  O   UNL     1     -28.124  63.110  35.188  1.00  0.00    -0.508 OA
ATOM     11  H   UNL     1     -29.122  63.289  35.162  1.00  0.00     0.293 HD
ENDBRANCH   6  10
TORSDOF 2
ENDMDL
MODEL 5
REMARK VINA RESULT:    -4.511      1.539      4.174
REMARK INTER + INTRA:          -4.941
REMARK INTER:                  -4.909
REMARK INTRA:                  -0.032
REMARK UNBOUND:                -0.034
REMARK SMILES O=C([O-])c1ccc(O)cc1
REMARK SMILES IDX 4 1 5 2 10 3 6 4 9 5 7 6 2 7 1 8 3 9 8 10
REMARK H PARENT 8 11
REMARK Flexibility Score: inf
ROOT
ATOM      1  C   UNL     1     -13.410  45.368  23.673  1.00  0.00    -0.003 A 
ATOM      2  C   UNL     1     -14.377  44.381  23.409  1.00  0.00     0.014 A 
ATOM      3  C   UNL     1     -12.323  45.511  22.791  1.00  0.00     0.014 A 
ATOM      4  C   UNL     1     -14.259  43.557  22.285  1.00  0.00     0.047 A 
ATOM      5  C   UNL     1     -12.208  44.685  21.669  1.00  0.00     0.047 A 
ATOM      6  C   UNL     1     -13.176  43.705  21.414  1.00  0.00     0.115 A 
ENDROOT
BRANCH   1   7
ATOM      7  C   UNL     1     -13.538  46.239  24.862  1.00  0.00     0.071 C 
ATOM      8  O   UNL     1     -13.966  45.775  25.953  1.00  0.00    -0.545 OA
ATOM      9  O   UNL     1     -13.187  47.583  24.793  1.00  0.00    -0.545 OA
ENDBRANCH   1   7
BRANCH   6  10
ATOM     10  O   UNL     1     -13.071  42.877  20.299  1.00  0.00    -0.508 OA
ATOM     11  H   UNL     1     -13.813  42.822  19.609  1.00  0.00     0.293 HD
ENDBRANCH   6  10
TORSDOF 2
ENDMDL
MODEL 6
REMARK VINA RESULT:    -4.490      1.251      4.109
REMARK INTER + INTRA:          -4.918
REMARK INTER:                  -4.883
REMARK INTRA:                  -0.035
REMARK UNBOUND:                -0.034
REMARK SMILES O=C([O-])c1ccc(O)cc1
REMARK SMILES IDX 4 1 5 2 10 3 6 4 9 5 7 6 2 7 1 8 3 9 8 10
REMARK H PARENT 8 11
REMARK Flexibility Score: inf
ROOT
ATOM      1  C   UNL     1     -13.859  45.172  24.031  1.00  0.00    -0.003 A 
ATOM      2  C   UNL     1     -12.771  45.592  23.244  1.00  0.00     0.014 A 
ATOM      3  C   UNL     1     -14.674  44.125  23.565  1.00  0.00     0.014 A 
ATOM      4  C   UNL     1     -12.505  44.975  22.018  1.00  0.00     0.047 A 
ATOM      5  C   UNL     1     -14.405  43.511  22.339  1.00  0.00     0.047 A 
ATOM      6  C   UNL     1     -13.319  43.935  21.562  1.00  0.00     0.115 A 
ENDROOT
BRANCH   1   7
ATOM      7  C   UNL     1     -14.138  45.827  25.329  1.00  0.00     0.071 C 
ATOM      8  O   UNL     1     -13.579  46.915  25.631  1.00  0.00    -0.545 OA
ATOM      9  O   UNL     1     -15.023  45.250  26.233  1.00  0.00    -0.545 OA
ENDBRANCH   1   7
BRANCH   6  10
ATOM     10  O   UNL     1     -13.042  43.331  20.338  1.00  0.00    -0.508 OA
ATOM     11  H   UNL     1     -13.781  43.087  19.688  1.00  0.00     0.293 HD
ENDBRANCH   6  10
TORSDOF 2
ENDMDL
MODEL 7
REMARK VINA RESULT:    -4.431      1.672      4.094
REMARK INTER + INTRA:          -4.854
REMARK INTER:                  -4.818
REMARK INTRA:                  -0.036
REMARK UNBOUND:                -0.034
REMARK SMILES O=C([O-])c1ccc(O)cc1
REMARK SMILES IDX 4 1 5 2 10 3 6 4 9 5 7 6 2 7 1 8 3 9 8 10
REMARK H PARENT 8 11
REMARK Flexibility Score: inf
ROOT
ATOM      1  C   UNL     1     -14.637  44.132  23.323  1.00  0.00    -0.003 A 
ATOM      2  C   UNL     1     -13.869  45.131  23.948  1.00  0.00     0.014 A 
ATOM      3  C   UNL     1     -14.221  43.633  22.075  1.00  0.00     0.014 A 
ATOM      4  C   UNL     1     -12.709  45.618  23.337  1.00  0.00     0.047 A 
ATOM      5  C   UNL     1     -13.061  44.122  21.468  1.00  0.00     0.047 A 
ATOM      6  C   UNL     1     -12.302  45.117  22.097  1.00  0.00     0.115 A 
ENDROOT
BRANCH   1   7
ATOM      7  C   UNL     1     -15.864  43.618  23.971  1.00  0.00     0.071 C 
ATOM      8  O   UNL     1     -16.661  42.875  23.337  1.00  0.00    -0.545 OA
ATOM      9  O   UNL     1     -16.155  43.948  25.290  1.00  0.00    -0.545 OA
ENDBRANCH   1   7
BRANCH   6  10
ATOM     10  O   UNL     1     -11.145  45.612  21.502  1.00  0.00    -0.508 OA
ATOM     11  H   UNL     1     -10.818  46.555  21.683  1.00  0.00     0.293 HD
ENDBRANCH   6  10
TORSDOF 2
ENDMDL
MODEL 8
REMARK VINA RESULT:    -4.347     21.408     23.087
REMARK INTER + INTRA:          -4.762
REMARK INTER:                  -4.735
REMARK INTRA:                  -0.027
REMARK UNBOUND:                -0.034
REMARK SMILES O=C([O-])c1ccc(O)cc1
REMARK SMILES IDX 4 1 5 2 10 3 6 4 9 5 7 6 2 7 1 8 3 9 8 10
REMARK H PARENT 8 11
REMARK Flexibility Score: inf
ROOT
ATOM      1  C   UNL     1     -26.075  61.229  32.757  1.00  0.00    -0.003 A 
ATOM      2  C   UNL     1     -27.250  62.000  32.679  1.00  0.00     0.014 A 
ATOM      3  C   UNL     1     -25.585  60.860  34.023  1.00  0.00     0.014 A 
ATOM      4  C   UNL     1     -27.918  62.392  33.843  1.00  0.00     0.047 A 
ATOM      5  C   UNL     1     -26.256  61.254  35.185  1.00  0.00     0.047 A 
ATOM      6  C   UNL     1     -27.424  62.021  35.097  1.00  0.00     0.115 A 
ENDROOT
BRANCH   1   7
ATOM      7  C   UNL     1     -25.370  60.816  31.524  1.00  0.00     0.071 C 
ATOM      8  O   UNL     1     -25.835  59.899  30.796  1.00  0.00    -0.545 OA
ATOM      9  O   UNL     1     -24.182  61.435  31.151  1.00  0.00    -0.545 OA
ENDBRANCH   1   7
BRANCH   6  10
ATOM     10  O   UNL     1     -28.102  62.419  36.248  1.00  0.00    -0.508 OA
ATOM     11  H   UNL     1     -27.840  63.258  36.753  1.00  0.00     0.293 HD
ENDBRANCH   6  10
TORSDOF 2
ENDMDL
MODEL 9
REMARK VINA RESULT:    -4.311     20.306     22.216
REMARK INTER + INTRA:          -4.723
REMARK INTER:                  -4.696
REMARK INTRA:                  -0.028
REMARK UNBOUND:                -0.034
REMARK SMILES O=C([O-])c1ccc(O)cc1
REMARK SMILES IDX 4 1 5 2 10 3 6 4 9 5 7 6 2 7 1 8 3 9 8 10
REMARK H PARENT 8 11
REMARK Flexibility Score: inf
ROOT
ATOM      1  C   UNL     1     -26.115  61.477  31.492  1.00  0.00    -0.003 A 
ATOM      2  C   UNL     1     -25.877  60.330  30.713  1.00  0.00     0.014 A 
ATOM      3  C   UNL     1     -25.500  62.689  31.128  1.00  0.00     0.014 A 
ATOM      4  C   UNL     1     -25.041  60.395  29.594  1.00  0.00     0.047 A 
ATOM      5  C   UNL     1     -24.665  62.750  30.008  1.00  0.00     0.047 A 
ATOM      6  C   UNL     1     -24.433  61.603  29.239  1.00  0.00     0.115 A 
ENDROOT
BRANCH   1   7
ATOM      7  C   UNL     1     -27.000  61.405  32.675  1.00  0.00     0.071 C 
ATOM      8  O   UNL     1     -28.125  61.974  32.670  1.00  0.00    -0.545 OA
ATOM      9  O   UNL     1     -26.603  60.709  33.811  1.00  0.00    -0.545 OA
ENDBRANCH   1   7
BRANCH   6  10
ATOM     10  O   UNL     1     -23.602  61.652  28.121  1.00  0.00    -0.508 OA
ATOM     11  H   UNL     1     -23.099  60.833  27.799  1.00  0.00     0.293 HD
ENDBRANCH   6  10
TORSDOF 2
ENDMDL
