MODEL 1
REMARK VINA RESULT:    -4.989      0.000      0.000
REMARK INTER + INTRA:          -8.657
REMARK INTER:                  -7.614
REMARK INTRA:                  -1.043
REMARK UNBOUND:                -1.043
REMARK SMILES CC(=O)CCC=C(C)CCC=C(C)CCC=C(C)C
REMARK SMILES IDX 10 1 11 2 12 3 13 4 14 5 15 6 16 7 18 8 17 9 19 10 9 11 7 12
REMARK SMILES IDX 6 13 8 14 5 15 4 16 2 17 3 18 1 19
REMARK H PARENT
REMARK Flexibility Score: inf
ROOT
ATOM      1  C   UNL     1      -8.223 -13.910  -2.531  1.00  0.00     0.032 C 
ENDROOT
BRANCH   1   2
ATOM      2  C   UNL     1      -8.608 -13.479  -3.923  1.00  0.00    -0.028 C 
ATOM      3  C   UNL     1      -9.208 -12.303  -4.221  1.00  0.00    -0.077 C 
ATOM      4  C   UNL     1      -9.604 -11.315  -3.149  1.00  0.00     0.039 C 
BRANCH   3   5
ATOM      5  C   UNL     1      -9.523 -11.984  -5.666  1.00  0.00     0.034 C 
BRANCH   5   6
ATOM      6  C   UNL     1     -10.803 -12.700  -6.110  1.00  0.00     0.032 C 
BRANCH   6   7
ATOM      7  C   UNL     1     -10.477 -13.981  -6.836  1.00  0.00    -0.028 C 
ATOM      8  C   UNL     1     -12.883 -14.570  -7.216  1.00  0.00     0.039 C 
ATOM      9  C   UNL     1     -11.398 -14.823  -7.355  1.00  0.00    -0.080 C 
ATOM     10  C   UNL     1     -10.919 -16.053  -8.081  1.00  0.00     0.039 C 
ENDBRANCH   6   7
ENDBRANCH   5   6
ENDBRANCH   3   5
ENDBRANCH   1   2
BRANCH   1  11
ATOM     11  C   UNL     1      -7.705 -15.352  -2.530  1.00  0.00     0.034 C 
BRANCH  11  12
ATOM     12  C   UNL     1      -8.563 -16.229  -1.643  1.00  0.00    -0.077 C 
ATOM     13  C   UNL     1      -9.208 -15.670  -0.593  1.00  0.00    -0.028 C 
ATOM     14  C   UNL     1      -8.653 -17.707  -1.941  1.00  0.00     0.039 C 
BRANCH  13  15
ATOM     15  C   UNL     1     -10.112 -16.422   0.352  1.00  0.00     0.035 C 
BRANCH  15  16
ATOM     16  C   UNL     1      -9.464 -16.551   1.738  1.00  0.00     0.079 C 
BRANCH  16  17
ATOM     17  C   UNL     1      -8.305 -17.520   1.760  1.00  0.00     0.130 C 
ATOM     18  O   UNL     1      -7.154 -17.121   1.855  1.00  0.00    -0.300 OA
ATOM     19  C   UNL     1      -8.559 -18.993   1.662  1.00  0.00     0.087 C 
ENDBRANCH  16  17
ENDBRANCH  15  16
ENDBRANCH  13  15
ENDBRANCH  11  12
ENDBRANCH   1  11
TORSDOF 9
ENDMDL
MODEL 2
REMARK VINA RESULT:    -4.932      3.060      7.418
REMARK INTER + INTRA:          -8.570
REMARK INTER:                  -7.469
REMARK INTRA:                  -1.101
REMARK UNBOUND:                -1.043
REMARK SMILES CC(=O)CCC=C(C)CCC=C(C)CCC=C(C)C
REMARK SMILES IDX 10 1 11 2 12 3 13 4 14 5 15 6 16 7 18 8 17 9 19 10 9 11 7 12
REMARK SMILES IDX 6 13 8 14 5 15 4 16 2 17 3 18 1 19
REMARK H PARENT
REMARK Flexibility Score: inf
ROOT
ATOM      1  C   UNL     1      -9.312 -11.456  -4.681  1.00  0.00     0.032 C 
ENDROOT
BRANCH   1   2
ATOM      2  C   UNL     1      -8.976 -12.080  -3.351  1.00  0.00    -0.028 C 
ATOM      3  C   UNL     1      -8.246 -13.209  -3.198  1.00  0.00    -0.077 C 
ATOM      4  C   UNL     1      -7.736 -13.996  -4.383  1.00  0.00     0.039 C 
BRANCH   3   5
ATOM      5  C   UNL     1      -7.963 -13.718  -1.802  1.00  0.00     0.034 C 
BRANCH   5   6
ATOM      6  C   UNL     1      -8.370 -15.190  -1.671  1.00  0.00     0.032 C 
BRANCH   6   7
ATOM      7  C   UNL     1      -8.330 -15.632  -0.230  1.00  0.00    -0.028 C 
ATOM      8  C   UNL     1     -10.672 -16.522  -0.267  1.00  0.00     0.039 C 
ATOM      9  C   UNL     1      -9.348 -16.248   0.411  1.00  0.00    -0.080 C 
ATOM     10  C   UNL     1      -9.150 -16.659   1.847  1.00  0.00     0.039 C 
ENDBRANCH   6   7
ENDBRANCH   5   6
ENDBRANCH   3   5
ENDBRANCH   1   2
BRANCH   1  11
ATOM     11  C   UNL     1     -10.657 -11.971  -5.202  1.00  0.00     0.034 C 
BRANCH  11  12
ATOM     12  C   UNL     1     -10.470 -12.770  -6.473  1.00  0.00    -0.077 C 
ATOM     13  C   UNL     1     -11.290 -13.818  -6.717  1.00  0.00    -0.028 C 
ATOM     14  C   UNL     1      -9.357 -12.390  -7.421  1.00  0.00     0.039 C 
BRANCH  13  15
ATOM     15  C   UNL     1     -11.230 -14.680  -7.954  1.00  0.00     0.035 C 
BRANCH  15  16
ATOM     16  C   UNL     1     -11.388 -16.164  -7.591  1.00  0.00     0.079 C 
BRANCH  16  17
ATOM     17  C   UNL     1     -12.821 -16.638  -7.652  1.00  0.00     0.130 C 
ATOM     18  O   UNL     1     -13.588 -16.212  -8.503  1.00  0.00    -0.300 OA
ATOM     19  C   UNL     1     -13.320 -17.641  -6.658  1.00  0.00     0.087 C 
ENDBRANCH  16  17
ENDBRANCH  15  16
ENDBRANCH  13  15
ENDBRANCH  11  12
ENDBRANCH   1  11
TORSDOF 9
ENDMDL
MODEL 3
REMARK VINA RESULT:    -4.901      3.856      8.129
REMARK INTER + INTRA:          -8.522
REMARK INTER:                  -7.186
REMARK INTRA:                  -1.336
REMARK UNBOUND:                -1.043
REMARK SMILES CC(=O)CCC=C(C)CCC=C(C)CCC=C(C)C
REMARK SMILES IDX 10 1 11 2 12 3 13 4 14 5 15 6 16 7 18 8 17 9 19 10 9 11 7 12
REMARK SMILES IDX 6 13 8 14 5 15 4 16 2 17 3 18 1 19
REMARK H PARENT
REMARK Flexibility Score: inf
ROOT
ATOM      1  C   UNL     1      -9.522 -13.328  -5.792  1.00  0.00     0.032 C 
ENDROOT
BRANCH   1   2
ATOM      2  C   UNL     1      -8.847 -13.735  -4.506  1.00  0.00    -0.028 C 
ATOM      3  C   UNL     1      -8.795 -12.967  -3.394  1.00  0.00    -0.077 C 
ATOM      4  C   UNL     1      -9.379 -11.573  -3.358  1.00  0.00     0.039 C 
BRANCH   3   5
ATOM      5  C   UNL     1      -8.102 -13.504  -2.161  1.00  0.00     0.034 C 
BRANCH   5   6
ATOM      6  C   UNL     1      -8.410 -14.995  -1.976  1.00  0.00     0.032 C 
BRANCH   6   7
ATOM      7  C   UNL     1      -8.192 -15.413  -0.543  1.00  0.00    -0.028 C 
ATOM      8  C   UNL     1     -10.470 -16.434  -0.325  1.00  0.00     0.039 C 
ATOM      9  C   UNL     1      -9.100 -16.076   0.207  1.00  0.00    -0.080 C 
ATOM     10  C   UNL     1      -8.728 -16.454   1.617  1.00  0.00     0.039 C 
ENDBRANCH   6   7
ENDBRANCH   5   6
ENDBRANCH   3   5
ENDBRANCH   1   2
BRANCH   1  11
ATOM     11  C   UNL     1      -8.519 -13.295  -6.949  1.00  0.00     0.034 C 
BRANCH  11  12
ATOM     12  C   UNL     1      -7.693 -12.027  -6.907  1.00  0.00    -0.077 C 
ATOM     13  C   UNL     1      -8.327 -10.834  -6.826  1.00  0.00    -0.028 C 
ATOM     14  C   UNL     1      -6.188 -12.129  -6.985  1.00  0.00     0.039 C 
BRANCH  13  15
ATOM     15  C   UNL     1      -7.627  -9.500  -6.751  1.00  0.00     0.035 C 
BRANCH  15  16
ATOM     16  C   UNL     1      -7.792  -8.876  -5.357  1.00  0.00     0.079 C 
BRANCH  16  17
ATOM     17  C   UNL     1      -7.672  -7.371  -5.364  1.00  0.00     0.130 C 
ATOM     18  O   UNL     1      -7.367  -6.769  -6.384  1.00  0.00    -0.300 OA
ATOM     19  C   UNL     1      -7.925  -6.594  -4.110  1.00  0.00     0.087 C 
ENDBRANCH  16  17
ENDBRANCH  15  16
ENDBRANCH  13  15
ENDBRANCH  11  12
ENDBRANCH   1  11
TORSDOF 9
ENDMDL
MODEL 4
REMARK VINA RESULT:    -4.861      1.767      2.631
REMARK INTER + INTRA:          -8.462
REMARK INTER:                  -7.193
REMARK INTRA:                  -1.269
REMARK UNBOUND:                -1.043
REMARK SMILES CC(=O)CCC=C(C)CCC=C(C)CCC=C(C)C
REMARK SMILES IDX 10 1 11 2 12 3 13 4 14 5 15 6 16 7 18 8 17 9 19 10 9 11 7 12
REMARK SMILES IDX 6 13 8 14 5 15 4 16 2 17 3 18 1 19
REMARK H PARENT
REMARK Flexibility Score: inf
ROOT
ATOM      1  C   UNL     1      -7.340 -14.289  -2.478  1.00  0.00     0.032 C 
ENDROOT
BRANCH   1   2
ATOM      2  C   UNL     1      -8.468 -13.313  -2.705  1.00  0.00    -0.028 C 
ATOM      3  C   UNL     1      -8.558 -12.482  -3.769  1.00  0.00    -0.077 C 
ATOM      4  C   UNL     1      -7.479 -12.418  -4.825  1.00  0.00     0.039 C 
BRANCH   3   5
ATOM      5  C   UNL     1      -9.755 -11.565  -3.886  1.00  0.00     0.034 C 
BRANCH   5   6
ATOM      6  C   UNL     1     -10.198 -11.439  -5.348  1.00  0.00     0.032 C 
BRANCH   6   7
ATOM      7  C   UNL     1     -10.871 -12.705  -5.815  1.00  0.00    -0.028 C 
ATOM      8  C   UNL     1      -9.445 -12.901  -7.865  1.00  0.00     0.039 C 
ATOM      9  C   UNL     1     -10.534 -13.384  -6.933  1.00  0.00    -0.080 C 
ATOM     10  C   UNL     1     -11.278 -14.653  -7.256  1.00  0.00     0.039 C 
ENDBRANCH   6   7
ENDBRANCH   5   6
ENDBRANCH   3   5
ENDBRANCH   1   2
BRANCH   1  11
ATOM     11  C   UNL     1      -6.283 -13.694  -1.543  1.00  0.00     0.034 C 
BRANCH  11  12
ATOM     12  C   UNL     1      -6.499 -14.164  -0.121  1.00  0.00    -0.077 C 
ATOM     13  C   UNL     1      -7.027 -15.391   0.091  1.00  0.00    -0.028 C 
ATOM     14  C   UNL     1      -6.143 -13.239   1.019  1.00  0.00     0.039 C 
BRANCH  13  15
ATOM     15  C   UNL     1      -7.270 -15.991   1.454  1.00  0.00     0.035 C 
BRANCH  15  16
ATOM     16  C   UNL     1      -8.731 -15.792   1.884  1.00  0.00     0.079 C 
BRANCH  16  17
ATOM     17  C   UNL     1      -9.669 -16.808   1.277  1.00  0.00     0.130 C 
ATOM     18  O   UNL     1      -9.759 -17.936   1.740  1.00  0.00    -0.300 OA
ATOM     19  C   UNL     1     -10.504 -16.441   0.089  1.00  0.00     0.087 C 
ENDBRANCH  16  17
ENDBRANCH  15  16
ENDBRANCH  13  15
ENDBRANCH  11  12
ENDBRANCH   1  11
TORSDOF 9
ENDMDL
MODEL 5
REMARK VINA RESULT:    -4.783      2.562      7.024
REMARK INTER + INTRA:          -8.343
REMARK INTER:                  -6.935
REMARK INTRA:                  -1.408
REMARK UNBOUND:                -1.043
REMARK SMILES CC(=O)CCC=C(C)CCC=C(C)CCC=C(C)C
REMARK SMILES IDX 10 1 11 2 12 3 13 4 14 5 15 6 16 7 18 8 17 9 19 10 9 11 7 12
REMARK SMILES IDX 6 13 8 14 5 15 4 16 2 17 3 18 1 19
REMARK H PARENT
REMARK Flexibility Score: inf
ROOT
ATOM      1  C   UNL     1      -9.320 -11.379  -4.206  1.00  0.00     0.032 C 
ENDROOT
BRANCH   1   2
ATOM      2  C   UNL     1      -8.901 -12.209  -3.019  1.00  0.00    -0.028 C 
ATOM      3  C   UNL     1      -7.938 -13.159  -3.051  1.00  0.00    -0.077 C 
ATOM      4  C   UNL     1      -7.216 -13.519  -4.329  1.00  0.00     0.039 C 
BRANCH   3   5
ATOM      5  C   UNL     1      -7.600 -13.906  -1.780  1.00  0.00     0.034 C 
BRANCH   5   6
ATOM      6  C   UNL     1      -8.539 -15.104  -1.592  1.00  0.00     0.032 C 
BRANCH   6   7
ATOM      7  C   UNL     1      -8.398 -15.684  -0.208  1.00  0.00    -0.028 C 
ATOM      8  C   UNL     1     -10.782 -16.449  -0.109  1.00  0.00     0.039 C 
ATOM      9  C   UNL     1      -9.390 -16.307   0.466  1.00  0.00    -0.080 C 
ATOM     10  C   UNL     1      -9.090 -16.864   1.833  1.00  0.00     0.039 C 
ENDBRANCH   6   7
ENDBRANCH   5   6
ENDBRANCH   3   5
ENDBRANCH   1   2
BRANCH   1  11
ATOM     11  C   UNL     1     -10.574 -11.963  -4.865  1.00  0.00     0.034 C 
BRANCH  11  12
ATOM     12  C   UNL     1     -10.260 -12.481  -6.251  1.00  0.00    -0.077 C 
ATOM     13  C   UNL     1     -10.779 -13.667  -6.642  1.00  0.00    -0.028 C 
ATOM     14  C   UNL     1      -9.354 -11.671  -7.149  1.00  0.00     0.039 C 
BRANCH  13  15
ATOM     15  C   UNL     1     -10.568 -14.285  -8.002  1.00  0.00     0.035 C 
BRANCH  15  16
ATOM     16  C   UNL     1      -9.357 -15.231  -7.988  1.00  0.00     0.079 C 
BRANCH  16  17
ATOM     17  C   UNL     1      -9.515 -16.377  -7.017  1.00  0.00     0.130 C 
ATOM     18  O   UNL     1     -10.448 -17.160  -7.115  1.00  0.00    -0.300 OA
ATOM     19  C   UNL     1      -8.521 -16.564  -5.913  1.00  0.00     0.087 C 
ENDBRANCH  16  17
ENDBRANCH  15  16
ENDBRANCH  13  15
ENDBRANCH  11  12
ENDBRANCH   1  11
TORSDOF 9
ENDMDL
MODEL 6
REMARK VINA RESULT:    -4.738      2.730      4.715
REMARK INTER + INTRA:          -8.275
REMARK INTER:                  -7.137
REMARK INTRA:                  -1.138
REMARK UNBOUND:                -1.043
REMARK SMILES CC(=O)CCC=C(C)CCC=C(C)CCC=C(C)C
REMARK SMILES IDX 10 1 11 2 12 3 13 4 14 5 15 6 16 7 18 8 17 9 19 10 9 11 7 12
REMARK SMILES IDX 6 13 8 14 5 15 4 16 2 17 3 18 1 19
REMARK H PARENT
REMARK Flexibility Score: inf
ROOT
ATOM      1  C   UNL     1      -8.691 -13.547  -4.082  1.00  0.00     0.032 C 
ENDROOT
BRANCH   1   2
ATOM      2  C   UNL     1      -8.201 -12.527  -5.079  1.00  0.00    -0.028 C 
ATOM      3  C   UNL     1      -8.991 -11.615  -5.691  1.00  0.00    -0.077 C 
ATOM      4  C   UNL     1     -10.484 -11.572  -5.464  1.00  0.00     0.039 C 
BRANCH   3   5
ATOM      5  C   UNL     1      -8.367 -10.634  -6.658  1.00  0.00     0.034 C 
BRANCH   5   6
ATOM      6  C   UNL     1      -7.123  -9.985  -6.041  1.00  0.00     0.032 C 
BRANCH   6   7
ATOM      7  C   UNL     1      -7.504  -8.814  -5.171  1.00  0.00    -0.028 C 
ATOM      8  C   UNL     1      -7.252  -7.146  -7.024  1.00  0.00     0.039 C 
ATOM      9  C   UNL     1      -7.585  -7.535  -5.601  1.00  0.00    -0.080 C 
ATOM     10  C   UNL     1      -8.010  -6.473  -4.621  1.00  0.00     0.039 C 
ENDBRANCH   6   7
ENDBRANCH   5   6
ENDBRANCH   3   5
ENDBRANCH   1   2
BRANCH   1  11
ATOM     11  C   UNL     1      -8.448 -13.068  -2.647  1.00  0.00     0.034 C 
BRANCH  11  12
ATOM     12  C   UNL     1      -7.933 -14.200  -1.784  1.00  0.00    -0.077 C 
ATOM     13  C   UNL     1      -8.356 -15.460  -2.034  1.00  0.00    -0.028 C 
ATOM     14  C   UNL     1      -6.984 -13.885  -0.651  1.00  0.00     0.039 C 
BRANCH  13  15
ATOM     15  C   UNL     1      -7.904 -16.680  -1.269  1.00  0.00     0.035 C 
BRANCH  15  16
ATOM     16  C   UNL     1      -9.110 -17.457  -0.721  1.00  0.00     0.079 C 
BRANCH  16  17
ATOM     17  C   UNL     1      -9.830 -16.725   0.386  1.00  0.00     0.130 C 
ATOM     18  O   UNL     1     -10.890 -16.152   0.176  1.00  0.00    -0.300 OA
ATOM     19  C   UNL     1      -9.245 -16.691   1.764  1.00  0.00     0.087 C 
ENDBRANCH  16  17
ENDBRANCH  15  16
ENDBRANCH  13  15
ENDBRANCH  11  12
ENDBRANCH   1  11
TORSDOF 9
ENDMDL
MODEL 7
REMARK VINA RESULT:    -4.585      2.306      4.608
REMARK INTER + INTRA:          -8.040
REMARK INTER:                  -6.548
REMARK INTRA:                  -1.492
REMARK UNBOUND:                -1.043
REMARK SMILES CC(=O)CCC=C(C)CCC=C(C)CCC=C(C)C
REMARK SMILES IDX 10 1 11 2 12 3 13 4 14 5 15 6 16 7 18 8 17 9 19 10 9 11 7 12
REMARK SMILES IDX 6 13 8 14 5 15 4 16 2 17 3 18 1 19
REMARK H PARENT
REMARK Flexibility Score: inf
ROOT
ATOM      1  C   UNL     1     -10.358 -11.816  -4.596  1.00  0.00     0.032 C 
ENDROOT
BRANCH   1   2
ATOM      2  C   UNL     1      -9.902 -11.574  -6.013  1.00  0.00    -0.028 C 
ATOM      3  C   UNL     1      -9.843 -12.528  -6.970  1.00  0.00    -0.077 C 
ATOM      4  C   UNL     1     -10.186 -13.971  -6.681  1.00  0.00     0.039 C 
BRANCH   3   5
ATOM      5  C   UNL     1      -9.386 -12.147  -8.361  1.00  0.00     0.034 C 
BRANCH   5   6
ATOM      6  C   UNL     1      -7.892 -11.800  -8.362  1.00  0.00     0.032 C 
BRANCH   6   7
ATOM      7  C   UNL     1      -7.684 -10.326  -8.598  1.00  0.00    -0.028 C 
ATOM      8  C   UNL     1      -6.759  -9.924  -6.304  1.00  0.00     0.039 C 
ATOM      9  C   UNL     1      -7.159  -9.472  -7.691  1.00  0.00    -0.080 C 
ATOM     10  C   UNL     1      -6.983  -8.028  -8.081  1.00  0.00     0.039 C 
ENDBRANCH   6   7
ENDBRANCH   5   6
ENDBRANCH   3   5
ENDBRANCH   1   2
BRANCH   1  11
ATOM     11  C   UNL     1      -9.231 -11.516  -3.602  1.00  0.00     0.034 C 
BRANCH  11  12
ATOM     12  C   UNL     1      -8.355 -12.733  -3.402  1.00  0.00    -0.077 C 
ATOM     13  C   UNL     1      -8.506 -13.474  -2.280  1.00  0.00    -0.028 C 
ATOM     14  C   UNL     1      -7.319 -13.071  -4.448  1.00  0.00     0.039 C 
BRANCH  13  15
ATOM     15  C   UNL     1      -7.717 -14.722  -1.968  1.00  0.00     0.035 C 
BRANCH  15  16
ATOM     16  C   UNL     1      -8.657 -15.888  -1.626  1.00  0.00     0.079 C 
BRANCH  16  17
ATOM     17  C   UNL     1      -8.977 -15.975  -0.152  1.00  0.00     0.130 C 
ATOM     18  O   UNL     1      -8.137 -15.701   0.691  1.00  0.00    -0.300 OA
ATOM     19  C   UNL     1     -10.340 -16.407   0.292  1.00  0.00     0.087 C 
ENDBRANCH  16  17
ENDBRANCH  15  16
ENDBRANCH  13  15
ENDBRANCH  11  12
ENDBRANCH   1  11
TORSDOF 9
ENDMDL
MODEL 8
REMARK VINA RESULT:    -4.557      2.786      7.353
REMARK INTER + INTRA:          -7.999
REMARK INTER:                  -6.818
REMARK INTRA:                  -1.181
REMARK UNBOUND:                -1.043
REMARK SMILES CC(=O)CCC=C(C)CCC=C(C)CCC=C(C)C
REMARK SMILES IDX 10 1 11 2 12 3 13 4 14 5 15 6 16 7 18 8 17 9 19 10 9 11 7 12
REMARK SMILES IDX 6 13 8 14 5 15 4 16 2 17 3 18 1 19
REMARK H PARENT
REMARK Flexibility Score: inf
ROOT
ATOM      1  C   UNL     1      -8.751 -13.002  -3.021  1.00  0.00     0.032 C 
ENDROOT
BRANCH   1   2
ATOM      2  C   UNL     1      -8.261 -14.427  -2.958  1.00  0.00    -0.028 C 
ATOM      3  C   UNL     1      -7.562 -14.950  -1.925  1.00  0.00    -0.077 C 
ATOM      4  C   UNL     1      -7.153 -14.115  -0.734  1.00  0.00     0.039 C 
BRANCH   3   5
ATOM      5  C   UNL     1      -7.147 -16.404  -1.980  1.00  0.00     0.034 C 
BRANCH   5   6
ATOM      6  C   UNL     1      -8.342 -17.318  -1.686  1.00  0.00     0.032 C 
BRANCH   6   7
ATOM      7  C   UNL     1      -8.462 -17.586  -0.208  1.00  0.00    -0.028 C 
ATOM      8  C   UNL     1     -10.507 -16.161   0.050  1.00  0.00     0.039 C 
ATOM      9  C   UNL     1      -9.439 -17.089   0.584  1.00  0.00    -0.080 C 
ATOM     10  C   UNL     1      -9.446 -17.470   2.041  1.00  0.00     0.039 C 
ENDBRANCH   6   7
ENDBRANCH   5   6
ENDBRANCH   3   5
ENDBRANCH   1   2
BRANCH   1  11
ATOM     11  C   UNL     1      -8.360 -12.348  -4.350  1.00  0.00     0.034 C 
BRANCH  11  12
ATOM     12  C   UNL     1      -9.483 -12.466  -5.357  1.00  0.00    -0.077 C 
ATOM     13  C   UNL     1      -9.647 -13.632  -6.024  1.00  0.00    -0.028 C 
ATOM     14  C   UNL     1     -10.372 -11.271  -5.608  1.00  0.00     0.039 C 
BRANCH  13  15
ATOM     15  C   UNL     1     -10.739 -13.892  -7.032  1.00  0.00     0.035 C 
BRANCH  15  16
ATOM     16  C   UNL     1     -10.724 -15.361  -7.482  1.00  0.00     0.079 C 
BRANCH  16  17
ATOM     17  C   UNL     1     -12.082 -16.018  -7.397  1.00  0.00     0.130 C 
ATOM     18  O   UNL     1     -13.102 -15.348  -7.339  1.00  0.00    -0.300 OA
ATOM     19  C   UNL     1     -12.190 -17.511  -7.380  1.00  0.00     0.087 C 
ENDBRANCH  16  17
ENDBRANCH  15  16
ENDBRANCH  13  15
ENDBRANCH  11  12
ENDBRANCH   1  11
TORSDOF 9
ENDMDL
MODEL 9
REMARK VINA RESULT:    -4.545      2.829      7.711
REMARK INTER + INTRA:          -7.980
REMARK INTER:                  -6.541
REMARK INTRA:                  -1.439
REMARK UNBOUND:                -1.043
REMARK SMILES CC(=O)CCC=C(C)CCC=C(C)CCC=C(C)C
REMARK SMILES IDX 10 1 11 2 12 3 13 4 14 5 15 6 16 7 18 8 17 9 19 10 9 11 7 12
REMARK SMILES IDX 6 13 8 14 5 15 4 16 2 17 3 18 1 19
REMARK H PARENT
REMARK Flexibility Score: inf
ROOT
ATOM      1  C   UNL     1      -9.574 -11.454  -4.063  1.00  0.00     0.032 C 
ENDROOT
BRANCH   1   2
ATOM      2  C   UNL     1      -8.872 -12.273  -3.009  1.00  0.00    -0.028 C 
ATOM      3  C   UNL     1      -8.317 -13.488  -3.228  1.00  0.00    -0.077 C 
ATOM      4  C   UNL     1      -8.403 -14.174  -4.572  1.00  0.00     0.039 C 
BRANCH   3   5
ATOM      5  C   UNL     1      -7.623 -14.195  -2.086  1.00  0.00     0.034 C 
BRANCH   5   6
ATOM      6  C   UNL     1      -8.392 -15.460  -1.686  1.00  0.00     0.032 C 
BRANCH   6   7
ATOM      7  C   UNL     1      -8.317 -15.686  -0.198  1.00  0.00    -0.028 C 
ATOM      8  C   UNL     1     -10.682 -16.498  -0.037  1.00  0.00     0.039 C 
ATOM      9  C   UNL     1      -9.330 -16.169   0.556  1.00  0.00    -0.080 C 
ATOM     10  C   UNL     1      -9.096 -16.371   2.030  1.00  0.00     0.039 C 
ENDBRANCH   6   7
ENDBRANCH   5   6
ENDBRANCH   3   5
ENDBRANCH   1   2
BRANCH   1  11
ATOM     11  C   UNL     1      -8.633 -10.398  -4.651  1.00  0.00     0.034 C 
BRANCH  11  12
ATOM     12  C   UNL     1      -8.065 -10.863  -5.975  1.00  0.00    -0.077 C 
ATOM     13  C   UNL     1      -8.914 -11.275  -6.945  1.00  0.00    -0.028 C 
ATOM     14  C   UNL     1      -6.567 -10.879  -6.165  1.00  0.00     0.039 C 
BRANCH  13  15
ATOM     15  C   UNL     1      -8.484 -11.737  -8.315  1.00  0.00     0.035 C 
BRANCH  15  16
ATOM     16  C   UNL     1      -9.517 -12.705  -8.911  1.00  0.00     0.079 C 
BRANCH  16  17
ATOM     17  C   UNL     1      -9.658 -13.981  -8.116  1.00  0.00     0.130 C 
ATOM     18  O   UNL     1      -8.751 -14.799  -8.073  1.00  0.00    -0.300 OA
ATOM     19  C   UNL     1     -10.925 -14.261  -7.369  1.00  0.00     0.087 C 
ENDBRANCH  16  17
ENDBRANCH  15  16
ENDBRANCH  13  15
ENDBRANCH  11  12
ENDBRANCH   1  11
TORSDOF 9
ENDMDL
