MODEL 1
REMARK VINA RESULT:    -4.614      0.000      0.000
REMARK INTER + INTRA:          -9.411
REMARK INTER:                  -8.121
REMARK INTRA:                  -1.289
REMARK UNBOUND:                -1.289
REMARK SMILES CCCCCCC=CCCCCCCCC(=O)[O-]
REMARK SMILES IDX 10 1 11 2 12 3 13 4 14 5 15 6 16 7 17 8 18 9 9 10 8 11 7 12
REMARK SMILES IDX 6 13 5 14 4 15 3 16 2 17 1 18
REMARK H PARENT
REMARK Flexibility Score: inf
ROOT
ATOM      1  C   UNL     1       9.714   4.832  19.851  1.00  0.00     0.004 C 
ENDROOT
BRANCH   1   2
ATOM      2  C   UNL     1       9.223   3.375  19.891  1.00  0.00     0.000 C 
BRANCH   2   3
ATOM      3  C   UNL     1       8.418   3.059  21.162  1.00  0.00     0.000 C 
BRANCH   3   4
ATOM      4  C   UNL     1       6.903   2.982  20.910  1.00  0.00     0.000 C 
BRANCH   4   5
ATOM      5  C   UNL     1       6.463   3.190  19.447  1.00  0.00     0.006 C 
BRANCH   5   6
ATOM      6  C   UNL     1       5.795   1.958  18.810  1.00  0.00     0.053 C 
BRANCH   6   7
ATOM      7  C   UNL     1       6.472   1.530  17.542  1.00  0.00     0.041 C 
ATOM      8  O   UNL     1       6.082   0.500  16.932  1.00  0.00    -0.550 OA
ATOM      9  O   UNL     1       7.560   2.245  17.055  1.00  0.00    -0.550 OA
ENDBRANCH   6   7
ENDBRANCH   5   6
ENDBRANCH   4   5
ENDBRANCH   3   4
ENDBRANCH   2   3
ENDBRANCH   1   2
BRANCH   1  10
ATOM     10  C   UNL     1       9.599   5.535  21.211  1.00  0.00     0.027 C 
BRANCH  10  11
ATOM     11  C   UNL     1       8.682   6.724  21.129  1.00  0.00    -0.031 C 
ATOM     12  C   UNL     1       8.589   7.441  20.000  1.00  0.00    -0.031 C 
BRANCH  12  13
ATOM     13  C   UNL     1       7.679   8.636  19.893  1.00  0.00     0.027 C 
BRANCH  13  14
ATOM     14  C   UNL     1       8.222   9.701  18.922  1.00  0.00     0.004 C 
BRANCH  14  15
ATOM     15  C   UNL     1       9.158   9.123  17.842  1.00  0.00     0.000 C 
BRANCH  15  16
ATOM     16  C   UNL     1       8.797   9.583  16.411  1.00  0.00    -0.000 C 
BRANCH  16  17
ATOM     17  C   UNL     1       7.346  10.073  16.274  1.00  0.00    -0.003 C 
ATOM     18  C   UNL     1       6.447   9.070  15.554  1.00  0.00     0.004 C 
ENDBRANCH  16  17
ENDBRANCH  15  16
ENDBRANCH  14  15
ENDBRANCH  13  14
ENDBRANCH  12  13
ENDBRANCH  10  11
ENDBRANCH   1  10
TORSDOF 13
ENDMDL
MODEL 2
REMARK VINA RESULT:    -4.550      5.280      8.586
REMARK INTER + INTRA:          -9.298
REMARK INTER:                  -8.195
REMARK INTRA:                  -1.102
REMARK UNBOUND:                -1.289
REMARK SMILES CCCCCCC=CCCCCCCCC(=O)[O-]
REMARK SMILES IDX 10 1 11 2 12 3 13 4 14 5 15 6 16 7 17 8 18 9 9 10 8 11 7 12
REMARK SMILES IDX 6 13 5 14 4 15 3 16 2 17 1 18
REMARK H PARENT
REMARK Flexibility Score: inf
ROOT
ATOM      1  C   UNL     1       7.697   9.830  13.976  1.00  0.00     0.004 C 
ENDROOT
BRANCH   1   2
ATOM      2  C   UNL     1       7.216   9.159  15.273  1.00  0.00     0.000 C 
BRANCH   2   3
ATOM      3  C   UNL     1       7.718   9.883  16.534  1.00  0.00     0.000 C 
BRANCH   3   4
ATOM      4  C   UNL     1       8.977   9.238  17.135  1.00  0.00     0.000 C 
BRANCH   4   5
ATOM      5  C   UNL     1       8.946   9.020  18.661  1.00  0.00     0.006 C 
BRANCH   5   6
ATOM      6  C   UNL     1       8.009   9.983  19.414  1.00  0.00     0.053 C 
BRANCH   6   7
ATOM      7  C   UNL     1       8.208   9.930  20.900  1.00  0.00     0.041 C 
ATOM      8  O   UNL     1       8.268   8.820  21.493  1.00  0.00    -0.550 OA
ATOM      9  O   UNL     1       8.285  11.106  21.637  1.00  0.00    -0.550 OA
ENDBRANCH   6   7
ENDBRANCH   5   6
ENDBRANCH   4   5
ENDBRANCH   3   4
ENDBRANCH   2   3
ENDBRANCH   1   2
BRANCH   1  10
ATOM     10  C   UNL     1       7.515  11.354  13.995  1.00  0.00     0.027 C 
BRANCH  10  11
ATOM     11  C   UNL     1       7.529  11.918  12.600  1.00  0.00    -0.031 C 
ATOM     12  C   UNL     1       8.052  11.218  11.584  1.00  0.00    -0.031 C 
BRANCH  12  13
ATOM     13  C   UNL     1       8.079  11.760  10.179  1.00  0.00     0.027 C 
BRANCH  13  14
ATOM     14  C   UNL     1       6.882  11.276   9.341  1.00  0.00     0.004 C 
BRANCH  14  15
ATOM     15  C   UNL     1       6.684   9.748   9.382  1.00  0.00     0.000 C 
BRANCH  15  16
ATOM     16  C   UNL     1       7.895   8.960   8.831  1.00  0.00    -0.000 C 
BRANCH  16  17
ATOM     17  C   UNL     1       8.217   7.691   9.637  1.00  0.00    -0.003 C 
ATOM     18  C   UNL     1       7.496   7.643  10.982  1.00  0.00     0.004 C 
ENDBRANCH  16  17
ENDBRANCH  15  16
ENDBRANCH  14  15
ENDBRANCH  13  14
ENDBRANCH  12  13
ENDBRANCH  10  11
ENDBRANCH   1  10
TORSDOF 13
ENDMDL
MODEL 3
REMARK VINA RESULT:    -4.393      1.334      2.557
REMARK INTER + INTRA:          -9.021
REMARK INTER:                  -7.589
REMARK INTRA:                  -1.431
REMARK UNBOUND:                -1.289
REMARK SMILES CCCCCCC=CCCCCCCCC(=O)[O-]
REMARK SMILES IDX 10 1 11 2 12 3 13 4 14 5 15 6 16 7 17 8 18 9 9 10 8 11 7 12
REMARK SMILES IDX 6 13 5 14 4 15 3 16 2 17 1 18
REMARK H PARENT
REMARK Flexibility Score: inf
ROOT
ATOM      1  C   UNL     1       7.912   7.144  21.380  1.00  0.00     0.004 C 
ENDROOT
BRANCH   1   2
ATOM      2  C   UNL     1       8.907   6.012  21.073  1.00  0.00     0.000 C 
BRANCH   2   3
ATOM      3  C   UNL     1       8.338   4.978  20.088  1.00  0.00     0.000 C 
BRANCH   3   4
ATOM      4  C   UNL     1       6.858   4.651  20.349  1.00  0.00     0.000 C 
BRANCH   4   5
ATOM      5  C   UNL     1       6.413   3.229  19.955  1.00  0.00     0.006 C 
BRANCH   5   6
ATOM      6  C   UNL     1       7.422   2.479  19.066  1.00  0.00     0.053 C 
BRANCH   6   7
ATOM      7  C   UNL     1       6.886   2.211  17.691  1.00  0.00     0.041 C 
ATOM      8  O   UNL     1       5.643   2.164  17.492  1.00  0.00    -0.550 OA
ATOM      9  O   UNL     1       7.759   1.970  16.636  1.00  0.00    -0.550 OA
ENDBRANCH   6   7
ENDBRANCH   5   6
ENDBRANCH   4   5
ENDBRANCH   3   4
ENDBRANCH   2   3
ENDBRANCH   1   2
BRANCH   1  10
ATOM     10  C   UNL     1       7.977   8.285  20.356  1.00  0.00     0.027 C 
BRANCH  10  11
ATOM     11  C   UNL     1       6.756   8.296  19.477  1.00  0.00    -0.031 C 
ATOM     12  C   UNL     1       6.257   9.449  19.012  1.00  0.00    -0.031 C 
BRANCH  12  13
ATOM     13  C   UNL     1       5.035   9.486  18.132  1.00  0.00     0.027 C 
BRANCH  13  14
ATOM     14  C   UNL     1       5.353   9.976  16.708  1.00  0.00     0.004 C 
BRANCH  14  15
ATOM     15  C   UNL     1       5.938   8.877  15.798  1.00  0.00     0.000 C 
BRANCH  15  16
ATOM     16  C   UNL     1       7.232   9.310  15.071  1.00  0.00    -0.000 C 
BRANCH  16  17
ATOM     17  C   UNL     1       8.143  10.207  15.925  1.00  0.00    -0.003 C 
ATOM     18  C   UNL     1       9.153   9.412  16.749  1.00  0.00     0.004 C 
ENDBRANCH  16  17
ENDBRANCH  15  16
ENDBRANCH  14  15
ENDBRANCH  13  14
ENDBRANCH  12  13
ENDBRANCH  10  11
ENDBRANCH   1  10
TORSDOF 13
ENDMDL
MODEL 4
REMARK VINA RESULT:    -4.354      1.306      2.174
REMARK INTER + INTRA:          -8.952
REMARK INTER:                  -7.277
REMARK INTRA:                  -1.675
REMARK UNBOUND:                -1.289
REMARK SMILES CCCCCCC=CCCCCCCCC(=O)[O-]
REMARK SMILES IDX 10 1 11 2 12 3 13 4 14 5 15 6 16 7 17 8 18 9 9 10 8 11 7 12
REMARK SMILES IDX 6 13 5 14 4 15 3 16 2 17 1 18
REMARK H PARENT
REMARK Flexibility Score: inf
ROOT
ATOM      1  C   UNL     1      10.638   4.588  21.387  1.00  0.00     0.004 C 
ENDROOT
BRANCH   1   2
ATOM      2  C   UNL     1      11.105   3.139  21.599  1.00  0.00     0.000 C 
BRANCH   2   3
ATOM      3  C   UNL     1      10.076   2.109  21.103  1.00  0.00     0.000 C 
BRANCH   3   4
ATOM      4  C   UNL     1       9.271   2.601  19.889  1.00  0.00     0.000 C 
BRANCH   4   5
ATOM      5  C   UNL     1       7.773   2.240  19.897  1.00  0.00     0.006 C 
BRANCH   5   6
ATOM      6  C   UNL     1       6.927   3.049  18.896  1.00  0.00     0.053 C 
BRANCH   6   7
ATOM      7  C   UNL     1       6.634   2.282  17.641  1.00  0.00     0.041 C 
ATOM      8  O   UNL     1       7.566   1.983  16.848  1.00  0.00    -0.550 OA
ATOM      9  O   UNL     1       5.327   1.932  17.324  1.00  0.00    -0.550 OA
ENDBRANCH   6   7
ENDBRANCH   5   6
ENDBRANCH   4   5
ENDBRANCH   3   4
ENDBRANCH   2   3
ENDBRANCH   1   2
BRANCH   1  10
ATOM     10  C   UNL     1       9.803   5.120  22.560  1.00  0.00     0.027 C 
BRANCH  10  11
ATOM     11  C   UNL     1       8.422   5.510  22.110  1.00  0.00    -0.031 C 
ATOM     12  C   UNL     1       8.223   6.045  20.898  1.00  0.00    -0.031 C 
BRANCH  12  13
ATOM     13  C   UNL     1       6.850   6.445  20.423  1.00  0.00     0.027 C 
BRANCH  13  14
ATOM     14  C   UNL     1       6.787   7.918  19.984  1.00  0.00     0.004 C 
BRANCH  14  15
ATOM     15  C   UNL     1       8.063   8.714  20.326  1.00  0.00     0.000 C 
BRANCH  15  16
ATOM     16  C   UNL     1       8.554   9.609  19.165  1.00  0.00    -0.000 C 
BRANCH  16  17
ATOM     17  C   UNL     1       9.003   8.814  17.928  1.00  0.00    -0.003 C 
ATOM     18  C   UNL     1       8.907   9.623  16.636  1.00  0.00     0.004 C 
ENDBRANCH  16  17
ENDBRANCH  15  16
ENDBRANCH  14  15
ENDBRANCH  13  14
ENDBRANCH  12  13
ENDBRANCH  10  11
ENDBRANCH   1  10
TORSDOF 13
ENDMDL
MODEL 5
REMARK VINA RESULT:    -4.342      2.673      3.834
REMARK INTER + INTRA:          -8.932
REMARK INTER:                  -7.170
REMARK INTRA:                  -1.762
REMARK UNBOUND:                -1.289
REMARK SMILES CCCCCCC=CCCCCCCCC(=O)[O-]
REMARK SMILES IDX 10 1 11 2 12 3 13 4 14 5 15 6 16 7 17 8 18 9 9 10 8 11 7 12
REMARK SMILES IDX 6 13 5 14 4 15 3 16 2 17 1 18
REMARK H PARENT
REMARK Flexibility Score: inf
ROOT
ATOM      1  C   UNL     1       6.170   3.208  20.742  1.00  0.00     0.004 C 
ENDROOT
BRANCH   1   2
ATOM      2  C   UNL     1       6.518   3.268  19.245  1.00  0.00     0.000 C 
BRANCH   2   3
ATOM      3  C   UNL     1       7.767   2.441  18.896  1.00  0.00     0.000 C 
BRANCH   3   4
ATOM      4  C   UNL     1       9.002   2.844  19.718  1.00  0.00     0.000 C 
BRANCH   4   5
ATOM      5  C   UNL     1       9.566   4.248  19.422  1.00  0.00     0.006 C 
BRANCH   5   6
ATOM      6  C   UNL     1       9.846   5.090  20.681  1.00  0.00     0.053 C 
BRANCH   6   7
ATOM      7  C   UNL     1      10.387   4.268  21.813  1.00  0.00     0.041 C 
ATOM      8  O   UNL     1       9.675   4.037  22.825  1.00  0.00    -0.550 OA
ATOM      9  O   UNL     1      11.692   3.792  21.769  1.00  0.00    -0.550 OA
ENDBRANCH   6   7
ENDBRANCH   5   6
ENDBRANCH   4   5
ENDBRANCH   3   4
ENDBRANCH   2   3
ENDBRANCH   1   2
BRANCH   1  10
ATOM     10  C   UNL     1       6.173   4.591  21.408  1.00  0.00     0.027 C 
BRANCH  10  11
ATOM     11  C   UNL     1       6.157   5.688  20.378  1.00  0.00    -0.031 C 
ATOM     12  C   UNL     1       6.699   6.884  20.645  1.00  0.00    -0.031 C 
BRANCH  12  13
ATOM     13  C   UNL     1       6.696   7.999  19.632  1.00  0.00     0.027 C 
BRANCH  13  14
ATOM     14  C   UNL     1       7.344   9.286  20.174  1.00  0.00     0.004 C 
BRANCH  14  15
ATOM     15  C   UNL     1       8.491   9.813  19.289  1.00  0.00     0.000 C 
BRANCH  15  16
ATOM     16  C   UNL     1       9.014   8.767  18.279  1.00  0.00    -0.000 C 
BRANCH  16  17
ATOM     17  C   UNL     1       9.088   9.294  16.836  1.00  0.00    -0.003 C 
ATOM     18  C   UNL     1       8.100  10.427  16.566  1.00  0.00     0.004 C 
ENDBRANCH  16  17
ENDBRANCH  15  16
ENDBRANCH  14  15
ENDBRANCH  13  14
ENDBRANCH  12  13
ENDBRANCH  10  11
ENDBRANCH   1  10
TORSDOF 13
ENDMDL
MODEL 6
REMARK VINA RESULT:    -4.319      2.199      3.462
REMARK INTER + INTRA:          -8.890
REMARK INTER:                  -7.609
REMARK INTRA:                  -1.281
REMARK UNBOUND:                -1.289
REMARK SMILES CCCCCCC=CCCCCCCCC(=O)[O-]
REMARK SMILES IDX 10 1 11 2 12 3 13 4 14 5 15 6 16 7 17 8 18 9 9 10 8 11 7 12
REMARK SMILES IDX 6 13 5 14 4 15 3 16 2 17 1 18
REMARK H PARENT
REMARK Flexibility Score: inf
ROOT
ATOM      1  C   UNL     1       5.699   6.762  20.483  1.00  0.00     0.004 C 
ENDROOT
BRANCH   1   2
ATOM      2  C   UNL     1       6.631   5.565  20.733  1.00  0.00     0.000 C 
BRANCH   2   3
ATOM      3  C   UNL     1       6.264   4.342  19.876  1.00  0.00     0.000 C 
BRANCH   3   4
ATOM      4  C   UNL     1       7.142   3.116  20.173  1.00  0.00     0.000 C 
BRANCH   4   5
ATOM      5  C   UNL     1       8.429   3.003  19.332  1.00  0.00     0.006 C 
BRANCH   5   6
ATOM      6  C   UNL     1       9.686   3.558  20.029  1.00  0.00     0.053 C 
BRANCH   6   7
ATOM      7  C   UNL     1      10.365   2.533  20.888  1.00  0.00     0.041 C 
ATOM      8  O   UNL     1      10.000   1.329  20.847  1.00  0.00    -0.550 OA
ATOM      9  O   UNL     1      11.373   2.915  21.766  1.00  0.00    -0.550 OA
ENDBRANCH   6   7
ENDBRANCH   5   6
ENDBRANCH   4   5
ENDBRANCH   3   4
ENDBRANCH   2   3
ENDBRANCH   1   2
BRANCH   1  10
ATOM     10  C   UNL     1       6.448   8.101  20.449  1.00  0.00     0.027 C 
BRANCH  10  11
ATOM     11  C   UNL     1       7.623   8.041  19.512  1.00  0.00    -0.031 C 
ATOM     12  C   UNL     1       8.173   9.164  19.030  1.00  0.00    -0.031 C 
BRANCH  12  13
ATOM     13  C   UNL     1       9.349   9.131  18.090  1.00  0.00     0.027 C 
BRANCH  13  14
ATOM     14  C   UNL     1       8.935   9.347  16.624  1.00  0.00     0.004 C 
BRANCH  14  15
ATOM     15  C   UNL     1       8.005  10.561  16.423  1.00  0.00     0.000 C 
BRANCH  15  16
ATOM     16  C   UNL     1       6.876  10.303  15.399  1.00  0.00    -0.000 C 
BRANCH  16  17
ATOM     17  C   UNL     1       6.154   8.962  15.609  1.00  0.00    -0.003 C 
ATOM     18  C   UNL     1       5.188   8.987  16.793  1.00  0.00     0.004 C 
ENDBRANCH  16  17
ENDBRANCH  15  16
ENDBRANCH  14  15
ENDBRANCH  13  14
ENDBRANCH  12  13
ENDBRANCH  10  11
ENDBRANCH   1  10
TORSDOF 13
ENDMDL
MODEL 7
REMARK VINA RESULT:    -4.305     10.267     13.678
REMARK INTER + INTRA:          -8.866
REMARK INTER:                  -7.166
REMARK INTRA:                  -1.699
REMARK UNBOUND:                -1.289
REMARK SMILES CCCCCCC=CCCCCCCCC(=O)[O-]
REMARK SMILES IDX 10 1 11 2 12 3 13 4 14 5 15 6 16 7 17 8 18 9 9 10 8 11 7 12
REMARK SMILES IDX 6 13 5 14 4 15 3 16 2 17 1 18
REMARK H PARENT
REMARK Flexibility Score: inf
ROOT
ATOM      1  C   UNL     1      12.918   6.358   5.961  1.00  0.00     0.004 C 
ENDROOT
BRANCH   1   2
ATOM      2  C   UNL     1      14.162   6.995   5.320  1.00  0.00     0.000 C 
BRANCH   2   3
ATOM      3  C   UNL     1      14.612   8.273   6.049  1.00  0.00     0.000 C 
BRANCH   3   4
ATOM      4  C   UNL     1      14.857   8.052   7.550  1.00  0.00     0.000 C 
BRANCH   4   5
ATOM      5  C   UNL     1      13.985   8.901   8.496  1.00  0.00     0.006 C 
BRANCH   5   6
ATOM      6  C   UNL     1      14.151  10.421   8.310  1.00  0.00     0.053 C 
BRANCH   6   7
ATOM      7  C   UNL     1      14.877  11.062   9.455  1.00  0.00     0.041 C 
ATOM      8  O   UNL     1      14.256  11.376  10.504  1.00  0.00    -0.550 OA
ATOM      9  O   UNL     1      16.232  11.352   9.348  1.00  0.00    -0.550 OA
ENDBRANCH   6   7
ENDBRANCH   5   6
ENDBRANCH   4   5
ENDBRANCH   3   4
ENDBRANCH   2   3
ENDBRANCH   1   2
BRANCH   1  10
ATOM     10  C   UNL     1      11.606   6.901   5.378  1.00  0.00     0.027 C 
BRANCH  10  11
ATOM     11  C   UNL     1      10.878   7.753   6.382  1.00  0.00    -0.031 C 
ATOM     12  C   UNL     1      10.978   9.089   6.347  1.00  0.00    -0.031 C 
BRANCH  12  13
ATOM     13  C   UNL     1      10.261   9.964   7.341  1.00  0.00     0.027 C 
BRANCH  13  14
ATOM     14  C   UNL     1       8.754  10.072   7.047  1.00  0.00     0.004 C 
BRANCH  14  15
ATOM     15  C   UNL     1       7.867   9.721   8.258  1.00  0.00     0.000 C 
BRANCH  15  16
ATOM     16  C   UNL     1       7.573   8.209   8.383  1.00  0.00    -0.000 C 
BRANCH  16  17
ATOM     17  C   UNL     1       8.205   7.563   9.627  1.00  0.00    -0.003 C 
ATOM     18  C   UNL     1       7.493   7.948  10.922  1.00  0.00     0.004 C 
ENDBRANCH  16  17
ENDBRANCH  15  16
ENDBRANCH  14  15
ENDBRANCH  13  14
ENDBRANCH  12  13
ENDBRANCH  10  11
ENDBRANCH   1  10
TORSDOF 13
ENDMDL
MODEL 8
REMARK VINA RESULT:    -4.256      2.903      6.857
REMARK INTER + INTRA:          -8.781
REMARK INTER:                  -7.742
REMARK INTRA:                  -1.039
REMARK UNBOUND:                -1.289
REMARK SMILES CCCCCCC=CCCCCCCCC(=O)[O-]
REMARK SMILES IDX 10 1 11 2 12 3 13 4 14 5 15 6 16 7 17 8 18 9 9 10 8 11 7 12
REMARK SMILES IDX 6 13 5 14 4 15 3 16 2 17 1 18
REMARK H PARENT
REMARK Flexibility Score: inf
ROOT
ATOM      1  C   UNL     1       6.777   8.690  19.322  1.00  0.00     0.004 C 
ENDROOT
BRANCH   1   2
ATOM      2  C   UNL     1       7.814   9.703  18.809  1.00  0.00     0.000 C 
BRANCH   2   3
ATOM      3  C   UNL     1       9.034   9.023  18.166  1.00  0.00     0.000 C 
BRANCH   3   4
ATOM      4  C   UNL     1       9.177   9.341  16.668  1.00  0.00     0.000 C 
BRANCH   4   5
ATOM      5  C   UNL     1       8.061  10.217  16.067  1.00  0.00     0.006 C 
BRANCH   5   6
ATOM      6  C   UNL     1       7.073   9.447  15.170  1.00  0.00     0.053 C 
BRANCH   6   7
ATOM      7  C   UNL     1       5.697   9.375  15.763  1.00  0.00     0.041 C 
ATOM      8  O   UNL     1       5.073  10.431  16.048  1.00  0.00    -0.550 OA
ATOM      9  O   UNL     1       5.121   8.141  16.040  1.00  0.00    -0.550 OA
ENDBRANCH   6   7
ENDBRANCH   5   6
ENDBRANCH   4   5
ENDBRANCH   3   4
ENDBRANCH   2   3
ENDBRANCH   1   2
BRANCH   1  10
ATOM     10  C   UNL     1       6.464   8.865  20.815  1.00  0.00     0.027 C 
BRANCH  10  11
ATOM     11  C   UNL     1       5.999   7.572  21.427  1.00  0.00    -0.031 C 
ATOM     12  C   UNL     1       5.733   6.507  20.657  1.00  0.00    -0.031 C 
BRANCH  12  13
ATOM     13  C   UNL     1       5.265   5.202  21.244  1.00  0.00     0.027 C 
BRANCH  13  14
ATOM     14  C   UNL     1       6.398   4.163  21.340  1.00  0.00     0.004 C 
BRANCH  14  15
ATOM     15  C   UNL     1       6.930   3.709  19.966  1.00  0.00     0.000 C 
BRANCH  15  16
ATOM     16  C   UNL     1       6.197   2.467  19.408  1.00  0.00    -0.000 C 
BRANCH  16  17
ATOM     17  C   UNL     1       5.976   2.520  17.887  1.00  0.00    -0.003 C 
ATOM     18  C   UNL     1       6.322   1.205  17.191  1.00  0.00     0.004 C 
ENDBRANCH  16  17
ENDBRANCH  15  16
ENDBRANCH  14  15
ENDBRANCH  13  14
ENDBRANCH  12  13
ENDBRANCH  10  11
ENDBRANCH   1  10
TORSDOF 13
ENDMDL
MODEL 9
REMARK VINA RESULT:    -4.246      5.858      9.630
REMARK INTER + INTRA:          -8.762
REMARK INTER:                  -7.691
REMARK INTRA:                  -1.071
REMARK UNBOUND:                -1.289
REMARK SMILES CCCCCCC=CCCCCCCCC(=O)[O-]
REMARK SMILES IDX 10 1 11 2 12 3 13 4 14 5 15 6 16 7 17 8 18 9 9 10 8 11 7 12
REMARK SMILES IDX 6 13 5 14 4 15 3 16 2 17 1 18
REMARK H PARENT
REMARK Flexibility Score: inf
ROOT
ATOM      1  C   UNL     1       7.917  11.187  11.660  1.00  0.00     0.004 C 
ENDROOT
BRANCH   1   2
ATOM      2  C   UNL     1       7.040  11.393  10.413  1.00  0.00     0.000 C 
BRANCH   2   3
ATOM      3  C   UNL     1       6.675  10.068   9.724  1.00  0.00     0.000 C 
BRANCH   3   4
ATOM      4  C   UNL     1       7.433   8.862  10.302  1.00  0.00     0.000 C 
BRANCH   4   5
ATOM      5  C   UNL     1       7.878   7.804   9.273  1.00  0.00     0.006 C 
BRANCH   5   6
ATOM      6  C   UNL     1       8.085   8.357   7.851  1.00  0.00     0.053 C 
BRANCH   6   7
ATOM      7  C   UNL     1       9.504   8.776   7.600  1.00  0.00     0.041 C 
ATOM      8  O   UNL     1      10.444   7.952   7.751  1.00  0.00    -0.550 OA
ATOM      9  O   UNL     1       9.791  10.087   7.241  1.00  0.00    -0.550 OA
ENDBRANCH   6   7
ENDBRANCH   5   6
ENDBRANCH   4   5
ENDBRANCH   3   4
ENDBRANCH   2   3
ENDBRANCH   1   2
BRANCH   1  10
ATOM     10  C   UNL     1       7.468  12.048  12.849  1.00  0.00     0.027 C 
BRANCH  10  11
ATOM     11  C   UNL     1       7.536  11.270  14.136  1.00  0.00    -0.031 C 
ATOM     12  C   UNL     1       7.524   9.930  14.127  1.00  0.00    -0.031 C 
BRANCH  12  13
ATOM     13  C   UNL     1       7.589   9.129  15.401  1.00  0.00     0.027 C 
BRANCH  13  14
ATOM     14  C   UNL     1       8.734   9.586  16.323  1.00  0.00     0.004 C 
BRANCH  14  15
ATOM     15  C   UNL     1       8.268   9.929  17.752  1.00  0.00     0.000 C 
BRANCH  15  16
ATOM     16  C   UNL     1       8.930   9.049  18.838  1.00  0.00    -0.000 C 
BRANCH  16  17
ATOM     17  C   UNL     1       7.922   8.231  19.660  1.00  0.00    -0.003 C 
ATOM     18  C   UNL     1       6.472   8.503  19.264  1.00  0.00     0.004 C 
ENDBRANCH  16  17
ENDBRANCH  15  16
ENDBRANCH  14  15
ENDBRANCH  13  14
ENDBRANCH  12  13
ENDBRANCH  10  11
ENDBRANCH   1  10
TORSDOF 13
ENDMDL
