MODEL 1
REMARK VINA RESULT:    -3.331      0.000      0.000
REMARK INTER + INTRA:          -3.623
REMARK INTER:                  -3.623
REMARK INTRA:                   0.000
REMARK UNBOUND:                 0.000
REMARK SMILES Cc1cc(O)c2c(c1)C(=O)c1cc(O)cc(O)c1C2=O
REMARK SMILES IDX 1 1 2 2 8 3 7 4 6 5 4 6 3 7 19 8 20 9 18 10 11 11 9 12 10 13
REMARK SMILES IDX 12 14 13 15 15 16 16 17 5 18 17 20 14 22
REMARK H PARENT 5 19 17 21 14 23
REMARK Flexibility Score: inf
ROOT
ATOM      1  C   UNL     1       9.061  20.011   8.519  1.00  0.00     0.044 C 
ATOM      2  C   UNL     1       8.939  20.098  10.012  1.00  0.00    -0.047 A 
ATOM      3  C   UNL     1       7.677  20.066  10.619  1.00  0.00     0.016 A 
ATOM      4  C   UNL     1       7.549  20.186  12.013  1.00  0.00     0.038 A 
ATOM      5  C   UNL     1       8.701  20.348  12.812  1.00  0.00     0.076 A 
ATOM      6  C   UNL     1       9.971  20.407  12.193  1.00  0.00     0.127 A 
ATOM      7  C   UNL     1      10.078  20.287  10.801  1.00  0.00     0.050 A 
ATOM      8  C   UNL     1       8.552  20.430  14.289  1.00  0.00     0.201 C 
ATOM      9  O   UNL     1       9.549  20.209  15.026  1.00  0.00    -0.288 OA
ATOM     10  C   UNL     1       7.210  20.659  14.894  1.00  0.00     0.076 A 
ATOM     11  C   UNL     1       6.065  20.434  14.094  1.00  0.00     0.041 A 
ATOM     12  C   UNL     1       6.213  20.143  12.648  1.00  0.00     0.194 C 
ATOM     13  O   UNL     1       5.194  19.875  11.951  1.00  0.00    -0.289 OA
ATOM     14  C   UNL     1       4.784  20.498  14.669  1.00  0.00     0.059 A 
ATOM     15  C   UNL     1       4.628  20.795  16.022  1.00  0.00     0.120 A 
ATOM     16  C   UNL     1       5.750  21.065  16.808  1.00  0.00     0.093 A 
ATOM     17  C   UNL     1       7.035  21.035  16.254  1.00  0.00     0.131 A 
ENDROOT
BRANCH   6  18
ATOM     18  O   UNL     1      11.125  20.597  12.953  1.00  0.00    -0.507 OA
ATOM     19  H   UNL     1      11.382  19.964  13.701  1.00  0.00     0.293 HD
ENDBRANCH   6  18
BRANCH  17  20
ATOM     20  O   UNL     1       8.093  21.421  17.080  1.00  0.00    -0.507 OA
ATOM     21  H   UNL     1       8.240  21.057  18.011  1.00  0.00     0.293 HD
ENDBRANCH  17  20
BRANCH  15  22
ATOM     22  O   UNL     1       3.349  20.835  16.575  1.00  0.00    -0.508 OA
ATOM     23  H   UNL     1       2.679  21.546  16.310  1.00  0.00     0.293 HD
ENDBRANCH  15  22
TORSDOF 3
ENDMDL
MODEL 2
REMARK VINA RESULT:    -2.964      2.010      5.999
REMARK INTER + INTRA:          -3.224
REMARK INTER:                  -3.224
REMARK INTRA:                   0.000
REMARK UNBOUND:                 0.000
REMARK SMILES Cc1cc(O)c2c(c1)C(=O)c1cc(O)cc(O)c1C2=O
REMARK SMILES IDX 1 1 2 2 8 3 7 4 6 5 4 6 3 7 19 8 20 9 18 10 11 11 9 12 10 13
REMARK SMILES IDX 12 14 13 15 15 16 16 17 5 18 17 20 14 22
REMARK H PARENT 5 19 17 21 14 23
REMARK Flexibility Score: inf
ROOT
ATOM      1  C   UNL     1      10.263  22.974  18.494  1.00  0.00     0.044 C 
ATOM      2  C   UNL     1       9.450  22.310  17.421  1.00  0.00    -0.047 A 
ATOM      3  C   UNL     1      10.026  22.025  16.177  1.00  0.00     0.016 A 
ATOM      4  C   UNL     1       9.264  21.439  15.152  1.00  0.00     0.038 A 
ATOM      5  C   UNL     1       7.903  21.139  15.374  1.00  0.00     0.076 A 
ATOM      6  C   UNL     1       7.319  21.452  16.622  1.00  0.00     0.127 A 
ATOM      7  C   UNL     1       8.095  22.039  17.631  1.00  0.00     0.050 A 
ATOM      8  C   UNL     1       7.122  20.480  14.294  1.00  0.00     0.201 C 
ATOM      9  O   UNL     1       6.049  19.885  14.580  1.00  0.00    -0.288 OA
ATOM     10  C   UNL     1       7.661  20.424  12.906  1.00  0.00     0.076 A 
ATOM     11  C   UNL     1       9.041  20.670  12.711  1.00  0.00     0.041 A 
ATOM     12  C   UNL     1       9.882  21.134  13.841  1.00  0.00     0.194 C 
ATOM     13  O   UNL     1      11.125  21.286  13.682  1.00  0.00    -0.289 OA
ATOM     14  C   UNL     1       9.614  20.485  11.441  1.00  0.00     0.059 A 
ATOM     15  C   UNL     1       8.832  20.074  10.364  1.00  0.00     0.120 A 
ATOM     16  C   UNL     1       7.461  19.875  10.537  1.00  0.00     0.093 A 
ATOM     17  C   UNL     1       6.860  20.078  11.784  1.00  0.00     0.131 A 
ENDROOT
BRANCH   6  18
ATOM     18  O   UNL     1       5.969  21.196  16.860  1.00  0.00    -0.507 OA
ATOM     19  H   UNL     1       5.668  20.486  17.517  1.00  0.00     0.293 HD
ENDBRANCH   6  18
BRANCH  17  20
ATOM     20  O   UNL     1       5.470  19.963  11.847  1.00  0.00    -0.507 OA
ATOM     21  H   UNL     1       4.861  20.073  11.049  1.00  0.00     0.293 HD
ENDBRANCH  17  20
BRANCH  15  22
ATOM     22  O   UNL     1       9.425  19.879   9.118  1.00  0.00    -0.508 OA
ATOM     23  H   UNL     1      10.300  20.326   8.871  1.00  0.00     0.293 HD
ENDBRANCH  15  22
TORSDOF 3
ENDMDL
MODEL 3
REMARK VINA RESULT:    -2.864      1.242      5.486
REMARK INTER + INTRA:          -3.115
REMARK INTER:                  -3.115
REMARK INTRA:                   0.000
REMARK UNBOUND:                 0.000
REMARK SMILES Cc1cc(O)c2c(c1)C(=O)c1cc(O)cc(O)c1C2=O
REMARK SMILES IDX 1 1 2 2 8 3 7 4 6 5 4 6 3 7 19 8 20 9 18 10 11 11 9 12 10 13
REMARK SMILES IDX 12 14 13 15 15 16 16 17 5 18 17 20 14 22
REMARK H PARENT 5 19 17 21 14 23
REMARK Flexibility Score: inf
ROOT
ATOM      1  C   UNL     1       3.145  19.876  16.366  1.00  0.00     0.044 C 
ATOM      2  C   UNL     1       4.492  20.187  15.784  1.00  0.00    -0.047 A 
ATOM      3  C   UNL     1       4.714  20.051  14.408  1.00  0.00     0.016 A 
ATOM      4  C   UNL     1       5.981  20.303  13.857  1.00  0.00     0.038 A 
ATOM      5  C   UNL     1       7.047  20.691  14.697  1.00  0.00     0.076 A 
ATOM      6  C   UNL     1       6.826  20.802  16.089  1.00  0.00     0.127 A 
ATOM      7  C   UNL     1       5.555  20.545  16.619  1.00  0.00     0.050 A 
ATOM      8  C   UNL     1       8.371  20.996  14.094  1.00  0.00     0.201 C 
ATOM      9  O   UNL     1       9.206  21.677  14.744  1.00  0.00    -0.288 OA
ATOM     10  C   UNL     1       8.662  20.597  12.688  1.00  0.00     0.076 A 
ATOM     11  C   UNL     1       7.576  20.267  11.844  1.00  0.00     0.041 A 
ATOM     12  C   UNL     1       6.206  20.163  12.400  1.00  0.00     0.194 C 
ATOM     13  O   UNL     1       5.229  19.938  11.633  1.00  0.00    -0.289 OA
ATOM     14  C   UNL     1       7.798  20.028  10.477  1.00  0.00     0.059 A 
ATOM     15  C   UNL     1       9.083  20.098   9.944  1.00  0.00     0.120 A 
ATOM     16  C   UNL     1      10.167  20.375  10.779  1.00  0.00     0.093 A 
ATOM     17  C   UNL     1       9.978  20.591  12.149  1.00  0.00     0.131 A 
ENDROOT
BRANCH   6  18
ATOM     18  O   UNL     1       7.867  21.154  16.949  1.00  0.00    -0.507 OA
ATOM     19  H   UNL     1       8.588  21.809  16.673  1.00  0.00     0.293 HD
ENDBRANCH   6  18
BRANCH  17  20
ATOM     20  O   UNL     1      11.123  20.755  12.931  1.00  0.00    -0.507 OA
ATOM     21  H   UNL     1      11.990  20.263  12.768  1.00  0.00     0.293 HD
ENDBRANCH  17  20
BRANCH  15  22
ATOM     22  O   UNL     1       9.277  19.875   8.582  1.00  0.00    -0.508 OA
ATOM     23  H   UNL     1      10.128  20.162   8.113  1.00  0.00     0.293 HD
ENDBRANCH  15  22
TORSDOF 3
ENDMDL
MODEL 4
REMARK VINA RESULT:    -2.440     10.607     15.128
REMARK INTER + INTRA:          -2.654
REMARK INTER:                  -2.654
REMARK INTRA:                   0.000
REMARK UNBOUND:                 0.000
REMARK SMILES Cc1cc(O)c2c(c1)C(=O)c1cc(O)cc(O)c1C2=O
REMARK SMILES IDX 1 1 2 2 8 3 7 4 6 5 4 6 3 7 19 8 20 9 18 10 11 11 9 12 10 13
REMARK SMILES IDX 12 14 13 15 15 16 16 17 5 18 17 20 14 22
REMARK H PARENT 5 19 17 21 14 23
REMARK Flexibility Score: inf
ROOT
ATOM      1  C   UNL     1      -9.123  21.020  21.884  1.00  0.00     0.044 C 
ATOM      2  C   UNL     1      -8.390  20.856  20.585  1.00  0.00    -0.047 A 
ATOM      3  C   UNL     1      -7.018  20.578  20.580  1.00  0.00     0.016 A 
ATOM      4  C   UNL     1      -6.314  20.460  19.370  1.00  0.00     0.038 A 
ATOM      5  C   UNL     1      -6.992  20.631  18.144  1.00  0.00     0.076 A 
ATOM      6  C   UNL     1      -8.372  20.938  18.153  1.00  0.00     0.127 A 
ATOM      7  C   UNL     1      -9.056  21.053  19.371  1.00  0.00     0.050 A 
ATOM      8  C   UNL     1      -6.242  20.462  16.872  1.00  0.00     0.201 C 
ATOM      9  O   UNL     1      -6.874  20.248  15.804  1.00  0.00    -0.288 OA
ATOM     10  C   UNL     1      -4.753  20.430  16.879  1.00  0.00     0.076 A 
ATOM     11  C   UNL     1      -4.092  20.199  18.109  1.00  0.00     0.041 A 
ATOM     12  C   UNL     1      -4.864  20.159  19.374  1.00  0.00     0.194 C 
ATOM     13  O   UNL     1      -4.283  19.884  20.460  1.00  0.00    -0.289 OA
ATOM     14  C   UNL     1      -2.698  20.017  18.132  1.00  0.00     0.059 A 
ATOM     15  C   UNL     1      -1.955  20.077  16.955  1.00  0.00     0.120 A 
ATOM     16  C   UNL     1      -2.594  20.352  15.744  1.00  0.00     0.093 A 
ATOM     17  C   UNL     1      -3.976  20.563  15.696  1.00  0.00     0.131 A 
ENDROOT
BRANCH   6  18
ATOM     18  O   UNL     1      -9.063  21.143  16.959  1.00  0.00    -0.507 OA
ATOM     19  H   UNL     1      -9.821  20.536  16.671  1.00  0.00     0.293 HD
ENDBRANCH   6  18
BRANCH  17  20
ATOM     20  O   UNL     1      -4.520  20.939  14.466  1.00  0.00    -0.507 OA
ATOM     21  H   UNL     1      -5.283  20.451  14.018  1.00  0.00     0.293 HD
ENDBRANCH  17  20
BRANCH  15  22
ATOM     22  O   UNL     1      -0.577  19.876  17.000  1.00  0.00    -0.508 OA
ATOM     23  H   UNL     1       0.017  20.091  16.208  1.00  0.00     0.293 HD
ENDBRANCH  15  22
TORSDOF 3
ENDMDL
MODEL 5
REMARK VINA RESULT:    -1.834      1.741      3.775
REMARK INTER + INTRA:          -1.994
REMARK INTER:                  -1.994
REMARK INTRA:                   0.000
REMARK UNBOUND:                 0.000
REMARK SMILES Cc1cc(O)c2c(c1)C(=O)c1cc(O)cc(O)c1C2=O
REMARK SMILES IDX 1 1 2 2 8 3 7 4 6 5 4 6 3 7 19 8 20 9 18 10 11 11 9 12 10 13
REMARK SMILES IDX 12 14 13 15 15 16 16 17 5 18 17 20 14 22
REMARK H PARENT 5 19 17 21 14 23
REMARK Flexibility Score: inf
ROOT
ATOM      1  C   UNL     1       9.550  19.909   9.046  1.00  0.00     0.044 C 
ATOM      2  C   UNL     1       8.919  20.232  10.369  1.00  0.00    -0.047 A 
ATOM      3  C   UNL     1       9.691  20.772  11.405  1.00  0.00     0.016 A 
ATOM      4  C   UNL     1       9.119  21.042  12.660  1.00  0.00     0.038 A 
ATOM      5  C   UNL     1       7.753  20.762  12.883  1.00  0.00     0.076 A 
ATOM      6  C   UNL     1       6.984  20.193  11.843  1.00  0.00     0.127 A 
ATOM      7  C   UNL     1       7.574  19.929  10.599  1.00  0.00     0.050 A 
ATOM      8  C   UNL     1       7.153  21.093  14.202  1.00  0.00     0.201 C 
ATOM      9  O   UNL     1       5.902  21.196  14.305  1.00  0.00    -0.288 OA
ATOM     10  C   UNL     1       8.028  21.414  15.364  1.00  0.00     0.076 A 
ATOM     11  C   UNL     1       9.380  21.750  15.115  1.00  0.00     0.041 A 
ATOM     12  C   UNL     1       9.939  21.619  13.748  1.00  0.00     0.194 C 
ATOM     13  O   UNL     1      11.125  21.985  13.514  1.00  0.00    -0.289 OA
ATOM     14  C   UNL     1      10.196  22.198  16.167  1.00  0.00     0.059 A 
ATOM     15  C   UNL     1       9.692  22.302  17.462  1.00  0.00     0.120 A 
ATOM     16  C   UNL     1       8.373  21.926  17.725  1.00  0.00     0.093 A 
ATOM     17  C   UNL     1       7.546  21.452  16.701  1.00  0.00     0.131 A 
ENDROOT
BRANCH   6  18
ATOM     18  O   UNL     1       5.640  19.876  12.043  1.00  0.00    -0.507 OA
ATOM     19  H   UNL     1       4.907  20.565  11.929  1.00  0.00     0.293 HD
ENDBRANCH   6  18
BRANCH  17  20
ATOM     20  O   UNL     1       6.278  20.997  17.067  1.00  0.00    -0.507 OA
ATOM     21  H   UNL     1       5.758  21.357  17.855  1.00  0.00     0.293 HD
ENDBRANCH  17  20
BRANCH  15  22
ATOM     22  O   UNL     1      10.515  22.766  18.486  1.00  0.00    -0.508 OA
ATOM     23  H   UNL     1      10.500  23.735  18.781  1.00  0.00     0.293 HD
ENDBRANCH  15  22
TORSDOF 3
ENDMDL
MODEL 6
REMARK VINA RESULT:    -1.469      9.223     12.756
REMARK INTER + INTRA:          -1.598
REMARK INTER:                  -1.598
REMARK INTRA:                   0.000
REMARK UNBOUND:                 0.000
REMARK SMILES Cc1cc(O)c2c(c1)C(=O)c1cc(O)cc(O)c1C2=O
REMARK SMILES IDX 1 1 2 2 8 3 7 4 6 5 4 6 3 7 19 8 20 9 18 10 11 11 9 12 10 13
REMARK SMILES IDX 12 14 13 15 15 16 16 17 5 18 17 20 14 22
REMARK H PARENT 5 19 17 21 14 23
REMARK Flexibility Score: inf
ROOT
ATOM      1  C   UNL     1       0.739  20.281  15.984  1.00  0.00     0.044 C 
ATOM      2  C   UNL     1      -0.557  20.265  16.741  1.00  0.00    -0.047 A 
ATOM      3  C   UNL     1      -1.774  20.371  16.056  1.00  0.00     0.016 A 
ATOM      4  C   UNL     1      -2.992  20.394  16.757  1.00  0.00     0.038 A 
ATOM      5  C   UNL     1      -2.991  20.318  18.166  1.00  0.00     0.076 A 
ATOM      6  C   UNL     1      -1.759  20.238  18.855  1.00  0.00     0.127 A 
ATOM      7  C   UNL     1      -0.556  20.217  18.138  1.00  0.00     0.050 A 
ATOM      8  C   UNL     1      -4.289  20.302  18.891  1.00  0.00     0.201 C 
ATOM      9  O   UNL     1      -4.332  19.876  20.075  1.00  0.00    -0.288 OA
ATOM     10  C   UNL     1      -5.546  20.677  18.184  1.00  0.00     0.076 A 
ATOM     11  C   UNL     1      -5.543  20.691  16.769  1.00  0.00     0.041 A 
ATOM     12  C   UNL     1      -4.274  20.499  16.026  1.00  0.00     0.194 C 
ATOM     13  O   UNL     1      -4.285  20.443  14.765  1.00  0.00    -0.289 OA
ATOM     14  C   UNL     1      -6.743  20.897  16.067  1.00  0.00     0.059 A 
ATOM     15  C   UNL     1      -7.939  21.103  16.752  1.00  0.00     0.120 A 
ATOM     16  C   UNL     1      -7.942  21.139  18.148  1.00  0.00     0.093 A 
ATOM     17  C   UNL     1      -6.757  20.963  18.871  1.00  0.00     0.131 A 
ENDROOT
BRANCH   6  18
ATOM     18  O   UNL     1      -1.725  20.193  20.249  1.00  0.00    -0.507 OA
ATOM     19  H   UNL     1      -2.354  20.748  20.817  1.00  0.00     0.293 HD
ENDBRANCH   6  18
BRANCH  17  20
ATOM     20  O   UNL     1      -6.828  21.120  20.257  1.00  0.00    -0.507 OA
ATOM     21  H   UNL     1      -6.053  21.429  20.827  1.00  0.00     0.293 HD
ENDBRANCH  17  20
BRANCH  15  22
ATOM     22  O   UNL     1      -9.119  21.287  16.035  1.00  0.00    -0.508 OA
ATOM     23  H   UNL     1     -10.026  21.130  16.458  1.00  0.00     0.293 HD
ENDBRANCH  15  22
TORSDOF 3
ENDMDL
MODEL 7
REMARK VINA RESULT:    -1.463     10.546     14.233
REMARK INTER + INTRA:          -1.591
REMARK INTER:                  -1.591
REMARK INTRA:                   0.000
REMARK UNBOUND:                 0.000
REMARK SMILES Cc1cc(O)c2c(c1)C(=O)c1cc(O)cc(O)c1C2=O
REMARK SMILES IDX 1 1 2 2 8 3 7 4 6 5 4 6 3 7 19 8 20 9 18 10 11 11 9 12 10 13
REMARK SMILES IDX 12 14 13 15 15 16 16 17 5 18 17 20 14 22
REMARK H PARENT 5 19 17 21 14 23
REMARK Flexibility Score: inf
ROOT
ATOM      1  C   UNL     1      -0.394  19.875  17.168  1.00  0.00     0.044 C 
ATOM      2  C   UNL     1      -1.883  20.056  17.137  1.00  0.00    -0.047 A 
ATOM      3  C   UNL     1      -2.620  20.044  18.328  1.00  0.00     0.016 A 
ATOM      4  C   UNL     1      -4.019  20.174  18.308  1.00  0.00     0.038 A 
ATOM      5  C   UNL     1      -4.693  20.310  17.075  1.00  0.00     0.076 A 
ATOM      6  C   UNL     1      -3.948  20.294  15.873  1.00  0.00     0.127 A 
ATOM      7  C   UNL     1      -2.554  20.162  15.914  1.00  0.00     0.050 A 
ATOM      8  C   UNL     1      -6.168  20.489  17.072  1.00  0.00     0.201 C 
ATOM      9  O   UNL     1      -6.733  20.967  16.053  1.00  0.00    -0.288 OA
ATOM     10  C   UNL     1      -6.958  20.213  18.305  1.00  0.00     0.076 A 
ATOM     11  C   UNL     1      -6.271  20.138  19.540  1.00  0.00     0.041 A 
ATOM     12  C   UNL     1      -4.789  20.168  19.571  1.00  0.00     0.194 C 
ATOM     13  O   UNL     1      -4.181  20.171  20.678  1.00  0.00    -0.289 OA
ATOM     14  C   UNL     1      -6.996  20.025  20.739  1.00  0.00     0.059 A 
ATOM     15  C   UNL     1      -8.388  19.971  20.725  1.00  0.00     0.120 A 
ATOM     16  C   UNL     1      -9.071  19.995  19.507  1.00  0.00     0.093 A 
ATOM     17  C   UNL     1      -8.373  20.081  18.297  1.00  0.00     0.131 A 
ENDROOT
BRANCH   6  18
ATOM     18  O   UNL     1      -4.589  20.396  14.638  1.00  0.00    -0.507 OA
ATOM     19  H   UNL     1      -4.506  21.224  14.060  1.00  0.00     0.293 HD
ENDBRANCH   6  18
BRANCH  17  20
ATOM     20  O   UNL     1      -9.123  19.992  17.123  1.00  0.00    -0.507 OA
ATOM     21  H   UNL     1      -8.935  19.327  16.386  1.00  0.00     0.293 HD
ENDBRANCH  17  20
BRANCH  15  22
ATOM     22  O   UNL     1      -9.086  19.877  21.927  1.00  0.00    -0.508 OA
ATOM     23  H   UNL     1      -9.975  20.343  22.063  1.00  0.00     0.293 HD
ENDBRANCH  15  22
TORSDOF 3
ENDMDL
MODEL 8
REMARK VINA RESULT:    -0.798      1.716      2.448
REMARK INTER + INTRA:          -0.868
REMARK INTER:                  -0.868
REMARK INTRA:                   0.000
REMARK UNBOUND:                 0.000
REMARK SMILES Cc1cc(O)c2c(c1)C(=O)c1cc(O)cc(O)c1C2=O
REMARK SMILES IDX 1 1 2 2 8 3 7 4 6 5 4 6 3 7 19 8 20 9 18 10 11 11 9 12 10 13
REMARK SMILES IDX 12 14 13 15 15 16 16 17 5 18 17 20 14 22
REMARK H PARENT 5 19 17 21 14 23
REMARK Flexibility Score: inf
ROOT
ATOM      1  C   UNL     1      10.754  20.694  11.512  1.00  0.00     0.044 C 
ATOM      2  C   UNL     1       9.970  20.906  12.774  1.00  0.00    -0.047 A 
ATOM      3  C   UNL     1       8.605  20.594  12.815  1.00  0.00     0.016 A 
ATOM      4  C   UNL     1       7.852  20.824  13.979  1.00  0.00     0.038 A 
ATOM      5  C   UNL     1       8.474  21.382  15.118  1.00  0.00     0.076 A 
ATOM      6  C   UNL     1       9.845  21.719  15.063  1.00  0.00     0.127 A 
ATOM      7  C   UNL     1      10.578  21.483  13.892  1.00  0.00     0.050 A 
ATOM      8  C   UNL     1       7.674  21.580  16.355  1.00  0.00     0.201 C 
ATOM      9  O   UNL     1       8.264  21.721  17.458  1.00  0.00    -0.288 OA
ATOM     10  C   UNL     1       6.187  21.495  16.307  1.00  0.00     0.076 A 
ATOM     11  C   UNL     1       5.585  20.880  15.184  1.00  0.00     0.041 A 
ATOM     12  C   UNL     1       6.412  20.486  14.018  1.00  0.00     0.194 C 
ATOM     13  O   UNL     1       5.884  19.875  13.048  1.00  0.00    -0.289 OA
ATOM     14  C   UNL     1       4.198  20.652  15.169  1.00  0.00     0.059 A 
ATOM     15  C   UNL     1       3.404  21.039  16.246  1.00  0.00     0.120 A 
ATOM     16  C   UNL     1       3.983  21.690  17.338  1.00  0.00     0.093 A 
ATOM     17  C   UNL     1       5.357  21.954  17.366  1.00  0.00     0.131 A 
ENDROOT
BRANCH   6  18
ATOM     18  O   UNL     1      10.480  22.300  16.161  1.00  0.00    -0.507 OA
ATOM     19  H   UNL     1      11.444  22.092  16.392  1.00  0.00     0.293 HD
ENDBRANCH   6  18
BRANCH  17  20
ATOM     20  O   UNL     1       5.839  22.702  18.442  1.00  0.00    -0.507 OA
ATOM     21  H   UNL     1       5.312  23.434  18.897  1.00  0.00     0.293 HD
ENDBRANCH  17  20
BRANCH  15  22
ATOM     22  O   UNL     1       2.034  20.786  16.218  1.00  0.00    -0.508 OA
ATOM     23  H   UNL     1       1.601  20.297  15.444  1.00  0.00     0.293 HD
ENDBRANCH  15  22
TORSDOF 3
ENDMDL
MODEL 9
REMARK VINA RESULT:    -0.518      9.620     13.595
REMARK INTER + INTRA:          -0.564
REMARK INTER:                  -0.564
REMARK INTRA:                   0.000
REMARK UNBOUND:                 0.000
REMARK SMILES Cc1cc(O)c2c(c1)C(=O)c1cc(O)cc(O)c1C2=O
REMARK SMILES IDX 1 1 2 2 8 3 7 4 6 5 4 6 3 7 19 8 20 9 18 10 11 11 9 12 10 13
REMARK SMILES IDX 12 14 13 15 15 16 16 17 5 18 17 20 14 22
REMARK H PARENT 5 19 17 21 14 23
REMARK Flexibility Score: inf
ROOT
ATOM      1  C   UNL     1      -9.125  20.101  14.400  1.00  0.00     0.044 C 
ATOM      2  C   UNL     1      -8.065  20.219  15.456  1.00  0.00    -0.047 A 
ATOM      3  C   UNL     1      -6.718  20.329  15.093  1.00  0.00     0.016 A 
ATOM      4  C   UNL     1      -5.714  20.402  16.074  1.00  0.00     0.038 A 
ATOM      5  C   UNL     1      -6.065  20.356  17.440  1.00  0.00     0.076 A 
ATOM      6  C   UNL     1      -7.424  20.218  17.803  1.00  0.00     0.127 A 
ATOM      7  C   UNL     1      -8.410  20.146  16.809  1.00  0.00     0.050 A 
ATOM      8  C   UNL     1      -4.995  20.477  18.466  1.00  0.00     0.201 C 
ATOM      9  O   UNL     1      -5.301  20.801  19.644  1.00  0.00    -0.288 OA
ATOM     10  C   UNL     1      -3.565  20.328  18.078  1.00  0.00     0.076 A 
ATOM     11  C   UNL     1      -3.226  20.435  16.708  1.00  0.00     0.041 A 
ATOM     12  C   UNL     1      -4.292  20.526  15.682  1.00  0.00     0.194 C 
ATOM     13  O   UNL     1      -3.987  20.691  14.468  1.00  0.00    -0.289 OA
ATOM     14  C   UNL     1      -1.875  20.446  16.319  1.00  0.00     0.059 A 
ATOM     15  C   UNL     1      -0.862  20.337  17.270  1.00  0.00     0.120 A 
ATOM     16  C   UNL     1      -1.189  20.183  18.618  1.00  0.00     0.093 A 
ATOM     17  C   UNL     1      -2.526  20.142  19.030  1.00  0.00     0.131 A 
ENDROOT
BRANCH   6  18
ATOM     18  O   UNL     1      -7.798  20.139  19.144  1.00  0.00    -0.507 OA
ATOM     19  H   UNL     1      -7.677  19.290  19.683  1.00  0.00     0.293 HD
ENDBRANCH   6  18
BRANCH  17  20
ATOM     20  O   UNL     1      -2.768  19.877  20.380  1.00  0.00    -0.507 OA
ATOM     21  H   UNL     1      -2.574  18.989  20.821  1.00  0.00     0.293 HD
ENDBRANCH  17  20
BRANCH  15  22
ATOM     22  O   UNL     1       0.470  20.369  16.862  1.00  0.00    -0.508 OA
ATOM     23  H   UNL     1       1.149  19.705  17.216  1.00  0.00     0.293 HD
ENDBRANCH  15  22
TORSDOF 3
ENDMDL
