MODEL 1
REMARK VINA RESULT:    -4.559      0.000      0.000
REMARK INTER + INTRA:          -7.544
REMARK INTER:                  -6.958
REMARK INTRA:                  -0.586
REMARK UNBOUND:                -0.586
REMARK SMILES O=C([O-])CCCCCCCCC(=O)[O-]
REMARK SMILES IDX 7 1 6 2 5 3 4 4 2 5 1 6 3 7 8 8 9 9 10 10 11 11 12 12 13 13
REMARK SMILES IDX 14 14
REMARK H PARENT
REMARK Flexibility Score: inf
ROOT
ATOM      1  C   UNL     1      -2.109 -36.046  21.120  1.00  0.00     0.000 C 
ENDROOT
BRANCH   1   2
ATOM      2  C   UNL     1      -2.622 -35.329  22.382  1.00  0.00     0.000 C 
BRANCH   2   3
ATOM      3  C   UNL     1      -1.889 -34.017  22.731  1.00  0.00     0.006 C 
BRANCH   3   4
ATOM      4  C   UNL     1      -2.624 -33.126  23.745  1.00  0.00     0.053 C 
BRANCH   4   5
ATOM      5  C   UNL     1      -1.747 -32.028  24.262  1.00  0.00     0.041 C 
ATOM      6  O   UNL     1      -2.226 -30.884  24.483  1.00  0.00    -0.550 OA
ATOM      7  O   UNL     1      -0.393 -32.258  24.468  1.00  0.00    -0.550 OA
ENDBRANCH   4   5
ENDBRANCH   3   4
ENDBRANCH   2   3
ENDBRANCH   1   2
BRANCH   1   8
ATOM      8  C   UNL     1      -1.619 -37.474  21.399  1.00  0.00     0.000 C 
BRANCH   8   9
ATOM      9  C   UNL     1      -0.086 -37.552  21.328  1.00  0.00     0.000 C 
BRANCH   9  10
ATOM     10  C   UNL     1       0.548 -36.259  20.792  1.00  0.00     0.006 C 
BRANCH  10  11
ATOM     11  C   UNL     1       1.441 -35.564  21.830  1.00  0.00     0.053 C 
BRANCH  11  12
ATOM     12  C   UNL     1       2.882 -35.858  21.558  1.00  0.00     0.041 C 
ATOM     13  O   UNL     1       3.778 -35.381  22.303  1.00  0.00    -0.550 OA
ATOM     14  O   UNL     1       3.234 -36.699  20.510  1.00  0.00    -0.550 OA
ENDBRANCH  11  12
ENDBRANCH  10  11
ENDBRANCH   9  10
ENDBRANCH   8   9
ENDBRANCH   1   8
TORSDOF 9
ENDMDL
MODEL 2
REMARK VINA RESULT:    -4.545      0.282      5.391
REMARK INTER + INTRA:          -7.523
REMARK INTER:                  -6.919
REMARK INTRA:                  -0.605
REMARK UNBOUND:                -0.586
REMARK SMILES O=C([O-])CCCCCCCCC(=O)[O-]
REMARK SMILES IDX 7 1 6 2 5 3 4 4 2 5 1 6 3 7 8 8 9 9 10 10 11 11 12 12 13 13
REMARK SMILES IDX 14 14
REMARK H PARENT
REMARK Flexibility Score: inf
ROOT
ATOM      1  C   UNL     1      -1.573 -37.385  21.443  1.00  0.00     0.000 C 
ENDROOT
BRANCH   1   2
ATOM      2  C   UNL     1      -0.073 -37.386  21.098  1.00  0.00     0.000 C 
BRANCH   2   3
ATOM      3  C   UNL     1       0.546 -35.991  20.867  1.00  0.00     0.006 C 
BRANCH   3   4
ATOM      4  C   UNL     1       1.457 -35.501  22.003  1.00  0.00     0.053 C 
BRANCH   4   5
ATOM      5  C   UNL     1       2.900 -35.785  21.724  1.00  0.00     0.041 C 
ATOM      6  O   UNL     1       3.271 -36.106  20.564  1.00  0.00    -0.550 OA
ATOM      7  O   UNL     1       3.832 -35.725  22.753  1.00  0.00    -0.550 OA
ENDBRANCH   4   5
ENDBRANCH   3   4
ENDBRANCH   2   3
ENDBRANCH   1   2
BRANCH   1   8
ATOM      8  C   UNL     1      -2.260 -36.050  21.124  1.00  0.00     0.000 C 
BRANCH   8   9
ATOM      9  C   UNL     1      -2.783 -35.381  22.405  1.00  0.00     0.000 C 
BRANCH   9  10
ATOM     10  C   UNL     1      -1.912 -34.197  22.852  1.00  0.00     0.006 C 
BRANCH  10  11
ATOM     11  C   UNL     1      -2.610 -33.310  23.893  1.00  0.00     0.053 C 
BRANCH  11  12
ATOM     12  C   UNL     1      -1.741 -32.147  24.253  1.00  0.00     0.041 C 
ATOM     13  O   UNL     1      -2.250 -31.012  24.448  1.00  0.00    -0.550 OA
ATOM     14  O   UNL     1      -0.374 -32.327  24.421  1.00  0.00    -0.550 OA
ENDBRANCH  11  12
ENDBRANCH  10  11
ENDBRANCH   9  10
ENDBRANCH   8   9
ENDBRANCH   1   8
TORSDOF 9
ENDMDL
MODEL 3
REMARK VINA RESULT:    -4.487     19.141     20.191
REMARK INTER + INTRA:          -7.435
REMARK INTER:                  -7.065
REMARK INTRA:                  -0.369
REMARK UNBOUND:                -0.586
REMARK SMILES O=C([O-])CCCCCCCCC(=O)[O-]
REMARK SMILES IDX 7 1 6 2 5 3 4 4 2 5 1 6 3 7 8 8 9 9 10 10 11 11 12 12 13 13
REMARK SMILES IDX 14 14
REMARK H PARENT
REMARK Flexibility Score: inf
ROOT
ATOM      1  C   UNL     1      -6.817 -18.909  32.990  1.00  0.00     0.000 C 
ENDROOT
BRANCH   1   2
ATOM      2  C   UNL     1      -5.328 -19.221  32.752  1.00  0.00     0.000 C 
BRANCH   2   3
ATOM      3  C   UNL     1      -4.360 -18.613  33.787  1.00  0.00     0.006 C 
BRANCH   3   4
ATOM      4  C   UNL     1      -4.409 -19.275  35.173  1.00  0.00     0.053 C 
BRANCH   4   5
ATOM      5  C   UNL     1      -3.791 -20.638  35.164  1.00  0.00     0.041 C 
ATOM      6  O   UNL     1      -4.403 -21.617  35.669  1.00  0.00    -0.550 OA
ATOM      7  O   UNL     1      -2.524 -20.824  34.624  1.00  0.00    -0.550 OA
ENDBRANCH   4   5
ENDBRANCH   3   4
ENDBRANCH   2   3
ENDBRANCH   1   2
BRANCH   1   8
ATOM      8  C   UNL     1      -7.382 -17.889  31.991  1.00  0.00     0.000 C 
BRANCH   8   9
ATOM      9  C   UNL     1      -7.919 -18.591  30.734  1.00  0.00     0.000 C 
BRANCH   9  10
ATOM     10  C   UNL     1      -9.394 -19.002  30.869  1.00  0.00     0.006 C 
BRANCH  10  11
ATOM     11  C   UNL     1     -10.244 -18.555  29.672  1.00  0.00     0.053 C 
BRANCH  11  12
ATOM     12  C   UNL     1      -9.973 -19.427  28.487  1.00  0.00     0.041 C 
ATOM     13  O   UNL     1      -9.554 -18.922  27.412  1.00  0.00    -0.550 OA
ATOM     14  O   UNL     1     -10.137 -20.803  28.583  1.00  0.00    -0.550 OA
ENDBRANCH  11  12
ENDBRANCH  10  11
ENDBRANCH   9  10
ENDBRANCH   8   9
ENDBRANCH   1   8
TORSDOF 9
ENDMDL
MODEL 4
REMARK VINA RESULT:    -4.447      1.098      5.948
REMARK INTER + INTRA:          -7.373
REMARK INTER:                  -6.841
REMARK INTRA:                  -0.532
REMARK UNBOUND:                -0.586
REMARK SMILES O=C([O-])CCCCCCCCC(=O)[O-]
REMARK SMILES IDX 7 1 6 2 5 3 4 4 2 5 1 6 3 7 8 8 9 9 10 10 11 11 12 12 13 13
REMARK SMILES IDX 14 14
REMARK H PARENT
REMARK Flexibility Score: inf
ROOT
ATOM      1  C   UNL     1      -1.999 -37.355  21.471  1.00  0.00     0.000 C 
ENDROOT
BRANCH   1   2
ATOM      2  C   UNL     1      -0.531 -37.612  21.084  1.00  0.00     0.000 C 
BRANCH   2   3
ATOM      3  C   UNL     1       0.438 -36.449  21.383  1.00  0.00     0.006 C 
BRANCH   3   4
ATOM      4  C   UNL     1       1.117 -35.849  20.142  1.00  0.00     0.053 C 
BRANCH   4   5
ATOM      5  C   UNL     1       2.086 -36.805  19.519  1.00  0.00     0.041 C 
ATOM      6  O   UNL     1       3.132 -37.140  20.135  1.00  0.00    -0.550 OA
ATOM      7  O   UNL     1       1.851 -37.301  18.242  1.00  0.00    -0.550 OA
ENDBRANCH   4   5
ENDBRANCH   3   4
ENDBRANCH   2   3
ENDBRANCH   1   2
BRANCH   1   8
ATOM      8  C   UNL     1      -2.429 -35.898  21.250  1.00  0.00     0.000 C 
BRANCH   8   9
ATOM      9  C   UNL     1      -2.853 -35.244  22.575  1.00  0.00     0.000 C 
BRANCH   9  10
ATOM     10  C   UNL     1      -1.980 -34.034  22.944  1.00  0.00     0.006 C 
BRANCH  10  11
ATOM     11  C   UNL     1      -2.758 -32.956  23.712  1.00  0.00     0.053 C 
BRANCH  11  12
ATOM     12  C   UNL     1      -1.824 -31.909  24.230  1.00  0.00     0.041 C 
ATOM     13  O   UNL     1      -2.249 -30.751  24.484  1.00  0.00    -0.550 OA
ATOM     14  O   UNL     1      -0.494 -32.225  24.477  1.00  0.00    -0.550 OA
ENDBRANCH  11  12
ENDBRANCH  10  11
ENDBRANCH   9  10
ENDBRANCH   8   9
ENDBRANCH   1   8
TORSDOF 9
ENDMDL
MODEL 5
REMARK VINA RESULT:    -4.442     19.100     20.342
REMARK INTER + INTRA:          -7.366
REMARK INTER:                  -6.530
REMARK INTRA:                  -0.836
REMARK UNBOUND:                -0.586
REMARK SMILES O=C([O-])CCCCCCCCC(=O)[O-]
REMARK SMILES IDX 7 1 6 2 5 3 4 4 2 5 1 6 3 7 8 8 9 9 10 10 11 11 12 12 13 13
REMARK SMILES IDX 14 14
REMARK H PARENT
REMARK Flexibility Score: inf
ROOT
ATOM      1  C   UNL     1      -9.230 -20.097  32.980  1.00  0.00     0.000 C 
ENDROOT
BRANCH   1   2
ATOM      2  C   UNL     1      -9.021 -18.645  33.445  1.00  0.00     0.000 C 
BRANCH   2   3
ATOM      3  C   UNL     1      -7.636 -18.047  33.119  1.00  0.00     0.006 C 
BRANCH   3   4
ATOM      4  C   UNL     1      -6.737 -18.950  32.259  1.00  0.00     0.053 C 
BRANCH   4   5
ATOM      5  C   UNL     1      -5.426 -19.228  32.925  1.00  0.00     0.041 C 
ATOM      6  O   UNL     1      -5.201 -20.356  33.439  1.00  0.00    -0.550 OA
ATOM      7  O   UNL     1      -4.461 -18.231  33.006  1.00  0.00    -0.550 OA
ENDBRANCH   4   5
ENDBRANCH   3   4
ENDBRANCH   2   3
ENDBRANCH   1   2
BRANCH   1   8
ATOM      8  C   UNL     1     -10.086 -20.202  31.709  1.00  0.00     0.000 C 
BRANCH   8   9
ATOM      9  C   UNL     1     -10.930 -18.933  31.511  1.00  0.00     0.000 C 
BRANCH   9  10
ATOM     10  C   UNL     1     -10.648 -18.238  30.169  1.00  0.00     0.006 C 
BRANCH  10  11
ATOM     11  C   UNL     1      -9.399 -18.790  29.469  1.00  0.00     0.053 C 
BRANCH  11  12
ATOM     12  C   UNL     1      -9.777 -19.483  28.198  1.00  0.00     0.041 C 
ATOM     13  O   UNL     1      -9.655 -18.892  27.093  1.00  0.00    -0.550 OA
ATOM     14  O   UNL     1     -10.221 -20.799  28.229  1.00  0.00    -0.550 OA
ENDBRANCH  11  12
ENDBRANCH  10  11
ENDBRANCH   9  10
ENDBRANCH   8   9
ENDBRANCH   1   8
TORSDOF 9
ENDMDL
MODEL 6
REMARK VINA RESULT:    -4.430     19.578     20.942
REMARK INTER + INTRA:          -7.347
REMARK INTER:                  -6.658
REMARK INTRA:                  -0.690
REMARK UNBOUND:                -0.586
REMARK SMILES O=C([O-])CCCCCCCCC(=O)[O-]
REMARK SMILES IDX 7 1 6 2 5 3 4 4 2 5 1 6 3 7 8 8 9 9 10 10 11 11 12 12 13 13
REMARK SMILES IDX 14 14
REMARK H PARENT
REMARK Flexibility Score: inf
ROOT
ATOM      1  C   UNL     1      -8.278 -18.783  30.078  1.00  0.00     0.000 C 
ENDROOT
BRANCH   1   2
ATOM      2  C   UNL     1      -8.213 -18.190  31.497  1.00  0.00     0.000 C 
BRANCH   2   3
ATOM      3  C   UNL     1      -7.265 -18.923  32.470  1.00  0.00     0.006 C 
BRANCH   3   4
ATOM      4  C   UNL     1      -6.099 -18.068  32.990  1.00  0.00     0.053 C 
BRANCH   4   5
ATOM      5  C   UNL     1      -4.902 -18.903  33.327  1.00  0.00     0.041 C 
ATOM      6  O   UNL     1      -4.913 -20.144  33.114  1.00  0.00    -0.550 OA
ATOM      7  O   UNL     1      -3.785 -18.314  33.907  1.00  0.00    -0.550 OA
ENDBRANCH   4   5
ENDBRANCH   3   4
ENDBRANCH   2   3
ENDBRANCH   1   2
BRANCH   1   8
ATOM      8  C   UNL     1      -9.697 -18.782  29.493  1.00  0.00     0.000 C 
BRANCH   8   9
ATOM      9  C   UNL     1     -10.749 -18.653  30.606  1.00  0.00     0.000 C 
BRANCH   9  10
ATOM     10  C   UNL     1     -11.399 -19.998  30.966  1.00  0.00     0.006 C 
BRANCH  10  11
ATOM     11  C   UNL     1     -12.000 -20.006  32.378  1.00  0.00     0.053 C 
BRANCH  11  12
ATOM     12  C   UNL     1     -10.915 -19.932  33.405  1.00  0.00     0.041 C 
ATOM     13  O   UNL     1     -10.851 -18.949  34.190  1.00  0.00    -0.550 OA
ATOM     14  O   UNL     1     -10.002 -20.972  33.529  1.00  0.00    -0.550 OA
ENDBRANCH  11  12
ENDBRANCH  10  11
ENDBRANCH   9  10
ENDBRANCH   8   9
ENDBRANCH   1   8
TORSDOF 9
ENDMDL
MODEL 7
REMARK VINA RESULT:    -4.412     19.065     20.272
REMARK INTER + INTRA:          -7.319
REMARK INTER:                  -6.426
REMARK INTRA:                  -0.893
REMARK UNBOUND:                -0.586
REMARK SMILES O=C([O-])CCCCCCCCC(=O)[O-]
REMARK SMILES IDX 7 1 6 2 5 3 4 4 2 5 1 6 3 7 8 8 9 9 10 10 11 11 12 12 13 13
REMARK SMILES IDX 14 14
REMARK H PARENT
REMARK Flexibility Score: inf
ROOT
ATOM      1  C   UNL     1     -10.102 -20.051  32.174  1.00  0.00     0.000 C 
ENDROOT
BRANCH   1   2
ATOM      2  C   UNL     1     -10.793 -18.716  31.841  1.00  0.00     0.000 C 
BRANCH   2   3
ATOM      3  C   UNL     1     -10.789 -18.333  30.346  1.00  0.00     0.006 C 
BRANCH   3   4
ATOM      4  C   UNL     1      -9.502 -18.708  29.594  1.00  0.00     0.053 C 
BRANCH   4   5
ATOM      5  C   UNL     1      -9.777 -19.610  28.432  1.00  0.00     0.041 C 
ATOM      6  O   UNL     1      -9.642 -19.187  27.253  1.00  0.00    -0.550 OA
ATOM      7  O   UNL     1     -10.214 -20.911  28.649  1.00  0.00    -0.550 OA
ENDBRANCH   4   5
ENDBRANCH   3   4
ENDBRANCH   2   3
ENDBRANCH   1   2
BRANCH   1   8
ATOM      8  C   UNL     1      -8.885 -19.882  33.095  1.00  0.00     0.000 C 
BRANCH   8   9
ATOM      9  C   UNL     1      -8.628 -18.397  33.397  1.00  0.00     0.000 C 
BRANCH   9  10
ATOM     10  C   UNL     1      -7.337 -17.876  32.749  1.00  0.00     0.006 C 
BRANCH  10  11
ATOM     11  C   UNL     1      -6.472 -19.001  32.165  1.00  0.00     0.053 C 
BRANCH  11  12
ATOM     12  C   UNL     1      -5.195 -19.130  32.933  1.00  0.00     0.041 C 
ATOM     13  O   UNL     1      -4.515 -18.106  33.208  1.00  0.00    -0.550 OA
ATOM     14  O   UNL     1      -4.780 -20.375  33.389  1.00  0.00    -0.550 OA
ENDBRANCH  11  12
ENDBRANCH  10  11
ENDBRANCH   9  10
ENDBRANCH   8   9
ENDBRANCH   1   8
TORSDOF 9
ENDMDL
MODEL 8
REMARK VINA RESULT:    -4.385      2.871      4.352
REMARK INTER + INTRA:          -7.278
REMARK INTER:                  -6.465
REMARK INTRA:                  -0.814
REMARK UNBOUND:                -0.586
REMARK SMILES O=C([O-])CCCCCCCCC(=O)[O-]
REMARK SMILES IDX 7 1 6 2 5 3 4 4 2 5 1 6 3 7 8 8 9 9 10 10 11 11 12 12 13 13
REMARK SMILES IDX 14 14
REMARK H PARENT
REMARK Flexibility Score: inf
ROOT
ATOM      1  C   UNL     1       1.539 -37.215  19.213  1.00  0.00     0.000 C 
ENDROOT
BRANCH   1   2
ATOM      2  C   UNL     1       1.473 -35.863  19.945  1.00  0.00     0.000 C 
BRANCH   2   3
ATOM      3  C   UNL     1       0.808 -35.905  21.337  1.00  0.00     0.006 C 
BRANCH   3   4
ATOM      4  C   UNL     1      -0.495 -36.719  21.397  1.00  0.00     0.053 C 
BRANCH   4   5
ATOM      5  C   UNL     1      -1.704 -35.837  21.407  1.00  0.00     0.041 C 
ATOM      6  O   UNL     1      -1.733 -34.805  22.128  1.00  0.00    -0.550 OA
ATOM      7  O   UNL     1      -2.815 -36.172  20.641  1.00  0.00    -0.550 OA
ENDBRANCH   4   5
ENDBRANCH   3   4
ENDBRANCH   2   3
ENDBRANCH   1   2
BRANCH   1   8
ATOM      8  C   UNL     1       2.452 -37.184  17.978  1.00  0.00     0.000 C 
BRANCH   8   9
ATOM      9  C   UNL     1       3.817 -36.567  18.321  1.00  0.00     0.000 C 
BRANCH   9  10
ATOM     10  C   UNL     1       4.800 -37.593  18.907  1.00  0.00     0.006 C 
BRANCH  10  11
ATOM     11  C   UNL     1       5.568 -37.049  20.120  1.00  0.00     0.053 C 
BRANCH  11  12
ATOM     12  C   UNL     1       4.671 -36.977  21.314  1.00  0.00     0.041 C 
ATOM     13  O   UNL     1       4.551 -35.898  21.953  1.00  0.00    -0.550 OA
ATOM     14  O   UNL     1       3.930 -38.089  21.695  1.00  0.00    -0.550 OA
ENDBRANCH  11  12
ENDBRANCH  10  11
ENDBRANCH   9  10
ENDBRANCH   8   9
ENDBRANCH   1   8
TORSDOF 9
ENDMDL
MODEL 9
REMARK VINA RESULT:    -4.374      2.474      3.529
REMARK INTER + INTRA:          -7.262
REMARK INTER:                  -6.696
REMARK INTRA:                  -0.566
REMARK UNBOUND:                -0.586
REMARK SMILES O=C([O-])CCCCCCCCC(=O)[O-]
REMARK SMILES IDX 7 1 6 2 5 3 4 4 2 5 1 6 3 7 8 8 9 9 10 10 11 11 12 12 13 13
REMARK SMILES IDX 14 14
REMARK H PARENT
REMARK Flexibility Score: inf
ROOT
ATOM      1  C   UNL     1       1.179 -37.350  20.764  1.00  0.00     0.000 C 
ENDROOT
BRANCH   1   2
ATOM      2  C   UNL     1      -0.108 -37.708  21.529  1.00  0.00     0.000 C 
BRANCH   2   3
ATOM      3  C   UNL     1      -1.345 -36.864  21.160  1.00  0.00     0.006 C 
BRANCH   3   4
ATOM      4  C   UNL     1      -1.232 -35.374  21.517  1.00  0.00     0.053 C 
BRANCH   4   5
ATOM      5  C   UNL     1      -2.329 -34.935  22.436  1.00  0.00     0.041 C 
ATOM      6  O   UNL     1      -3.390 -35.608  22.526  1.00  0.00    -0.550 OA
ATOM      7  O   UNL     1      -2.195 -33.762  23.169  1.00  0.00    -0.550 OA
ENDBRANCH   4   5
ENDBRANCH   3   4
ENDBRANCH   2   3
ENDBRANCH   1   2
BRANCH   1   8
ATOM      8  C   UNL     1       1.298 -38.080  19.419  1.00  0.00     0.000 C 
BRANCH   8   9
ATOM      9  C   UNL     1       1.904 -37.161  18.347  1.00  0.00     0.000 C 
BRANCH   9  10
ATOM     10  C   UNL     1       2.883 -36.131  18.934  1.00  0.00     0.006 C 
BRANCH  10  11
ATOM     11  C   UNL     1       4.351 -36.524  18.723  1.00  0.00     0.053 C 
BRANCH  11  12
ATOM     12  C   UNL     1       4.971 -36.937  20.020  1.00  0.00     0.041 C 
ATOM     13  O   UNL     1       5.918 -37.767  20.035  1.00  0.00    -0.550 OA
ATOM     14  O   UNL     1       4.536 -36.368  21.211  1.00  0.00    -0.550 OA
ENDBRANCH  11  12
ENDBRANCH  10  11
ENDBRANCH   9  10
ENDBRANCH   8   9
ENDBRANCH   1   8
TORSDOF 9
ENDMDL
