MODEL 1
REMARK VINA RESULT:    -4.138      0.000      0.000
REMARK INTER + INTRA:          -6.321
REMARK INTER:                  -5.831
REMARK INTRA:                  -0.490
REMARK UNBOUND:                -0.490
REMARK SMILES CCCCCCCCC(=O)[O-]
REMARK SMILES IDX 6 1 7 2 8 3 9 4 10 5 11 6 5 7 4 8 3 9 2 10 1 11
REMARK H PARENT
REMARK Flexibility Score: inf
ROOT
ATOM      1  C   UNL     1      11.232  14.601  22.317  1.00  0.00     0.000 C 
ENDROOT
BRANCH   1   2
ATOM      2  C   UNL     1      10.212  13.621  21.708  1.00  0.00     0.006 C 
BRANCH   2   3
ATOM      3  C   UNL     1      10.270  13.514  20.177  1.00  0.00     0.053 C 
BRANCH   3   4
ATOM      4  C   UNL     1      10.158  14.853  19.514  1.00  0.00     0.041 C 
ATOM      5  O   UNL     1      11.044  15.234  18.704  1.00  0.00    -0.550 OA
ATOM      6  O   UNL     1       9.059  15.664  19.763  1.00  0.00    -0.550 OA
ENDBRANCH   3   4
ENDBRANCH   2   3
ENDBRANCH   1   2
BRANCH   1   7
ATOM      7  C   UNL     1      10.708  15.301  23.579  1.00  0.00     0.000 C 
BRANCH   7   8
ATOM      8  C   UNL     1      10.074  16.656  23.233  1.00  0.00    -0.000 C 
BRANCH   8   9
ATOM      9  C   UNL     1      10.953  17.509  22.299  1.00  0.00    -0.000 C 
BRANCH   9  10
ATOM     10  C   UNL     1      11.256  18.928  22.812  1.00  0.00    -0.003 C 
ATOM     11  C   UNL     1      10.050  19.863  22.736  1.00  0.00     0.004 C 
ENDBRANCH   9  10
ENDBRANCH   8   9
ENDBRANCH   7   8
ENDBRANCH   1   7
TORSDOF 7
ENDMDL
MODEL 2
REMARK VINA RESULT:    -4.026      2.499      4.744
REMARK INTER + INTRA:          -6.163
REMARK INTER:                  -5.886
REMARK INTRA:                  -0.277
REMARK UNBOUND:                -0.490
REMARK SMILES CCCCCCCCC(=O)[O-]
REMARK SMILES IDX 6 1 7 2 8 3 9 4 10 5 11 6 5 7 4 8 3 9 2 10 1 11
REMARK H PARENT
REMARK Flexibility Score: inf
ROOT
ATOM      1  C   UNL     1       9.617  14.957  22.708  1.00  0.00     0.000 C 
ENDROOT
BRANCH   1   2
ATOM      2  C   UNL     1       9.954  15.763  21.440  1.00  0.00     0.006 C 
BRANCH   2   3
ATOM      3  C   UNL     1       9.474  15.117  20.131  1.00  0.00     0.053 C 
BRANCH   3   4
ATOM      4  C   UNL     1      10.616  14.732  19.241  1.00  0.00     0.041 C 
ATOM      5  O   UNL     1      11.318  15.621  18.692  1.00  0.00    -0.550 OA
ATOM      6  O   UNL     1      10.926  13.392  19.047  1.00  0.00    -0.550 OA
ENDBRANCH   3   4
ENDBRANCH   2   3
ENDBRANCH   1   2
BRANCH   1   7
ATOM      7  C   UNL     1      10.732  13.979  23.107  1.00  0.00     0.000 C 
BRANCH   7   8
ATOM      8  C   UNL     1      10.172  12.566  23.320  1.00  0.00    -0.000 C 
BRANCH   8   9
ATOM      9  C   UNL     1       9.474  12.396  24.682  1.00  0.00    -0.000 C 
BRANCH   9  10
ATOM     10  C   UNL     1       9.697  11.032  25.359  1.00  0.00    -0.003 C 
ATOM     11  C   UNL     1       9.583   9.856  24.390  1.00  0.00     0.004 C 
ENDBRANCH   9  10
ENDBRANCH   8   9
ENDBRANCH   7   8
ENDBRANCH   1   7
TORSDOF 7
ENDMDL
MODEL 3
REMARK VINA RESULT:    -4.019      1.397      2.079
REMARK INTER + INTRA:          -6.154
REMARK INTER:                  -5.763
REMARK INTRA:                  -0.391
REMARK UNBOUND:                -0.490
REMARK SMILES CCCCCCCCC(=O)[O-]
REMARK SMILES IDX 6 1 7 2 8 3 9 4 10 5 11 6 5 7 4 8 3 9 2 10 1 11
REMARK H PARENT
REMARK Flexibility Score: inf
ROOT
ATOM      1  C   UNL     1      10.338  16.107  22.817  1.00  0.00     0.000 C 
ENDROOT
BRANCH   1   2
ATOM      2  C   UNL     1      10.495  16.302  21.298  1.00  0.00     0.006 C 
BRANCH   2   3
ATOM      3  C   UNL     1       9.853  15.196  20.446  1.00  0.00     0.053 C 
BRANCH   3   4
ATOM      4  C   UNL     1      10.717  14.806  19.286  1.00  0.00     0.041 C 
ATOM      5  O   UNL     1      11.343  15.687  18.638  1.00  0.00    -0.550 OA
ATOM      6  O   UNL     1      10.858  13.468  18.942  1.00  0.00    -0.550 OA
ENDBRANCH   3   4
ENDBRANCH   2   3
ENDBRANCH   1   2
BRANCH   1   7
ATOM      7  C   UNL     1      10.632  17.385  23.617  1.00  0.00     0.000 C 
BRANCH   7   8
ATOM      8  C   UNL     1      11.092  18.519  22.690  1.00  0.00    -0.000 C 
BRANCH   8   9
ATOM      9  C   UNL     1      10.807  19.918  23.266  1.00  0.00    -0.000 C 
BRANCH   9  10
ATOM     10  C   UNL     1       9.589  20.635  22.656  1.00  0.00    -0.003 C 
ATOM     11  C   UNL     1       8.723  19.717  21.794  1.00  0.00     0.004 C 
ENDBRANCH   9  10
ENDBRANCH   8   9
ENDBRANCH   7   8
ENDBRANCH   1   7
TORSDOF 7
ENDMDL
MODEL 4
REMARK VINA RESULT:    -3.960      3.225      5.639
REMARK INTER + INTRA:          -6.070
REMARK INTER:                  -5.853
REMARK INTRA:                  -0.218
REMARK UNBOUND:                -0.490
REMARK SMILES CCCCCCCCC(=O)[O-]
REMARK SMILES IDX 6 1 7 2 8 3 9 4 10 5 11 6 5 7 4 8 3 9 2 10 1 11
REMARK H PARENT
REMARK Flexibility Score: inf
ROOT
ATOM      1  C   UNL     1      10.656  12.925  23.014  1.00  0.00     0.000 C 
ENDROOT
BRANCH   1   2
ATOM      2  C   UNL     1      10.390  14.118  22.078  1.00  0.00     0.006 C 
BRANCH   2   3
ATOM      3  C   UNL     1      10.324  13.752  20.587  1.00  0.00     0.053 C 
BRANCH   3   4
ATOM      4  C   UNL     1      10.113  14.955  19.720  1.00  0.00     0.041 C 
ATOM      5  O   UNL     1       9.115  15.702  19.905  1.00  0.00    -0.550 OA
ATOM      6  O   UNL     1      11.036  15.272  18.732  1.00  0.00    -0.550 OA
ENDBRANCH   3   4
ENDBRANCH   2   3
ENDBRANCH   1   2
BRANCH   1   7
ATOM      7  C   UNL     1       9.759  12.935  24.261  1.00  0.00     0.000 C 
BRANCH   7   8
ATOM      8  C   UNL     1       9.733  11.553  24.930  1.00  0.00    -0.000 C 
BRANCH   8   9
ATOM      9  C   UNL     1       8.933  10.512  24.125  1.00  0.00    -0.000 C 
BRANCH   9  10
ATOM     10  C   UNL     1       9.369   9.052  24.339  1.00  0.00    -0.003 C 
ATOM     11  C   UNL     1       8.971   8.501  25.708  1.00  0.00     0.004 C 
ENDBRANCH   9  10
ENDBRANCH   8   9
ENDBRANCH   7   8
ENDBRANCH   1   7
TORSDOF 7
ENDMDL
MODEL 5
REMARK VINA RESULT:    -3.818      3.692      4.872
REMARK INTER + INTRA:          -5.870
REMARK INTER:                  -5.298
REMARK INTRA:                  -0.572
REMARK UNBOUND:                -0.490
REMARK SMILES CCCCCCCCC(=O)[O-]
REMARK SMILES IDX 6 1 7 2 8 3 9 4 10 5 11 6 5 7 4 8 3 9 2 10 1 11
REMARK H PARENT
REMARK Flexibility Score: inf
ROOT
ATOM      1  C   UNL     1       9.868  14.291  24.185  1.00  0.00     0.000 C 
ENDROOT
BRANCH   1   2
ATOM      2  C   UNL     1      10.289  12.957  23.541  1.00  0.00     0.006 C 
BRANCH   2   3
ATOM      3  C   UNL     1       9.218  11.857  23.600  1.00  0.00     0.053 C 
BRANCH   3   4
ATOM      4  C   UNL     1       9.657  10.686  24.423  1.00  0.00     0.041 C 
ATOM      5  O   UNL     1       9.773   9.548  23.895  1.00  0.00    -0.550 OA
ATOM      6  O   UNL     1       9.973  10.858  25.765  1.00  0.00    -0.550 OA
ENDBRANCH   3   4
ENDBRANCH   2   3
ENDBRANCH   1   2
BRANCH   1   7
ATOM      7  C   UNL     1      10.683  15.486  23.669  1.00  0.00     0.000 C 
BRANCH   7   8
ATOM      8  C   UNL     1       9.958  16.188  22.513  1.00  0.00    -0.000 C 
BRANCH   8   9
ATOM      9  C   UNL     1      10.622  15.937  21.146  1.00  0.00    -0.000 C 
BRANCH   9  10
ATOM     10  C   UNL     1       9.747  15.185  20.128  1.00  0.00    -0.003 C 
ATOM     11  C   UNL     1      10.222  13.756  19.868  1.00  0.00     0.004 C 
ENDBRANCH   9  10
ENDBRANCH   8   9
ENDBRANCH   7   8
ENDBRANCH   1   7
TORSDOF 7
ENDMDL
MODEL 6
REMARK VINA RESULT:    -3.816      1.750      3.830
REMARK INTER + INTRA:          -5.868
REMARK INTER:                  -5.159
REMARK INTRA:                  -0.709
REMARK UNBOUND:                -0.490
REMARK SMILES CCCCCCCCC(=O)[O-]
REMARK SMILES IDX 6 1 7 2 8 3 9 4 10 5 11 6 5 7 4 8 3 9 2 10 1 11
REMARK H PARENT
REMARK Flexibility Score: inf
ROOT
ATOM      1  C   UNL     1      10.575  15.857  22.674  1.00  0.00     0.000 C 
ENDROOT
BRANCH   1   2
ATOM      2  C   UNL     1      11.217  14.715  21.865  1.00  0.00     0.006 C 
BRANCH   2   3
ATOM      3  C   UNL     1      10.294  14.087  20.810  1.00  0.00     0.053 C 
BRANCH   3   4
ATOM      4  C   UNL     1      10.055  15.005  19.651  1.00  0.00     0.041 C 
ATOM      5  O   UNL     1       8.978  15.652  19.567  1.00  0.00    -0.550 OA
ATOM      6  O   UNL     1      11.036  15.173  18.682  1.00  0.00    -0.550 OA
ENDBRANCH   3   4
ENDBRANCH   2   3
ENDBRANCH   1   2
BRANCH   1   7
ATOM      7  C   UNL     1       9.222  15.465  23.288  1.00  0.00     0.000 C 
BRANCH   7   8
ATOM      8  C   UNL     1       9.352  15.234  24.800  1.00  0.00    -0.000 C 
BRANCH   8   9
ATOM      9  C   UNL     1       8.952  13.809  25.225  1.00  0.00    -0.000 C 
BRANCH   9  10
ATOM     10  C   UNL     1       9.727  12.680  24.523  1.00  0.00    -0.003 C 
ATOM     11  C   UNL     1       8.833  11.774  23.678  1.00  0.00     0.004 C 
ENDBRANCH   9  10
ENDBRANCH   8   9
ENDBRANCH   7   8
ENDBRANCH   1   7
TORSDOF 7
ENDMDL
MODEL 7
REMARK VINA RESULT:    -3.719      1.689      2.176
REMARK INTER + INTRA:          -5.731
REMARK INTER:                  -5.250
REMARK INTRA:                  -0.481
REMARK UNBOUND:                -0.490
REMARK SMILES CCCCCCCCC(=O)[O-]
REMARK SMILES IDX 6 1 7 2 8 3 9 4 10 5 11 6 5 7 4 8 3 9 2 10 1 11
REMARK H PARENT
REMARK Flexibility Score: inf
ROOT
ATOM      1  C   UNL     1      11.166  14.391  22.517  1.00  0.00     0.000 C 
ENDROOT
BRANCH   1   2
ATOM      2  C   UNL     1      10.576  15.551  21.694  1.00  0.00     0.006 C 
BRANCH   2   3
ATOM      3  C   UNL     1       9.771  15.110  20.462  1.00  0.00     0.053 C 
BRANCH   3   4
ATOM      4  C   UNL     1      10.656  14.736  19.314  1.00  0.00     0.041 C 
ATOM      5  O   UNL     1      11.237  15.631  18.644  1.00  0.00    -0.550 OA
ATOM      6  O   UNL     1      10.868  13.399  19.004  1.00  0.00    -0.550 OA
ENDBRANCH   3   4
ENDBRANCH   2   3
ENDBRANCH   1   2
BRANCH   1   7
ATOM      7  C   UNL     1      10.299  14.018  23.728  1.00  0.00     0.000 C 
BRANCH   7   8
ATOM      8  C   UNL     1       9.559  15.248  24.273  1.00  0.00    -0.000 C 
BRANCH   8   9
ATOM      9  C   UNL     1      10.335  15.970  25.390  1.00  0.00    -0.000 C 
BRANCH   9  10
ATOM     10  C   UNL     1       9.836  17.390  25.712  1.00  0.00    -0.003 C 
ATOM     11  C   UNL     1       9.833  18.315  24.495  1.00  0.00     0.004 C 
ENDBRANCH   9  10
ENDBRANCH   8   9
ENDBRANCH   7   8
ENDBRANCH   1   7
TORSDOF 7
ENDMDL
MODEL 8
REMARK VINA RESULT:    -3.647     11.058     12.394
REMARK INTER + INTRA:          -5.630
REMARK INTER:                  -5.271
REMARK INTRA:                  -0.359
REMARK UNBOUND:                -0.490
REMARK SMILES CCCCCCCCC(=O)[O-]
REMARK SMILES IDX 6 1 7 2 8 3 9 4 10 5 11 6 5 7 4 8 3 9 2 10 1 11
REMARK H PARENT
REMARK Flexibility Score: inf
ROOT
ATOM      1  C   UNL     1      21.742  18.138  25.959  1.00  0.00     0.000 C 
ENDROOT
BRANCH   1   2
ATOM      2  C   UNL     1      22.049  19.575  25.501  1.00  0.00     0.006 C 
BRANCH   2   3
ATOM      3  C   UNL     1      23.455  19.767  24.910  1.00  0.00     0.053 C 
BRANCH   3   4
ATOM      4  C   UNL     1      23.420  19.956  23.425  1.00  0.00     0.041 C 
ATOM      5  O   UNL     1      23.240  21.103  22.936  1.00  0.00    -0.550 OA
ATOM      6  O   UNL     1      23.622  18.872  22.580  1.00  0.00    -0.550 OA
ENDBRANCH   3   4
ENDBRANCH   2   3
ENDBRANCH   1   2
BRANCH   1   7
ATOM      7  C   UNL     1      20.634  18.073  27.021  1.00  0.00     0.000 C 
BRANCH   7   8
ATOM      8  C   UNL     1      19.902  19.418  27.133  1.00  0.00    -0.000 C 
BRANCH   8   9
ATOM      9  C   UNL     1      18.374  19.263  27.239  1.00  0.00    -0.000 C 
BRANCH   9  10
ATOM     10  C   UNL     1      17.879  17.814  27.396  1.00  0.00    -0.003 C 
ATOM     11  C   UNL     1      17.242  17.541  28.758  1.00  0.00     0.004 C 
ENDBRANCH   9  10
ENDBRANCH   8   9
ENDBRANCH   7   8
ENDBRANCH   1   7
TORSDOF 7
ENDMDL
MODEL 9
REMARK VINA RESULT:    -3.559      2.285      3.933
REMARK INTER + INTRA:          -5.505
REMARK INTER:                  -4.961
REMARK INTRA:                  -0.543
REMARK UNBOUND:                -0.490
REMARK SMILES CCCCCCCCC(=O)[O-]
REMARK SMILES IDX 6 1 7 2 8 3 9 4 10 5 11 6 5 7 4 8 3 9 2 10 1 11
REMARK H PARENT
REMARK Flexibility Score: inf
ROOT
ATOM      1  C   UNL     1      10.871  13.666  22.939  1.00  0.00     0.000 C 
ENDROOT
BRANCH   1   2
ATOM      2  C   UNL     1      10.416  15.002  22.323  1.00  0.00     0.006 C 
BRANCH   2   3
ATOM      3  C   UNL     1      11.154  15.390  21.033  1.00  0.00     0.053 C 
BRANCH   3   4
ATOM      4  C   UNL     1      10.360  15.059  19.807  1.00  0.00     0.041 C 
ATOM      5  O   UNL     1      10.873  14.368  18.888  1.00  0.00    -0.550 OA
ATOM      6  O   UNL     1       9.042  15.482  19.697  1.00  0.00    -0.550 OA
ENDBRANCH   3   4
ENDBRANCH   2   3
ENDBRANCH   1   2
BRANCH   1   7
ATOM      7  C   UNL     1      10.050  12.468  22.438  1.00  0.00     0.000 C 
BRANCH   7   8
ATOM      8  C   UNL     1       9.088  11.968  23.525  1.00  0.00    -0.000 C 
BRANCH   8   9
ATOM      9  C   UNL     1       9.553  12.326  24.949  1.00  0.00    -0.000 C 
BRANCH   9  10
ATOM     10  C   UNL     1       8.486  13.001  25.828  1.00  0.00    -0.003 C 
ATOM     11  C   UNL     1       8.255  14.469  25.471  1.00  0.00     0.004 C 
ENDBRANCH   9  10
ENDBRANCH   8   9
ENDBRANCH   7   8
ENDBRANCH   1   7
TORSDOF 7
ENDMDL
