MODEL 1
REMARK VINA RESULT:    -4.088      0.000      0.000
REMARK INTER + INTRA:         -10.392
REMARK INTER:                  -7.672
REMARK INTRA:                  -2.721
REMARK UNBOUND:                -2.721
REMARK SMILES CCCCCCCCC=CCCCCCCCC(=O)[O-]
REMARK SMILES IDX 10 1 9 2 11 3 12 4 13 5 14 6 15 7 16 8 17 9 18 10 19 11
REMARK SMILES IDX 20 12 8 13 7 14 6 15 5 16 4 17 3 18 2 19 1 20
REMARK H PARENT
REMARK Flexibility Score: inf
ROOT
ATOM      1  C   UNL     1       0.044  -6.560   3.670  1.00  0.00    -0.031 C 
ATOM      2  C   UNL     1       1.226  -6.807   4.267  1.00  0.00    -0.031 C 
ENDROOT
BRANCH   1   3
ATOM      3  C   UNL     1      -1.135  -7.504   3.651  1.00  0.00     0.027 C 
BRANCH   3   4
ATOM      4  C   UNL     1      -2.464  -6.740   3.595  1.00  0.00     0.004 C 
BRANCH   4   5
ATOM      5  C   UNL     1      -2.404  -5.544   2.630  1.00  0.00     0.000 C 
BRANCH   5   6
ATOM      6  C   UNL     1      -3.044  -4.277   3.217  1.00  0.00     0.000 C 
BRANCH   6   7
ATOM      7  C   UNL     1      -2.801  -4.134   4.727  1.00  0.00     0.000 C 
BRANCH   7   8
ATOM      8  C   UNL     1      -4.117  -4.255   5.509  1.00  0.00     0.006 C 
BRANCH   8   9
ATOM      9  C   UNL     1      -5.151  -3.209   5.072  1.00  0.00     0.053 C 
BRANCH   9  10
ATOM     10  C   UNL     1      -5.911  -2.658   6.240  1.00  0.00     0.041 C 
ATOM     11  O   UNL     1      -6.423  -3.436   7.086  1.00  0.00    -0.550 OA
ATOM     12  O   UNL     1      -6.020  -1.285   6.412  1.00  0.00    -0.550 OA
ENDBRANCH   9  10
ENDBRANCH   8   9
ENDBRANCH   7   8
ENDBRANCH   6   7
ENDBRANCH   5   6
ENDBRANCH   4   5
ENDBRANCH   3   4
ENDBRANCH   1   3
BRANCH   2  13
ATOM     13  C   UNL     1       1.586  -8.091   4.969  1.00  0.00     0.027 C 
BRANCH  13  14
ATOM     14  C   UNL     1       2.291  -7.810   6.304  1.00  0.00     0.004 C 
BRANCH  14  15
ATOM     15  C   UNL     1       1.457  -8.288   7.513  1.00  0.00     0.000 C 
BRANCH  15  16
ATOM     16  C   UNL     1       0.027  -8.717   7.146  1.00  0.00     0.000 C 
BRANCH  16  17
ATOM     17  C   UNL     1      -1.046  -7.897   7.880  1.00  0.00    -0.000 C 
BRANCH  17  18
ATOM     18  C   UNL     1      -1.347  -6.552   7.192  1.00  0.00    -0.000 C 
BRANCH  18  19
ATOM     19  C   UNL     1      -0.688  -5.324   7.845  1.00  0.00    -0.003 C 
ATOM     20  C   UNL     1       0.204  -4.541   6.882  1.00  0.00     0.004 C 
ENDBRANCH  18  19
ENDBRANCH  17  18
ENDBRANCH  16  17
ENDBRANCH  15  16
ENDBRANCH  14  15
ENDBRANCH  13  14
ENDBRANCH   2  13
TORSDOF 15
ENDMDL
MODEL 2
REMARK VINA RESULT:    -3.955     11.412     13.906
REMARK INTER + INTRA:         -10.143
REMARK INTER:                  -7.260
REMARK INTRA:                  -2.883
REMARK UNBOUND:                -2.721
REMARK SMILES CCCCCCCCC=CCCCCCCCC(=O)[O-]
REMARK SMILES IDX 10 1 9 2 11 3 12 4 13 5 14 6 15 7 16 8 17 9 18 10 19 11
REMARK SMILES IDX 20 12 8 13 7 14 6 15 5 16 4 17 3 18 2 19 1 20
REMARK H PARENT
REMARK Flexibility Score: inf
ROOT
ATOM      1  C   UNL     1      -0.034   8.953   5.938  1.00  0.00    -0.031 C 
ATOM      2  C   UNL     1      -1.195   8.671   5.316  1.00  0.00    -0.031 C 
ENDROOT
BRANCH   1   3
ATOM      3  C   UNL     1       0.338   8.504   7.332  1.00  0.00     0.027 C 
BRANCH   3   4
ATOM      4  C   UNL     1       1.414   7.412   7.299  1.00  0.00     0.004 C 
BRANCH   4   5
ATOM      5  C   UNL     1       1.093   6.253   8.258  1.00  0.00     0.000 C 
BRANCH   5   6
ATOM      6  C   UNL     1       2.089   5.090   8.135  1.00  0.00     0.000 C 
BRANCH   6   7
ATOM      7  C   UNL     1       2.961   5.185   6.874  1.00  0.00     0.000 C 
BRANCH   7   8
ATOM      8  C   UNL     1       3.494   3.802   6.470  1.00  0.00     0.006 C 
BRANCH   8   9
ATOM      9  C   UNL     1       4.518   3.885   5.331  1.00  0.00     0.053 C 
BRANCH   9  10
ATOM     10  C   UNL     1       5.920   3.719   5.832  1.00  0.00     0.041 C 
ATOM     11  O   UNL     1       6.838   3.374   5.043  1.00  0.00    -0.550 OA
ATOM     12  O   UNL     1       6.218   3.981   7.162  1.00  0.00    -0.550 OA
ENDBRANCH   9  10
ENDBRANCH   8   9
ENDBRANCH   7   8
ENDBRANCH   6   7
ENDBRANCH   5   6
ENDBRANCH   4   5
ENDBRANCH   3   4
ENDBRANCH   1   3
BRANCH   2  13
ATOM     13  C   UNL     1      -2.339   7.905   5.931  1.00  0.00     0.027 C 
BRANCH  13  14
ATOM     14  C   UNL     1      -2.486   6.521   5.283  1.00  0.00     0.004 C 
BRANCH  14  15
ATOM     15  C   UNL     1      -1.530   5.482   5.910  1.00  0.00     0.000 C 
BRANCH  15  16
ATOM     16  C   UNL     1      -0.408   5.024   4.965  1.00  0.00     0.000 C 
BRANCH  16  17
ATOM     17  C   UNL     1      -0.693   5.368   3.494  1.00  0.00    -0.000 C 
BRANCH  17  18
ATOM     18  C   UNL     1       0.499   6.050   2.796  1.00  0.00    -0.000 C 
BRANCH  18  19
ATOM     19  C   UNL     1       1.640   6.488   3.732  1.00  0.00    -0.003 C 
ATOM     20  C   UNL     1       3.024   6.332   3.104  1.00  0.00     0.004 C 
ENDBRANCH  18  19
ENDBRANCH  17  18
ENDBRANCH  16  17
ENDBRANCH  15  16
ENDBRANCH  14  15
ENDBRANCH  13  14
ENDBRANCH   2  13
TORSDOF 15
ENDMDL
MODEL 3
REMARK VINA RESULT:    -3.951      4.695      5.794
REMARK INTER + INTRA:         -10.137
REMARK INTER:                  -8.591
REMARK INTRA:                  -1.546
REMARK UNBOUND:                -2.721
REMARK SMILES CCCCCCCCC=CCCCCCCCC(=O)[O-]
REMARK SMILES IDX 10 1 9 2 11 3 12 4 13 5 14 6 15 7 16 8 17 9 18 10 19 11
REMARK SMILES IDX 20 12 8 13 7 14 6 15 5 16 4 17 3 18 2 19 1 20
REMARK H PARENT
REMARK Flexibility Score: inf
ROOT
ATOM      1  C   UNL     1      -2.844  -5.708   2.755  1.00  0.00    -0.031 C 
ATOM      2  C   UNL     1      -1.907  -6.545   3.238  1.00  0.00    -0.031 C 
ENDROOT
BRANCH   1   3
ATOM      3  C   UNL     1      -2.577  -4.550   1.821  1.00  0.00     0.027 C 
BRANCH   3   4
ATOM      4  C   UNL     1      -1.911  -5.020   0.522  1.00  0.00     0.004 C 
BRANCH   4   5
ATOM      5  C   UNL     1      -2.851  -4.898  -0.689  1.00  0.00     0.000 C 
BRANCH   5   6
ATOM      6  C   UNL     1      -2.311  -5.620  -1.933  1.00  0.00     0.000 C 
BRANCH   6   7
ATOM      7  C   UNL     1      -3.330  -6.594  -2.543  1.00  0.00     0.000 C 
BRANCH   7   8
ATOM      8  C   UNL     1      -4.668  -6.529  -1.792  1.00  0.00     0.006 C 
BRANCH   8   9
ATOM      9  C   UNL     1      -5.866  -6.425  -2.746  1.00  0.00     0.053 C 
BRANCH   9  10
ATOM     10  C   UNL     1      -5.769  -5.218  -3.627  1.00  0.00     0.041 C 
ATOM     11  O   UNL     1      -5.692  -4.068  -3.120  1.00  0.00    -0.550 OA
ATOM     12  O   UNL     1      -5.728  -5.366  -5.007  1.00  0.00    -0.550 OA
ENDBRANCH   9  10
ENDBRANCH   8   9
ENDBRANCH   7   8
ENDBRANCH   6   7
ENDBRANCH   5   6
ENDBRANCH   4   5
ENDBRANCH   3   4
ENDBRANCH   1   3
BRANCH   2  13
ATOM     13  C   UNL     1      -0.428  -6.433   2.971  1.00  0.00     0.027 C 
BRANCH  13  14
ATOM     14  C   UNL     1       0.383  -7.187   4.036  1.00  0.00     0.004 C 
BRANCH  14  15
ATOM     15  C   UNL     1      -0.454  -8.278   4.738  1.00  0.00     0.000 C 
BRANCH  15  16
ATOM     16  C   UNL     1       0.024  -8.604   6.163  1.00  0.00     0.000 C 
BRANCH  16  17
ATOM     17  C   UNL     1      -0.194  -7.440   7.143  1.00  0.00    -0.000 C 
BRANCH  17  18
ATOM     18  C   UNL     1      -1.651  -6.940   7.166  1.00  0.00    -0.000 C 
BRANCH  18  19
ATOM     19  C   UNL     1      -1.836  -5.452   6.816  1.00  0.00    -0.003 C 
ATOM     20  C   UNL     1      -0.514  -4.725   6.575  1.00  0.00     0.004 C 
ENDBRANCH  18  19
ENDBRANCH  17  18
ENDBRANCH  16  17
ENDBRANCH  15  16
ENDBRANCH  14  15
ENDBRANCH  13  14
ENDBRANCH   2  13
TORSDOF 15
ENDMDL
MODEL 4
REMARK VINA RESULT:    -3.902      4.436      6.144
REMARK INTER + INTRA:         -10.044
REMARK INTER:                  -7.830
REMARK INTRA:                  -2.214
REMARK UNBOUND:                -2.721
REMARK SMILES CCCCCCCCC=CCCCCCCCC(=O)[O-]
REMARK SMILES IDX 10 1 9 2 11 3 12 4 13 5 14 6 15 7 16 8 17 9 18 10 19 11
REMARK SMILES IDX 20 12 8 13 7 14 6 15 5 16 4 17 3 18 2 19 1 20
REMARK H PARENT
REMARK Flexibility Score: inf
ROOT
ATOM      1  C   UNL     1      -3.003  -3.816   3.163  1.00  0.00    -0.031 C 
ATOM      2  C   UNL     1      -3.090  -5.000   3.799  1.00  0.00    -0.031 C 
ENDROOT
BRANCH   1   3
ATOM      3  C   UNL     1      -2.883  -3.640   1.667  1.00  0.00     0.027 C 
BRANCH   3   4
ATOM      4  C   UNL     1      -1.420  -3.477   1.238  1.00  0.00     0.004 C 
BRANCH   4   5
ATOM      5  C   UNL     1      -1.008  -4.512   0.178  1.00  0.00     0.000 C 
BRANCH   5   6
ATOM      6  C   UNL     1      -2.208  -5.275  -0.403  1.00  0.00     0.000 C 
BRANCH   6   7
ATOM      7  C   UNL     1      -2.111  -5.465  -1.924  1.00  0.00     0.000 C 
BRANCH   7   8
ATOM      8  C   UNL     1      -3.158  -6.475  -2.419  1.00  0.00     0.006 C 
BRANCH   8   9
ATOM      9  C   UNL     1      -4.557  -6.180  -1.862  1.00  0.00     0.053 C 
BRANCH   9  10
ATOM     10  C   UNL     1      -5.620  -6.380  -2.899  1.00  0.00     0.041 C 
ATOM     11  O   UNL     1      -5.609  -5.696  -3.956  1.00  0.00    -0.550 OA
ATOM     12  O   UNL     1      -6.599  -7.346  -2.713  1.00  0.00    -0.550 OA
ENDBRANCH   9  10
ENDBRANCH   8   9
ENDBRANCH   7   8
ENDBRANCH   6   7
ENDBRANCH   5   6
ENDBRANCH   4   5
ENDBRANCH   3   4
ENDBRANCH   1   3
BRANCH   2  13
ATOM     13  C   UNL     1      -3.027  -6.348   3.127  1.00  0.00     0.027 C 
BRANCH  13  14
ATOM     14  C   UNL     1      -1.829  -7.162   3.637  1.00  0.00     0.004 C 
BRANCH  14  15
ATOM     15  C   UNL     1      -0.513  -6.760   2.936  1.00  0.00     0.000 C 
BRANCH  15  16
ATOM     16  C   UNL     1       0.686  -6.641   3.892  1.00  0.00     0.000 C 
BRANCH  16  17
ATOM     17  C   UNL     1       0.717  -5.299   4.641  1.00  0.00    -0.000 C 
BRANCH  17  18
ATOM     18  C   UNL     1       0.291  -5.425   6.115  1.00  0.00    -0.000 C 
BRANCH  18  19
ATOM     19  C   UNL     1       0.449  -6.832   6.721  1.00  0.00    -0.003 C 
ATOM     20  C   UNL     1      -0.885  -7.477   7.095  1.00  0.00     0.004 C 
ENDBRANCH  18  19
ENDBRANCH  17  18
ENDBRANCH  16  17
ENDBRANCH  15  16
ENDBRANCH  14  15
ENDBRANCH  13  14
ENDBRANCH   2  13
TORSDOF 15
ENDMDL
MODEL 5
REMARK VINA RESULT:    -3.895     11.616     14.067
REMARK INTER + INTRA:         -10.031
REMARK INTER:                  -8.223
REMARK INTRA:                  -1.808
REMARK UNBOUND:                -2.721
REMARK SMILES CCCCCCCCC=CCCCCCCCC(=O)[O-]
REMARK SMILES IDX 10 1 9 2 11 3 12 4 13 5 14 6 15 7 16 8 17 9 18 10 19 11
REMARK SMILES IDX 20 12 8 13 7 14 6 15 5 16 4 17 3 18 2 19 1 20
REMARK H PARENT
REMARK Flexibility Score: inf
ROOT
ATOM      1  C   UNL     1       0.577   7.783   5.039  1.00  0.00    -0.031 C 
ATOM      2  C   UNL     1       1.455   7.739   4.019  1.00  0.00    -0.031 C 
ENDROOT
BRANCH   1   3
ATOM      3  C   UNL     1       0.460   6.747   6.132  1.00  0.00     0.027 C 
BRANCH   3   4
ATOM      4  C   UNL     1       1.289   7.135   7.362  1.00  0.00     0.004 C 
BRANCH   4   5
ATOM      5  C   UNL     1       2.405   6.117   7.654  1.00  0.00     0.000 C 
BRANCH   5   6
ATOM      6  C   UNL     1       1.932   4.663   7.509  1.00  0.00     0.000 C 
BRANCH   6   7
ATOM      7  C   UNL     1       2.800   3.851   6.536  1.00  0.00     0.000 C 
BRANCH   7   8
ATOM      8  C   UNL     1       4.126   4.572   6.251  1.00  0.00     0.006 C 
BRANCH   8   9
ATOM      9  C   UNL     1       4.919   3.904   5.120  1.00  0.00     0.053 C 
BRANCH   9  10
ATOM     10  C   UNL     1       6.257   3.421   5.590  1.00  0.00     0.041 C 
ATOM     11  O   UNL     1       6.482   3.279   6.820  1.00  0.00    -0.550 OA
ATOM     12  O   UNL     1       7.241   3.093   4.667  1.00  0.00    -0.550 OA
ENDBRANCH   9  10
ENDBRANCH   8   9
ENDBRANCH   7   8
ENDBRANCH   6   7
ENDBRANCH   5   6
ENDBRANCH   4   5
ENDBRANCH   3   4
ENDBRANCH   1   3
BRANCH   2  13
ATOM     13  C   UNL     1       2.432   6.619   3.770  1.00  0.00     0.027 C 
BRANCH  13  14
ATOM     14  C   UNL     1       1.802   5.523   2.897  1.00  0.00     0.004 C 
BRANCH  14  15
ATOM     15  C   UNL     1       2.689   5.165   1.684  1.00  0.00     0.000 C 
BRANCH  15  16
ATOM     16  C   UNL     1       1.954   5.245   0.336  1.00  0.00     0.000 C 
BRANCH  16  17
ATOM     17  C   UNL     1       2.655   4.441  -0.771  1.00  0.00    -0.000 C 
BRANCH  17  18
ATOM     18  C   UNL     1       4.149   4.790  -0.911  1.00  0.00    -0.000 C 
BRANCH  18  19
ATOM     19  C   UNL     1       4.442   6.202  -1.448  1.00  0.00    -0.003 C 
ATOM     20  C   UNL     1       3.545   6.595  -2.622  1.00  0.00     0.004 C 
ENDBRANCH  18  19
ENDBRANCH  17  18
ENDBRANCH  16  17
ENDBRANCH  15  16
ENDBRANCH  14  15
ENDBRANCH  13  14
ENDBRANCH   2  13
TORSDOF 15
ENDMDL
MODEL 6
REMARK VINA RESULT:    -3.838     12.140     13.971
REMARK INTER + INTRA:          -9.924
REMARK INTER:                  -7.639
REMARK INTRA:                  -2.284
REMARK UNBOUND:                -2.721
REMARK SMILES CCCCCCCCC=CCCCCCCCC(=O)[O-]
REMARK SMILES IDX 10 1 9 2 11 3 12 4 13 5 14 6 15 7 16 8 17 9 18 10 19 11
REMARK SMILES IDX 20 12 8 13 7 14 6 15 5 16 4 17 3 18 2 19 1 20
REMARK H PARENT
REMARK Flexibility Score: inf
ROOT
ATOM      1  C   UNL     1       3.021   5.537   3.190  1.00  0.00    -0.031 C 
ATOM      2  C   UNL     1       2.469   6.756   3.343  1.00  0.00    -0.031 C 
ENDROOT
BRANCH   1   3
ATOM      3  C   UNL     1       2.251   4.242   3.067  1.00  0.00     0.027 C 
BRANCH   3   4
ATOM      4  C   UNL     1       2.229   3.740   1.618  1.00  0.00     0.004 C 
BRANCH   4   5
ATOM      5  C   UNL     1       1.126   4.417   0.786  1.00  0.00     0.000 C 
BRANCH   5   6
ATOM      6  C   UNL     1       1.691   5.311  -0.328  1.00  0.00     0.000 C 
BRANCH   6   7
ATOM      7  C   UNL     1       2.948   4.721  -0.983  1.00  0.00     0.000 C 
BRANCH   7   8
ATOM      8  C   UNL     1       4.114   5.720  -0.931  1.00  0.00     0.006 C 
BRANCH   8   9
ATOM      9  C   UNL     1       4.121   6.667  -2.138  1.00  0.00     0.053 C 
BRANCH   9  10
ATOM     10  C   UNL     1       5.282   6.401  -3.046  1.00  0.00     0.041 C 
ATOM     11  O   UNL     1       5.172   5.574  -3.989  1.00  0.00    -0.550 OA
ATOM     12  O   UNL     1       6.473   7.093  -2.873  1.00  0.00    -0.550 OA
ENDBRANCH   9  10
ENDBRANCH   8   9
ENDBRANCH   7   8
ENDBRANCH   6   7
ENDBRANCH   5   6
ENDBRANCH   4   5
ENDBRANCH   3   4
ENDBRANCH   1   3
BRANCH   2  13
ATOM     13  C   UNL     1       0.991   7.024   3.472  1.00  0.00     0.027 C 
BRANCH  13  14
ATOM     14  C   UNL     1       0.709   8.019   4.608  1.00  0.00     0.004 C 
BRANCH  14  15
ATOM     15  C   UNL     1       1.141   7.467   5.984  1.00  0.00     0.000 C 
BRANCH  15  16
ATOM     16  C   UNL     1       0.450   6.148   6.367  1.00  0.00     0.000 C 
BRANCH  16  17
ATOM     17  C   UNL     1       1.449   5.015   6.651  1.00  0.00    -0.000 C 
BRANCH  17  18
ATOM     18  C   UNL     1       2.870   5.529   6.951  1.00  0.00    -0.000 C 
BRANCH  18  19
ATOM     19  C   UNL     1       3.897   4.439   7.306  1.00  0.00    -0.003 C 
ATOM     20  C   UNL     1       4.490   3.751   6.077  1.00  0.00     0.004 C 
ENDBRANCH  18  19
ENDBRANCH  17  18
ENDBRANCH  16  17
ENDBRANCH  15  16
ENDBRANCH  14  15
ENDBRANCH  13  14
ENDBRANCH   2  13
TORSDOF 15
ENDMDL
MODEL 7
REMARK VINA RESULT:    -3.827     13.156     15.041
REMARK INTER + INTRA:          -9.904
REMARK INTER:                  -8.517
REMARK INTRA:                  -1.388
REMARK UNBOUND:                -2.721
REMARK SMILES CCCCCCCCC=CCCCCCCCC(=O)[O-]
REMARK SMILES IDX 10 1 9 2 11 3 12 4 13 5 14 6 15 7 16 8 17 9 18 10 19 11
REMARK SMILES IDX 20 12 8 13 7 14 6 15 5 16 4 17 3 18 2 19 1 20
REMARK H PARENT
REMARK Flexibility Score: inf
ROOT
ATOM      1  C   UNL     1       2.511   5.310   2.294  1.00  0.00    -0.031 C 
ATOM      2  C   UNL     1       2.128   6.131   3.291  1.00  0.00    -0.031 C 
ENDROOT
BRANCH   1   3
ATOM      3  C   UNL     1       1.883   5.257   0.921  1.00  0.00     0.027 C 
BRANCH   3   4
ATOM      4  C   UNL     1       2.936   5.012  -0.167  1.00  0.00     0.004 C 
BRANCH   4   5
ATOM      5  C   UNL     1       2.398   5.322  -1.574  1.00  0.00     0.000 C 
BRANCH   5   6
ATOM      6  C   UNL     1       3.200   6.423  -2.285  1.00  0.00     0.000 C 
BRANCH   6   7
ATOM      7  C   UNL     1       4.532   6.733  -1.585  1.00  0.00     0.000 C 
BRANCH   7   8
ATOM      8  C   UNL     1       5.703   6.652  -2.576  1.00  0.00     0.006 C 
BRANCH   8   9
ATOM      9  C   UNL     1       6.533   5.374  -2.391  1.00  0.00     0.053 C 
BRANCH   9  10
ATOM     10  C   UNL     1       7.083   4.877  -3.692  1.00  0.00     0.041 C 
ATOM     11  O   UNL     1       7.546   5.689  -4.536  1.00  0.00    -0.550 OA
ATOM     12  O   UNL     1       7.118   3.515  -3.957  1.00  0.00    -0.550 OA
ENDBRANCH   9  10
ENDBRANCH   8   9
ENDBRANCH   7   8
ENDBRANCH   6   7
ENDBRANCH   5   6
ENDBRANCH   4   5
ENDBRANCH   3   4
ENDBRANCH   1   3
BRANCH   2  13
ATOM     13  C   UNL     1       0.971   7.095   3.218  1.00  0.00     0.027 C 
BRANCH  13  14
ATOM     14  C   UNL     1       1.163   8.261   4.199  1.00  0.00     0.004 C 
BRANCH  14  15
ATOM     15  C   UNL     1      -0.065   8.458   5.114  1.00  0.00     0.000 C 
BRANCH  15  16
ATOM     16  C   UNL     1       0.282   8.528   6.610  1.00  0.00     0.000 C 
BRANCH  16  17
ATOM     17  C   UNL     1       1.293   7.451   7.035  1.00  0.00    -0.000 C 
BRANCH  17  18
ATOM     18  C   UNL     1       0.651   6.062   7.213  1.00  0.00    -0.000 C 
BRANCH  18  19
ATOM     19  C   UNL     1       1.618   4.873   7.070  1.00  0.00    -0.003 C 
ATOM     20  C   UNL     1       3.047   5.299   6.736  1.00  0.00     0.004 C 
ENDBRANCH  18  19
ENDBRANCH  17  18
ENDBRANCH  16  17
ENDBRANCH  15  16
ENDBRANCH  14  15
ENDBRANCH  13  14
ENDBRANCH   2  13
TORSDOF 15
ENDMDL
MODEL 8
REMARK VINA RESULT:    -3.815      4.208      5.505
REMARK INTER + INTRA:          -9.882
REMARK INTER:                  -8.061
REMARK INTRA:                  -1.821
REMARK UNBOUND:                -2.721
REMARK SMILES CCCCCCCCC=CCCCCCCCC(=O)[O-]
REMARK SMILES IDX 10 1 9 2 11 3 12 4 13 5 14 6 15 7 16 8 17 9 18 10 19 11
REMARK SMILES IDX 20 12 8 13 7 14 6 15 5 16 4 17 3 18 2 19 1 20
REMARK H PARENT
REMARK Flexibility Score: inf
ROOT
ATOM      1  C   UNL     1      -1.398  -7.007   3.503  1.00  0.00    -0.031 C 
ATOM      2  C   UNL     1      -1.157  -7.501   4.732  1.00  0.00    -0.031 C 
ENDROOT
BRANCH   1   3
ATOM      3  C   UNL     1      -1.887  -5.608   3.208  1.00  0.00     0.027 C 
BRANCH   3   4
ATOM      4  C   UNL     1      -3.139  -5.628   2.323  1.00  0.00     0.004 C 
BRANCH   4   5
ATOM      5  C   UNL     1      -3.017  -4.671   1.125  1.00  0.00     0.000 C 
BRANCH   5   6
ATOM      6  C   UNL     1      -1.686  -4.828   0.375  1.00  0.00     0.000 C 
BRANCH   6   7
ATOM      7  C   UNL     1      -1.863  -5.417  -1.033  1.00  0.00     0.000 C 
BRANCH   7   8
ATOM      8  C   UNL     1      -3.279  -5.151  -1.565  1.00  0.00     0.006 C 
BRANCH   8   9
ATOM      9  C   UNL     1      -3.924  -6.411  -2.156  1.00  0.00     0.053 C 
BRANCH   9  10
ATOM     10  C   UNL     1      -5.114  -6.080  -3.004  1.00  0.00     0.041 C 
ATOM     11  O   UNL     1      -5.074  -5.103  -3.797  1.00  0.00    -0.550 OA
ATOM     12  O   UNL     1      -6.252  -6.872  -2.944  1.00  0.00    -0.550 OA
ENDBRANCH   9  10
ENDBRANCH   8   9
ENDBRANCH   7   8
ENDBRANCH   6   7
ENDBRANCH   5   6
ENDBRANCH   4   5
ENDBRANCH   3   4
ENDBRANCH   1   3
BRANCH   2  13
ATOM     13  C   UNL     1      -1.387  -6.756   6.022  1.00  0.00     0.027 C 
BRANCH  13  14
ATOM     14  C   UNL     1      -0.822  -7.537   7.218  1.00  0.00     0.004 C 
BRANCH  14  15
ATOM     15  C   UNL     1       0.016  -8.755   6.772  1.00  0.00     0.000 C 
BRANCH  15  16
ATOM     16  C   UNL     1       1.524  -8.595   7.024  1.00  0.00     0.000 C 
BRANCH  16  17
ATOM     17  C   UNL     1       2.316  -8.323   5.735  1.00  0.00    -0.000 C 
BRANCH  17  18
ATOM     18  C   UNL     1       3.100  -6.998   5.781  1.00  0.00    -0.000 C 
BRANCH  18  19
ATOM     19  C   UNL     1       2.241  -5.738   5.989  1.00  0.00    -0.003 C 
ATOM     20  C   UNL     1       1.708  -5.153   4.682  1.00  0.00     0.004 C 
ENDBRANCH  18  19
ENDBRANCH  17  18
ENDBRANCH  16  17
ENDBRANCH  15  16
ENDBRANCH  14  15
ENDBRANCH  13  14
ENDBRANCH   2  13
TORSDOF 15
ENDMDL
MODEL 9
REMARK VINA RESULT:    -3.797     12.251     14.044
REMARK INTER + INTRA:          -9.847
REMARK INTER:                  -7.667
REMARK INTRA:                  -2.180
REMARK UNBOUND:                -2.721
REMARK SMILES CCCCCCCCC=CCCCCCCCC(=O)[O-]
REMARK SMILES IDX 10 1 9 2 11 3 12 4 13 5 14 6 15 7 16 8 17 9 18 10 19 11
REMARK SMILES IDX 20 12 8 13 7 14 6 15 5 16 4 17 3 18 2 19 1 20
REMARK H PARENT
REMARK Flexibility Score: inf
ROOT
ATOM      1  C   UNL     1       3.019   5.348   2.270  1.00  0.00    -0.031 C 
ATOM      2  C   UNL     1       3.347   5.616   3.548  1.00  0.00    -0.031 C 
ENDROOT
BRANCH   1   3
ATOM      3  C   UNL     1       2.541   4.010   1.757  1.00  0.00     0.027 C 
BRANCH   3   4
ATOM      4  C   UNL     1       1.241   4.149   0.956  1.00  0.00     0.004 C 
BRANCH   4   5
ATOM      5  C   UNL     1       1.269   5.364   0.012  1.00  0.00     0.000 C 
BRANCH   5   6
ATOM      6  C   UNL     1       1.851   5.027  -1.369  1.00  0.00     0.000 C 
BRANCH   6   7
ATOM      7  C   UNL     1       2.821   6.102  -1.882  1.00  0.00     0.000 C 
BRANCH   7   8
ATOM      8  C   UNL     1       4.175   6.007  -1.164  1.00  0.00     0.006 C 
BRANCH   8   9
ATOM      9  C   UNL     1       5.199   5.188  -1.961  1.00  0.00     0.053 C 
BRANCH   9  10
ATOM     10  C   UNL     1       5.758   5.968  -3.112  1.00  0.00     0.041 C 
ATOM     11  O   UNL     1       5.487   5.634  -4.295  1.00  0.00    -0.550 OA
ATOM     12  O   UNL     1       6.548   7.085  -2.875  1.00  0.00    -0.550 OA
ENDBRANCH   9  10
ENDBRANCH   8   9
ENDBRANCH   7   8
ENDBRANCH   6   7
ENDBRANCH   5   6
ENDBRANCH   4   5
ENDBRANCH   3   4
ENDBRANCH   1   3
BRANCH   2  13
ATOM     13  C   UNL     1       3.344   4.609   4.669  1.00  0.00     0.027 C 
BRANCH  13  14
ATOM     14  C   UNL     1       2.166   4.851   5.624  1.00  0.00     0.004 C 
BRANCH  14  15
ATOM     15  C   UNL     1       0.814   4.463   4.988  1.00  0.00     0.000 C 
BRANCH  15  16
ATOM     16  C   UNL     1      -0.360   5.349   5.439  1.00  0.00     0.000 C 
BRANCH  16  17
ATOM     17  C   UNL     1      -0.992   6.134   4.279  1.00  0.00    -0.000 C 
BRANCH  17  18
ATOM     18  C   UNL     1       0.020   7.024   3.535  1.00  0.00    -0.000 C 
BRANCH  18  19
ATOM     19  C   UNL     1       0.726   8.078   4.407  1.00  0.00    -0.003 C 
ATOM     20  C   UNL     1      -0.240   8.879   5.279  1.00  0.00     0.004 C 
ENDBRANCH  18  19
ENDBRANCH  17  18
ENDBRANCH  16  17
ENDBRANCH  15  16
ENDBRANCH  14  15
ENDBRANCH  13  14
ENDBRANCH   2  13
TORSDOF 15
ENDMDL
