MODEL 1
REMARK VINA RESULT:    -4.260      0.000      0.000
REMARK INTER + INTRA:          -6.977
REMARK INTER:                  -6.252
REMARK INTRA:                  -0.726
REMARK UNBOUND:                -0.726
REMARK SMILES O=C([O-])CCCCCCCC(=O)[O-]
REMARK SMILES IDX 7 1 6 2 5 3 4 4 2 5 1 6 3 7 8 8 9 9 10 10 11 11 12 12 13 13
REMARK H PARENT
REMARK Flexibility Score: inf
ROOT
ATOM      1  C   UNL     1      18.410  -4.153  20.985  1.00  0.00     0.000 C 
ENDROOT
BRANCH   1   2
ATOM      2  C   UNL     1      18.438  -2.616  20.881  1.00  0.00     0.000 C 
BRANCH   2   3
ATOM      3  C   UNL     1      19.465  -1.919  21.797  1.00  0.00     0.006 C 
BRANCH   3   4
ATOM      4  C   UNL     1      20.702  -2.770  22.126  1.00  0.00     0.053 C 
BRANCH   4   5
ATOM      5  C   UNL     1      21.933  -2.255  21.445  1.00  0.00     0.041 C 
ATOM      6  O   UNL     1      21.839  -1.383  20.542  1.00  0.00    -0.550 OA
ATOM      7  O   UNL     1      23.180  -2.763  21.785  1.00  0.00    -0.550 OA
ENDBRANCH   4   5
ENDBRANCH   3   4
ENDBRANCH   2   3
ENDBRANCH   1   2
BRANCH   1   8
ATOM      8  C   UNL     1      18.780  -4.904  19.690  1.00  0.00     0.000 C 
BRANCH   8   9
ATOM      9  C   UNL     1      19.714  -4.136  18.738  1.00  0.00     0.006 C 
BRANCH   9  10
ATOM     10  C   UNL     1      21.155  -4.658  18.768  1.00  0.00     0.053 C 
BRANCH  10  11
ATOM     11  C   UNL     1      21.503  -5.308  17.466  1.00  0.00     0.041 C 
ATOM     12  O   UNL     1      22.503  -4.916  16.809  1.00  0.00    -0.550 OA
ATOM     13  O   UNL     1      20.750  -6.379  17.002  1.00  0.00    -0.550 OA
ENDBRANCH  10  11
ENDBRANCH   9  10
ENDBRANCH   8   9
ENDBRANCH   1   8
TORSDOF 8
ENDMDL
MODEL 2
REMARK VINA RESULT:    -4.253      2.396      4.217
REMARK INTER + INTRA:          -6.967
REMARK INTER:                  -6.093
REMARK INTRA:                  -0.874
REMARK UNBOUND:                -0.726
REMARK SMILES O=C([O-])CCCCCCCC(=O)[O-]
REMARK SMILES IDX 7 1 6 2 5 3 4 4 2 5 1 6 3 7 8 8 9 9 10 10 11 11 12 12 13 13
REMARK H PARENT
REMARK Flexibility Score: inf
ROOT
ATOM      1  C   UNL     1      17.635  -1.778  21.043  1.00  0.00     0.000 C 
ENDROOT
BRANCH   1   2
ATOM      2  C   UNL     1      17.548  -0.805  19.851  1.00  0.00     0.000 C 
BRANCH   2   3
ATOM      3  C   UNL     1      18.801  -0.759  18.954  1.00  0.00     0.006 C 
BRANCH   3   4
ATOM      4  C   UNL     1      18.544  -1.128  17.484  1.00  0.00     0.053 C 
BRANCH   4   5
ATOM      5  C   UNL     1      18.700  -2.597  17.240  1.00  0.00     0.041 C 
ATOM      6  O   UNL     1      19.848  -3.114  17.200  1.00  0.00    -0.550 OA
ATOM      7  O   UNL     1      17.581  -3.390  17.023  1.00  0.00    -0.550 OA
ENDBRANCH   4   5
ENDBRANCH   3   4
ENDBRANCH   2   3
ENDBRANCH   1   2
BRANCH   1   8
ATOM      8  C   UNL     1      17.473  -3.269  20.685  1.00  0.00     0.000 C 
BRANCH   8   9
ATOM      9  C   UNL     1      18.771  -4.093  20.736  1.00  0.00     0.006 C 
BRANCH   9  10
ATOM     10  C   UNL     1      19.892  -3.392  21.511  1.00  0.00     0.053 C 
BRANCH  10  11
ATOM     11  C   UNL     1      21.092  -3.202  20.638  1.00  0.00     0.041 C 
ATOM     12  O   UNL     1      21.486  -4.135  19.890  1.00  0.00    -0.550 OA
ATOM     13  O   UNL     1      21.746  -1.976  20.613  1.00  0.00    -0.550 OA
ENDBRANCH  10  11
ENDBRANCH   9  10
ENDBRANCH   8   9
ENDBRANCH   1   8
TORSDOF 8
ENDMDL
MODEL 3
REMARK VINA RESULT:    -4.218      2.286      3.377
REMARK INTER + INTRA:          -6.916
REMARK INTER:                  -6.227
REMARK INTRA:                  -0.689
REMARK UNBOUND:                -0.726
REMARK SMILES O=C([O-])CCCCCCCC(=O)[O-]
REMARK SMILES IDX 7 1 6 2 5 3 4 4 2 5 1 6 3 7 8 8 9 9 10 10 11 11 12 12 13 13
REMARK H PARENT
REMARK Flexibility Score: inf
ROOT
ATOM      1  C   UNL     1      19.616  -0.508  22.232  1.00  0.00     0.000 C 
ENDROOT
BRANCH   1   2
ATOM      2  C   UNL     1      20.039  -1.033  23.617  1.00  0.00     0.000 C 
BRANCH   2   3
ATOM      3  C   UNL     1      21.355  -1.837  23.635  1.00  0.00     0.006 C 
BRANCH   3   4
ATOM      4  C   UNL     1      21.314  -3.141  22.822  1.00  0.00     0.053 C 
BRANCH   4   5
ATOM      5  C   UNL     1      22.179  -3.067  21.601  1.00  0.00     0.041 C 
ATOM      6  O   UNL     1      23.255  -2.414  21.626  1.00  0.00    -0.550 OA
ATOM      7  O   UNL     1      21.780  -3.692  20.427  1.00  0.00    -0.550 OA
ENDBRANCH   4   5
ENDBRANCH   3   4
ENDBRANCH   2   3
ENDBRANCH   1   2
BRANCH   1   8
ATOM      8  C   UNL     1      18.329  -1.135  21.659  1.00  0.00     0.000 C 
BRANCH   8   9
ATOM      9  C   UNL     1      18.554  -2.162  20.535  1.00  0.00     0.006 C 
BRANCH   9  10
ATOM     10  C   UNL     1      18.083  -3.571  20.914  1.00  0.00     0.053 C 
BRANCH  10  11
ATOM     11  C   UNL     1      17.978  -4.433  19.695  1.00  0.00     0.041 C 
ATOM     12  O   UNL     1      18.996  -5.025  19.248  1.00  0.00    -0.550 OA
ATOM     13  O   UNL     1      16.746  -4.621  19.081  1.00  0.00    -0.550 OA
ENDBRANCH  10  11
ENDBRANCH   9  10
ENDBRANCH   8   9
ENDBRANCH   1   8
TORSDOF 8
ENDMDL
MODEL 4
REMARK VINA RESULT:    -4.192      1.773      4.604
REMARK INTER + INTRA:          -6.877
REMARK INTER:                  -6.121
REMARK INTRA:                  -0.757
REMARK UNBOUND:                -0.726
REMARK SMILES O=C([O-])CCCCCCCC(=O)[O-]
REMARK SMILES IDX 7 1 6 2 5 3 4 4 2 5 1 6 3 7 8 8 9 9 10 10 11 11 12 12 13 13
REMARK H PARENT
REMARK Flexibility Score: inf
ROOT
ATOM      1  C   UNL     1      18.811  -1.155  22.020  1.00  0.00     0.000 C 
ENDROOT
BRANCH   1   2
ATOM      2  C   UNL     1      18.585  -1.920  20.703  1.00  0.00     0.000 C 
BRANCH   2   3
ATOM      3  C   UNL     1      17.811  -3.247  20.844  1.00  0.00     0.006 C 
BRANCH   3   4
ATOM      4  C   UNL     1      18.642  -4.503  20.539  1.00  0.00     0.053 C 
BRANCH   4   5
ATOM      5  C   UNL     1      18.762  -4.751  19.067  1.00  0.00     0.041 C 
ATOM      6  O   UNL     1      19.851  -5.150  18.578  1.00  0.00    -0.550 OA
ATOM      7  O   UNL     1      17.680  -4.508  18.230  1.00  0.00    -0.550 OA
ENDBRANCH   4   5
ENDBRANCH   3   4
ENDBRANCH   2   3
ENDBRANCH   1   2
BRANCH   1   8
ATOM      8  C   UNL     1      20.283  -0.837  22.349  1.00  0.00     0.000 C 
BRANCH   8   9
ATOM      9  C   UNL     1      20.937  -1.778  23.377  1.00  0.00     0.006 C 
BRANCH   9  10
ATOM     10  C   UNL     1      21.289  -3.149  22.788  1.00  0.00     0.053 C 
BRANCH  10  11
ATOM     11  C   UNL     1      22.258  -2.999  21.657  1.00  0.00     0.041 C 
ATOM     12  O   UNL     1      21.944  -3.381  20.499  1.00  0.00    -0.550 OA
ATOM     13  O   UNL     1      23.488  -2.391  21.872  1.00  0.00    -0.550 OA
ENDBRANCH  10  11
ENDBRANCH   9  10
ENDBRANCH   8   9
ENDBRANCH   1   8
TORSDOF 8
ENDMDL
MODEL 5
REMARK VINA RESULT:    -4.181      2.431      4.115
REMARK INTER + INTRA:          -6.861
REMARK INTER:                  -5.982
REMARK INTRA:                  -0.879
REMARK UNBOUND:                -0.726
REMARK SMILES O=C([O-])CCCCCCCC(=O)[O-]
REMARK SMILES IDX 7 1 6 2 5 3 4 4 2 5 1 6 3 7 8 8 9 9 10 10 11 11 12 12 13 13
REMARK H PARENT
REMARK Flexibility Score: inf
ROOT
ATOM      1  C   UNL     1      19.957  -0.935  23.041  1.00  0.00     0.000 C 
ENDROOT
BRANCH   1   2
ATOM      2  C   UNL     1      20.571   0.237  22.251  1.00  0.00     0.000 C 
BRANCH   2   3
ATOM      3  C   UNL     1      20.168   0.304  20.765  1.00  0.00     0.006 C 
BRANCH   3   4
ATOM      4  C   UNL     1      18.784  -0.291  20.454  1.00  0.00     0.053 C 
BRANCH   4   5
ATOM      5  C   UNL     1      18.740  -0.926  19.099  1.00  0.00     0.041 C 
ATOM      6  O   UNL     1      17.666  -1.423  18.667  1.00  0.00    -0.550 OA
ATOM      7  O   UNL     1      19.892  -1.001  18.327  1.00  0.00    -0.550 OA
ENDBRANCH   4   5
ENDBRANCH   3   4
ENDBRANCH   2   3
ENDBRANCH   1   2
BRANCH   1   8
ATOM      8  C   UNL     1      20.975  -1.883  23.706  1.00  0.00     0.000 C 
BRANCH   8   9
ATOM      9  C   UNL     1      21.098  -3.268  23.047  1.00  0.00     0.006 C 
BRANCH   9  10
ATOM     10  C   UNL     1      20.234  -3.408  21.788  1.00  0.00     0.053 C 
BRANCH  10  11
ATOM     11  C   UNL     1      21.095  -3.444  20.564  1.00  0.00     0.041 C 
ATOM     12  O   UNL     1      22.105  -2.697  20.477  1.00  0.00    -0.550 OA
ATOM     13  O   UNL     1      20.811  -4.341  19.542  1.00  0.00    -0.550 OA
ENDBRANCH  10  11
ENDBRANCH   9  10
ENDBRANCH   8   9
ENDBRANCH   1   8
TORSDOF 8
ENDMDL
MODEL 6
REMARK VINA RESULT:    -4.161      2.547      5.494
REMARK INTER + INTRA:          -6.833
REMARK INTER:                  -6.134
REMARK INTRA:                  -0.699
REMARK UNBOUND:                -0.726
REMARK SMILES O=C([O-])CCCCCCCC(=O)[O-]
REMARK SMILES IDX 7 1 6 2 5 3 4 4 2 5 1 6 3 7 8 8 9 9 10 10 11 11 12 12 13 13
REMARK H PARENT
REMARK Flexibility Score: inf
ROOT
ATOM      1  C   UNL     1      20.123  -0.810  23.120  1.00  0.00     0.000 C 
ENDROOT
BRANCH   1   2
ATOM      2  C   UNL     1      21.048  -1.884  23.723  1.00  0.00     0.000 C 
BRANCH   2   3
ATOM      3  C   UNL     1      21.038  -3.240  22.988  1.00  0.00     0.006 C 
BRANCH   3   4
ATOM      4  C   UNL     1      20.000  -3.343  21.859  1.00  0.00     0.053 C 
BRANCH   4   5
ATOM      5  C   UNL     1      20.646  -3.441  20.511  1.00  0.00     0.041 C 
ATOM      6  O   UNL     1      20.005  -3.908  19.533  1.00  0.00    -0.550 OA
ATOM      7  O   UNL     1      21.968  -3.050  20.343  1.00  0.00    -0.550 OA
ENDBRANCH   4   5
ENDBRANCH   3   4
ENDBRANCH   2   3
ENDBRANCH   1   2
BRANCH   1   8
ATOM      8  C   UNL     1      20.823   0.499  22.703  1.00  0.00     0.000 C 
BRANCH   8   9
ATOM      9  C   UNL     1      22.114   0.312  21.887  1.00  0.00     0.006 C 
BRANCH   9  10
ATOM     10  C   UNL     1      23.352   0.875  22.594  1.00  0.00     0.053 C 
BRANCH  10  11
ATOM     11  C   UNL     1      24.348  -0.212  22.849  1.00  0.00     0.041 C 
ATOM     12  O   UNL     1      25.248  -0.056  23.715  1.00  0.00    -0.550 OA
ATOM     13  O   UNL     1      24.252  -1.417  22.164  1.00  0.00    -0.550 OA
ENDBRANCH  10  11
ENDBRANCH   9  10
ENDBRANCH   8   9
ENDBRANCH   1   8
TORSDOF 8
ENDMDL
MODEL 7
REMARK VINA RESULT:    -4.154      3.106      4.457
REMARK INTER + INTRA:          -6.822
REMARK INTER:                  -5.884
REMARK INTRA:                  -0.938
REMARK UNBOUND:                -0.726
REMARK SMILES O=C([O-])CCCCCCCC(=O)[O-]
REMARK SMILES IDX 7 1 6 2 5 3 4 4 2 5 1 6 3 7 8 8 9 9 10 10 11 11 12 12 13 13
REMARK H PARENT
REMARK Flexibility Score: inf
ROOT
ATOM      1  C   UNL     1      19.260  -1.567  21.441  1.00  0.00     0.000 C 
ENDROOT
BRANCH   1   2
ATOM      2  C   UNL     1      19.616  -3.066  21.494  1.00  0.00     0.000 C 
BRANCH   2   3
ATOM      3  C   UNL     1      18.546  -4.011  20.911  1.00  0.00     0.006 C 
BRANCH   3   4
ATOM      4  C   UNL     1      17.162  -3.367  20.728  1.00  0.00     0.053 C 
BRANCH   4   5
ATOM      5  C   UNL     1      16.585  -3.654  19.376  1.00  0.00     0.041 C 
ATOM      6  O   UNL     1      16.727  -4.791  18.854  1.00  0.00    -0.550 OA
ATOM      7  O   UNL     1      15.920  -2.655  18.676  1.00  0.00    -0.550 OA
ENDBRANCH   4   5
ENDBRANCH   3   4
ENDBRANCH   2   3
ENDBRANCH   1   2
BRANCH   1   8
ATOM      8  C   UNL     1      20.333  -0.661  20.804  1.00  0.00     0.000 C 
BRANCH   8   9
ATOM      9  C   UNL     1      20.674  -0.990  19.340  1.00  0.00     0.006 C 
BRANCH   9  10
ATOM     10  C   UNL     1      19.432  -1.093  18.448  1.00  0.00     0.053 C 
BRANCH  10  11
ATOM     11  C   UNL     1      19.479  -2.344  17.628  1.00  0.00     0.041 C 
ATOM     12  O   UNL     1      20.315  -3.247  17.898  1.00  0.00    -0.550 OA
ATOM     13  O   UNL     1      18.567  -2.535  16.598  1.00  0.00    -0.550 OA
ENDBRANCH  10  11
ENDBRANCH   9  10
ENDBRANCH   8   9
ENDBRANCH   1   8
TORSDOF 8
ENDMDL
MODEL 8
REMARK VINA RESULT:    -4.150      3.395      4.812
REMARK INTER + INTRA:          -6.816
REMARK INTER:                  -5.840
REMARK INTRA:                  -0.976
REMARK UNBOUND:                -0.726
REMARK SMILES O=C([O-])CCCCCCCC(=O)[O-]
REMARK SMILES IDX 7 1 6 2 5 3 4 4 2 5 1 6 3 7 8 8 9 9 10 10 11 11 12 12 13 13
REMARK H PARENT
REMARK Flexibility Score: inf
ROOT
ATOM      1  C   UNL     1      19.485  -0.602  20.433  1.00  0.00     0.000 C 
ENDROOT
BRANCH   1   2
ATOM      2  C   UNL     1      19.830  -1.192  19.052  1.00  0.00     0.000 C 
BRANCH   2   3
ATOM      3  C   UNL     1      18.649  -1.270  18.063  1.00  0.00     0.006 C 
BRANCH   3   4
ATOM      4  C   UNL     1      17.386  -0.525  18.522  1.00  0.00     0.053 C 
BRANCH   4   5
ATOM      5  C   UNL     1      16.285  -1.469  18.898  1.00  0.00     0.041 C 
ATOM      6  O   UNL     1      16.016  -1.677  20.110  1.00  0.00    -0.550 OA
ATOM      7  O   UNL     1      15.580  -2.144  17.911  1.00  0.00    -0.550 OA
ENDBRANCH   4   5
ENDBRANCH   3   4
ENDBRANCH   2   3
ENDBRANCH   1   2
BRANCH   1   8
ATOM      8  C   UNL     1      19.252  -1.639  21.550  1.00  0.00     0.000 C 
BRANCH   8   9
ATOM      9  C   UNL     1      19.675  -3.076  21.199  1.00  0.00     0.006 C 
BRANCH   9  10
ATOM     10  C   UNL     1      18.485  -4.035  21.082  1.00  0.00     0.053 C 
BRANCH  10  11
ATOM     11  C   UNL     1      18.426  -4.630  19.710  1.00  0.00     0.041 C 
ATOM     12  O   UNL     1      17.315  -4.806  19.143  1.00  0.00    -0.550 OA
ATOM     13  O   UNL     1      19.600  -4.944  19.038  1.00  0.00    -0.550 OA
ENDBRANCH  10  11
ENDBRANCH   9  10
ENDBRANCH   8   9
ENDBRANCH   1   8
TORSDOF 8
ENDMDL
MODEL 9
REMARK VINA RESULT:    -4.145      2.837      4.250
REMARK INTER + INTRA:          -6.808
REMARK INTER:                  -5.872
REMARK INTRA:                  -0.936
REMARK UNBOUND:                -0.726
REMARK SMILES O=C([O-])CCCCCCCC(=O)[O-]
REMARK SMILES IDX 7 1 6 2 5 3 4 4 2 5 1 6 3 7 8 8 9 9 10 10 11 11 12 12 13 13
REMARK H PARENT
REMARK Flexibility Score: inf
ROOT
ATOM      1  C   UNL     1      17.696  -0.036  19.667  1.00  0.00     0.000 C 
ENDROOT
BRANCH   1   2
ATOM      2  C   UNL     1      16.977  -0.788  20.803  1.00  0.00     0.000 C 
BRANCH   2   3
ATOM      3  C   UNL     1      16.527  -2.221  20.454  1.00  0.00     0.006 C 
BRANCH   3   4
ATOM      4  C   UNL     1      17.556  -3.311  20.794  1.00  0.00     0.053 C 
BRANCH   4   5
ATOM      5  C   UNL     1      17.681  -4.325  19.699  1.00  0.00     0.041 C 
ATOM      6  O   UNL     1      18.570  -5.215  19.757  1.00  0.00    -0.550 OA
ATOM      7  O   UNL     1      16.837  -4.267  18.597  1.00  0.00    -0.550 OA
ENDBRANCH   4   5
ENDBRANCH   3   4
ENDBRANCH   2   3
ENDBRANCH   1   2
BRANCH   1   8
ATOM      8  C   UNL     1      17.372  -0.533  18.244  1.00  0.00     0.000 C 
BRANCH   8   9
ATOM      9  C   UNL     1      18.548  -1.194  17.504  1.00  0.00     0.006 C 
BRANCH   9  10
ATOM     10  C   UNL     1      19.849  -1.175  18.315  1.00  0.00     0.053 C 
BRANCH  10  11
ATOM     11  C   UNL     1      20.468  -2.537  18.342  1.00  0.00     0.041 C 
ATOM     12  O   UNL     1      20.397  -3.285  17.332  1.00  0.00    -0.550 OA
ATOM     13  O   UNL     1      21.167  -2.960  19.466  1.00  0.00    -0.550 OA
ENDBRANCH  10  11
ENDBRANCH   9  10
ENDBRANCH   8   9
ENDBRANCH   1   8
TORSDOF 8
ENDMDL
