MODEL 1
REMARK VINA RESULT:    -3.348      0.000      0.000
REMARK INTER + INTRA:          -3.969
REMARK INTER:                  -3.935
REMARK INTRA:                  -0.034
REMARK UNBOUND:                -0.034
REMARK SMILES CCCCC(=O)[O-]
REMARK SMILES IDX 4 1 5 2 6 3 7 4 3 5 2 6 1 7
REMARK H PARENT
REMARK Flexibility Score: inf
ROOT
ATOM      1  C   UNL     1    -116.667 -98.658  34.905  1.00  0.00     0.053 C 
ENDROOT
BRANCH   1   2
ATOM      2  C   UNL     1    -115.875 -98.975  36.136  1.00  0.00     0.041 C 
ATOM      3  O   UNL     1    -114.648 -99.242  36.050  1.00  0.00    -0.550 OA
ATOM      4  O   UNL     1    -116.502 -99.009  37.376  1.00  0.00    -0.550 OA
ENDBRANCH   1   2
BRANCH   1   5
ATOM      5  C   UNL     1    -115.768 -98.172  33.761  1.00  0.00     0.006 C 
BRANCH   5   6
ATOM      6  C   UNL     1    -116.113 -96.742  33.320  1.00  0.00    -0.003 C 
ATOM      7  C   UNL     1    -117.212 -96.743  32.262  1.00  0.00     0.004 C 
ENDBRANCH   5   6
ENDBRANCH   1   5
TORSDOF 3
ENDMDL
MODEL 2
REMARK VINA RESULT:    -3.334      5.514      7.523
REMARK INTER + INTRA:          -3.953
REMARK INTER:                  -3.868
REMARK INTRA:                  -0.084
REMARK UNBOUND:                -0.034
REMARK SMILES CCCCC(=O)[O-]
REMARK SMILES IDX 4 1 5 2 6 3 7 4 3 5 2 6 1 7
REMARK H PARENT
REMARK Flexibility Score: inf
ROOT
ATOM      1  C   UNL     1    -116.810 -99.588  41.067  1.00  0.00     0.053 C 
ENDROOT
BRANCH   1   2
ATOM      2  C   UNL     1    -117.222 -98.796  39.864  1.00  0.00     0.041 C 
ATOM      3  O   UNL     1    -116.864 -99.158  38.713  1.00  0.00    -0.550 OA
ATOM      4  O   UNL     1    -117.974 -97.638  40.019  1.00  0.00    -0.550 OA
ENDBRANCH   1   2
BRANCH   1   5
ATOM      5  C   UNL     1    -116.330 -98.682  42.207  1.00  0.00     0.006 C 
BRANCH   5   6
ATOM      6  C   UNL     1    -117.032 -99.000  43.536  1.00  0.00    -0.003 C 
ATOM      7  C   UNL     1    -118.131 -97.985  43.833  1.00  0.00     0.004 C 
ENDBRANCH   5   6
ENDBRANCH   1   5
TORSDOF 3
ENDMDL
MODEL 3
REMARK VINA RESULT:    -3.176     22.486     23.469
REMARK INTER + INTRA:          -3.767
REMARK INTER:                  -3.654
REMARK INTRA:                  -0.113
REMARK UNBOUND:                -0.034
REMARK SMILES CCCCC(=O)[O-]
REMARK SMILES IDX 4 1 5 2 6 3 7 4 3 5 2 6 1 7
REMARK H PARENT
REMARK Flexibility Score: inf
ROOT
ATOM      1  C   UNL     1    -101.971 -81.762  31.030  1.00  0.00     0.053 C 
ENDROOT
BRANCH   1   2
ATOM      2  C   UNL     1    -102.532 -80.521  30.406  1.00  0.00     0.041 C 
ATOM      3  O   UNL     1    -103.651 -80.075  30.773  1.00  0.00    -0.550 OA
ATOM      4  O   UNL     1    -101.833 -79.875  29.393  1.00  0.00    -0.550 OA
ENDBRANCH   1   2
BRANCH   1   5
ATOM      5  C   UNL     1    -100.484 -81.941  30.703  1.00  0.00     0.006 C 
BRANCH   5   6
ATOM      6  C   UNL     1     -99.577 -81.464  31.848  1.00  0.00    -0.003 C 
ATOM      7  C   UNL     1     -98.939 -80.118  31.519  1.00  0.00     0.004 C 
ENDBRANCH   5   6
ENDBRANCH   1   5
TORSDOF 3
ENDMDL
MODEL 4
REMARK VINA RESULT:    -3.102      9.111     10.330
REMARK INTER + INTRA:          -3.680
REMARK INTER:                  -3.657
REMARK INTRA:                  -0.022
REMARK UNBOUND:                -0.034
REMARK SMILES CCCCC(=O)[O-]
REMARK SMILES IDX 4 1 5 2 6 3 7 4 3 5 2 6 1 7
REMARK H PARENT
REMARK Flexibility Score: inf
ROOT
ATOM      1  C   UNL     1    -118.354 -97.562  44.482  1.00  0.00     0.053 C 
ENDROOT
BRANCH   1   2
ATOM      2  C   UNL     1    -118.387 -97.082  45.900  1.00  0.00     0.041 C 
ATOM      3  O   UNL     1    -118.225 -97.893  46.850  1.00  0.00    -0.550 OA
ATOM      4  O   UNL     1    -118.631 -95.742  46.175  1.00  0.00    -0.550 OA
ENDBRANCH   1   2
BRANCH   1   5
ATOM      5  C   UNL     1    -117.625 -98.906  44.354  1.00  0.00     0.006 C 
BRANCH   5   6
ATOM      6  C   UNL     1    -117.410 -99.312  42.889  1.00  0.00    -0.003 C 
ATOM      7  C   UNL     1    -116.151 -98.666  42.318  1.00  0.00     0.004 C 
ENDBRANCH   5   6
ENDBRANCH   1   5
TORSDOF 3
ENDMDL
MODEL 5
REMARK VINA RESULT:    -2.954      4.369      5.149
REMARK INTER + INTRA:          -3.506
REMARK INTER:                  -3.461
REMARK INTRA:                  -0.045
REMARK UNBOUND:                -0.034
REMARK SMILES CCCCC(=O)[O-]
REMARK SMILES IDX 4 1 5 2 6 3 7 4 3 5 2 6 1 7
REMARK H PARENT
REMARK Flexibility Score: inf
ROOT
ATOM      1  C   UNL     1    -118.021 -97.645  32.075  1.00  0.00     0.053 C 
ENDROOT
BRANCH   1   2
ATOM      2  C   UNL     1    -118.575 -97.163  30.770  1.00  0.00     0.041 C 
ATOM      3  O   UNL     1    -118.800 -95.937  30.590  1.00  0.00    -0.550 OA
ATOM      4  O   UNL     1    -118.874 -98.072  29.763  1.00  0.00    -0.550 OA
ENDBRANCH   1   2
BRANCH   1   5
ATOM      5  C   UNL     1    -116.898 -96.734  32.587  1.00  0.00     0.006 C 
BRANCH   5   6
ATOM      6  C   UNL     1    -115.815 -97.517  33.343  1.00  0.00    -0.003 C 
ATOM      7  C   UNL     1    -115.933 -99.015  33.077  1.00  0.00     0.004 C 
ENDBRANCH   5   6
ENDBRANCH   1   5
TORSDOF 3
ENDMDL
MODEL 6
REMARK VINA RESULT:    -2.917      7.105      8.935
REMARK INTER + INTRA:          -3.462
REMARK INTER:                  -3.399
REMARK INTRA:                  -0.063
REMARK UNBOUND:                -0.034
REMARK SMILES CCCCC(=O)[O-]
REMARK SMILES IDX 4 1 5 2 6 3 7 4 3 5 2 6 1 7
REMARK H PARENT
REMARK Flexibility Score: inf
ROOT
ATOM      1  C   UNL     1    -116.616 -98.812  43.200  1.00  0.00     0.053 C 
ENDROOT
BRANCH   1   2
ATOM      2  C   UNL     1    -116.664 -98.900  41.706  1.00  0.00     0.041 C 
ATOM      3  O   UNL     1    -115.847 -99.631  41.086  1.00  0.00    -0.550 OA
ATOM      4  O   UNL     1    -117.591 -98.149  40.994  1.00  0.00    -0.550 OA
ENDBRANCH   1   2
BRANCH   1   5
ATOM      5  C   UNL     1    -117.819 -99.507  43.850  1.00  0.00     0.006 C 
BRANCH   5   6
ATOM      6  C   UNL     1    -118.295 -98.778  45.115  1.00  0.00    -0.003 C 
ATOM      7  C   UNL     1    -118.464 -97.284  44.859  1.00  0.00     0.004 C 
ENDBRANCH   5   6
ENDBRANCH   1   5
TORSDOF 3
ENDMDL
MODEL 7
REMARK VINA RESULT:    -2.907     22.598     23.394
REMARK INTER + INTRA:          -3.450
REMARK INTER:                  -3.426
REMARK INTRA:                  -0.024
REMARK UNBOUND:                -0.034
REMARK SMILES CCCCC(=O)[O-]
REMARK SMILES IDX 4 1 5 2 6 3 7 4 3 5 2 6 1 7
REMARK H PARENT
REMARK Flexibility Score: inf
ROOT
ATOM      1  C   UNL     1    -100.396 -82.097  30.357  1.00  0.00     0.053 C 
ENDROOT
BRANCH   1   2
ATOM      2  C   UNL     1     -99.633 -81.328  31.392  1.00  0.00     0.041 C 
ATOM      3  O   UNL     1     -99.696 -81.661  32.605  1.00  0.00    -0.550 OA
ATOM      4  O   UNL     1     -98.879 -80.221  31.020  1.00  0.00    -0.550 OA
ENDBRANCH   1   2
BRANCH   1   5
ATOM      5  C   UNL     1    -101.889 -81.745  30.374  1.00  0.00     0.006 C 
BRANCH   5   6
ATOM      6  C   UNL     1    -102.129 -80.230  30.304  1.00  0.00    -0.003 C 
ATOM      7  C   UNL     1    -103.541 -79.875  30.759  1.00  0.00     0.004 C 
ENDBRANCH   5   6
ENDBRANCH   1   5
TORSDOF 3
ENDMDL
MODEL 8
REMARK VINA RESULT:    -2.799      2.954      3.902
REMARK INTER + INTRA:          -3.324
REMARK INTER:                  -3.231
REMARK INTRA:                  -0.093
REMARK UNBOUND:                -0.034
REMARK SMILES CCCCC(=O)[O-]
REMARK SMILES IDX 4 1 5 2 6 3 7 4 3 5 2 6 1 7
REMARK H PARENT
REMARK Flexibility Score: inf
ROOT
ATOM      1  C   UNL     1    -116.054 -97.675  33.219  1.00  0.00     0.053 C 
ENDROOT
BRANCH   1   2
ATOM      2  C   UNL     1    -117.456 -97.369  32.788  1.00  0.00     0.041 C 
ATOM      3  O   UNL     1    -117.666 -96.603  31.810  1.00  0.00    -0.550 OA
ATOM      4  O   UNL     1    -118.531 -97.903  33.487  1.00  0.00    -0.550 OA
ENDBRANCH   1   2
BRANCH   1   5
ATOM      5  C   UNL     1    -115.742 -99.173  33.116  1.00  0.00     0.006 C 
BRANCH   5   6
ATOM      6  C   UNL     1    -115.499 -99.811  34.491  1.00  0.00    -0.003 C 
ATOM      7  C   UNL     1    -115.161 -98.753  35.537  1.00  0.00     0.004 C 
ENDBRANCH   5   6
ENDBRANCH   1   5
TORSDOF 3
ENDMDL
MODEL 9
REMARK VINA RESULT:    -2.673      3.038      4.157
REMARK INTER + INTRA:          -3.176
REMARK INTER:                  -3.113
REMARK INTRA:                  -0.063
REMARK UNBOUND:                -0.034
REMARK SMILES CCCCC(=O)[O-]
REMARK SMILES IDX 4 1 5 2 6 3 7 4 3 5 2 6 1 7
REMARK H PARENT
REMARK Flexibility Score: inf
ROOT
ATOM      1  C   UNL     1    -117.262 -96.742  32.170  1.00  0.00     0.053 C 
ENDROOT
BRANCH   1   2
ATOM      2  C   UNL     1    -118.276 -97.838  32.288  1.00  0.00     0.041 C 
ATOM      3  O   UNL     1    -119.082 -97.855  33.255  1.00  0.00    -0.550 OA
ATOM      4  O   UNL     1    -118.307 -98.860  31.347  1.00  0.00    -0.550 OA
ENDBRANCH   1   2
BRANCH   1   5
ATOM      5  C   UNL     1    -116.272 -96.754  33.341  1.00  0.00     0.006 C 
BRANCH   5   6
ATOM      6  C   UNL     1    -115.736 -98.164  33.633  1.00  0.00    -0.003 C 
ATOM      7  C   UNL     1    -115.461 -98.349  35.122  1.00  0.00     0.004 C 
ENDBRANCH   5   6
ENDBRANCH   1   5
TORSDOF 3
ENDMDL
