MODEL 1
REMARK VINA RESULT:    -4.975      0.000      0.000
REMARK INTER + INTRA:          -5.655
REMARK INTER:                  -6.138
REMARK INTRA:                   0.483
REMARK UNBOUND:                 0.483
REMARK SMILES C=C1CC[C@H]2[C@H]1[C@@H]1[C@@H](CC[C@H]2C)C1(C)C
REMARK SMILES IDX 6 1 5 2 4 3 3 4 2 5 1 6 11 7 12 8 10 9 7 11 8 12 13 13 14 14
REMARK SMILES IDX 15 15 9 16
REMARK H PARENT
REMARK Flexibility Score: 80.00
ROOT
ATOM      1  C   UNL     1     143.254 142.753 161.656  1.00  0.00     0.022 C 
ATOM      2  C   UNL     1     142.350 143.990 161.869  1.00  0.00    -0.000 C 
ATOM      3  C   UNL     1     141.906 144.398 160.459  1.00  0.00     0.009 C 
ATOM      4  C   UNL     1     141.771 143.079 159.694  1.00  0.00     0.031 C 
ATOM      5  C   UNL     1     142.660 142.133 160.435  1.00  0.00    -0.074 C 
ATOM      6  C   UNL     1     142.951 140.904 159.993  1.00  0.00     0.008 C 
ENDROOT
BRANCH   2   7
ATOM      7  C   UNL     1     142.932 145.135 162.757  1.00  0.00    -0.011 C 
ATOM      8  C   UNL     1     144.288 145.690 162.274  1.00  0.00     0.008 C 
BRANCH   7   9
ATOM      9  C   UNL     1     142.922 144.845 164.308  1.00  0.00     0.004 CG0
ATOM     10  G   UNL     1     143.193 143.406 164.845  1.00  0.00     0.000 G0
ENDBRANCH   7   9
ENDBRANCH   2   7
BRANCH   1  11
ATOM     11  C   UNL     1     143.139 141.886 162.911  1.00  0.00     0.006 C 
ATOM     12  C   UNL     1     144.072 142.605 163.922  1.00  0.00    -0.001 C 
ATOM     13  C   UNL     1     144.171 141.106 163.721  1.00  0.00    -0.029 C 
ATOM     14  C   UNL     1     145.389 140.590 162.948  1.00  0.00     0.012 C 
ATOM     15  C   UNL     1     143.642 140.232 164.864  1.00  0.00     0.012 C 
BRANCH  12  16
ATOM     16  C   UNL     1     143.189 143.421 164.862  1.00  0.00     0.005 CG0
ATOM     17  G   UNL     1     142.914 144.850 164.303  1.00  0.00     0.000 G0
ENDBRANCH  12  16
ENDBRANCH   1  11
TORSDOF 0
ENDMDL
MODEL 2
REMARK VINA RESULT:    -4.947      4.209      5.228
REMARK INTER + INTRA:          -5.621
REMARK INTER:                  -6.099
REMARK INTRA:                   0.478
REMARK UNBOUND:                 0.483
REMARK SMILES C=C1CC[C@H]2[C@H]1[C@@H]1[C@@H](CC[C@H]2C)C1(C)C
REMARK SMILES IDX 6 1 5 2 4 3 3 4 2 5 1 6 11 7 12 8 10 9 7 11 8 12 13 13 14 14
REMARK SMILES IDX 15 15 9 16
REMARK H PARENT
REMARK Flexibility Score: 80.00
ROOT
ATOM      1  C   UNL     1     142.733 147.428 161.649  1.00  0.00     0.022 C 
ATOM      2  C   UNL     1     143.998 148.301 161.816  1.00  0.00    -0.000 C 
ATOM      3  C   UNL     1     144.414 148.666 160.386  1.00  0.00     0.009 C 
ATOM      4  C   UNL     1     143.097 148.806 159.619  1.00  0.00     0.031 C 
ATOM      5  C   UNL     1     142.127 147.983 160.402  1.00  0.00    -0.074 C 
ATOM      6  C   UNL     1     140.887 147.710 159.978  1.00  0.00     0.008 C 
ENDROOT
BRANCH   2   7
ATOM      7  C   UNL     1     145.127 147.726 162.728  1.00  0.00    -0.011 C 
ATOM      8  C   UNL     1     145.639 146.332 162.308  1.00  0.00     0.008 C 
BRANCH   7   9
ATOM      9  C   UNL     1     144.844 147.817 164.277  1.00  0.00     0.004 CG0
ATOM     10  G   UNL     1     143.400 147.617 164.829  1.00  0.00     0.000 G0
ENDBRANCH   7   9
ENDBRANCH   2   7
BRANCH   1  11
ATOM     11  C   UNL     1     141.874 147.628 162.899  1.00  0.00     0.006 C 
ATOM     12  C   UNL     1     142.564 146.716 163.949  1.00  0.00    -0.001 C 
ATOM     13  C   UNL     1     141.062 146.661 163.756  1.00  0.00    -0.029 C 
ATOM     14  C   UNL     1     140.501 145.429 163.038  1.00  0.00     0.012 C 
ATOM     15  C   UNL     1     140.210 147.270 164.875  1.00  0.00     0.012 C 
BRANCH  12  16
ATOM     16  C   UNL     1     143.413 147.611 164.848  1.00  0.00     0.005 CG0
ATOM     17  G   UNL     1     144.855 147.795 164.283  1.00  0.00     0.000 G0
ENDBRANCH  12  16
ENDBRANCH   1  11
TORSDOF 0
ENDMDL
MODEL 3
REMARK VINA RESULT:    -4.916      4.231      5.354
REMARK INTER + INTRA:          -5.582
REMARK INTER:                  -6.058
REMARK INTRA:                   0.476
REMARK UNBOUND:                 0.483
REMARK SMILES C=C1CC[C@H]2[C@H]1[C@@H]1[C@@H](CC[C@H]2C)C1(C)C
REMARK SMILES IDX 6 1 5 2 4 3 3 4 2 5 1 6 11 7 12 8 10 9 7 11 8 12 13 13 14 14
REMARK SMILES IDX 15 15 9 16
REMARK H PARENT
REMARK Flexibility Score: 80.00
ROOT
ATOM      1  C   UNL     1     148.044 143.345 161.706  1.00  0.00     0.022 C 
ATOM      2  C   UNL     1     146.878 142.366 161.977  1.00  0.00    -0.000 C 
ATOM      3  C   UNL     1     146.469 141.850 160.592  1.00  0.00     0.009 C 
ATOM      4  C   UNL     1     147.776 141.783 159.798  1.00  0.00     0.031 C 
ATOM      5  C   UNL     1     148.675 142.757 160.487  1.00  0.00    -0.074 C 
ATOM      6  C   UNL     1     149.870 143.119 160.005  1.00  0.00     0.008 C 
ENDROOT
BRANCH   2   7
ATOM      7  C   UNL     1     145.717 142.896 162.877  1.00  0.00    -0.011 C 
ATOM      8  C   UNL     1     145.066 144.201 162.376  1.00  0.00     0.008 C 
BRANCH   7   9
ATOM      9  C   UNL     1     146.039 142.942 164.421  1.00  0.00     0.004 CG0
ATOM     10  G   UNL     1     147.457 143.358 164.921  1.00  0.00     0.000 G0
ENDBRANCH   7   9
ENDBRANCH   2   7
BRANCH   1  11
ATOM     11  C   UNL     1     148.947 143.331 162.940  1.00  0.00     0.006 C 
ATOM     12  C   UNL     1     148.193 144.251 163.939  1.00  0.00    -0.001 C 
ATOM     13  C   UNL     1     149.677 144.438 163.695  1.00  0.00    -0.029 C 
ATOM     14  C   UNL     1     150.094 145.659 162.868  1.00  0.00     0.012 C 
ATOM     15  C   UNL     1     150.611 144.007 164.831  1.00  0.00     0.012 C 
BRANCH  12  16
ATOM     16  C   UNL     1     147.459 143.351 164.929  1.00  0.00     0.005 CG0
ATOM     17  G   UNL     1     146.048 142.942 164.404  1.00  0.00     0.000 G0
ENDBRANCH  12  16
ENDBRANCH   1  11
TORSDOF 0
ENDMDL
MODEL 4
REMARK VINA RESULT:    -4.850      4.596      7.280
REMARK INTER + INTRA:          -5.501
REMARK INTER:                  -6.006
REMARK INTRA:                   0.505
REMARK UNBOUND:                 0.483
REMARK SMILES C=C1CC[C@H]2[C@H]1[C@@H]1[C@@H](CC[C@H]2C)C1(C)C
REMARK SMILES IDX 6 1 5 2 4 3 3 4 2 5 1 6 11 7 12 8 10 9 7 11 8 12 13 13 14 14
REMARK SMILES IDX 15 15 9 16
REMARK H PARENT
REMARK Flexibility Score: 80.00
ROOT
ATOM      1  C   UNL     1     147.368 147.938 161.663  1.00  0.00     0.022 C 
ATOM      2  C   UNL     1     148.121 146.599 161.850  1.00  0.00    -0.000 C 
ATOM      3  C   UNL     1     148.474 146.147 160.428  1.00  0.00     0.009 C 
ATOM      4  C   UNL     1     148.747 147.443 159.661  1.00  0.00     0.031 C 
ATOM      5  C   UNL     1     148.000 148.486 160.426  1.00  0.00    -0.074 C 
ATOM      6  C   UNL     1     147.849 149.743 159.994  1.00  0.00     0.008 C 
ENDROOT
BRANCH   2   7
ATOM      7  C   UNL     1     147.428 145.530 162.753  1.00  0.00    -0.011 C 
ATOM      8  C   UNL     1     145.990 145.170 162.326  1.00  0.00     0.008 C 
BRANCH   7   9
ATOM      9  C   UNL     1     147.544 145.792 164.304  1.00  0.00     0.004 CG0
ATOM     10  G   UNL     1     147.454 147.243 164.869  1.00  0.00     0.000 G0
ENDBRANCH   7   9
ENDBRANCH   2   7
BRANCH   1  11
ATOM     11  C   UNL     1     147.621 148.780 162.914  1.00  0.00     0.006 C 
ATOM     12  C   UNL     1     146.642 148.168 163.953  1.00  0.00    -0.001 C 
ATOM     13  C   UNL     1     146.712 149.669 163.758  1.00  0.00    -0.029 C 
ATOM     14  C   UNL     1     145.539 150.326 163.023  1.00  0.00     0.012 C 
ATOM     15  C   UNL     1     147.373 150.471 164.884  1.00  0.00     0.012 C 
BRANCH  12  16
ATOM     16  C   UNL     1     147.453 147.251 164.864  1.00  0.00     0.005 CG0
ATOM     17  G   UNL     1     147.527 145.797 164.304  1.00  0.00     0.000 G0
ENDBRANCH  12  16
ENDBRANCH   1  11
TORSDOF 0
ENDMDL
MODEL 5
REMARK VINA RESULT:    -4.690      4.070      6.541
REMARK INTER + INTRA:          -5.303
REMARK INTER:                  -5.767
REMARK INTRA:                   0.464
REMARK UNBOUND:                 0.483
REMARK SMILES C=C1CC[C@H]2[C@H]1[C@@H]1[C@@H](CC[C@H]2C)C1(C)C
REMARK SMILES IDX 6 1 5 2 4 3 3 4 2 5 1 6 11 7 12 8 10 9 7 11 8 12 13 13 14 14
REMARK SMILES IDX 15 15 9 16
REMARK H PARENT
REMARK Flexibility Score: 80.00
ROOT
ATOM      1  C   UNL     1     148.199 145.022 163.669  1.00  0.00     0.022 C 
ATOM      2  C   UNL     1     147.599 144.401 164.951  1.00  0.00    -0.000 C 
ATOM      3  C   UNL     1     148.428 143.134 165.198  1.00  0.00     0.009 C 
ATOM      4  C   UNL     1     149.840 143.493 164.729  1.00  0.00     0.031 C 
ATOM      5  C   UNL     1     149.631 144.607 163.755  1.00  0.00    -0.074 C 
ATOM      6  C   UNL     1     150.610 145.105 162.991  1.00  0.00     0.008 C 
ENDROOT
BRANCH   2   7
ATOM      7  C   UNL     1     146.049 144.216 164.978  1.00  0.00    -0.011 C 
ATOM      8  C   UNL     1     145.486 143.377 163.812  1.00  0.00     0.008 C 
BRANCH   7   9
ATOM      9  C   UNL     1     145.224 145.540 165.214  1.00  0.00     0.004 CG0
ATOM     10  G   UNL     1     145.693 146.887 164.583  1.00  0.00     0.000 G0
ENDBRANCH   7   9
ENDBRANCH   2   7
BRANCH   1  11
ATOM     11  C   UNL     1     147.985 146.534 163.752  1.00  0.00     0.006 C 
ATOM     12  C   UNL     1     146.502 146.704 163.326  1.00  0.00    -0.001 C 
ATOM     13  C   UNL     1     147.579 147.576 162.714  1.00  0.00    -0.029 C 
ATOM     14  C   UNL     1     147.972 147.274 161.264  1.00  0.00     0.012 C 
ATOM     15  C   UNL     1     147.597 149.043 163.156  1.00  0.00     0.012 C 
BRANCH  12  16
ATOM     16  C   UNL     1     145.678 146.896 164.597  1.00  0.00     0.005 CG0
ATOM     17  G   UNL     1     145.214 145.532 165.196  1.00  0.00     0.000 G0
ENDBRANCH  12  16
ENDBRANCH   1  11
TORSDOF 0
ENDMDL
MODEL 6
REMARK VINA RESULT:    -4.650      4.255      5.253
REMARK INTER + INTRA:          -5.255
REMARK INTER:                  -5.732
REMARK INTRA:                   0.478
REMARK UNBOUND:                 0.483
REMARK SMILES C=C1CC[C@H]2[C@H]1[C@@H]1[C@@H](CC[C@H]2C)C1(C)C
REMARK SMILES IDX 6 1 5 2 4 3 3 4 2 5 1 6 11 7 12 8 10 9 7 11 8 12 13 13 14 14
REMARK SMILES IDX 15 15 9 16
REMARK H PARENT
REMARK Flexibility Score: 80.00
ROOT
ATOM      1  C   UNL     1     148.160 142.917 161.962  1.00  0.00     0.022 C 
ATOM      2  C   UNL     1     149.019 144.163 162.281  1.00  0.00    -0.000 C 
ATOM      3  C   UNL     1     150.170 144.115 161.269  1.00  0.00     0.009 C 
ATOM      4  C   UNL     1     149.551 143.525 160.000  1.00  0.00     0.031 C 
ATOM      5  C   UNL     1     148.366 142.758 160.492  1.00  0.00    -0.074 C 
ATOM      6  C   UNL     1     147.637 141.954 159.709  1.00  0.00     0.008 C 
ENDROOT
BRANCH   2   7
ATOM      7  C   UNL     1     149.433 144.362 163.774  1.00  0.00    -0.011 C 
ATOM      8  C   UNL     1     150.191 143.168 164.390  1.00  0.00     0.008 C 
BRANCH   7   9
ATOM      9  C   UNL     1     148.286 144.894 164.718  1.00  0.00     0.004 CG0
ATOM     10  G   UNL     1     146.812 144.428 164.510  1.00  0.00     0.000 G0
ENDBRANCH   7   9
ENDBRANCH   2   7
BRANCH   1  11
ATOM     11  C   UNL     1     146.719 143.246 162.354  1.00  0.00     0.006 C 
ATOM     12  C   UNL     1     146.721 143.056 163.896  1.00  0.00    -0.001 C 
ATOM     13  C   UNL     1     145.629 142.434 163.049  1.00  0.00    -0.029 C 
ATOM     14  C   UNL     1     145.688 140.916 162.851  1.00  0.00     0.012 C 
ATOM     15  C   UNL     1     144.242 143.076 163.152  1.00  0.00     0.012 C 
BRANCH  12  16
ATOM     16  C   UNL     1     146.813 144.442 164.529  1.00  0.00     0.005 CG0
ATOM     17  G   UNL     1     148.293 144.892 164.725  1.00  0.00     0.000 G0
ENDBRANCH  12  16
ENDBRANCH   1  11
TORSDOF 0
ENDMDL
MODEL 7
REMARK VINA RESULT:    -4.644      1.164      3.634
REMARK INTER + INTRA:          -5.247
REMARK INTER:                  -5.758
REMARK INTRA:                   0.511
REMARK UNBOUND:                 0.483
REMARK SMILES C=C1CC[C@H]2[C@H]1[C@@H]1[C@@H](CC[C@H]2C)C1(C)C
REMARK SMILES IDX 6 1 5 2 4 3 3 4 2 5 1 6 11 7 12 8 10 9 7 11 8 12 13 13 14 14
REMARK SMILES IDX 15 15 9 16
REMARK H PARENT
REMARK Flexibility Score: 80.00
ROOT
ATOM      1  C   UNL     1     142.840 142.617 161.959  1.00  0.00     0.022 C 
ATOM      2  C   UNL     1     144.084 141.747 162.253  1.00  0.00    -0.000 C 
ATOM      3  C   UNL     1     144.010 140.602 161.235  1.00  0.00     0.009 C 
ATOM      4  C   UNL     1     143.403 141.232 159.980  1.00  0.00     0.031 C 
ATOM      5  C   UNL     1     142.654 142.420 160.491  1.00  0.00    -0.074 C 
ATOM      6  C   UNL     1     141.842 143.159 159.726  1.00  0.00     0.008 C 
ENDROOT
BRANCH   2   7
ATOM      7  C   UNL     1     144.305 141.324 163.739  1.00  0.00    -0.011 C 
ATOM      8  C   UNL     1     143.107 140.592 164.379  1.00  0.00     0.008 C 
BRANCH   7   9
ATOM      9  C   UNL     1     144.884 142.455 164.675  1.00  0.00     0.004 CG0
ATOM     10  G   UNL     1     144.442 143.939 164.487  1.00  0.00     0.000 G0
ENDBRANCH   7   9
ENDBRANCH   2   7
BRANCH   1  11
ATOM     11  C   UNL     1     143.186 144.054 162.353  1.00  0.00     0.006 C 
ATOM     12  C   UNL     1     143.040 144.040 163.899  1.00  0.00    -0.001 C 
ATOM     13  C   UNL     1     142.398 145.141 163.079  1.00  0.00    -0.029 C 
ATOM     14  C   UNL     1     140.875 145.091 162.923  1.00  0.00     0.012 C 
ATOM     15  C   UNL     1     143.050 146.525 163.174  1.00  0.00     0.012 C 
BRANCH  12  16
ATOM     16  C   UNL     1     144.442 143.937 164.493  1.00  0.00     0.005 CG0
ATOM     17  G   UNL     1     144.886 142.453 164.676  1.00  0.00     0.000 G0
ENDBRANCH  12  16
ENDBRANCH   1  11
TORSDOF 0
ENDMDL
MODEL 8
REMARK VINA RESULT:    -4.581      2.610      3.871
REMARK INTER + INTRA:          -5.169
REMARK INTER:                  -5.677
REMARK INTRA:                   0.508
REMARK UNBOUND:                 0.483
REMARK SMILES C=C1CC[C@H]2[C@H]1[C@@H]1[C@@H](CC[C@H]2C)C1(C)C
REMARK SMILES IDX 6 1 5 2 4 3 3 4 2 5 1 6 11 7 12 8 10 9 7 11 8 12 13 13 14 14
REMARK SMILES IDX 15 15 9 16
REMARK H PARENT
REMARK Flexibility Score: 80.00
ROOT
ATOM      1  C   UNL     1     145.086 142.349 163.248  1.00  0.00     0.022 C 
ATOM      2  C   UNL     1     144.488 142.648 164.643  1.00  0.00    -0.000 C 
ATOM      3  C   UNL     1     143.239 141.763 164.731  1.00  0.00     0.009 C 
ATOM      4  C   UNL     1     143.604 140.492 163.962  1.00  0.00     0.031 C 
ATOM      5  C   UNL     1     144.692 140.925 163.033  1.00  0.00    -0.074 C 
ATOM      6  C   UNL     1     145.184 140.143 162.066  1.00  0.00     0.008 C 
ENDROOT
BRANCH   2   7
ATOM      7  C   UNL     1     144.284 144.153 165.006  1.00  0.00    -0.011 C 
ATOM      8  C   UNL     1     143.434 144.945 163.991  1.00  0.00     0.008 C 
BRANCH   7   9
ATOM      9  C   UNL     1     145.598 144.923 165.417  1.00  0.00     0.004 CG0
ATOM     10  G   UNL     1     146.949 144.619 164.701  1.00  0.00     0.000 G0
ENDBRANCH   7   9
ENDBRANCH   2   7
BRANCH   1  11
ATOM     11  C   UNL     1     146.596 142.567 163.345  1.00  0.00     0.006 C 
ATOM     12  C   UNL     1     146.734 144.113 163.275  1.00  0.00    -0.001 C 
ATOM     13  C   UNL     1     147.604 143.226 162.407  1.00  0.00    -0.029 C 
ATOM     14  C   UNL     1     147.268 143.178 160.913  1.00  0.00     0.012 C 
ATOM     15  C   UNL     1     149.083 143.133 162.798  1.00  0.00     0.012 C 
BRANCH  12  16
ATOM     16  C   UNL     1     146.949 144.619 164.699  1.00  0.00     0.005 CG0
ATOM     17  G   UNL     1     145.598 144.944 165.408  1.00  0.00     0.000 G0
ENDBRANCH  12  16
ENDBRANCH   1  11
TORSDOF 0
ENDMDL
MODEL 9
REMARK VINA RESULT:    -4.527      3.967      5.573
REMARK INTER + INTRA:          -5.102
REMARK INTER:                  -5.583
REMARK INTRA:                   0.481
REMARK UNBOUND:                 0.483
REMARK SMILES C=C1CC[C@H]2[C@H]1[C@@H]1[C@@H](CC[C@H]2C)C1(C)C
REMARK SMILES IDX 6 1 5 2 4 3 3 4 2 5 1 6 11 7 12 8 10 9 7 11 8 12 13 13 14 14
REMARK SMILES IDX 15 15 9 16
REMARK H PARENT
REMARK Flexibility Score: 80.00
ROOT
ATOM      1  C   UNL     1     143.875 148.334 162.679  1.00  0.00     0.022 C 
ATOM      2  C   UNL     1     142.959 147.145 162.306  1.00  0.00    -0.000 C 
ATOM      3  C   UNL     1     142.232 147.595 161.033  1.00  0.00     0.009 C 
ATOM      4  C   UNL     1     143.254 148.449 160.280  1.00  0.00     0.031 C 
ATOM      5  C   UNL     1     144.193 148.920 161.343  1.00  0.00    -0.074 C 
ATOM      6  C   UNL     1     145.149 149.831 161.125  1.00  0.00     0.008 C 
ENDROOT
BRANCH   2   7
ATOM      7  C   UNL     1     142.052 146.580 163.445  1.00  0.00    -0.011 C 
ATOM      8  C   UNL     1     141.140 147.628 164.114  1.00  0.00     0.008 C 
BRANCH   7   9
ATOM      9  C   UNL     1     142.795 145.673 164.500  1.00  0.00     0.004 CG0
ATOM     10  G   UNL     1     144.242 146.023 164.963  1.00  0.00     0.000 G0
ENDBRANCH   7   9
ENDBRANCH   2   7
BRANCH   1  11
ATOM     11  C   UNL     1     145.090 147.760 163.410  1.00  0.00     0.006 C 
ATOM     12  C   UNL     1     144.552 147.512 164.845  1.00  0.00    -0.001 C 
ATOM     13  C   UNL     1     145.870 148.229 164.635  1.00  0.00    -0.029 C 
ATOM     14  C   UNL     1     145.885 149.739 164.890  1.00  0.00     0.012 C 
ATOM     15  C   UNL     1     147.135 147.442 164.996  1.00  0.00     0.012 C 
BRANCH  12  16
ATOM     16  C   UNL     1     144.245 146.022 164.970  1.00  0.00     0.005 CG0
ATOM     17  G   UNL     1     142.796 145.689 164.499  1.00  0.00     0.000 G0
ENDBRANCH  12  16
ENDBRANCH   1  11
TORSDOF 0
ENDMDL
