MODEL 1
REMARK VINA RESULT:     1.684      0.000      0.000
REMARK INTER + INTRA:           3.029
REMARK INTER:                   2.570
REMARK INTRA:                   0.459
REMARK UNBOUND:                 0.459
REMARK SMILES CC1=CCC[C@@H](C)C(=O)C[C@H](C(C)C)C(=O)C1
REMARK SMILES IDX 8 1 9 2 6 3 7 4 5 5 4 6 3 7 2 8 1 9 10 11 11 12 15 13 16 14
REMARK SMILES IDX 17 15 12 17 13 18 14 19
REMARK H PARENT
REMARK Flexibility Score: 70.00
ROOT
ATOM      1  C   UNL     1      25.557  26.517  26.951  1.00  0.00     0.136 C 
ATOM      2  O   UNL     1      25.616  27.504  27.672  1.00  0.00    -0.299 OA
ENDROOT
BRANCH   1   3
ATOM      3  C   UNL     1      24.484  25.475  27.204  1.00  0.00     0.053 C 
ATOM      4  C   UNL     1      23.322  26.089  27.999  1.00  0.00     0.016 C 
BRANCH   3   5
ATOM      5  C   UNL     1      25.078  24.256  27.947  1.00  0.00     0.015 C 
BRANCH   5   6
ATOM      6  C   UNL     1      24.660  22.929  27.285  1.00  0.00     0.028 C 
BRANCH   6   7
ATOM      7  C   UNL     1      24.896  22.903  25.794  1.00  0.00    -0.028 C 
ATOM      8  C   UNL     1      26.085  23.116  25.177  1.00  0.00    -0.070 CG0
ATOM      9  C   UNL     1      26.093  23.152  23.668  1.00  0.00     0.039 C 
ATOM     10  G   UNL     1      27.409  23.265  25.917  1.00  0.00     0.000 G0
ENDBRANCH   6   7
ENDBRANCH   5   6
ENDBRANCH   3   5
ENDBRANCH   1   3
BRANCH   1  11
ATOM     11  C   UNL     1      26.545  26.382  25.813  1.00  0.00     0.087 C 
BRANCH  11  12
ATOM     12  C   UNL     1      27.909  25.816  26.292  1.00  0.00     0.066 C 
BRANCH  12  13
ATOM     13  C   UNL     1      28.197  24.509  25.567  1.00  0.00     0.140 C 
ATOM     14  O   UNL     1      29.085  24.459  24.726  1.00  0.00    -0.299 OA
BRANCH  13  15
ATOM     15  C   UNL     1      27.421  23.263  25.916  1.00  0.00     0.106 CG0
ATOM     16  G   UNL     1      26.091  23.133  25.184  1.00  0.00     0.000 G0
ENDBRANCH  13  15
ENDBRANCH  12  13
BRANCH  12  17
ATOM     17  C   UNL     1      29.090  26.828  26.122  1.00  0.00    -0.006 C 
ATOM     18  C   UNL     1      29.125  27.467  24.721  1.00  0.00     0.008 C 
ATOM     19  C   UNL     1      29.009  27.954  27.172  1.00  0.00     0.008 C 
ENDBRANCH  12  17
ENDBRANCH  11  12
ENDBRANCH   1  11
TORSDOF 1
ENDMDL
MODEL 2
REMARK VINA RESULT:     2.768      2.016      4.041
REMARK INTER + INTRA:           4.683
REMARK INTER:                   3.899
REMARK INTRA:                   0.785
REMARK UNBOUND:                 0.459
REMARK SMILES CC1=CCC[C@@H](C)C(=O)C[C@H](C(C)C)C(=O)C1
REMARK SMILES IDX 8 1 9 2 6 3 7 4 5 5 4 6 3 7 2 8 1 9 10 11 11 12 15 13 16 14
REMARK SMILES IDX 17 15 12 17 13 18 14 19
REMARK H PARENT
REMARK Flexibility Score: 70.00
ROOT
ATOM      1  C   UNL     1      24.127  24.282  27.355  1.00  0.00     0.136 C 
ATOM      2  O   UNL     1      23.362  23.571  26.716  1.00  0.00    -0.299 OA
ENDROOT
BRANCH   1   3
ATOM      3  C   UNL     1      23.561  25.380  28.235  1.00  0.00     0.053 C 
ATOM      4  C   UNL     1      22.251  25.917  27.641  1.00  0.00     0.016 C 
BRANCH   3   5
ATOM      5  C   UNL     1      24.593  26.517  28.412  1.00  0.00     0.015 C 
BRANCH   5   6
ATOM      6  C   UNL     1      24.859  27.253  27.084  1.00  0.00     0.028 C 
BRANCH   6   7
ATOM      7  C   UNL     1      26.135  28.061  27.091  1.00  0.00    -0.028 C 
ATOM      8  C   UNL     1      27.269  27.754  26.413  1.00  0.00    -0.070 CG0
ATOM      9  C   UNL     1      28.475  28.634  26.634  1.00  0.00     0.039 C 
ATOM     10  G   UNL     1      27.373  26.612  25.410  1.00  0.00     0.000 G0
ENDBRANCH   6   7
ENDBRANCH   5   6
ENDBRANCH   3   5
ENDBRANCH   1   3
BRANCH   1  11
ATOM     11  C   UNL     1      25.614  24.023  27.261  1.00  0.00     0.087 C 
BRANCH  11  12
ATOM     12  C   UNL     1      26.172  24.340  25.848  1.00  0.00     0.066 C 
BRANCH  12  13
ATOM     13  C   UNL     1      27.400  25.231  25.976  1.00  0.00     0.140 C 
ATOM     14  O   UNL     1      28.406  24.808  26.532  1.00  0.00    -0.299 OA
BRANCH  13  15
ATOM     15  C   UNL     1      27.397  26.616  25.378  1.00  0.00     0.106 CG0
ATOM     16  G   UNL     1      27.281  27.735  26.405  1.00  0.00     0.000 G0
ENDBRANCH  13  15
ENDBRANCH  12  13
BRANCH  12  17
ATOM     17  C   UNL     1      26.489  23.059  25.008  1.00  0.00    -0.006 C 
ATOM     18  C   UNL     1      25.525  22.878  23.819  1.00  0.00     0.008 C 
ATOM     19  C   UNL     1      27.932  23.093  24.468  1.00  0.00     0.008 C 
ENDBRANCH  12  17
ENDBRANCH  11  12
ENDBRANCH   1  11
TORSDOF 1
ENDMDL
MODEL 3
REMARK VINA RESULT:     3.669      1.787      4.277
REMARK INTER + INTRA:           6.059
REMARK INTER:                   4.319
REMARK INTRA:                   1.739
REMARK UNBOUND:                 0.459
REMARK SMILES CC1=CCC[C@@H](C)C(=O)C[C@H](C(C)C)C(=O)C1
REMARK SMILES IDX 8 1 9 2 6 3 7 4 5 5 4 6 3 7 2 8 1 9 10 11 11 12 15 13 16 14
REMARK SMILES IDX 17 15 12 17 13 18 14 19
REMARK H PARENT
REMARK Flexibility Score: 70.00
ROOT
ATOM      1  C   UNL     1      26.876  27.519  26.368  1.00  0.00     0.136 C 
ATOM      2  O   UNL     1      26.807  28.534  25.688  1.00  0.00    -0.299 OA
ENDROOT
BRANCH   1   3
ATOM      3  C   UNL     1      27.789  26.390  25.929  1.00  0.00     0.053 C 
ATOM      4  C   UNL     1      29.108  26.955  25.381  1.00  0.00     0.016 C 
BRANCH   3   5
ATOM      5  C   UNL     1      27.087  25.506  24.873  1.00  0.00     0.015 C 
BRANCH   5   6
ATOM      6  C   UNL     1      27.116  24.017  25.271  1.00  0.00     0.028 C 
BRANCH   6   7
ATOM      7  C   UNL     1      25.743  23.425  25.478  1.00  0.00    -0.028 C 
ATOM      8  C   UNL     1      24.939  23.646  26.549  1.00  0.00    -0.070 CG0
ATOM      9  C   UNL     1      23.643  22.876  26.620  1.00  0.00     0.039 C 
ATOM     10  G   UNL     1      25.248  24.659  27.644  1.00  0.00     0.000 G0
ENDBRANCH   6   7
ENDBRANCH   5   6
ENDBRANCH   3   5
ENDBRANCH   1   3
BRANCH   1  11
ATOM     11  C   UNL     1      26.062  27.436  27.641  1.00  0.00     0.087 C 
BRANCH  11  12
ATOM     12  C   UNL     1      24.554  27.206  27.353  1.00  0.00     0.066 C 
BRANCH  12  13
ATOM     13  C   UNL     1      24.181  25.777  27.723  1.00  0.00     0.140 C 
ATOM     14  O   UNL     1      23.030  25.509  28.042  1.00  0.00    -0.299 OA
BRANCH  13  15
ATOM     15  C   UNL     1      25.216  24.681  27.651  1.00  0.00     0.106 CG0
ATOM     16  G   UNL     1      24.950  23.647  26.565  1.00  0.00     0.000 G0
ENDBRANCH  13  15
ENDBRANCH  12  13
BRANCH  12  17
ATOM     17  C   UNL     1      23.625  28.237  28.073  1.00  0.00    -0.006 C 
ATOM     18  C   UNL     1      22.226  27.665  28.371  1.00  0.00     0.008 C 
ATOM     19  C   UNL     1      24.251  28.717  29.397  1.00  0.00     0.008 C 
ENDBRANCH  12  17
ENDBRANCH  11  12
ENDBRANCH   1  11
TORSDOF 1
ENDMDL
