MODEL 1
REMARK VINA RESULT:    -5.936      0.000      0.000
REMARK INTER + INTRA:          -6.408
REMARK INTER:                  -6.283
REMARK INTRA:                  -0.124
REMARK UNBOUND:                -0.124
REMARK SMILES C=C(C)[C@H]1CC=C(C)CC1
REMARK SMILES IDX 8 1 7 2 6 3 5 4 4 5 10 6 9 7 2 8 1 9 3 10
REMARK H PARENT
REMARK Flexibility Score: inf
ROOT
ATOM      1  C   UNL     1      11.215  14.104  -6.035  1.00  0.00     0.039 C 
ATOM      2  C   UNL     1      11.036  15.240  -5.064  1.00  0.00    -0.077 C 
ATOM      3  C   UNL     1      10.077  15.148  -4.117  1.00  0.00    -0.027 C 
ATOM      4  C   UNL     1       9.783  16.254  -3.134  1.00  0.00     0.035 C 
ATOM      5  C   UNL     1      10.983  17.201  -2.949  1.00  0.00     0.018 C 
ATOM      6  C   UNL     1      11.532  17.622  -4.321  1.00  0.00     0.013 C 
ATOM      7  C   UNL     1      12.022  16.393  -5.096  1.00  0.00     0.031 C 
ENDROOT
BRANCH   5   8
ATOM      8  C   UNL     1      10.620  18.406  -2.092  1.00  0.00    -0.077 C 
ATOM      9  C   UNL     1      10.059  19.503  -2.630  1.00  0.00     0.008 C 
ATOM     10  C   UNL     1      10.890  18.388  -0.609  1.00  0.00     0.039 C 
ENDBRANCH   5   8
TORSDOF 1
ENDMDL
MODEL 2
REMARK VINA RESULT:    -5.740     11.477     13.865
REMARK INTER + INTRA:          -6.200
REMARK INTER:                  -6.070
REMARK INTRA:                  -0.130
REMARK UNBOUND:                -0.124
REMARK SMILES C=C(C)[C@H]1CC=C(C)CC1
REMARK SMILES IDX 8 1 7 2 6 3 5 4 4 5 10 6 9 7 2 8 1 9 3 10
REMARK H PARENT
REMARK Flexibility Score: inf
ROOT
ATOM      1  C   UNL     1      10.874  13.857   7.233  1.00  0.00     0.039 C 
ATOM      2  C   UNL     1      10.967  14.754   8.438  1.00  0.00    -0.077 C 
ATOM      3  C   UNL     1      10.666  14.250   9.654  1.00  0.00    -0.027 C 
ATOM      4  C   UNL     1      10.676  15.081  10.914  1.00  0.00     0.035 C 
ATOM      5  C   UNL     1      11.564  16.331  10.778  1.00  0.00     0.018 C 
ATOM      6  C   UNL     1      11.236  17.064   9.468  1.00  0.00     0.013 C 
ATOM      7  C   UNL     1      11.521  16.156   8.266  1.00  0.00     0.031 C 
ENDROOT
BRANCH   5   8
ATOM      8  C   UNL     1      11.431  17.247  11.987  1.00  0.00    -0.077 C 
ATOM      9  C   UNL     1      10.847  16.827  13.122  1.00  0.00     0.008 C 
ATOM     10  C   UNL     1      11.955  18.659  11.926  1.00  0.00     0.039 C 
ENDBRANCH   5   8
TORSDOF 1
ENDMDL
MODEL 3
REMARK VINA RESULT:    -5.711      1.148      4.391
REMARK INTER + INTRA:          -6.169
REMARK INTER:                  -6.045
REMARK INTRA:                  -0.124
REMARK UNBOUND:                -0.124
REMARK SMILES C=C(C)[C@H]1CC=C(C)CC1
REMARK SMILES IDX 8 1 7 2 6 3 5 4 4 5 10 6 9 7 2 8 1 9 3 10
REMARK H PARENT
REMARK Flexibility Score: inf
ROOT
ATOM      1  C   UNL     1      10.882  18.582  -0.425  1.00  0.00     0.039 C 
ATOM      2  C   UNL     1      10.849  17.670  -1.621  1.00  0.00    -0.077 C 
ATOM      3  C   UNL     1      10.853  16.333  -1.426  1.00  0.00    -0.027 C 
ATOM      4  C   UNL     1      10.877  15.337  -2.559  1.00  0.00     0.035 C 
ATOM      5  C   UNL     1      10.344  15.938  -3.872  1.00  0.00     0.018 C 
ATOM      6  C   UNL     1      11.012  17.298  -4.132  1.00  0.00     0.013 C 
ATOM      7  C   UNL     1      10.678  18.277  -3.001  1.00  0.00     0.031 C 
ENDROOT
BRANCH   5   8
ATOM      8  C   UNL     1      10.533  14.983  -5.043  1.00  0.00    -0.077 C 
ATOM      9  C   UNL     1      11.738  14.801  -5.610  1.00  0.00     0.008 C 
ATOM     10  C   UNL     1       9.355  14.221  -5.594  1.00  0.00     0.039 C 
ENDBRANCH   5   8
TORSDOF 1
ENDMDL
MODEL 4
REMARK VINA RESULT:    -5.681     13.588     15.237
REMARK INTER + INTRA:          -6.137
REMARK INTER:                  -6.013
REMARK INTRA:                  -0.124
REMARK UNBOUND:                -0.124
REMARK SMILES C=C(C)[C@H]1CC=C(C)CC1
REMARK SMILES IDX 8 1 7 2 6 3 5 4 4 5 10 6 9 7 2 8 1 9 3 10
REMARK H PARENT
REMARK Flexibility Score: inf
ROOT
ATOM      1  C   UNL     1      10.123  14.997  10.131  1.00  0.00     0.039 C 
ATOM      2  C   UNL     1      10.870  16.196  10.649  1.00  0.00    -0.077 C 
ATOM      3  C   UNL     1      11.422  17.056   9.766  1.00  0.00    -0.027 C 
ATOM      4  C   UNL     1      12.235  18.256  10.185  1.00  0.00     0.035 C 
ATOM      5  C   UNL     1      11.912  18.704  11.622  1.00  0.00     0.018 C 
ATOM      6  C   UNL     1      11.933  17.489  12.564  1.00  0.00     0.013 C 
ATOM      7  C   UNL     1      10.868  16.472  12.141  1.00  0.00     0.031 C 
ENDROOT
BRANCH   5   8
ATOM      8  C   UNL     1      12.858  19.800  12.093  1.00  0.00    -0.077 C 
ATOM      9  C   UNL     1      14.064  19.509  12.611  1.00  0.00     0.008 C 
ATOM     10  C   UNL     1      12.448  21.247  11.988  1.00  0.00     0.039 C 
ENDBRANCH   5   8
TORSDOF 1
ENDMDL
MODEL 5
REMARK VINA RESULT:    -5.549      1.059      4.669
REMARK INTER + INTRA:          -5.998
REMARK INTER:                  -5.875
REMARK INTRA:                  -0.123
REMARK UNBOUND:                -0.124
REMARK SMILES C=C(C)[C@H]1CC=C(C)CC1
REMARK SMILES IDX 8 1 7 2 6 3 5 4 4 5 10 6 9 7 2 8 1 9 3 10
REMARK H PARENT
REMARK Flexibility Score: inf
ROOT
ATOM      1  C   UNL     1      10.139  19.419  -2.571  1.00  0.00     0.039 C 
ATOM      2  C   UNL     1      10.407  18.135  -3.309  1.00  0.00    -0.077 C 
ATOM      3  C   UNL     1      11.297  18.136  -4.324  1.00  0.00    -0.027 C 
ATOM      4  C   UNL     1      11.594  16.915  -5.159  1.00  0.00     0.035 C 
ATOM      5  C   UNL     1      11.241  15.609  -4.425  1.00  0.00     0.018 C 
ATOM      6  C   UNL     1       9.829  15.712  -3.827  1.00  0.00     0.013 C 
ATOM      7  C   UNL     1       9.768  16.854  -2.805  1.00  0.00     0.031 C 
ENDROOT
BRANCH   5   8
ATOM      8  C   UNL     1      11.381  14.398  -5.337  1.00  0.00    -0.077 C 
ATOM      9  C   UNL     1      12.587  13.899  -5.656  1.00  0.00     0.008 C 
ATOM     10  C   UNL     1      10.153  13.735  -5.905  1.00  0.00     0.039 C 
ENDBRANCH   5   8
TORSDOF 1
ENDMDL
MODEL 6
REMARK VINA RESULT:    -5.534     11.105     13.652
REMARK INTER + INTRA:          -5.981
REMARK INTER:                  -5.853
REMARK INTRA:                  -0.128
REMARK UNBOUND:                -0.124
REMARK SMILES C=C(C)[C@H]1CC=C(C)CC1
REMARK SMILES IDX 8 1 7 2 6 3 5 4 4 5 10 6 9 7 2 8 1 9 3 10
REMARK H PARENT
REMARK Flexibility Score: inf
ROOT
ATOM      1  C   UNL     1      12.657  19.465   6.765  1.00  0.00     0.039 C 
ATOM      2  C   UNL     1      12.200  18.684   7.967  1.00  0.00    -0.077 C 
ATOM      3  C   UNL     1      11.387  17.621   7.787  1.00  0.00    -0.027 C 
ATOM      4  C   UNL     1      10.831  16.808   8.931  1.00  0.00     0.035 C 
ATOM      5  C   UNL     1      11.686  16.937  10.204  1.00  0.00     0.018 C 
ATOM      6  C   UNL     1      11.980  18.418  10.487  1.00  0.00     0.013 C 
ATOM      7  C   UNL     1      12.773  19.033   9.328  1.00  0.00     0.031 C 
ENDROOT
BRANCH   5   8
ATOM      8  C   UNL     1      11.025  16.254  11.395  1.00  0.00    -0.077 C 
ATOM      9  C   UNL     1      10.409  15.066  11.266  1.00  0.00     0.008 C 
ATOM     10  C   UNL     1      11.049  16.912  12.751  1.00  0.00     0.039 C 
ENDBRANCH   5   8
TORSDOF 1
ENDMDL
MODEL 7
REMARK VINA RESULT:    -5.526      8.717     10.119
REMARK INTER + INTRA:          -5.973
REMARK INTER:                  -5.845
REMARK INTRA:                  -0.128
REMARK UNBOUND:                -0.124
REMARK SMILES C=C(C)[C@H]1CC=C(C)CC1
REMARK SMILES IDX 8 1 7 2 6 3 5 4 4 5 10 6 9 7 2 8 1 9 3 10
REMARK H PARENT
REMARK Flexibility Score: inf
ROOT
ATOM      1  C   UNL     1      10.906  13.438   1.468  1.00  0.00     0.039 C 
ATOM      2  C   UNL     1      10.878  12.843   2.850  1.00  0.00    -0.077 C 
ATOM      3  C   UNL     1      10.426  13.593   3.878  1.00  0.00    -0.027 C 
ATOM      4  C   UNL     1      10.409  13.107   5.306  1.00  0.00     0.035 C 
ATOM      5  C   UNL     1      10.414  11.571   5.397  1.00  0.00     0.018 C 
ATOM      6  C   UNL     1      11.508  10.998   4.483  1.00  0.00     0.013 C 
ATOM      7  C   UNL     1      11.234  11.378   3.024  1.00  0.00     0.031 C 
ENDROOT
BRANCH   5   8
ATOM      8  C   UNL     1      10.571  11.095   6.835  1.00  0.00    -0.077 C 
ATOM      9  C   UNL     1      10.442   9.797   7.160  1.00  0.00     0.008 C 
ATOM     10  C   UNL     1      10.875  12.086   7.929  1.00  0.00     0.039 C 
ENDBRANCH   5   8
TORSDOF 1
ENDMDL
MODEL 8
REMARK VINA RESULT:    -5.525     12.322     14.447
REMARK INTER + INTRA:          -5.972
REMARK INTER:                  -5.846
REMARK INTRA:                  -0.126
REMARK UNBOUND:                -0.124
REMARK SMILES C=C(C)[C@H]1CC=C(C)CC1
REMARK SMILES IDX 8 1 7 2 6 3 5 4 4 5 10 6 9 7 2 8 1 9 3 10
REMARK H PARENT
REMARK Flexibility Score: inf
ROOT
ATOM      1  C   UNL     1      11.629  17.756  12.342  1.00  0.00     0.039 C 
ATOM      2  C   UNL     1      11.580  16.629  11.346  1.00  0.00    -0.077 C 
ATOM      3  C   UNL     1      12.621  16.453  10.504  1.00  0.00    -0.027 C 
ATOM      4  C   UNL     1      12.643  15.388   9.435  1.00  0.00     0.035 C 
ATOM      5  C   UNL     1      11.684  14.227   9.753  1.00  0.00     0.018 C 
ATOM      6  C   UNL     1      10.306  14.781  10.149  1.00  0.00     0.013 C 
ATOM      7  C   UNL     1      10.425  15.647  11.408  1.00  0.00     0.031 C 
ENDROOT
BRANCH   5   8
ATOM      8  C   UNL     1      11.586  13.247   8.591  1.00  0.00    -0.077 C 
ATOM      9  C   UNL     1      10.443  13.096   7.899  1.00  0.00     0.008 C 
ATOM     10  C   UNL     1      12.782  12.419   8.198  1.00  0.00     0.039 C 
ENDBRANCH   5   8
TORSDOF 1
ENDMDL
MODEL 9
REMARK VINA RESULT:    -5.516     10.894     13.887
REMARK INTER + INTRA:          -5.963
REMARK INTER:                  -5.833
REMARK INTRA:                  -0.130
REMARK UNBOUND:                -0.124
REMARK SMILES C=C(C)[C@H]1CC=C(C)CC1
REMARK SMILES IDX 8 1 7 2 6 3 5 4 4 5 10 6 9 7 2 8 1 9 3 10
REMARK H PARENT
REMARK Flexibility Score: inf
ROOT
ATOM      1  C   UNL     1      11.532  18.281   6.365  1.00  0.00     0.039 C 
ATOM      2  C   UNL     1      11.643  17.999   7.839  1.00  0.00    -0.077 C 
ATOM      3  C   UNL     1      12.331  18.861   8.620  1.00  0.00    -0.027 C 
ATOM      4  C   UNL     1      12.546  18.639  10.097  1.00  0.00     0.035 C 
ATOM      5  C   UNL     1      11.487  17.701  10.704  1.00  0.00     0.018 C 
ATOM      6  C   UNL     1      11.340  16.446   9.830  1.00  0.00     0.013 C 
ATOM      7  C   UNL     1      10.871  16.831   8.422  1.00  0.00     0.031 C 
ENDROOT
BRANCH   5   8
ATOM      8  C   UNL     1      11.813  17.348  12.149  1.00  0.00    -0.077 C 
ATOM      9  C   UNL     1      12.974  17.720  12.715  1.00  0.00     0.008 C 
ATOM     10  C   UNL     1      10.827  16.564  12.976  1.00  0.00     0.039 C 
ENDBRANCH   5   8
TORSDOF 1
ENDMDL
