MODEL 1
REMARK VINA RESULT:    -5.756      0.000      0.000
REMARK INTER + INTRA:          -6.846
REMARK INTER:                  -6.766
REMARK INTRA:                  -0.080
REMARK UNBOUND:                -0.080
REMARK SMILES O=c1c(O)c(-c2ccc(O)cc2)oc2cc(O)cc(O)c12
REMARK SMILES IDX 5 1 3 2 2 3 1 4 21 5 19 6 18 7 16 8 15 9 14 10 13 11 6 12
REMARK SMILES IDX 7 13 8 14 9 15 12 16 11 17 10 18 4 20 20 22 17 24
REMARK H PARENT 10 19 4 21 20 23 17 25
REMARK Flexibility Score: inf
ROOT
ATOM      1  C   UNL     1     -32.987 -54.770  67.194  1.00  0.00     0.180 A 
ATOM      2  C   UNL     1     -33.322 -54.137  65.985  1.00  0.00     0.208 A 
ATOM      3  C   UNL     1     -33.180 -52.744  65.883  1.00  0.00     0.238 A 
ATOM      4  O   UNL     1     -33.532 -52.177  64.815  1.00  0.00    -0.285 OA
ATOM      5  C   UNL     1     -32.688 -52.003  66.985  1.00  0.00     0.111 A 
ATOM      6  C   UNL     1     -32.466 -50.593  66.979  1.00  0.00     0.134 A 
ATOM      7  C   UNL     1     -32.102 -49.947  68.166  1.00  0.00     0.093 A 
ATOM      8  C   UNL     1     -31.889 -50.665  69.342  1.00  0.00     0.123 A 
ATOM      9  C   UNL     1     -32.046 -52.052  69.344  1.00  0.00     0.094 A 
ATOM     10  C   UNL     1     -32.444 -52.720  68.184  1.00  0.00     0.146 A 
ATOM     11  O   UNL     1     -32.593 -54.039  68.231  1.00  0.00    -0.452 OA
ENDROOT
BRANCH   1  12
ATOM     12  C   UNL     1     -33.087 -56.236  67.371  1.00  0.00     0.021 A 
ATOM     13  C   UNL     1     -33.958 -56.802  68.321  1.00  0.00     0.016 A 
ATOM     14  C   UNL     1     -34.052 -58.191  68.453  1.00  0.00     0.047 A 
ATOM     15  C   UNL     1     -33.292 -59.030  67.633  1.00  0.00     0.115 A 
ATOM     16  C   UNL     1     -32.341 -57.086  66.537  1.00  0.00     0.016 A 
ATOM     17  C   UNL     1     -32.438 -58.475  66.672  1.00  0.00     0.047 A 
BRANCH  15  18
ATOM     18  O   UNL     1     -33.396 -60.412  67.778  1.00  0.00    -0.508 OA
ATOM     19  H   UNL     1     -32.785 -61.044  67.274  1.00  0.00     0.293 HD
ENDBRANCH  15  18
ENDBRANCH   1  12
BRANCH   2  20
ATOM     20  O   UNL     1     -33.826 -54.884  64.917  1.00  0.00    -0.502 OA
ATOM     21  H   UNL     1     -34.104 -54.461  64.040  1.00  0.00     0.293 HD
ENDBRANCH   2  20
BRANCH   6  22
ATOM     22  O   UNL     1     -32.561 -49.792  65.836  1.00  0.00    -0.507 OA
ATOM     23  H   UNL     1     -32.657 -50.144  64.896  1.00  0.00     0.293 HD
ENDBRANCH   6  22
BRANCH   8  24
ATOM     24  O   UNL     1     -31.513 -49.991  70.501  1.00  0.00    -0.508 OA
ATOM     25  H   UNL     1     -31.705 -50.370  71.422  1.00  0.00     0.293 HD
ENDBRANCH   8  24
TORSDOF 5
ENDMDL
MODEL 2
REMARK VINA RESULT:    -5.420     17.901     20.184
REMARK INTER + INTRA:          -6.451
REMARK INTER:                  -6.172
REMARK INTRA:                  -0.279
REMARK UNBOUND:                -0.080
REMARK SMILES O=c1c(O)c(-c2ccc(O)cc2)oc2cc(O)cc(O)c12
REMARK SMILES IDX 5 1 3 2 2 3 1 4 21 5 19 6 18 7 16 8 15 9 14 10 13 11 6 12
REMARK SMILES IDX 7 13 8 14 9 15 12 16 11 17 10 18 4 20 20 22 17 24
REMARK H PARENT 10 19 4 21 20 23 17 25
REMARK Flexibility Score: inf
ROOT
ATOM      1  C   UNL     1     -22.100 -67.427  57.178  1.00  0.00     0.180 A 
ATOM      2  C   UNL     1     -21.620 -67.697  55.885  1.00  0.00     0.208 A 
ATOM      3  C   UNL     1     -22.434 -67.401  54.780  1.00  0.00     0.238 A 
ATOM      4  O   UNL     1     -22.020 -67.695  53.628  1.00  0.00    -0.285 OA
ATOM      5  C   UNL     1     -23.712 -66.824  54.981  1.00  0.00     0.111 A 
ATOM      6  C   UNL     1     -24.604 -66.447  53.933  1.00  0.00     0.134 A 
ATOM      7  C   UNL     1     -25.895 -66.007  54.250  1.00  0.00     0.093 A 
ATOM      8  C   UNL     1     -26.303 -65.868  55.576  1.00  0.00     0.123 A 
ATOM      9  C   UNL     1     -25.418 -66.178  56.609  1.00  0.00     0.094 A 
ATOM     10  C   UNL     1     -24.136 -66.655  56.324  1.00  0.00     0.146 A 
ATOM     11  O   UNL     1     -23.329 -66.949  57.336  1.00  0.00    -0.452 OA
ENDROOT
BRANCH   1  12
ATOM     12  C   UNL     1     -21.292 -67.688  58.391  1.00  0.00     0.021 A 
ATOM     13  C   UNL     1     -21.417 -68.891  59.110  1.00  0.00     0.016 A 
ATOM     14  C   UNL     1     -20.625 -69.125  60.238  1.00  0.00     0.047 A 
ATOM     15  C   UNL     1     -19.691 -68.171  60.654  1.00  0.00     0.115 A 
ATOM     16  C   UNL     1     -20.337 -66.743  58.802  1.00  0.00     0.016 A 
ATOM     17  C   UNL     1     -19.547 -66.980  59.932  1.00  0.00     0.047 A 
BRANCH  15  18
ATOM     18  O   UNL     1     -18.911 -68.418  61.781  1.00  0.00    -0.508 OA
ATOM     19  H   UNL     1     -18.441 -69.306  61.916  1.00  0.00     0.293 HD
ENDBRANCH  15  18
ENDBRANCH   1  12
BRANCH   2  20
ATOM     20  O   UNL     1     -20.365 -68.287  55.711  1.00  0.00    -0.502 OA
ATOM     21  H   UNL     1     -20.070 -69.103  56.235  1.00  0.00     0.293 HD
ENDBRANCH   2  20
BRANCH   6  22
ATOM     22  O   UNL     1     -24.264 -66.460  52.577  1.00  0.00    -0.507 OA
ATOM     23  H   UNL     1     -24.851 -66.823  51.841  1.00  0.00     0.293 HD
ENDBRANCH   6  22
BRANCH   8  24
ATOM     24  O   UNL     1     -27.590 -65.413  55.855  1.00  0.00    -0.508 OA
ATOM     25  H   UNL     1     -27.759 -64.471  56.189  1.00  0.00     0.293 HD
ENDBRANCH   8  24
TORSDOF 5
ENDMDL
MODEL 3
REMARK VINA RESULT:    -5.356     17.107     18.669
REMARK INTER + INTRA:          -6.375
REMARK INTER:                  -6.089
REMARK INTRA:                  -0.287
REMARK UNBOUND:                -0.080
REMARK SMILES O=c1c(O)c(-c2ccc(O)cc2)oc2cc(O)cc(O)c12
REMARK SMILES IDX 5 1 3 2 2 3 1 4 21 5 19 6 18 7 16 8 15 9 14 10 13 11 6 12
REMARK SMILES IDX 7 13 8 14 9 15 12 16 11 17 10 18 4 20 20 22 17 24
REMARK H PARENT 10 19 4 21 20 23 17 25
REMARK Flexibility Score: inf
ROOT
ATOM      1  C   UNL     1     -25.622 -67.238  56.820  1.00  0.00     0.180 A 
ATOM      2  C   UNL     1     -25.968 -66.349  55.787  1.00  0.00     0.208 A 
ATOM      3  C   UNL     1     -27.325 -66.080  55.547  1.00  0.00     0.238 A 
ATOM      4  O   UNL     1     -27.631 -65.326  54.586  1.00  0.00    -0.285 OA
ATOM      5  C   UNL     1     -28.318 -66.689  56.352  1.00  0.00     0.111 A 
ATOM      6  C   UNL     1     -29.721 -66.458  56.223  1.00  0.00     0.134 A 
ATOM      7  C   UNL     1     -30.618 -67.214  56.985  1.00  0.00     0.093 A 
ATOM      8  C   UNL     1     -30.165 -68.146  57.918  1.00  0.00     0.123 A 
ATOM      9  C   UNL     1     -28.793 -68.338  58.094  1.00  0.00     0.094 A 
ATOM     10  C   UNL     1     -27.874 -67.624  57.322  1.00  0.00     0.146 A 
ATOM     11  O   UNL     1     -26.579 -67.844  57.513  1.00  0.00    -0.452 OA
ENDROOT
BRANCH   1  12
ATOM     12  C   UNL     1     -24.214 -67.553  57.150  1.00  0.00     0.021 A 
ATOM     13  C   UNL     1     -23.447 -66.705  57.972  1.00  0.00     0.016 A 
ATOM     14  C   UNL     1     -22.126 -67.036  58.289  1.00  0.00     0.047 A 
ATOM     15  C   UNL     1     -21.559 -68.218  57.804  1.00  0.00     0.115 A 
ATOM     16  C   UNL     1     -23.645 -68.749  56.683  1.00  0.00     0.016 A 
ATOM     17  C   UNL     1     -22.322 -69.076  57.003  1.00  0.00     0.047 A 
BRANCH  15  18
ATOM     18  O   UNL     1     -20.241 -68.533  58.128  1.00  0.00    -0.508 OA
ATOM     19  H   UNL     1     -19.462 -68.153  57.604  1.00  0.00     0.293 HD
ENDBRANCH  15  18
ENDBRANCH   1  12
BRANCH   2  20
ATOM     20  O   UNL     1     -24.973 -65.776  54.991  1.00  0.00    -0.502 OA
ATOM     21  H   UNL     1     -24.457 -66.307  54.300  1.00  0.00     0.293 HD
ENDBRANCH   2  20
BRANCH   6  22
ATOM     22  O   UNL     1     -30.277 -65.485  55.386  1.00  0.00    -0.507 OA
ATOM     23  H   UNL     1     -29.745 -64.822  54.844  1.00  0.00     0.293 HD
ENDBRANCH   6  22
BRANCH   8  24
ATOM     24  O   UNL     1     -31.086 -68.870  58.671  1.00  0.00    -0.508 OA
ATOM     25  H   UNL     1     -32.082 -68.691  58.606  1.00  0.00     0.293 HD
ENDBRANCH   8  24
TORSDOF 5
ENDMDL
MODEL 4
REMARK VINA RESULT:    -5.322     17.079     19.326
REMARK INTER + INTRA:          -6.336
REMARK INTER:                  -6.042
REMARK INTRA:                  -0.294
REMARK UNBOUND:                -0.080
REMARK SMILES O=c1c(O)c(-c2ccc(O)cc2)oc2cc(O)cc(O)c12
REMARK SMILES IDX 5 1 3 2 2 3 1 4 21 5 19 6 18 7 16 8 15 9 14 10 13 11 6 12
REMARK SMILES IDX 7 13 8 14 9 15 12 16 11 17 10 18 4 20 20 22 17 24
REMARK H PARENT 10 19 4 21 20 23 17 25
REMARK Flexibility Score: inf
ROOT
ATOM      1  C   UNL     1     -21.277 -64.326  57.712  1.00  0.00     0.180 A 
ATOM      2  C   UNL     1     -20.665 -65.553  58.024  1.00  0.00     0.208 A 
ATOM      3  C   UNL     1     -21.431 -66.729  57.968  1.00  0.00     0.238 A 
ATOM      4  O   UNL     1     -20.892 -67.817  58.300  1.00  0.00    -0.285 OA
ATOM      5  C   UNL     1     -22.792 -66.666  57.584  1.00  0.00     0.111 A 
ATOM      6  C   UNL     1     -23.651 -67.799  57.455  1.00  0.00     0.134 A 
ATOM      7  C   UNL     1     -25.014 -67.606  57.197  1.00  0.00     0.093 A 
ATOM      8  C   UNL     1     -25.536 -66.329  56.999  1.00  0.00     0.123 A 
ATOM      9  C   UNL     1     -24.694 -65.218  57.065  1.00  0.00     0.094 A 
ATOM     10  C   UNL     1     -23.337 -65.376  57.357  1.00  0.00     0.146 A 
ATOM     11  O   UNL     1     -22.572 -64.292  57.421  1.00  0.00    -0.452 OA
ENDROOT
BRANCH   1  12
ATOM     12  C   UNL     1     -20.530 -63.047  57.725  1.00  0.00     0.021 A 
ATOM     13  C   UNL     1     -19.785 -62.623  56.609  1.00  0.00     0.016 A 
ATOM     14  C   UNL     1     -19.107 -61.401  56.636  1.00  0.00     0.047 A 
ATOM     15  C   UNL     1     -19.175 -60.581  57.767  1.00  0.00     0.115 A 
ATOM     16  C   UNL     1     -20.611 -62.210  58.850  1.00  0.00     0.016 A 
ATOM     17  C   UNL     1     -19.932 -60.988  58.874  1.00  0.00     0.047 A 
BRANCH  15  18
ATOM     18  O   UNL     1     -18.494 -59.366  57.779  1.00  0.00    -0.508 OA
ATOM     19  H   UNL     1     -18.987 -58.484  57.849  1.00  0.00     0.293 HD
ENDBRANCH  15  18
ENDBRANCH   1  12
BRANCH   2  20
ATOM     20  O   UNL     1     -19.326 -65.589  58.421  1.00  0.00    -0.502 OA
ATOM     21  H   UNL     1     -18.702 -66.343  58.160  1.00  0.00     0.293 HD
ENDBRANCH   2  20
BRANCH   6  22
ATOM     22  O   UNL     1     -23.213 -69.123  57.543  1.00  0.00    -0.507 OA
ATOM     23  H   UNL     1     -22.296 -69.444  57.273  1.00  0.00     0.293 HD
ENDBRANCH   6  22
BRANCH   8  24
ATOM     24  O   UNL     1     -26.894 -66.176  56.730  1.00  0.00    -0.508 OA
ATOM     25  H   UNL     1     -27.581 -66.132  57.474  1.00  0.00     0.293 HD
ENDBRANCH   8  24
TORSDOF 5
ENDMDL
MODEL 5
REMARK VINA RESULT:    -5.297     18.518     20.169
REMARK INTER + INTRA:          -6.306
REMARK INTER:                  -6.123
REMARK INTRA:                  -0.183
REMARK UNBOUND:                -0.080
REMARK SMILES O=c1c(O)c(-c2ccc(O)cc2)oc2cc(O)cc(O)c12
REMARK SMILES IDX 5 1 3 2 2 3 1 4 21 5 19 6 18 7 16 8 15 9 14 10 13 11 6 12
REMARK SMILES IDX 7 13 8 14 9 15 12 16 11 17 10 18 4 20 20 22 17 24
REMARK H PARENT 10 19 4 21 20 23 17 25
REMARK Flexibility Score: inf
ROOT
ATOM      1  C   UNL     1     -22.550 -67.104  57.248  1.00  0.00     0.180 A 
ATOM      2  C   UNL     1     -23.923 -66.924  57.494  1.00  0.00     0.208 A 
ATOM      3  C   UNL     1     -24.765 -66.574  56.426  1.00  0.00     0.238 A 
ATOM      4  O   UNL     1     -25.983 -66.361  56.663  1.00  0.00    -0.285 OA
ATOM      5  C   UNL     1     -24.229 -66.425  55.124  1.00  0.00     0.111 A 
ATOM      6  C   UNL     1     -24.996 -66.112  53.962  1.00  0.00     0.134 A 
ATOM      7  C   UNL     1     -24.342 -65.859  52.750  1.00  0.00     0.093 A 
ATOM      8  C   UNL     1     -22.957 -65.972  52.641  1.00  0.00     0.123 A 
ATOM      9  C   UNL     1     -22.202 -66.336  53.758  1.00  0.00     0.094 A 
ATOM     10  C   UNL     1     -22.823 -66.558  54.990  1.00  0.00     0.146 A 
ATOM     11  O   UNL     1     -22.067 -66.892  56.029  1.00  0.00    -0.452 OA
ENDROOT
BRANCH   1  12
ATOM     12  C   UNL     1     -21.603 -67.498  58.316  1.00  0.00     0.021 A 
ATOM     13  C   UNL     1     -21.670 -68.765  58.923  1.00  0.00     0.016 A 
ATOM     14  C   UNL     1     -20.749 -69.123  59.913  1.00  0.00     0.047 A 
ATOM     15  C   UNL     1     -19.746 -68.229  60.299  1.00  0.00     0.115 A 
ATOM     16  C   UNL     1     -20.580 -66.612  58.694  1.00  0.00     0.016 A 
ATOM     17  C   UNL     1     -19.662 -66.973  59.685  1.00  0.00     0.047 A 
BRANCH  15  18
ATOM     18  O   UNL     1     -18.837 -68.599  61.287  1.00  0.00    -0.508 OA
ATOM     19  H   UNL     1     -19.081 -69.270  62.007  1.00  0.00     0.293 HD
ENDBRANCH  15  18
ENDBRANCH   1  12
BRANCH   2  20
ATOM     20  O   UNL     1     -24.427 -67.055  58.790  1.00  0.00    -0.502 OA
ATOM     21  H   UNL     1     -25.421 -67.081  58.987  1.00  0.00     0.293 HD
ENDBRANCH   2  20
BRANCH   6  22
ATOM     22  O   UNL     1     -26.394 -66.064  53.940  1.00  0.00    -0.507 OA
ATOM     23  H   UNL     1     -26.949 -65.870  53.120  1.00  0.00     0.293 HD
ENDBRANCH   6  22
BRANCH   8  24
ATOM     24  O   UNL     1     -22.341 -65.729  51.416  1.00  0.00    -0.508 OA
ATOM     25  H   UNL     1     -22.710 -65.046  50.763  1.00  0.00     0.293 HD
ENDBRANCH   8  24
TORSDOF 5
ENDMDL
MODEL 6
REMARK VINA RESULT:    -5.275     12.224     14.825
REMARK INTER + INTRA:          -6.280
REMARK INTER:                  -5.986
REMARK INTRA:                  -0.294
REMARK UNBOUND:                -0.080
REMARK SMILES O=c1c(O)c(-c2ccc(O)cc2)oc2cc(O)cc(O)c12
REMARK SMILES IDX 5 1 3 2 2 3 1 4 21 5 19 6 18 7 16 8 15 9 14 10 13 11 6 12
REMARK SMILES IDX 7 13 8 14 9 15 12 16 11 17 10 18 4 20 20 22 17 24
REMARK H PARENT 10 19 4 21 20 23 17 25
REMARK Flexibility Score: inf
ROOT
ATOM      1  C   UNL     1     -27.142 -55.590  55.305  1.00  0.00     0.180 A 
ATOM      2  C   UNL     1     -26.264 -56.638  54.976  1.00  0.00     0.208 A 
ATOM      3  C   UNL     1     -26.736 -57.959  55.017  1.00  0.00     0.238 A 
ATOM      4  O   UNL     1     -25.932 -58.896  54.773  1.00  0.00    -0.285 OA
ATOM      5  C   UNL     1     -28.084 -58.216  55.369  1.00  0.00     0.111 A 
ATOM      6  C   UNL     1     -28.680 -59.513  55.403  1.00  0.00     0.134 A 
ATOM      7  C   UNL     1     -29.983 -59.661  55.893  1.00  0.00     0.093 A 
ATOM      8  C   UNL     1     -30.735 -58.555  56.287  1.00  0.00     0.123 A 
ATOM      9  C   UNL     1     -30.182 -57.276  56.202  1.00  0.00     0.094 A 
ATOM     10  C   UNL     1     -28.871 -57.100  55.752  1.00  0.00     0.146 A 
ATOM     11  O   UNL     1     -28.380 -55.868  55.696  1.00  0.00    -0.452 OA
ENDROOT
BRANCH   1  12
ATOM     12  C   UNL     1     -26.725 -54.170  55.262  1.00  0.00     0.021 A 
ATOM     13  C   UNL     1     -26.762 -53.432  54.064  1.00  0.00     0.016 A 
ATOM     14  C   UNL     1     -26.386 -52.085  54.053  1.00  0.00     0.047 A 
ATOM     15  C   UNL     1     -25.984 -51.455  55.235  1.00  0.00     0.115 A 
ATOM     16  C   UNL     1     -26.340 -53.526  56.450  1.00  0.00     0.016 A 
ATOM     17  C   UNL     1     -25.964 -52.178  56.434  1.00  0.00     0.047 A 
BRANCH  15  18
ATOM     18  O   UNL     1     -25.611 -50.113  55.208  1.00  0.00    -0.508 OA
ATOM     19  H   UNL     1     -24.687 -49.815  55.496  1.00  0.00     0.293 HD
ENDBRANCH  15  18
ENDBRANCH   1  12
BRANCH   2  20
ATOM     20  O   UNL     1     -24.933 -56.363  54.653  1.00  0.00    -0.502 OA
ATOM     21  H   UNL     1     -24.580 -55.419  54.558  1.00  0.00     0.293 HD
ENDBRANCH   2  20
BRANCH   6  22
ATOM     22  O   UNL     1     -28.048 -60.674  54.946  1.00  0.00    -0.507 OA
ATOM     23  H   UNL     1     -28.507 -61.416  54.440  1.00  0.00     0.293 HD
ENDBRANCH   6  22
BRANCH   8  24
ATOM     24  O   UNL     1     -32.033 -58.738  56.755  1.00  0.00    -0.508 OA
ATOM     25  H   UNL     1     -32.671 -57.959  56.869  1.00  0.00     0.293 HD
ENDBRANCH   8  24
TORSDOF 5
ENDMDL
MODEL 7
REMARK VINA RESULT:    -5.239     17.869     19.914
REMARK INTER + INTRA:          -6.238
REMARK INTER:                  -5.971
REMARK INTRA:                  -0.268
REMARK UNBOUND:                -0.080
REMARK SMILES O=c1c(O)c(-c2ccc(O)cc2)oc2cc(O)cc(O)c12
REMARK SMILES IDX 5 1 3 2 2 3 1 4 21 5 19 6 18 7 16 8 15 9 14 10 13 11 6 12
REMARK SMILES IDX 7 13 8 14 9 15 12 16 11 17 10 18 4 20 20 22 17 24
REMARK H PARENT 10 19 4 21 20 23 17 25
REMARK Flexibility Score: inf
ROOT
ATOM      1  C   UNL     1     -20.515 -64.136  57.604  1.00  0.00     0.180 A 
ATOM      2  C   UNL     1     -21.725 -64.539  57.012  1.00  0.00     0.208 A 
ATOM      3  C   UNL     1     -22.234 -65.815  57.304  1.00  0.00     0.238 A 
ATOM      4  O   UNL     1     -23.290 -66.190  56.729  1.00  0.00    -0.285 OA
ATOM      5  C   UNL     1     -21.537 -66.665  58.196  1.00  0.00     0.111 A 
ATOM      6  C   UNL     1     -21.982 -67.962  58.593  1.00  0.00     0.134 A 
ATOM      7  C   UNL     1     -21.147 -68.768  59.377  1.00  0.00     0.093 A 
ATOM      8  C   UNL     1     -19.915 -68.301  59.832  1.00  0.00     0.123 A 
ATOM      9  C   UNL     1     -19.497 -67.012  59.498  1.00  0.00     0.094 A 
ATOM     10  C   UNL     1     -20.291 -66.198  58.687  1.00  0.00     0.146 A 
ATOM     11  O   UNL     1     -19.851 -64.982  58.384  1.00  0.00    -0.452 OA
ENDROOT
BRANCH   1  12
ATOM     12  C   UNL     1     -19.927 -62.799  57.366  1.00  0.00     0.021 A 
ATOM     13  C   UNL     1     -20.084 -61.754  58.295  1.00  0.00     0.016 A 
ATOM     14  C   UNL     1     -19.499 -60.506  58.059  1.00  0.00     0.047 A 
ATOM     15  C   UNL     1     -18.742 -60.289  56.904  1.00  0.00     0.115 A 
ATOM     16  C   UNL     1     -19.149 -62.580  56.217  1.00  0.00     0.016 A 
ATOM     17  C   UNL     1     -18.566 -61.330  55.984  1.00  0.00     0.047 A 
BRANCH  15  18
ATOM     18  O   UNL     1     -18.167 -59.039  56.682  1.00  0.00    -0.508 OA
ATOM     19  H   UNL     1     -17.269 -58.792  57.080  1.00  0.00     0.293 HD
ENDBRANCH  15  18
ENDBRANCH   1  12
BRANCH   2  20
ATOM     20  O   UNL     1     -22.385 -63.692  56.118  1.00  0.00    -0.502 OA
ATOM     21  H   UNL     1     -21.924 -63.287  55.312  1.00  0.00     0.293 HD
ENDBRANCH   2  20
BRANCH   6  22
ATOM     22  O   UNL     1     -23.235 -68.490  58.270  1.00  0.00    -0.507 OA
ATOM     23  H   UNL     1     -24.072 -68.361  58.819  1.00  0.00     0.293 HD
ENDBRANCH   6  22
BRANCH   8  24
ATOM     24  O   UNL     1     -19.117 -69.124  60.623  1.00  0.00    -0.508 OA
ATOM     25  H   UNL     1     -19.495 -69.621  61.422  1.00  0.00     0.293 HD
ENDBRANCH   8  24
TORSDOF 5
ENDMDL
MODEL 8
REMARK VINA RESULT:    -5.187     14.671     17.101
REMARK INTER + INTRA:          -6.177
REMARK INTER:                  -5.897
REMARK INTRA:                  -0.280
REMARK UNBOUND:                -0.080
REMARK SMILES O=c1c(O)c(-c2ccc(O)cc2)oc2cc(O)cc(O)c12
REMARK SMILES IDX 5 1 3 2 2 3 1 4 21 5 19 6 18 7 16 8 15 9 14 10 13 11 6 12
REMARK SMILES IDX 7 13 8 14 9 15 12 16 11 17 10 18 4 20 20 22 17 24
REMARK H PARENT 10 19 4 21 20 23 17 25
REMARK Flexibility Score: inf
ROOT
ATOM      1  C   UNL     1     -26.762 -54.842  53.039  1.00  0.00     0.180 A 
ATOM      2  C   UNL     1     -27.365 -55.376  54.191  1.00  0.00     0.208 A 
ATOM      3  C   UNL     1     -26.893 -56.594  54.704  1.00  0.00     0.238 A 
ATOM      4  O   UNL     1     -27.472 -57.094  55.704  1.00  0.00    -0.285 OA
ATOM      5  C   UNL     1     -25.812 -57.255  54.070  1.00  0.00     0.111 A 
ATOM      6  C   UNL     1     -25.226 -58.474  54.528  1.00  0.00     0.134 A 
ATOM      7  C   UNL     1     -24.249 -59.105  53.749  1.00  0.00     0.093 A 
ATOM      8  C   UNL     1     -23.790 -58.531  52.564  1.00  0.00     0.123 A 
ATOM      9  C   UNL     1     -24.315 -57.309  52.138  1.00  0.00     0.094 A 
ATOM     10  C   UNL     1     -25.316 -56.674  52.875  1.00  0.00     0.146 A 
ATOM     11  O   UNL     1     -25.796 -55.519  52.429  1.00  0.00    -0.452 OA
ENDROOT
BRANCH   1  12
ATOM     12  C   UNL     1     -27.188 -53.551  52.452  1.00  0.00     0.021 A 
ATOM     13  C   UNL     1     -28.134 -53.496  51.412  1.00  0.00     0.016 A 
ATOM     14  C   UNL     1     -28.538 -52.263  50.890  1.00  0.00     0.047 A 
ATOM     15  C   UNL     1     -28.017 -51.073  51.406  1.00  0.00     0.115 A 
ATOM     16  C   UNL     1     -26.683 -52.351  52.980  1.00  0.00     0.016 A 
ATOM     17  C   UNL     1     -27.090 -51.120  52.455  1.00  0.00     0.047 A 
BRANCH  15  18
ATOM     18  O   UNL     1     -28.428 -49.853  50.875  1.00  0.00    -0.508 OA
ATOM     19  H   UNL     1     -28.290 -48.984  51.377  1.00  0.00     0.293 HD
ENDBRANCH  15  18
ENDBRANCH   1  12
BRANCH   2  20
ATOM     20  O   UNL     1     -28.444 -54.719  54.787  1.00  0.00    -0.502 OA
ATOM     21  H   UNL     1     -29.389 -55.084  54.755  1.00  0.00     0.293 HD
ENDBRANCH   2  20
BRANCH   6  22
ATOM     22  O   UNL     1     -25.547 -59.085  55.744  1.00  0.00    -0.507 OA
ATOM     23  H   UNL     1     -26.352 -59.673  55.896  1.00  0.00     0.293 HD
ENDBRANCH   6  22
BRANCH   8  24
ATOM     24  O   UNL     1     -22.806 -59.180  51.822  1.00  0.00    -0.508 OA
ATOM     25  H   UNL     1     -22.086 -58.663  51.330  1.00  0.00     0.293 HD
ENDBRANCH   8  24
TORSDOF 5
ENDMDL
MODEL 9
REMARK VINA RESULT:    -5.168     18.955     22.097
REMARK INTER + INTRA:          -6.154
REMARK INTER:                  -5.872
REMARK INTRA:                  -0.282
REMARK UNBOUND:                -0.080
REMARK SMILES O=c1c(O)c(-c2ccc(O)cc2)oc2cc(O)cc(O)c12
REMARK SMILES IDX 5 1 3 2 2 3 1 4 21 5 19 6 18 7 16 8 15 9 14 10 13 11 6 12
REMARK SMILES IDX 7 13 8 14 9 15 12 16 11 17 10 18 4 20 20 22 17 24
REMARK H PARENT 10 19 4 21 20 23 17 25
REMARK Flexibility Score: inf
ROOT
ATOM      1  C   UNL     1     -20.611 -67.431  56.704  1.00  0.00     0.180 A 
ATOM      2  C   UNL     1     -19.604 -66.529  57.091  1.00  0.00     0.208 A 
ATOM      3  C   UNL     1     -18.554 -66.257  56.199  1.00  0.00     0.238 A 
ATOM      4  O   UNL     1     -17.628 -65.490  56.572  1.00  0.00    -0.285 OA
ATOM      5  C   UNL     1     -18.532 -66.877  54.926  1.00  0.00     0.111 A 
ATOM      6  C   UNL     1     -17.538 -66.644  53.928  1.00  0.00     0.134 A 
ATOM      7  C   UNL     1     -17.543 -67.411  52.757  1.00  0.00     0.093 A 
ATOM      8  C   UNL     1     -18.541 -68.354  52.517  1.00  0.00     0.123 A 
ATOM      9  C   UNL     1     -19.552 -68.548  53.461  1.00  0.00     0.094 A 
ATOM     10  C   UNL     1     -19.553 -67.824  54.655  1.00  0.00     0.146 A 
ATOM     11  O   UNL     1     -20.526 -68.047  55.531  1.00  0.00    -0.452 OA
ENDROOT
BRANCH   1  12
ATOM     12  C   UNL     1     -21.762 -67.750  57.579  1.00  0.00     0.021 A 
ATOM     13  C   UNL     1     -21.738 -68.856  58.448  1.00  0.00     0.016 A 
ATOM     14  C   UNL     1     -22.828 -69.123  59.281  1.00  0.00     0.047 A 
ATOM     15  C   UNL     1     -23.948 -68.285  59.269  1.00  0.00     0.115 A 
ATOM     16  C   UNL     1     -22.882 -66.900  57.585  1.00  0.00     0.016 A 
ATOM     17  C   UNL     1     -23.971 -67.171  58.420  1.00  0.00     0.047 A 
BRANCH  15  18
ATOM     18  O   UNL     1     -25.027 -68.565  60.104  1.00  0.00    -0.508 OA
ATOM     19  H   UNL     1     -24.891 -68.921  61.043  1.00  0.00     0.293 HD
ENDBRANCH  15  18
ENDBRANCH   1  12
BRANCH   2  20
ATOM     20  O   UNL     1     -19.634 -65.945  58.360  1.00  0.00    -0.502 OA
ATOM     21  H   UNL     1     -20.049 -66.406  59.161  1.00  0.00     0.293 HD
ENDBRANCH   2  20
BRANCH   6  22
ATOM     22  O   UNL     1     -16.549 -65.660  54.027  1.00  0.00    -0.507 OA
ATOM     23  H   UNL     1     -16.127 -65.190  53.242  1.00  0.00     0.293 HD
ENDBRANCH   6  22
BRANCH   8  24
ATOM     24  O   UNL     1     -18.523 -69.088  51.334  1.00  0.00    -0.508 OA
ATOM     25  H   UNL     1     -18.938 -70.011  51.276  1.00  0.00     0.293 HD
ENDBRANCH   8  24
TORSDOF 5
ENDMDL
