MODEL 1
REMARK VINA RESULT:    -4.518      0.000      0.000
REMARK INTER + INTRA:          -5.102
REMARK INTER:                  -4.915
REMARK INTRA:                  -0.188
REMARK UNBOUND:                -0.188
REMARK SMILES C=C(C)[C@@H]1CC[C@@H](C)C[C@@H]1O
REMARK SMILES IDX 8 1 7 2 6 3 5 4 4 5 10 6 9 7 11 8 2 10 1 11 3 12
REMARK H PARENT 11 9
REMARK Flexibility Score: inf
ROOT
ATOM      1  C   UNL     1     179.814 184.305 182.061  1.00  0.00     0.008 C 
ATOM      2  C   UNL     1     179.719 182.981 182.825  1.00  0.00    -0.012 C 
ATOM      3  C   UNL     1     180.953 182.788 183.728  1.00  0.00     0.004 C 
ATOM      4  C   UNL     1     180.883 181.453 184.479  1.00  0.00     0.011 C 
ATOM      5  C   UNL     1     180.746 180.277 183.491  1.00  0.00     0.043 C 
ATOM      6  C   UNL     1     179.507 180.449 182.578  1.00  0.00     0.121 C 
ATOM      7  C   UNL     1     179.571 181.800 181.842  1.00  0.00     0.035 C 
ENDROOT
BRANCH   6   8
ATOM      8  O   UNL     1     178.315 180.387 183.322  1.00  0.00    -0.392 OA
ATOM      9  H   UNL     1     178.086 181.315 183.587  1.00  0.00     0.210 HD
ENDBRANCH   6   8
BRANCH   5  10
ATOM     10  C   UNL     1     180.755 178.922 184.192  1.00  0.00    -0.075 C 
ATOM     11  C   UNL     1     180.635 178.861 185.528  1.00  0.00     0.008 C 
ATOM     12  C   UNL     1     180.952 177.629 183.436  1.00  0.00     0.039 C 
ENDBRANCH   5  10
TORSDOF 2
ENDMDL
MODEL 2
REMARK VINA RESULT:    -4.515      1.526      4.650
REMARK INTER + INTRA:          -5.099
REMARK INTER:                  -4.975
REMARK INTRA:                  -0.123
REMARK UNBOUND:                -0.188
REMARK SMILES C=C(C)[C@@H]1CC[C@@H](C)C[C@@H]1O
REMARK SMILES IDX 8 1 7 2 6 3 5 4 4 5 10 6 9 7 11 8 2 10 1 11 3 12
REMARK H PARENT 11 9
REMARK Flexibility Score: inf
ROOT
ATOM      1  C   UNL     1     180.507 178.733 185.439  1.00  0.00     0.008 C 
ATOM      2  C   UNL     1     179.792 179.999 184.955  1.00  0.00    -0.012 C 
ATOM      3  C   UNL     1     179.601 179.962 183.427  1.00  0.00     0.004 C 
ATOM      4  C   UNL     1     178.910 181.236 182.926  1.00  0.00     0.011 C 
ATOM      5  C   UNL     1     179.707 182.489 183.343  1.00  0.00     0.043 C 
ATOM      6  C   UNL     1     179.905 182.548 184.877  1.00  0.00     0.121 C 
ATOM      7  C   UNL     1     180.580 181.258 185.377  1.00  0.00     0.035 C 
ENDROOT
BRANCH   6   8
ATOM      8  O   UNL     1     178.676 182.712 185.541  1.00  0.00    -0.392 OA
ATOM      9  H   UNL     1     177.999 182.939 184.853  1.00  0.00     0.210 HD
ENDBRANCH   6   8
BRANCH   5  10
ATOM     10  C   UNL     1     179.098 183.776 182.794  1.00  0.00    -0.075 C 
ATOM     11  C   UNL     1     179.892 184.824 182.517  1.00  0.00     0.008 C 
ATOM     12  C   UNL     1     177.609 183.938 182.598  1.00  0.00     0.039 C 
ENDBRANCH   5  10
TORSDOF 2
ENDMDL
MODEL 3
REMARK VINA RESULT:    -4.460      3.015      4.442
REMARK INTER + INTRA:          -5.039
REMARK INTER:                  -4.844
REMARK INTRA:                  -0.195
REMARK UNBOUND:                -0.188
REMARK SMILES C=C(C)[C@@H]1CC[C@@H](C)C[C@@H]1O
REMARK SMILES IDX 8 1 7 2 6 3 5 4 4 5 10 6 9 7 11 8 2 10 1 11 3 12
REMARK H PARENT 11 9
REMARK Flexibility Score: inf
ROOT
ATOM      1  C   UNL     1     183.661 181.769 188.573  1.00  0.00     0.008 C 
ATOM      2  C   UNL     1     182.924 181.307 187.311  1.00  0.00    -0.012 C 
ATOM      3  C   UNL     1     181.415 181.172 187.586  1.00  0.00     0.004 C 
ATOM      4  C   UNL     1     180.669 180.685 186.337  1.00  0.00     0.011 C 
ATOM      5  C   UNL     1     181.252 179.346 185.841  1.00  0.00     0.043 C 
ATOM      6  C   UNL     1     182.769 179.463 185.553  1.00  0.00     0.121 C 
ATOM      7  C   UNL     1     183.510 179.973 186.803  1.00  0.00     0.035 C 
ENDROOT
BRANCH   6   8
ATOM      8  O   UNL     1     183.016 180.340 184.482  1.00  0.00    -0.392 OA
ATOM      9  H   UNL     1     183.731 180.964 184.773  1.00  0.00     0.210 HD
ENDBRANCH   6   8
BRANCH   5  10
ATOM     10  C   UNL     1     180.485 178.783 184.647  1.00  0.00    -0.075 C 
ATOM     11  C   UNL     1     179.426 179.450 184.161  1.00  0.00     0.008 C 
ATOM     12  C   UNL     1     180.844 177.459 184.017  1.00  0.00     0.039 C 
ENDBRANCH   5  10
TORSDOF 2
ENDMDL
MODEL 4
REMARK VINA RESULT:    -4.399      1.836      2.647
REMARK INTER + INTRA:          -4.973
REMARK INTER:                  -4.779
REMARK INTRA:                  -0.194
REMARK UNBOUND:                -0.188
REMARK SMILES C=C(C)[C@@H]1CC[C@@H](C)C[C@@H]1O
REMARK SMILES IDX 8 1 7 2 6 3 5 4 4 5 10 6 9 7 11 8 2 10 1 11 3 12
REMARK H PARENT 11 9
REMARK Flexibility Score: inf
ROOT
ATOM      1  C   UNL     1     177.866 184.926 184.118  1.00  0.00     0.008 C 
ATOM      2  C   UNL     1     178.795 183.763 183.751  1.00  0.00    -0.012 C 
ATOM      3  C   UNL     1     178.210 182.954 182.577  1.00  0.00     0.004 C 
ATOM      4  C   UNL     1     179.117 181.771 182.217  1.00  0.00     0.011 C 
ATOM      5  C   UNL     1     179.342 180.863 183.442  1.00  0.00     0.043 C 
ATOM      6  C   UNL     1     179.935 181.656 184.632  1.00  0.00     0.121 C 
ATOM      7  C   UNL     1     179.032 182.855 184.976  1.00  0.00     0.035 C 
ENDROOT
BRANCH   6   8
ATOM      8  O   UNL     1     181.228 182.124 184.336  1.00  0.00    -0.392 OA
ATOM      9  H   UNL     1     181.870 181.461 184.701  1.00  0.00     0.210 HD
ENDBRANCH   6   8
BRANCH   5  10
ATOM     10  C   UNL     1     180.173 179.627 183.108  1.00  0.00    -0.075 C 
ATOM     11  C   UNL     1     180.723 179.504 181.889  1.00  0.00     0.008 C 
ATOM     12  C   UNL     1     180.358 178.496 184.091  1.00  0.00     0.039 C 
ENDBRANCH   5  10
TORSDOF 2
ENDMDL
MODEL 5
REMARK VINA RESULT:    -4.394      1.183      4.402
REMARK INTER + INTRA:          -4.968
REMARK INTER:                  -4.805
REMARK INTRA:                  -0.162
REMARK UNBOUND:                -0.188
REMARK SMILES C=C(C)[C@@H]1CC[C@@H](C)C[C@@H]1O
REMARK SMILES IDX 8 1 7 2 6 3 5 4 4 5 10 6 9 7 11 8 2 10 1 11 3 12
REMARK H PARENT 11 9
REMARK Flexibility Score: inf
ROOT
ATOM      1  C   UNL     1     181.593 176.690 183.571  1.00  0.00     0.008 C 
ATOM      2  C   UNL     1     180.727 177.942 183.393  1.00  0.00    -0.012 C 
ATOM      3  C   UNL     1     181.383 178.915 182.395  1.00  0.00     0.004 C 
ATOM      4  C   UNL     1     180.539 180.185 182.227  1.00  0.00     0.011 C 
ATOM      5  C   UNL     1     180.315 180.874 183.589  1.00  0.00     0.043 C 
ATOM      6  C   UNL     1     179.651 179.914 184.605  1.00  0.00     0.121 C 
ATOM      7  C   UNL     1     180.491 178.632 184.753  1.00  0.00     0.035 C 
ENDROOT
BRANCH   6   8
ATOM      8  O   UNL     1     178.349 179.567 184.201  1.00  0.00    -0.392 OA
ATOM      9  H   UNL     1     178.112 178.725 184.669  1.00  0.00     0.210 HD
ENDBRANCH   6   8
BRANCH   5  10
ATOM     10  C   UNL     1     179.549 182.188 183.458  1.00  0.00    -0.075 C 
ATOM     11  C   UNL     1     178.833 182.434 182.348  1.00  0.00     0.008 C 
ATOM     12  C   UNL     1     179.609 183.260 184.520  1.00  0.00     0.039 C 
ENDBRANCH   5  10
TORSDOF 2
ENDMDL
MODEL 6
REMARK VINA RESULT:    -4.300      2.181      3.999
REMARK INTER + INTRA:          -4.865
REMARK INTER:                  -4.673
REMARK INTRA:                  -0.192
REMARK UNBOUND:                -0.188
REMARK SMILES C=C(C)[C@@H]1CC[C@@H](C)C[C@@H]1O
REMARK SMILES IDX 8 1 7 2 6 3 5 4 4 5 10 6 9 7 11 8 2 10 1 11 3 12
REMARK H PARENT 11 9
REMARK Flexibility Score: inf
ROOT
ATOM      1  C   UNL     1     182.363 181.351 188.627  1.00  0.00     0.008 C 
ATOM      2  C   UNL     1     181.657 180.585 187.503  1.00  0.00    -0.012 C 
ATOM      3  C   UNL     1     182.680 179.801 186.659  1.00  0.00     0.004 C 
ATOM      4  C   UNL     1     181.989 179.050 185.514  1.00  0.00     0.011 C 
ATOM      5  C   UNL     1     181.190 180.026 184.627  1.00  0.00     0.043 C 
ATOM      6  C   UNL     1     180.151 180.821 185.455  1.00  0.00     0.121 C 
ATOM      7  C   UNL     1     180.847 181.555 186.616  1.00  0.00     0.035 C 
ENDROOT
BRANCH   6   8
ATOM      8  O   UNL     1     179.160 179.971 185.976  1.00  0.00    -0.392 OA
ATOM      9  H   UNL     1     179.483 179.648 186.857  1.00  0.00     0.210 HD
ENDBRANCH   6   8
BRANCH   5  10
ATOM     10  C   UNL     1     180.553 179.332 183.425  1.00  0.00    -0.075 C 
ATOM     11  C   UNL     1     180.573 177.992 183.341  1.00  0.00     0.008 C 
ATOM     12  C   UNL     1     179.939 180.109 182.285  1.00  0.00     0.039 C 
ENDBRANCH   5  10
TORSDOF 2
ENDMDL
MODEL 7
REMARK VINA RESULT:    -4.290      1.760      4.379
REMARK INTER + INTRA:          -4.854
REMARK INTER:                  -4.662
REMARK INTRA:                  -0.192
REMARK UNBOUND:                -0.188
REMARK SMILES C=C(C)[C@@H]1CC[C@@H](C)C[C@@H]1O
REMARK SMILES IDX 8 1 7 2 6 3 5 4 4 5 10 6 9 7 11 8 2 10 1 11 3 12
REMARK H PARENT 11 9
REMARK Flexibility Score: inf
ROOT
ATOM      1  C   UNL     1     181.904 176.308 183.380  1.00  0.00     0.008 C 
ATOM      2  C   UNL     1     181.592 177.796 183.574  1.00  0.00    -0.012 C 
ATOM      3  C   UNL     1     180.508 177.984 184.653  1.00  0.00     0.004 C 
ATOM      4  C   UNL     1     180.167 179.468 184.838  1.00  0.00     0.011 C 
ATOM      5  C   UNL     1     179.718 180.095 183.503  1.00  0.00     0.043 C 
ATOM      6  C   UNL     1     180.797 179.921 182.406  1.00  0.00     0.121 C 
ATOM      7  C   UNL     1     181.151 178.432 182.239  1.00  0.00     0.035 C 
ENDROOT
BRANCH   6   8
ATOM      8  O   UNL     1     181.963 180.639 182.724  1.00  0.00    -0.392 OA
ATOM      9  H   UNL     1     182.653 179.976 182.987  1.00  0.00     0.210 HD
ENDBRANCH   6   8
BRANCH   5  10
ATOM     10  C   UNL     1     179.289 181.552 183.658  1.00  0.00    -0.075 C 
ATOM     11  C   UNL     1     179.507 182.191 184.819  1.00  0.00     0.008 C 
ATOM     12  C   UNL     1     178.571 182.297 182.559  1.00  0.00     0.039 C 
ENDBRANCH   5  10
TORSDOF 2
ENDMDL
MODEL 8
REMARK VINA RESULT:    -4.247      2.214      4.795
REMARK INTER + INTRA:          -4.807
REMARK INTER:                  -4.612
REMARK INTRA:                  -0.195
REMARK UNBOUND:                -0.188
REMARK SMILES C=C(C)[C@@H]1CC[C@@H](C)C[C@@H]1O
REMARK SMILES IDX 8 1 7 2 6 3 5 4 4 5 10 6 9 7 11 8 2 10 1 11 3 12
REMARK H PARENT 11 9
REMARK Flexibility Score: inf
ROOT
ATOM      1  C   UNL     1     182.853 175.512 182.033  1.00  0.00     0.008 C 
ATOM      2  C   UNL     1     182.384 176.799 182.720  1.00  0.00    -0.012 C 
ATOM      3  C   UNL     1     181.281 176.491 183.750  1.00  0.00     0.004 C 
ATOM      4  C   UNL     1     180.784 177.775 184.426  1.00  0.00     0.011 C 
ATOM      5  C   UNL     1     180.279 178.785 183.375  1.00  0.00     0.043 C 
ATOM      6  C   UNL     1     181.377 179.112 182.334  1.00  0.00     0.121 C 
ATOM      7  C   UNL     1     181.886 177.818 181.673  1.00  0.00     0.035 C 
ENDROOT
BRANCH   6   8
ATOM      8  O   UNL     1     182.460 179.782 182.930  1.00  0.00    -0.392 OA
ATOM      9  H   UNL     1     182.990 179.102 183.423  1.00  0.00     0.210 HD
ENDBRANCH   6   8
BRANCH   5  10
ATOM     10  C   UNL     1     179.699 180.046 184.010  1.00  0.00    -0.075 C 
ATOM     11  C   UNL     1     179.754 180.207 185.342  1.00  0.00     0.008 C 
ATOM     12  C   UNL     1     179.006 181.109 183.191  1.00  0.00     0.039 C 
ENDBRANCH   5  10
TORSDOF 2
ENDMDL
MODEL 9
REMARK VINA RESULT:    -4.236      1.184      4.211
REMARK INTER + INTRA:          -4.795
REMARK INTER:                  -4.606
REMARK INTRA:                  -0.189
REMARK UNBOUND:                -0.188
REMARK SMILES C=C(C)[C@@H]1CC[C@@H](C)C[C@@H]1O
REMARK SMILES IDX 8 1 7 2 6 3 5 4 4 5 10 6 9 7 11 8 2 10 1 11 3 12
REMARK H PARENT 11 9
REMARK Flexibility Score: inf
ROOT
ATOM      1  C   UNL     1     181.243 178.477 184.889  1.00  0.00     0.008 C 
ATOM      2  C   UNL     1     180.871 179.633 183.955  1.00  0.00    -0.012 C 
ATOM      3  C   UNL     1     181.498 180.950 184.449  1.00  0.00     0.004 C 
ATOM      4  C   UNL     1     181.112 182.121 183.537  1.00  0.00     0.011 C 
ATOM      5  C   UNL     1     179.578 182.254 183.440  1.00  0.00     0.043 C 
ATOM      6  C   UNL     1     178.929 180.941 182.939  1.00  0.00     0.121 C 
ATOM      7  C   UNL     1     179.337 179.765 183.845  1.00  0.00     0.035 C 
ENDROOT
BRANCH   6   8
ATOM      8  O   UNL     1     179.312 180.657 181.616  1.00  0.00    -0.392 OA
ATOM      9  H   UNL     1     179.848 181.428 181.294  1.00  0.00     0.210 HD
ENDBRANCH   6   8
BRANCH   5  10
ATOM     10  C   UNL     1     179.149 183.459 182.607  1.00  0.00    -0.075 C 
ATOM     11  C   UNL     1     177.870 183.867 182.635  1.00  0.00     0.008 C 
ATOM     12  C   UNL     1     180.110 184.187 181.698  1.00  0.00     0.039 C 
ENDBRANCH   5  10
TORSDOF 2
ENDMDL
