MODEL 1
REMARK VINA RESULT:    -4.098      0.000      0.000
REMARK INTER + INTRA:          -6.178
REMARK INTER:                  -5.775
REMARK INTRA:                  -0.402
REMARK UNBOUND:                -0.402
REMARK SMILES CCCCCCCCC(=O)[O-]
REMARK SMILES IDX 6 1 7 2 8 3 9 4 10 5 11 6 5 7 4 8 3 9 2 10 1 11
REMARK H PARENT
REMARK Flexibility Score: inf
ROOT
ATOM      1  C   UNL     1       7.706 -15.715  22.760  1.00  0.00     0.000 C 
ENDROOT
BRANCH   1   2
ATOM      2  C   UNL     1       7.099 -16.935  23.475  1.00  0.00     0.006 C 
BRANCH   2   3
ATOM      3  C   UNL     1       6.292 -16.535  24.717  1.00  0.00     0.053 C 
BRANCH   3   4
ATOM      4  C   UNL     1       7.072 -16.747  25.979  1.00  0.00     0.041 C 
ATOM      5  O   UNL     1       7.755 -15.809  26.468  1.00  0.00    -0.550 OA
ATOM      6  O   UNL     1       7.022 -17.973  26.630  1.00  0.00    -0.550 OA
ENDBRANCH   3   4
ENDBRANCH   2   3
ENDBRANCH   1   2
BRANCH   1   7
ATOM      7  C   UNL     1       6.960 -14.405  23.073  1.00  0.00     0.000 C 
BRANCH   7   8
ATOM      8  C   UNL     1       5.977 -13.938  21.984  1.00  0.00    -0.000 C 
BRANCH   8   9
ATOM      9  C   UNL     1       6.315 -14.493  20.593  1.00  0.00    -0.000 C 
BRANCH   9  10
ATOM     10  C   UNL     1       5.950 -13.484  19.497  1.00  0.00    -0.003 C 
ATOM     11  C   UNL     1       6.790 -13.707  18.242  1.00  0.00     0.004 C 
ENDBRANCH   9  10
ENDBRANCH   8   9
ENDBRANCH   7   8
ENDBRANCH   1   7
TORSDOF 7
ENDMDL
MODEL 2
REMARK VINA RESULT:    -3.865      2.261      3.555
REMARK INTER + INTRA:          -5.850
REMARK INTER:                  -5.164
REMARK INTRA:                  -0.686
REMARK UNBOUND:                -0.402
REMARK SMILES CCCCCCCCC(=O)[O-]
REMARK SMILES IDX 6 1 7 2 8 3 9 4 10 5 11 6 5 7 4 8 3 9 2 10 1 11
REMARK H PARENT
REMARK Flexibility Score: inf
ROOT
ATOM      1  C   UNL     1       7.148 -16.611  26.010  1.00  0.00     0.000 C 
ENDROOT
BRANCH   1   2
ATOM      2  C   UNL     1       8.250 -15.550  26.179  1.00  0.00     0.006 C 
BRANCH   2   3
ATOM      3  C   UNL     1       9.652 -16.132  25.956  1.00  0.00     0.053 C 
BRANCH   3   4
ATOM      4  C   UNL     1      10.326 -15.519  24.767  1.00  0.00     0.041 C 
ATOM      5  O   UNL     1       9.915 -14.425  24.298  1.00  0.00    -0.550 OA
ATOM      6  O   UNL     1      11.427 -16.142  24.194  1.00  0.00    -0.550 OA
ENDBRANCH   3   4
ENDBRANCH   2   3
ENDBRANCH   1   2
BRANCH   1   7
ATOM      7  C   UNL     1       6.316 -16.413  24.730  1.00  0.00     0.000 C 
BRANCH   7   8
ATOM      8  C   UNL     1       6.957 -16.963  23.443  1.00  0.00    -0.000 C 
BRANCH   8   9
ATOM      9  C   UNL     1       7.373 -15.859  22.461  1.00  0.00    -0.000 C 
BRANCH   9  10
ATOM     10  C   UNL     1       6.659 -14.541  22.783  1.00  0.00    -0.003 C 
ATOM     11  C   UNL     1       5.899 -14.015  21.568  1.00  0.00     0.004 C 
ENDBRANCH   9  10
ENDBRANCH   8   9
ENDBRANCH   7   8
ENDBRANCH   1   7
TORSDOF 7
ENDMDL
MODEL 3
REMARK VINA RESULT:    -3.767      2.741      4.031
REMARK INTER + INTRA:          -5.711
REMARK INTER:                  -4.955
REMARK INTRA:                  -0.756
REMARK UNBOUND:                -0.402
REMARK SMILES CCCCCCCCC(=O)[O-]
REMARK SMILES IDX 6 1 7 2 8 3 9 4 10 5 11 6 5 7 4 8 3 9 2 10 1 11
REMARK H PARENT
REMARK Flexibility Score: inf
ROOT
ATOM      1  C   UNL     1       9.702 -14.634  24.253  1.00  0.00     0.000 C 
ENDROOT
BRANCH   1   2
ATOM      2  C   UNL     1      10.392 -15.894  24.802  1.00  0.00     0.006 C 
BRANCH   2   3
ATOM      3  C   UNL     1       9.872 -16.279  26.194  1.00  0.00     0.053 C 
BRANCH   3   4
ATOM      4  C   UNL     1       9.993 -17.751  26.446  1.00  0.00     0.041 C 
ATOM      5  O   UNL     1       8.963 -18.448  26.639  1.00  0.00    -0.550 OA
ATOM      6  O   UNL     1      11.243 -18.356  26.439  1.00  0.00    -0.550 OA
ENDBRANCH   3   4
ENDBRANCH   2   3
ENDBRANCH   1   2
BRANCH   1   7
ATOM      7  C   UNL     1       8.255 -14.477  24.754  1.00  0.00     0.000 C 
BRANCH   7   8
ATOM      8  C   UNL     1       7.181 -14.457  23.651  1.00  0.00    -0.000 C 
BRANCH   8   9
ATOM      9  C   UNL     1       6.027 -15.434  23.920  1.00  0.00    -0.000 C 
BRANCH   9  10
ATOM     10  C   UNL     1       6.511 -16.647  24.723  1.00  0.00    -0.003 C 
ATOM     11  C   UNL     1       6.891 -17.803  23.801  1.00  0.00     0.004 C 
ENDBRANCH   9  10
ENDBRANCH   8   9
ENDBRANCH   7   8
ENDBRANCH   1   7
TORSDOF 7
ENDMDL
MODEL 4
REMARK VINA RESULT:    -3.747      1.551      2.643
REMARK INTER + INTRA:          -5.683
REMARK INTER:                  -5.388
REMARK INTRA:                  -0.295
REMARK UNBOUND:                -0.402
REMARK SMILES CCCCCCCCC(=O)[O-]
REMARK SMILES IDX 6 1 7 2 8 3 9 4 10 5 11 6 5 7 4 8 3 9 2 10 1 11
REMARK H PARENT
REMARK Flexibility Score: inf
ROOT
ATOM      1  C   UNL     1       6.398 -14.292  21.874  1.00  0.00     0.000 C 
ENDROOT
BRANCH   1   2
ATOM      2  C   UNL     1       7.283 -15.245  22.696  1.00  0.00     0.006 C 
BRANCH   2   3
ATOM      3  C   UNL     1       7.013 -15.130  24.203  1.00  0.00     0.053 C 
BRANCH   3   4
ATOM      4  C   UNL     1       8.253 -14.774  24.965  1.00  0.00     0.041 C 
ATOM      5  O   UNL     1       8.307 -14.955  26.209  1.00  0.00    -0.550 OA
ATOM      6  O   UNL     1       9.359 -14.268  24.295  1.00  0.00    -0.550 OA
ENDBRANCH   3   4
ENDBRANCH   2   3
ENDBRANCH   1   2
BRANCH   1   7
ATOM      7  C   UNL     1       6.333 -14.671  20.384  1.00  0.00     0.000 C 
BRANCH   7   8
ATOM      8  C   UNL     1       5.945 -13.523  19.435  1.00  0.00    -0.000 C 
BRANCH   8   9
ATOM      9  C   UNL     1       6.630 -13.620  18.064  1.00  0.00    -0.000 C 
BRANCH   9  10
ATOM     10  C   UNL     1       7.638 -14.775  18.035  1.00  0.00    -0.003 C 
ATOM     11  C   UNL     1       9.008 -14.298  17.558  1.00  0.00     0.004 C 
ENDBRANCH   9  10
ENDBRANCH   8   9
ENDBRANCH   7   8
ENDBRANCH   1   7
TORSDOF 7
ENDMDL
MODEL 5
REMARK VINA RESULT:    -3.711      4.090      6.076
REMARK INTER + INTRA:          -5.631
REMARK INTER:                  -5.151
REMARK INTRA:                  -0.481
REMARK UNBOUND:                -0.402
REMARK SMILES CCCCCCCCC(=O)[O-]
REMARK SMILES IDX 6 1 7 2 8 3 9 4 10 5 11 6 5 7 4 8 3 9 2 10 1 11
REMARK H PARENT
REMARK Flexibility Score: inf
ROOT
ATOM      1  C   UNL     1       5.699 -14.285  21.542  1.00  0.00     0.000 C 
ENDROOT
BRANCH   1   2
ATOM      2  C   UNL     1       6.368 -14.626  20.199  1.00  0.00     0.006 C 
BRANCH   2   3
ATOM      3  C   UNL     1       6.216 -13.494  19.173  1.00  0.00     0.053 C 
BRANCH   3   4
ATOM      4  C   UNL     1       7.226 -13.601  18.072  1.00  0.00     0.041 C 
ATOM      5  O   UNL     1       7.847 -12.579  17.679  1.00  0.00    -0.550 OA
ATOM      6  O   UNL     1       7.502 -14.836  17.500  1.00  0.00    -0.550 OA
ENDBRANCH   3   4
ENDBRANCH   2   3
ENDBRANCH   1   2
BRANCH   1   7
ATOM      7  C   UNL     1       6.658 -13.599  22.532  1.00  0.00     0.000 C 
BRANCH   7   8
ATOM      8  C   UNL     1       7.079 -14.461  23.736  1.00  0.00    -0.000 C 
BRANCH   8   9
ATOM      9  C   UNL     1       6.143 -15.654  23.976  1.00  0.00    -0.000 C 
BRANCH   9  10
ATOM     10  C   UNL     1       6.942 -16.952  24.146  1.00  0.00    -0.003 C 
ATOM     11  C   UNL     1       7.467 -17.455  22.804  1.00  0.00     0.004 C 
ENDBRANCH   9  10
ENDBRANCH   8   9
ENDBRANCH   7   8
ENDBRANCH   1   7
TORSDOF 7
ENDMDL
MODEL 6
REMARK VINA RESULT:    -3.709      3.430      5.709
REMARK INTER + INTRA:          -5.629
REMARK INTER:                  -4.966
REMARK INTRA:                  -0.663
REMARK UNBOUND:                -0.402
REMARK SMILES CCCCCCCCC(=O)[O-]
REMARK SMILES IDX 6 1 7 2 8 3 9 4 10 5 11 6 5 7 4 8 3 9 2 10 1 11
REMARK H PARENT
REMARK Flexibility Score: inf
ROOT
ATOM      1  C   UNL     1       7.829 -17.679  23.274  1.00  0.00     0.000 C 
ENDROOT
BRANCH   1   2
ATOM      2  C   UNL     1       6.597 -17.081  23.975  1.00  0.00     0.006 C 
BRANCH   2   3
ATOM      3  C   UNL     1       6.984 -16.067  25.059  1.00  0.00     0.053 C 
BRANCH   3   4
ATOM      4  C   UNL     1       7.613 -14.839  24.473  1.00  0.00     0.041 C 
ATOM      5  O   UNL     1       8.723 -14.428  24.902  1.00  0.00    -0.550 OA
ATOM      6  O   UNL     1       6.985 -14.165  23.434  1.00  0.00    -0.550 OA
ENDBRANCH   3   4
ENDBRANCH   2   3
ENDBRANCH   1   2
BRANCH   1   7
ATOM      7  C   UNL     1       7.513 -18.979  22.511  1.00  0.00     0.000 C 
BRANCH   7   8
ATOM      8  C   UNL     1       6.831 -20.077  23.346  1.00  0.00    -0.000 C 
BRANCH   8   9
ATOM      9  C   UNL     1       7.803 -20.808  24.284  1.00  0.00    -0.000 C 
BRANCH   9  10
ATOM     10  C   UNL     1       7.224 -20.913  25.700  1.00  0.00    -0.003 C 
ATOM     11  C   UNL     1       7.501 -19.647  26.505  1.00  0.00     0.004 C 
ENDBRANCH   9  10
ENDBRANCH   8   9
ENDBRANCH   7   8
ENDBRANCH   1   7
TORSDOF 7
ENDMDL
MODEL 7
REMARK VINA RESULT:    -3.705      1.489      2.505
REMARK INTER + INTRA:          -5.623
REMARK INTER:                  -5.064
REMARK INTRA:                  -0.559
REMARK UNBOUND:                -0.402
REMARK SMILES CCCCCCCCC(=O)[O-]
REMARK SMILES IDX 6 1 7 2 8 3 9 4 10 5 11 6 5 7 4 8 3 9 2 10 1 11
REMARK H PARENT
REMARK Flexibility Score: inf
ROOT
ATOM      1  C   UNL     1       7.839 -17.242  23.594  1.00  0.00     0.000 C 
ENDROOT
BRANCH   1   2
ATOM      2  C   UNL     1       8.594 -18.140  24.589  1.00  0.00     0.006 C 
BRANCH   2   3
ATOM      3  C   UNL     1       8.426 -17.667  26.039  1.00  0.00     0.053 C 
BRANCH   3   4
ATOM      4  C   UNL     1       9.113 -16.357  26.279  1.00  0.00     0.041 C 
ATOM      5  O   UNL     1       8.440 -15.328  26.549  1.00  0.00    -0.550 OA
ATOM      6  O   UNL     1      10.499 -16.280  26.234  1.00  0.00    -0.550 OA
ENDBRANCH   3   4
ENDBRANCH   2   3
ENDBRANCH   1   2
BRANCH   1   7
ATOM      7  C   UNL     1       6.385 -16.968  24.019  1.00  0.00     0.000 C 
BRANCH   7   8
ATOM      8  C   UNL     1       5.963 -15.488  23.985  1.00  0.00    -0.000 C 
BRANCH   8   9
ATOM      9  C   UNL     1       6.827 -14.639  23.042  1.00  0.00    -0.000 C 
BRANCH   9  10
ATOM     10  C   UNL     1       5.961 -13.933  21.991  1.00  0.00    -0.003 C 
ATOM     11  C   UNL     1       6.264 -14.452  20.588  1.00  0.00     0.004 C 
ENDBRANCH   9  10
ENDBRANCH   8   9
ENDBRANCH   7   8
ENDBRANCH   1   7
TORSDOF 7
ENDMDL
MODEL 8
REMARK VINA RESULT:    -3.693      3.920      6.262
REMARK INTER + INTRA:          -5.606
REMARK INTER:                  -4.834
REMARK INTRA:                  -0.772
REMARK UNBOUND:                -0.402
REMARK SMILES CCCCCCCCC(=O)[O-]
REMARK SMILES IDX 6 1 7 2 8 3 9 4 10 5 11 6 5 7 4 8 3 9 2 10 1 11
REMARK H PARENT
REMARK Flexibility Score: inf
ROOT
ATOM      1  C   UNL     1       7.774 -18.471  23.978  1.00  0.00     0.000 C 
ENDROOT
BRANCH   1   2
ATOM      2  C   UNL     1       6.858 -17.397  24.589  1.00  0.00     0.006 C 
BRANCH   2   3
ATOM      3  C   UNL     1       7.108 -17.210  26.092  1.00  0.00     0.053 C 
BRANCH   3   4
ATOM      4  C   UNL     1       8.316 -16.363  26.354  1.00  0.00     0.041 C 
ATOM      5  O   UNL     1       9.408 -16.898  26.678  1.00  0.00    -0.550 OA
ATOM      6  O   UNL     1       8.241 -14.983  26.210  1.00  0.00    -0.550 OA
ENDBRANCH   3   4
ENDBRANCH   2   3
ENDBRANCH   1   2
BRANCH   1   7
ATOM      7  C   UNL     1       7.044 -19.800  23.711  1.00  0.00     0.000 C 
BRANCH   7   8
ATOM      8  C   UNL     1       7.394 -20.942  24.682  1.00  0.00    -0.000 C 
BRANCH   8   9
ATOM      9  C   UNL     1       8.604 -20.625  25.572  1.00  0.00    -0.000 C 
BRANCH   9  10
ATOM     10  C   UNL     1       8.208 -20.616  27.053  1.00  0.00    -0.003 C 
ATOM     11  C   UNL     1       6.723 -20.921  27.229  1.00  0.00     0.004 C 
ENDBRANCH   9  10
ENDBRANCH   8   9
ENDBRANCH   7   8
ENDBRANCH   1   7
TORSDOF 7
ENDMDL
MODEL 9
REMARK VINA RESULT:    -3.675      3.267      6.166
REMARK INTER + INTRA:          -5.581
REMARK INTER:                  -5.066
REMARK INTRA:                  -0.515
REMARK UNBOUND:                -0.402
REMARK SMILES CCCCCCCCC(=O)[O-]
REMARK SMILES IDX 6 1 7 2 8 3 9 4 10 5 11 6 5 7 4 8 3 9 2 10 1 11
REMARK H PARENT
REMARK Flexibility Score: inf
ROOT
ATOM      1  C   UNL     1       7.883 -18.288  26.242  1.00  0.00     0.000 C 
ENDROOT
BRANCH   1   2
ATOM      2  C   UNL     1       7.048 -16.997  26.195  1.00  0.00     0.006 C 
BRANCH   2   3
ATOM      3  C   UNL     1       6.557 -16.677  24.776  1.00  0.00     0.053 C 
BRANCH   3   4
ATOM      4  C   UNL     1       6.946 -15.294  24.351  1.00  0.00     0.041 C 
ATOM      5  O   UNL     1       6.369 -14.744  23.376  1.00  0.00    -0.550 OA
ATOM      6  O   UNL     1       7.926 -14.602  25.050  1.00  0.00    -0.550 OA
ENDBRANCH   3   4
ENDBRANCH   2   3
ENDBRANCH   1   2
BRANCH   1   7
ATOM      7  C   UNL     1       7.131 -19.465  26.890  1.00  0.00     0.000 C 
BRANCH   7   8
ATOM      8  C   UNL     1       7.096 -20.757  26.054  1.00  0.00    -0.000 C 
BRANCH   8   9
ATOM      9  C   UNL     1       7.284 -20.505  24.552  1.00  0.00    -0.000 C 
BRANCH   9  10
ATOM     10  C   UNL     1       8.335 -21.454  23.964  1.00  0.00    -0.003 C 
ATOM     11  C   UNL     1       9.550 -21.567  24.880  1.00  0.00     0.004 C 
ENDBRANCH   9  10
ENDBRANCH   8   9
ENDBRANCH   7   8
ENDBRANCH   1   7
TORSDOF 7
ENDMDL
