MODEL 1
REMARK VINA RESULT:    -4.445      0.000      0.000
REMARK INTER + INTRA:          -5.954
REMARK INTER:                  -5.745
REMARK INTRA:                  -0.209
REMARK UNBOUND:                -0.209
REMARK SMILES CCCCCCC(=O)[O-]
REMARK SMILES IDX 5 1 6 2 7 3 8 4 9 5 4 6 3 7 2 8 1 9
REMARK H PARENT
REMARK Flexibility Score: inf
ROOT
ATOM      1  C   UNL     1     104.091 311.551 193.142  1.00  0.00     0.006 C 
ENDROOT
BRANCH   1   2
ATOM      2  C   UNL     1     103.544 311.814 194.552  1.00  0.00     0.053 C 
BRANCH   2   3
ATOM      3  C   UNL     1     104.644 311.975 195.554  1.00  0.00     0.041 C 
ATOM      4  O   UNL     1     105.831 311.687 195.245  1.00  0.00    -0.550 OA
ATOM      5  O   UNL     1     104.356 312.411 196.841  1.00  0.00    -0.550 OA
ENDBRANCH   2   3
ENDBRANCH   1   2
BRANCH   1   6
ATOM      6  C   UNL     1     103.932 312.770 192.220  1.00  0.00     0.000 C 
BRANCH   6   7
ATOM      7  C   UNL     1     105.282 313.467 191.995  1.00  0.00    -0.000 C 
BRANCH   7   8
ATOM      8  C   UNL     1     105.273 314.386 190.763  1.00  0.00    -0.003 C 
ATOM      9  C   UNL     1     103.905 314.451 190.084  1.00  0.00     0.004 C 
ENDBRANCH   7   8
ENDBRANCH   6   7
ENDBRANCH   1   6
TORSDOF 5
ENDMDL
MODEL 2
REMARK VINA RESULT:    -4.411     19.926     20.879
REMARK INTER + INTRA:          -5.910
REMARK INTER:                  -5.711
REMARK INTRA:                  -0.199
REMARK UNBOUND:                -0.209
REMARK SMILES CCCCCCC(=O)[O-]
REMARK SMILES IDX 5 1 6 2 7 3 8 4 9 5 4 6 3 7 2 8 1 9
REMARK H PARENT
REMARK Flexibility Score: inf
ROOT
ATOM      1  C   UNL     1      88.099 325.648 193.547  1.00  0.00     0.006 C 
ENDROOT
BRANCH   1   2
ATOM      2  C   UNL     1      88.399 326.474 194.805  1.00  0.00     0.053 C 
BRANCH   2   3
ATOM      3  C   UNL     1      87.461 326.144 195.924  1.00  0.00     0.041 C 
ATOM      4  O   UNL     1      87.875 325.516 196.935  1.00  0.00    -0.550 OA
ATOM      5  O   UNL     1      86.121 326.501 195.838  1.00  0.00    -0.550 OA
ENDBRANCH   2   3
ENDBRANCH   1   2
BRANCH   1   6
ATOM      6  C   UNL     1      88.400 324.154 193.747  1.00  0.00     0.000 C 
BRANCH   6   7
ATOM      7  C   UNL     1      88.015 323.346 192.499  1.00  0.00    -0.000 C 
BRANCH   7   8
ATOM      8  C   UNL     1      88.078 324.183 191.212  1.00  0.00    -0.003 C 
ATOM      9  C   UNL     1      88.435 323.350 189.981  1.00  0.00     0.004 C 
ENDBRANCH   7   8
ENDBRANCH   6   7
ENDBRANCH   1   6
TORSDOF 5
ENDMDL
MODEL 3
REMARK VINA RESULT:    -4.410     21.004     21.894
REMARK INTER + INTRA:          -5.908
REMARK INTER:                  -5.612
REMARK INTRA:                  -0.296
REMARK UNBOUND:                -0.209
REMARK SMILES CCCCCCC(=O)[O-]
REMARK SMILES IDX 5 1 6 2 7 3 8 4 9 5 4 6 3 7 2 8 1 9
REMARK H PARENT
REMARK Flexibility Score: inf
ROOT
ATOM      1  C   UNL     1      88.844 326.402 195.356  1.00  0.00     0.006 C 
ENDROOT
BRANCH   1   2
ATOM      2  C   UNL     1      88.006 326.499 194.075  1.00  0.00     0.053 C 
BRANCH   2   3
ATOM      3  C   UNL     1      86.560 326.204 194.332  1.00  0.00     0.041 C 
ATOM      4  O   UNL     1      85.875 325.592 193.470  1.00  0.00    -0.550 OA
ATOM      5  O   UNL     1      85.960 326.635 195.508  1.00  0.00    -0.550 OA
ENDBRANCH   2   3
ENDBRANCH   1   2
BRANCH   1   6
ATOM      6  C   UNL     1      88.968 324.956 195.863  1.00  0.00     0.000 C 
BRANCH   6   7
ATOM      7  C   UNL     1      88.910 324.906 197.396  1.00  0.00    -0.000 C 
BRANCH   7   8
ATOM      8  C   UNL     1      88.613 326.279 198.021  1.00  0.00    -0.003 C 
ATOM      9  C   UNL     1      89.265 326.459 199.391  1.00  0.00     0.004 C 
ENDBRANCH   7   8
ENDBRANCH   6   7
ENDBRANCH   1   6
TORSDOF 5
ENDMDL
MODEL 4
REMARK VINA RESULT:    -4.372     20.144     21.152
REMARK INTER + INTRA:          -5.860
REMARK INTER:                  -5.639
REMARK INTRA:                  -0.220
REMARK UNBOUND:                -0.209
REMARK SMILES CCCCCCC(=O)[O-]
REMARK SMILES IDX 5 1 6 2 7 3 8 4 9 5 4 6 3 7 2 8 1 9
REMARK H PARENT
REMARK Flexibility Score: inf
ROOT
ATOM      1  C   UNL     1      88.128 326.210 193.606  1.00  0.00     0.006 C 
ENDROOT
BRANCH   1   2
ATOM      2  C   UNL     1      88.598 326.397 195.054  1.00  0.00     0.053 C 
BRANCH   2   3
ATOM      3  C   UNL     1      87.553 325.969 196.038  1.00  0.00     0.041 C 
ATOM      4  O   UNL     1      86.367 326.376 195.920  1.00  0.00    -0.550 OA
ATOM      5  O   UNL     1      87.896 325.148 197.105  1.00  0.00    -0.550 OA
ENDBRANCH   2   3
ENDBRANCH   1   2
BRANCH   1   6
ATOM      6  C   UNL     1      88.095 324.730 193.191  1.00  0.00     0.000 C 
BRANCH   6   7
ATOM      7  C   UNL     1      86.769 324.384 192.498  1.00  0.00    -0.000 C 
BRANCH   7   8
ATOM      8  C   UNL     1      86.944 323.351 191.374  1.00  0.00    -0.003 C 
ATOM      9  C   UNL     1      88.198 323.596 190.535  1.00  0.00     0.004 C 
ENDBRANCH   7   8
ENDBRANCH   6   7
ENDBRANCH   1   6
TORSDOF 5
ENDMDL
MODEL 5
REMARK VINA RESULT:    -4.366      3.134      4.961
REMARK INTER + INTRA:          -5.852
REMARK INTER:                  -5.645
REMARK INTRA:                  -0.208
REMARK UNBOUND:                -0.209
REMARK SMILES CCCCCCC(=O)[O-]
REMARK SMILES IDX 5 1 6 2 7 3 8 4 9 5 4 6 3 7 2 8 1 9
REMARK H PARENT
REMARK Flexibility Score: inf
ROOT
ATOM      1  C   UNL     1     105.543 313.015 192.367  1.00  0.00     0.006 C 
ENDROOT
BRANCH   1   2
ATOM      2  C   UNL     1     104.218 313.381 191.685  1.00  0.00     0.053 C 
BRANCH   2   3
ATOM      3  C   UNL     1     104.430 314.267 190.497  1.00  0.00     0.041 C 
ATOM      4  O   UNL     1     103.495 314.459 189.675  1.00  0.00    -0.550 OA
ATOM      5  O   UNL     1     105.670 314.855 190.278  1.00  0.00    -0.550 OA
ENDBRANCH   2   3
ENDBRANCH   1   2
BRANCH   1   6
ATOM      6  C   UNL     1     105.407 311.790 193.284  1.00  0.00     0.000 C 
BRANCH   6   7
ATOM      7  C   UNL     1     103.930 311.428 193.500  1.00  0.00    -0.000 C 
BRANCH   7   8
ATOM      8  C   UNL     1     103.408 311.877 194.874  1.00  0.00    -0.003 C 
ATOM      9  C   UNL     1     104.516 311.983 195.922  1.00  0.00     0.004 C 
ENDBRANCH   7   8
ENDBRANCH   6   7
ENDBRANCH   1   6
TORSDOF 5
ENDMDL
MODEL 6
REMARK VINA RESULT:    -4.345      1.468      1.971
REMARK INTER + INTRA:          -5.824
REMARK INTER:                  -5.685
REMARK INTRA:                  -0.139
REMARK UNBOUND:                -0.209
REMARK SMILES CCCCCCC(=O)[O-]
REMARK SMILES IDX 5 1 6 2 7 3 8 4 9 5 4 6 3 7 2 8 1 9
REMARK H PARENT
REMARK Flexibility Score: inf
ROOT
ATOM      1  C   UNL     1     103.531 312.131 194.729  1.00  0.00     0.006 C 
ENDROOT
BRANCH   1   2
ATOM      2  C   UNL     1     104.563 311.913 195.844  1.00  0.00     0.053 C 
BRANCH   2   3
ATOM      3  C   UNL     1     103.957 312.078 197.203  1.00  0.00     0.041 C 
ATOM      4  O   UNL     1     103.827 313.227 197.703  1.00  0.00    -0.550 OA
ATOM      5  O   UNL     1     103.567 310.962 197.933  1.00  0.00    -0.550 OA
ENDBRANCH   2   3
ENDBRANCH   1   2
BRANCH   1   6
ATOM      6  C   UNL     1     103.948 311.460 193.411  1.00  0.00     0.000 C 
BRANCH   6   7
ATOM      7  C   UNL     1     104.750 312.431 192.531  1.00  0.00    -0.000 C 
BRANCH   7   8
ATOM      8  C   UNL     1     103.951 313.692 192.166  1.00  0.00    -0.003 C 
ATOM      9  C   UNL     1     103.961 313.984 190.666  1.00  0.00     0.004 C 
ENDBRANCH   7   8
ENDBRANCH   6   7
ENDBRANCH   1   6
TORSDOF 5
ENDMDL
MODEL 7
REMARK VINA RESULT:    -4.327     20.406     21.166
REMARK INTER + INTRA:          -5.801
REMARK INTER:                  -5.577
REMARK INTRA:                  -0.224
REMARK UNBOUND:                -0.209
REMARK SMILES CCCCCCC(=O)[O-]
REMARK SMILES IDX 5 1 6 2 7 3 8 4 9 5 4 6 3 7 2 8 1 9
REMARK H PARENT
REMARK Flexibility Score: inf
ROOT
ATOM      1  C   UNL     1      88.916 326.346 195.377  1.00  0.00     0.006 C 
ENDROOT
BRANCH   1   2
ATOM      2  C   UNL     1      87.902 326.089 196.499  1.00  0.00     0.053 C 
BRANCH   2   3
ATOM      3  C   UNL     1      88.575 325.720 197.785  1.00  0.00     0.041 C 
ATOM      4  O   UNL     1      88.672 324.511 198.125  1.00  0.00    -0.550 OA
ATOM      5  O   UNL     1      89.066 326.713 198.623  1.00  0.00    -0.550 OA
ENDBRANCH   2   3
ENDBRANCH   1   2
BRANCH   1   6
ATOM      6  C   UNL     1      88.234 326.660 194.036  1.00  0.00     0.000 C 
BRANCH   6   7
ATOM      7  C   UNL     1      86.820 326.063 193.988  1.00  0.00    -0.000 C 
BRANCH   7   8
ATOM      8  C   UNL     1      86.761 324.752 193.188  1.00  0.00    -0.003 C 
ATOM      9  C   UNL     1      87.928 324.600 192.213  1.00  0.00     0.004 C 
ENDBRANCH   7   8
ENDBRANCH   6   7
ENDBRANCH   1   6
TORSDOF 5
ENDMDL
MODEL 8
REMARK VINA RESULT:    -4.324     20.488     21.421
REMARK INTER + INTRA:          -5.797
REMARK INTER:                  -5.598
REMARK INTRA:                  -0.199
REMARK UNBOUND:                -0.209
REMARK SMILES CCCCCCC(=O)[O-]
REMARK SMILES IDX 5 1 6 2 7 3 8 4 9 5 4 6 3 7 2 8 1 9
REMARK H PARENT
REMARK Flexibility Score: inf
ROOT
ATOM      1  C   UNL     1      86.568 325.041 193.401  1.00  0.00     0.006 C 
ENDROOT
BRANCH   1   2
ATOM      2  C   UNL     1      87.793 324.689 192.546  1.00  0.00     0.053 C 
BRANCH   2   3
ATOM      3  C   UNL     1      87.430 323.809 191.390  1.00  0.00     0.041 C 
ATOM      4  O   UNL     1      88.264 323.594 190.471  1.00  0.00    -0.550 OA
ATOM      5  O   UNL     1      86.160 323.252 191.310  1.00  0.00    -0.550 OA
ENDBRANCH   2   3
ENDBRANCH   1   2
BRANCH   1   6
ATOM      6  C   UNL     1      86.797 326.297 194.257  1.00  0.00     0.000 C 
BRANCH   6   7
ATOM      7  C   UNL     1      88.297 326.588 194.413  1.00  0.00    -0.000 C 
BRANCH   7   8
ATOM      8  C   UNL     1      88.871 326.036 195.727  1.00  0.00    -0.003 C 
ATOM      9  C   UNL     1      87.899 326.169 196.899  1.00  0.00     0.004 C 
ENDBRANCH   7   8
ENDBRANCH   6   7
ENDBRANCH   1   6
TORSDOF 5
ENDMDL
MODEL 9
REMARK VINA RESULT:    -4.172      2.267      4.607
REMARK INTER + INTRA:          -5.601
REMARK INTER:                  -5.415
REMARK INTRA:                  -0.186
REMARK UNBOUND:                -0.209
REMARK SMILES CCCCCCC(=O)[O-]
REMARK SMILES IDX 5 1 6 2 7 3 8 4 9 5 4 6 3 7 2 8 1 9
REMARK H PARENT
REMARK Flexibility Score: inf
ROOT
ATOM      1  C   UNL     1     104.540 311.817 192.906  1.00  0.00     0.006 C 
ENDROOT
BRANCH   1   2
ATOM      2  C   UNL     1     104.166 313.053 192.078  1.00  0.00     0.053 C 
BRANCH   2   3
ATOM      3  C   UNL     1     105.291 314.040 192.013  1.00  0.00     0.041 C 
ATOM      4  O   UNL     1     105.950 314.181 190.949  1.00  0.00    -0.550 OA
ATOM      5  O   UNL     1     105.633 314.781 193.137  1.00  0.00    -0.550 OA
ENDBRANCH   2   3
ENDBRANCH   1   2
BRANCH   1   6
ATOM      6  C   UNL     1     103.481 311.486 193.969  1.00  0.00     0.000 C 
BRANCH   6   7
ATOM      7  C   UNL     1     103.594 312.437 195.170  1.00  0.00    -0.000 C 
BRANCH   7   8
ATOM      8  C   UNL     1     104.530 311.897 196.263  1.00  0.00    -0.003 C 
ATOM      9  C   UNL     1     103.864 311.838 197.637  1.00  0.00     0.004 C 
ENDBRANCH   7   8
ENDBRANCH   6   7
ENDBRANCH   1   6
TORSDOF 5
ENDMDL
