MODEL 1
REMARK VINA RESULT:    -4.094      0.000      0.000
REMARK INTER + INTRA:          -9.948
REMARK INTER:                  -7.684
REMARK INTRA:                  -2.263
REMARK UNBOUND:                -2.263
REMARK SMILES O=C([O-])CCCCCCCCCCCCCCC(=O)[O-]
REMARK SMILES IDX 10 1 9 2 8 3 7 4 6 5 5 6 4 7 2 8 1 9 3 10 11 11 12 12 13 13
REMARK SMILES IDX 14 14 15 15 16 16 17 17 18 18 19 19 20 20
REMARK H PARENT
REMARK Flexibility Score: inf
ROOT
ATOM      1  C   UNL     1     -32.844  13.546  13.560  1.00  0.00     0.000 C 
ENDROOT
BRANCH   1   2
ATOM      2  C   UNL     1     -31.685  14.474  13.157  1.00  0.00     0.000 C 
BRANCH   2   3
ATOM      3  C   UNL     1     -30.884  14.976  14.369  1.00  0.00     0.000 C 
BRANCH   3   4
ATOM      4  C   UNL     1     -29.466  14.381  14.432  1.00  0.00     0.000 C 
BRANCH   4   5
ATOM      5  C   UNL     1     -28.659  14.905  15.631  1.00  0.00     0.000 C 
BRANCH   5   6
ATOM      6  C   UNL     1     -29.556  15.368  16.790  1.00  0.00     0.006 C 
BRANCH   6   7
ATOM      7  C   UNL     1     -28.736  16.094  17.859  1.00  0.00     0.053 C 
BRANCH   7   8
ATOM      8  C   UNL     1     -27.628  15.220  18.355  1.00  0.00     0.041 C 
ATOM      9  O   UNL     1     -27.884  14.220  19.076  1.00  0.00    -0.550 OA
ATOM     10  O   UNL     1     -26.308  15.536  18.061  1.00  0.00    -0.550 OA
ENDBRANCH   7   8
ENDBRANCH   6   7
ENDBRANCH   5   6
ENDBRANCH   4   5
ENDBRANCH   3   4
ENDBRANCH   2   3
ENDBRANCH   1   2
BRANCH   1  11
ATOM     11  C   UNL     1     -33.045  13.479  15.083  1.00  0.00     0.000 C 
BRANCH  11  12
ATOM     12  C   UNL     1     -32.723  12.094  15.665  1.00  0.00     0.000 C 
BRANCH  12  13
ATOM     13  C   UNL     1     -31.765  12.211  16.860  1.00  0.00     0.000 C 
BRANCH  13  14
ATOM     14  C   UNL     1     -30.390  11.583  16.578  1.00  0.00     0.000 C 
BRANCH  14  15
ATOM     15  C   UNL     1     -30.378  10.737  15.293  1.00  0.00     0.000 C 
BRANCH  15  16
ATOM     16  C   UNL     1     -28.956  10.340  14.850  1.00  0.00     0.006 C 
BRANCH  16  17
ATOM     17  C   UNL     1     -28.568  10.869  13.459  1.00  0.00     0.053 C 
BRANCH  17  18
ATOM     18  C   UNL     1     -29.606  10.577  12.421  1.00  0.00     0.041 C 
ATOM     19  O   UNL     1     -30.325  11.504  11.963  1.00  0.00    -0.550 OA
ATOM     20  O   UNL     1     -29.787   9.277  11.965  1.00  0.00    -0.550 OA
ENDBRANCH  17  18
ENDBRANCH  16  17
ENDBRANCH  15  16
ENDBRANCH  14  15
ENDBRANCH  13  14
ENDBRANCH  12  13
ENDBRANCH  11  12
ENDBRANCH   1  11
TORSDOF 15
ENDMDL
MODEL 2
REMARK VINA RESULT:    -4.022      1.431      5.952
REMARK INTER + INTRA:          -9.812
REMARK INTER:                  -8.024
REMARK INTRA:                  -1.789
REMARK UNBOUND:                -2.263
REMARK SMILES O=C([O-])CCCCCCCCCCCCCCC(=O)[O-]
REMARK SMILES IDX 10 1 9 2 8 3 7 4 6 5 5 6 4 7 2 8 1 9 3 10 11 11 12 12 13 13
REMARK SMILES IDX 14 14 15 15 16 16 17 17 18 18 19 19 20 20
REMARK H PARENT
REMARK Flexibility Score: inf
ROOT
ATOM      1  C   UNL     1     -32.539  12.699  15.936  1.00  0.00     0.000 C 
ENDROOT
BRANCH   1   2
ATOM      2  C   UNL     1     -33.726  12.737  14.958  1.00  0.00     0.000 C 
BRANCH   2   3
ATOM      3  C   UNL     1     -33.287  13.011  13.511  1.00  0.00     0.000 C 
BRANCH   3   4
ATOM      4  C   UNL     1     -32.476  14.312  13.372  1.00  0.00     0.000 C 
BRANCH   4   5
ATOM      5  C   UNL     1     -31.050  14.066  12.856  1.00  0.00     0.000 C 
BRANCH   5   6
ATOM      6  C   UNL     1     -30.768  12.580  12.587  1.00  0.00     0.006 C 
BRANCH   6   7
ATOM      7  C   UNL     1     -29.527  12.111  13.352  1.00  0.00     0.053 C 
BRANCH   7   8
ATOM      8  C   UNL     1     -28.990  10.848  12.757  1.00  0.00     0.041 C 
ATOM      9  O   UNL     1     -27.974  10.295  13.254  1.00  0.00    -0.550 OA
ATOM     10  O   UNL     1     -29.581  10.307  11.623  1.00  0.00    -0.550 OA
ENDBRANCH   7   8
ENDBRANCH   6   7
ENDBRANCH   5   6
ENDBRANCH   4   5
ENDBRANCH   3   4
ENDBRANCH   2   3
ENDBRANCH   1   2
BRANCH   1  11
ATOM     11  C   UNL     1     -32.704  13.683  17.106  1.00  0.00     0.000 C 
BRANCH  11  12
ATOM     12  C   UNL     1     -31.415  14.460  17.416  1.00  0.00     0.000 C 
BRANCH  12  13
ATOM     13  C   UNL     1     -30.243  13.936  16.573  1.00  0.00     0.000 C 
BRANCH  13  14
ATOM     14  C   UNL     1     -29.574  15.041  15.740  1.00  0.00     0.000 C 
BRANCH  14  15
ATOM     15  C   UNL     1     -28.113  15.289  16.151  1.00  0.00     0.000 C 
BRANCH  15  16
ATOM     16  C   UNL     1     -27.979  15.839  17.585  1.00  0.00     0.006 C 
BRANCH  16  17
ATOM     17  C   UNL     1     -26.597  15.598  18.217  1.00  0.00     0.053 C 
BRANCH  17  18
ATOM     18  C   UNL     1     -26.673  14.793  19.477  1.00  0.00     0.041 C 
ATOM     19  O   UNL     1     -25.719  14.809  20.299  1.00  0.00    -0.550 OA
ATOM     20  O   UNL     1     -27.795  14.018  19.741  1.00  0.00    -0.550 OA
ENDBRANCH  17  18
ENDBRANCH  16  17
ENDBRANCH  15  16
ENDBRANCH  14  15
ENDBRANCH  13  14
ENDBRANCH  12  13
ENDBRANCH  11  12
ENDBRANCH   1  11
TORSDOF 15
ENDMDL
MODEL 3
REMARK VINA RESULT:    -3.930      2.113      3.024
REMARK INTER + INTRA:          -9.639
REMARK INTER:                  -8.237
REMARK INTRA:                  -1.402
REMARK UNBOUND:                -2.263
REMARK SMILES O=C([O-])CCCCCCCCCCCCCCC(=O)[O-]
REMARK SMILES IDX 10 1 9 2 8 3 7 4 6 5 5 6 4 7 2 8 1 9 3 10 11 11 12 12 13 13
REMARK SMILES IDX 14 14 15 15 16 16 17 17 18 18 19 19 20 20
REMARK H PARENT
REMARK Flexibility Score: inf
ROOT
ATOM      1  C   UNL     1     -30.764  15.066  14.383  1.00  0.00     0.000 C 
ENDROOT
BRANCH   1   2
ATOM      2  C   UNL     1     -30.949  14.433  15.773  1.00  0.00     0.000 C 
BRANCH   2   3
ATOM      3  C   UNL     1     -29.622  13.953  16.383  1.00  0.00     0.000 C 
BRANCH   3   4
ATOM      4  C   UNL     1     -28.673  15.114  16.731  1.00  0.00     0.000 C 
BRANCH   4   5
ATOM      5  C   UNL     1     -29.294  16.104  17.730  1.00  0.00     0.000 C 
BRANCH   5   6
ATOM      6  C   UNL     1     -28.272  16.637  18.745  1.00  0.00     0.006 C 
BRANCH   6   7
ATOM      7  C   UNL     1     -28.832  17.845  19.502  1.00  0.00     0.053 C 
BRANCH   7   8
ATOM      8  C   UNL     1     -28.958  17.538  20.961  1.00  0.00     0.041 C 
ATOM      9  O   UNL     1     -28.873  16.350  21.367  1.00  0.00    -0.550 OA
ATOM     10  O   UNL     1     -29.217  18.559  21.866  1.00  0.00    -0.550 OA
ENDBRANCH   7   8
ENDBRANCH   6   7
ENDBRANCH   5   6
ENDBRANCH   4   5
ENDBRANCH   3   4
ENDBRANCH   2   3
ENDBRANCH   1   2
BRANCH   1  11
ATOM     11  C   UNL     1     -31.894  14.695  13.409  1.00  0.00     0.000 C 
BRANCH  11  12
ATOM     12  C   UNL     1     -33.057  13.965  14.098  1.00  0.00     0.000 C 
BRANCH  12  13
ATOM     13  C   UNL     1     -33.768  13.019  13.119  1.00  0.00     0.000 C 
BRANCH  13  14
ATOM     14  C   UNL     1     -33.680  11.547  13.552  1.00  0.00     0.000 C 
BRANCH  14  15
ATOM     15  C   UNL     1     -32.429  11.252  14.398  1.00  0.00     0.000 C 
BRANCH  15  16
ATOM     16  C   UNL     1     -31.339  10.497  13.613  1.00  0.00     0.006 C 
BRANCH  16  17
ATOM     17  C   UNL     1     -30.626  11.356  12.554  1.00  0.00     0.053 C 
BRANCH  17  18
ATOM     18  C   UNL     1     -29.157  11.485  12.811  1.00  0.00     0.041 C 
ATOM     19  O   UNL     1     -28.718  12.424  13.527  1.00  0.00    -0.550 OA
ATOM     20  O   UNL     1     -28.270  10.574  12.252  1.00  0.00    -0.550 OA
ENDBRANCH  17  18
ENDBRANCH  16  17
ENDBRANCH  15  16
ENDBRANCH  14  15
ENDBRANCH  13  14
ENDBRANCH  12  13
ENDBRANCH  11  12
ENDBRANCH   1  11
TORSDOF 15
ENDMDL
MODEL 4
REMARK VINA RESULT:    -3.927      2.094      5.307
REMARK INTER + INTRA:          -9.634
REMARK INTER:                  -7.528
REMARK INTRA:                  -2.106
REMARK UNBOUND:                -2.263
REMARK SMILES O=C([O-])CCCCCCCCCCCCCCC(=O)[O-]
REMARK SMILES IDX 10 1 9 2 8 3 7 4 6 5 5 6 4 7 2 8 1 9 3 10 11 11 12 12 13 13
REMARK SMILES IDX 14 14 15 15 16 16 17 17 18 18 19 19 20 20
REMARK H PARENT
REMARK Flexibility Score: inf
ROOT
ATOM      1  C   UNL     1     -32.765  10.462  13.425  1.00  0.00     0.000 C 
ENDROOT
BRANCH   1   2
ATOM      2  C   UNL     1     -32.163   9.690  12.238  1.00  0.00     0.000 C 
BRANCH   2   3
ATOM      3  C   UNL     1     -30.696  10.066  11.974  1.00  0.00     0.000 C 
BRANCH   3   4
ATOM      4  C   UNL     1     -30.368  11.510  12.394  1.00  0.00     0.000 C 
BRANCH   4   5
ATOM      5  C   UNL     1     -29.251  11.579  13.447  1.00  0.00     0.000 C 
BRANCH   5   6
ATOM      6  C   UNL     1     -28.330  10.349  13.412  1.00  0.00     0.006 C 
BRANCH   6   7
ATOM      7  C   UNL     1     -28.200   9.725  14.805  1.00  0.00     0.053 C 
BRANCH   7   8
ATOM      8  C   UNL     1     -29.550   9.409  15.366  1.00  0.00     0.041 C 
ATOM      9  O   UNL     1     -30.175   8.388  14.976  1.00  0.00    -0.550 OA
ATOM     10  O   UNL     1     -30.140  10.268  16.284  1.00  0.00    -0.550 OA
ENDBRANCH   7   8
ENDBRANCH   6   7
ENDBRANCH   5   6
ENDBRANCH   4   5
ENDBRANCH   3   4
ENDBRANCH   2   3
ENDBRANCH   1   2
BRANCH   1  11
ATOM     11  C   UNL     1     -33.952  11.348  13.014  1.00  0.00     0.000 C 
BRANCH  11  12
ATOM     12  C   UNL     1     -34.034  12.648  13.828  1.00  0.00     0.000 C 
BRANCH  12  13
ATOM     13  C   UNL     1     -33.307  13.793  13.106  1.00  0.00     0.000 C 
BRANCH  13  14
ATOM     14  C   UNL     1     -32.163  14.386  13.943  1.00  0.00     0.000 C 
BRANCH  14  15
ATOM     15  C   UNL     1     -31.900  13.591  15.234  1.00  0.00     0.000 C 
BRANCH  15  16
ATOM     16  C   UNL     1     -31.064  14.378  16.262  1.00  0.00     0.006 C 
BRANCH  16  17
ATOM     17  C   UNL     1     -29.608  13.895  16.382  1.00  0.00     0.053 C 
BRANCH  17  18
ATOM     18  C   UNL     1     -28.617  14.962  16.036  1.00  0.00     0.041 C 
ATOM     19  O   UNL     1     -28.149  15.039  14.869  1.00  0.00    -0.550 OA
ATOM     20  O   UNL     1     -28.202  15.867  17.005  1.00  0.00    -0.550 OA
ENDBRANCH  17  18
ENDBRANCH  16  17
ENDBRANCH  15  16
ENDBRANCH  14  15
ENDBRANCH  13  14
ENDBRANCH  12  13
ENDBRANCH  11  12
ENDBRANCH   1  11
TORSDOF 15
ENDMDL
MODEL 5
REMARK VINA RESULT:    -3.912      2.585      3.986
REMARK INTER + INTRA:          -9.606
REMARK INTER:                  -8.373
REMARK INTRA:                  -1.233
REMARK UNBOUND:                -2.263
REMARK SMILES O=C([O-])CCCCCCCCCCCCCCC(=O)[O-]
REMARK SMILES IDX 10 1 9 2 8 3 7 4 6 5 5 6 4 7 2 8 1 9 3 10 11 11 12 12 13 13
REMARK SMILES IDX 14 14 15 15 16 16 17 17 18 18 19 19 20 20
REMARK H PARENT
REMARK Flexibility Score: inf
ROOT
ATOM      1  C   UNL     1     -30.673  14.321  16.287  1.00  0.00     0.000 C 
ENDROOT
BRANCH   1   2
ATOM      2  C   UNL     1     -30.220  15.183  17.478  1.00  0.00     0.000 C 
BRANCH   2   3
ATOM      3  C   UNL     1     -28.803  15.749  17.290  1.00  0.00     0.000 C 
BRANCH   3   4
ATOM      4  C   UNL     1     -28.239  16.380  18.576  1.00  0.00     0.000 C 
BRANCH   4   5
ATOM      5  C   UNL     1     -28.969  17.675  18.967  1.00  0.00     0.000 C 
BRANCH   5   6
ATOM      6  C   UNL     1     -29.067  17.862  20.489  1.00  0.00     0.006 C 
BRANCH   6   7
ATOM      7  C   UNL     1     -29.829  16.701  21.134  1.00  0.00     0.053 C 
BRANCH   7   8
ATOM      8  C   UNL     1     -29.610  16.688  22.614  1.00  0.00     0.041 C 
ATOM      9  O   UNL     1     -28.794  15.878  23.126  1.00  0.00    -0.550 OA
ATOM     10  O   UNL     1     -30.342  17.538  23.433  1.00  0.00    -0.550 OA
ENDBRANCH   7   8
ENDBRANCH   6   7
ENDBRANCH   5   6
ENDBRANCH   4   5
ENDBRANCH   3   4
ENDBRANCH   2   3
ENDBRANCH   1   2
BRANCH   1  11
ATOM     11  C   UNL     1     -30.078  14.797  14.952  1.00  0.00     0.000 C 
BRANCH  11  12
ATOM     12  C   UNL     1     -31.148  15.047  13.879  1.00  0.00     0.000 C 
BRANCH  12  13
ATOM     13  C   UNL     1     -32.419  14.236  14.173  1.00  0.00     0.000 C 
BRANCH  13  14
ATOM     14  C   UNL     1     -32.740  13.219  13.066  1.00  0.00     0.000 C 
BRANCH  14  15
ATOM     15  C   UNL     1     -32.526  11.764  13.519  1.00  0.00     0.000 C 
BRANCH  15  16
ATOM     16  C   UNL     1     -31.255  11.131  12.922  1.00  0.00     0.006 C 
BRANCH  16  17
ATOM     17  C   UNL     1     -30.172  10.806  13.966  1.00  0.00     0.053 C 
BRANCH  17  18
ATOM     18  C   UNL     1     -28.789  11.083  13.466  1.00  0.00     0.041 C 
ATOM     19  O   UNL     1     -27.995  10.132  13.236  1.00  0.00    -0.550 OA
ATOM     20  O   UNL     1     -28.370  12.392  13.264  1.00  0.00    -0.550 OA
ENDBRANCH  17  18
ENDBRANCH  16  17
ENDBRANCH  15  16
ENDBRANCH  14  15
ENDBRANCH  13  14
ENDBRANCH  12  13
ENDBRANCH  11  12
ENDBRANCH   1  11
TORSDOF 15
ENDMDL
MODEL 6
REMARK VINA RESULT:    -3.905      1.344      2.937
REMARK INTER + INTRA:          -9.592
REMARK INTER:                  -7.231
REMARK INTRA:                  -2.361
REMARK UNBOUND:                -2.263
REMARK SMILES O=C([O-])CCCCCCCCCCCCCCC(=O)[O-]
REMARK SMILES IDX 10 1 9 2 8 3 7 4 6 5 5 6 4 7 2 8 1 9 3 10 11 11 12 12 13 13
REMARK SMILES IDX 14 14 15 15 16 16 17 17 18 18 19 19 20 20
REMARK H PARENT
REMARK Flexibility Score: inf
ROOT
ATOM      1  C   UNL     1     -32.505  10.891  15.927  1.00  0.00     0.000 C 
ENDROOT
BRANCH   1   2
ATOM      2  C   UNL     1     -32.595  12.197  16.735  1.00  0.00     0.000 C 
BRANCH   2   3
ATOM      3  C   UNL     1     -31.214  12.821  17.001  1.00  0.00     0.000 C 
BRANCH   3   4
ATOM      4  C   UNL     1     -31.304  14.284  17.471  1.00  0.00     0.000 C 
BRANCH   4   5
ATOM      5  C   UNL     1     -30.287  15.193  16.763  1.00  0.00     0.000 C 
BRANCH   5   6
ATOM      6  C   UNL     1     -28.906  14.537  16.620  1.00  0.00     0.006 C 
BRANCH   6   7
ATOM      7  C   UNL     1     -27.795  15.504  17.040  1.00  0.00     0.053 C 
BRANCH   7   8
ATOM      8  C   UNL     1     -27.199  15.084  18.346  1.00  0.00     0.041 C 
ATOM      9  O   UNL     1     -26.037  15.452  18.660  1.00  0.00    -0.550 OA
ATOM     10  O   UNL     1     -27.908  14.246  19.196  1.00  0.00    -0.550 OA
ENDBRANCH   7   8
ENDBRANCH   6   7
ENDBRANCH   5   6
ENDBRANCH   4   5
ENDBRANCH   3   4
ENDBRANCH   2   3
ENDBRANCH   1   2
BRANCH   1  11
ATOM     11  C   UNL     1     -33.350  10.932  14.643  1.00  0.00     0.000 C 
BRANCH  11  12
ATOM     12  C   UNL     1     -34.036  12.289  14.425  1.00  0.00     0.000 C 
BRANCH  12  13
ATOM     13  C   UNL     1     -33.584  12.926  13.102  1.00  0.00     0.000 C 
BRANCH  13  14
ATOM     14  C   UNL     1     -32.980  14.326  13.296  1.00  0.00     0.000 C 
BRANCH  14  15
ATOM     15  C   UNL     1     -31.453  14.292  13.480  1.00  0.00     0.000 C 
BRANCH  15  16
ATOM     16  C   UNL     1     -30.790  13.101  12.763  1.00  0.00     0.006 C 
BRANCH  16  17
ATOM     17  C   UNL     1     -29.737  12.370  13.615  1.00  0.00     0.053 C 
BRANCH  17  18
ATOM     18  C   UNL     1     -29.425  11.001  13.096  1.00  0.00     0.041 C 
ATOM     19  O   UNL     1     -30.106  10.010  13.468  1.00  0.00    -0.550 OA
ATOM     20  O   UNL     1     -28.374  10.818  12.206  1.00  0.00    -0.550 OA
ENDBRANCH  17  18
ENDBRANCH  16  17
ENDBRANCH  15  16
ENDBRANCH  14  15
ENDBRANCH  13  14
ENDBRANCH  12  13
ENDBRANCH  11  12
ENDBRANCH   1  11
TORSDOF 15
ENDMDL
MODEL 7
REMARK VINA RESULT:    -3.897      4.319      9.028
REMARK INTER + INTRA:          -9.578
REMARK INTER:                  -8.446
REMARK INTRA:                  -1.131
REMARK UNBOUND:                -2.263
REMARK SMILES O=C([O-])CCCCCCCCCCCCCCC(=O)[O-]
REMARK SMILES IDX 10 1 9 2 8 3 7 4 6 5 5 6 4 7 2 8 1 9 3 10 11 11 12 12 13 13
REMARK SMILES IDX 14 14 15 15 16 16 17 17 18 18 19 19 20 20
REMARK H PARENT
REMARK Flexibility Score: inf
ROOT
ATOM      1  C   UNL     1     -27.237  14.899  19.654  1.00  0.00     0.000 C 
ENDROOT
BRANCH   1   2
ATOM      2  C   UNL     1     -26.661  15.715  18.484  1.00  0.00     0.000 C 
BRANCH   2   3
ATOM      3  C   UNL     1     -27.367  15.411  17.152  1.00  0.00     0.000 C 
BRANCH   3   4
ATOM      4  C   UNL     1     -28.868  15.752  17.183  1.00  0.00     0.000 C 
BRANCH   4   5
ATOM      5  C   UNL     1     -29.738  14.635  16.586  1.00  0.00     0.000 C 
BRANCH   5   6
ATOM      6  C   UNL     1     -29.568  14.502  15.065  1.00  0.00     0.006 C 
BRANCH   6   7
ATOM      7  C   UNL     1     -30.800  15.036  14.328  1.00  0.00     0.053 C 
BRANCH   7   8
ATOM      8  C   UNL     1     -31.207  14.097  13.238  1.00  0.00     0.041 C 
ATOM      9  O   UNL     1     -32.412  14.023  12.882  1.00  0.00    -0.550 OA
ATOM     10  O   UNL     1     -30.263  13.267  12.647  1.00  0.00    -0.550 OA
ENDBRANCH   7   8
ENDBRANCH   6   7
ENDBRANCH   5   6
ENDBRANCH   4   5
ENDBRANCH   3   4
ENDBRANCH   2   3
ENDBRANCH   1   2
BRANCH   1  11
ATOM     11  C   UNL     1     -27.616  15.777  20.858  1.00  0.00     0.000 C 
BRANCH  11  12
ATOM     12  C   UNL     1     -27.570  17.278  20.536  1.00  0.00     0.000 C 
BRANCH  12  13
ATOM     13  C   UNL     1     -28.985  17.875  20.503  1.00  0.00     0.000 C 
BRANCH  13  14
ATOM     14  C   UNL     1     -29.996  17.044  21.308  1.00  0.00     0.000 C 
BRANCH  14  15
ATOM     15  C   UNL     1     -30.388  17.713  22.636  1.00  0.00     0.000 C 
BRANCH  15  16
ATOM     16  C   UNL     1     -31.344  16.851  23.483  1.00  0.00     0.006 C 
BRANCH  16  17
ATOM     17  C   UNL     1     -30.645  15.714  24.247  1.00  0.00     0.053 C 
BRANCH  17  18
ATOM     18  C   UNL     1     -30.992  15.700  25.703  1.00  0.00     0.041 C 
ATOM     19  O   UNL     1     -30.112  15.952  26.568  1.00  0.00    -0.550 OA
ATOM     20  O   UNL     1     -32.286  15.398  26.107  1.00  0.00    -0.550 OA
ENDBRANCH  17  18
ENDBRANCH  16  17
ENDBRANCH  15  16
ENDBRANCH  14  15
ENDBRANCH  13  14
ENDBRANCH  12  13
ENDBRANCH  11  12
ENDBRANCH   1  11
TORSDOF 15
ENDMDL
MODEL 8
REMARK VINA RESULT:    -3.895      4.998      7.169
REMARK INTER + INTRA:          -9.573
REMARK INTER:                  -8.708
REMARK INTRA:                  -0.865
REMARK UNBOUND:                -2.263
REMARK SMILES O=C([O-])CCCCCCCCCCCCCCC(=O)[O-]
REMARK SMILES IDX 10 1 9 2 8 3 7 4 6 5 5 6 4 7 2 8 1 9 3 10 11 11 12 12 13 13
REMARK SMILES IDX 14 14 15 15 16 16 17 17 18 18 19 19 20 20
REMARK H PARENT
REMARK Flexibility Score: inf
ROOT
ATOM      1  C   UNL     1     -29.108  17.755  20.242  1.00  0.00     0.000 C 
ENDROOT
BRANCH   1   2
ATOM      2  C   UNL     1     -28.843  18.130  21.710  1.00  0.00     0.000 C 
BRANCH   2   3
ATOM      3  C   UNL     1     -30.069  17.894  22.608  1.00  0.00     0.000 C 
BRANCH   3   4
ATOM      4  C   UNL     1     -31.021  16.823  22.044  1.00  0.00     0.000 C 
BRANCH   4   5
ATOM      5  C   UNL     1     -31.946  16.232  23.120  1.00  0.00     0.000 C 
BRANCH   5   6
ATOM      6  C   UNL     1     -31.307  16.236  24.516  1.00  0.00     0.006 C 
BRANCH   6   7
ATOM      7  C   UNL     1     -31.816  15.059  25.354  1.00  0.00     0.053 C 
BRANCH   7   8
ATOM      8  C   UNL     1     -31.120  15.018  26.678  1.00  0.00     0.041 C 
ATOM      9  O   UNL     1     -31.420  14.134  27.523  1.00  0.00    -0.550 OA
ATOM     10  O   UNL     1     -30.175  15.983  26.997  1.00  0.00    -0.550 OA
ENDBRANCH   7   8
ENDBRANCH   6   7
ENDBRANCH   5   6
ENDBRANCH   4   5
ENDBRANCH   3   4
ENDBRANCH   2   3
ENDBRANCH   1   2
BRANCH   1  11
ATOM     11  C   UNL     1     -27.976  16.913  19.633  1.00  0.00     0.000 C 
BRANCH  11  12
ATOM     12  C   UNL     1     -28.361  16.284  18.285  1.00  0.00     0.000 C 
BRANCH  12  13
ATOM     13  C   UNL     1     -29.685  15.514  18.397  1.00  0.00     0.000 C 
BRANCH  13  14
ATOM     14  C   UNL     1     -30.206  15.032  17.033  1.00  0.00     0.000 C 
BRANCH  14  15
ATOM     15  C   UNL     1     -29.134  15.106  15.932  1.00  0.00     0.000 C 
BRANCH  15  16
ATOM     16  C   UNL     1     -29.712  14.892  14.519  1.00  0.00     0.006 C 
BRANCH  16  17
ATOM     17  C   UNL     1     -31.196  14.485  14.509  1.00  0.00     0.053 C 
BRANCH  17  18
ATOM     18  C   UNL     1     -31.688  14.139  13.138  1.00  0.00     0.041 C 
ATOM     19  O   UNL     1     -30.890  13.704  12.267  1.00  0.00    -0.550 OA
ATOM     20  O   UNL     1     -33.030  14.306  12.818  1.00  0.00    -0.550 OA
ENDBRANCH  17  18
ENDBRANCH  16  17
ENDBRANCH  15  16
ENDBRANCH  14  15
ENDBRANCH  13  14
ENDBRANCH  12  13
ENDBRANCH  11  12
ENDBRANCH   1  11
TORSDOF 15
ENDMDL
MODEL 9
REMARK VINA RESULT:    -3.861      1.536      5.959
REMARK INTER + INTRA:          -9.510
REMARK INTER:                  -7.445
REMARK INTRA:                  -2.065
REMARK UNBOUND:                -2.263
REMARK SMILES O=C([O-])CCCCCCCCCCCCCCC(=O)[O-]
REMARK SMILES IDX 10 1 9 2 8 3 7 4 6 5 5 6 4 7 2 8 1 9 3 10 11 11 12 12 13 13
REMARK SMILES IDX 14 14 15 15 16 16 17 17 18 18 19 19 20 20
REMARK H PARENT
REMARK Flexibility Score: inf
ROOT
ATOM      1  C   UNL     1     -31.716  11.156  15.868  1.00  0.00     0.000 C 
ENDROOT
BRANCH   1   2
ATOM      2  C   UNL     1     -30.981   9.846  15.532  1.00  0.00     0.000 C 
BRANCH   2   3
ATOM      3  C   UNL     1     -31.871   8.852  14.767  1.00  0.00     0.000 C 
BRANCH   3   4
ATOM      4  C   UNL     1     -31.201   8.320  13.487  1.00  0.00     0.000 C 
BRANCH   4   5
ATOM      5  C   UNL     1     -31.567   9.144  12.243  1.00  0.00     0.000 C 
BRANCH   5   6
ATOM      6  C   UNL     1     -30.342   9.799  11.586  1.00  0.00     0.006 C 
BRANCH   6   7
ATOM      7  C   UNL     1     -30.137  11.223  12.110  1.00  0.00     0.053 C 
BRANCH   7   8
ATOM      8  C   UNL     1     -28.881  11.309  12.918  1.00  0.00     0.041 C 
ATOM      9  O   UNL     1     -28.502  12.415  13.385  1.00  0.00    -0.550 OA
ATOM     10  O   UNL     1     -28.103  10.176  13.116  1.00  0.00    -0.550 OA
ENDBRANCH   7   8
ENDBRANCH   6   7
ENDBRANCH   5   6
ENDBRANCH   4   5
ENDBRANCH   3   4
ENDBRANCH   2   3
ENDBRANCH   1   2
BRANCH   1  11
ATOM     11  C   UNL     1     -32.666  11.606  14.746  1.00  0.00     0.000 C 
BRANCH  11  12
ATOM     12  C   UNL     1     -32.956  13.114  14.783  1.00  0.00     0.000 C 
BRANCH  12  13
ATOM     13  C   UNL     1     -32.257  13.835  13.621  1.00  0.00     0.000 C 
BRANCH  13  14
ATOM     14  C   UNL     1     -31.134  14.771  14.097  1.00  0.00     0.000 C 
BRANCH  14  15
ATOM     15  C   UNL     1     -31.000  14.803  15.629  1.00  0.00     0.000 C 
BRANCH  15  16
ATOM     16  C   UNL     1     -29.665  14.217  16.126  1.00  0.00     0.006 C 
BRANCH  16  17
ATOM     17  C   UNL     1     -28.471  15.175  15.978  1.00  0.00     0.053 C 
BRANCH  17  18
ATOM     18  C   UNL     1     -27.671  15.298  17.237  1.00  0.00     0.041 C 
ATOM     19  O   UNL     1     -26.438  15.552  17.184  1.00  0.00    -0.550 OA
ATOM     20  O   UNL     1     -28.284  15.122  18.471  1.00  0.00    -0.550 OA
ENDBRANCH  17  18
ENDBRANCH  16  17
ENDBRANCH  15  16
ENDBRANCH  14  15
ENDBRANCH  13  14
ENDBRANCH  12  13
ENDBRANCH  11  12
ENDBRANCH   1  11
TORSDOF 15
ENDMDL
