MODEL 1
REMARK VINA RESULT:    -4.969      0.000      0.000
REMARK INTER + INTRA:         -11.321
REMARK INTER:                  -9.037
REMARK INTRA:                  -2.285
REMARK UNBOUND:                -2.285
REMARK SMILES CCCCCCCCCCCCCCCC(=O)[O-]
REMARK SMILES IDX 9 1 10 2 11 3 12 4 13 5 14 6 15 7 16 8 17 9 18 10 8 11 7 12
REMARK SMILES IDX 6 13 5 14 4 15 3 16 2 17 1 18
REMARK H PARENT
REMARK Flexibility Score: inf
ROOT
ATOM      1  C   UNL     1     120.209 177.787 124.000  1.00  0.00     0.000 C 
ENDROOT
BRANCH   1   2
ATOM      2  C   UNL     1     118.794 177.967 124.589  1.00  0.00     0.000 C 
BRANCH   2   3
ATOM      3  C   UNL     1     118.661 179.082 125.643  1.00  0.00     0.000 C 
BRANCH   3   4
ATOM      4  C   UNL     1     118.297 178.596 127.058  1.00  0.00     0.000 C 
BRANCH   4   5
ATOM      5  C   UNL     1     117.763 177.147 127.096  1.00  0.00     0.000 C 
BRANCH   5   6
ATOM      6  C   UNL     1     116.232 177.088 127.246  1.00  0.00     0.006 C 
BRANCH   6   7
ATOM      7  C   UNL     1     115.537 176.691 125.938  1.00  0.00     0.053 C 
BRANCH   7   8
ATOM      8  C   UNL     1     115.155 177.890 125.125  1.00  0.00     0.041 C 
ATOM      9  O   UNL     1     114.953 177.777 123.888  1.00  0.00    -0.550 OA
ATOM     10  O   UNL     1     115.057 179.138 125.727  1.00  0.00    -0.550 OA
ENDBRANCH   7   8
ENDBRANCH   6   7
ENDBRANCH   5   6
ENDBRANCH   4   5
ENDBRANCH   3   4
ENDBRANCH   2   3
ENDBRANCH   1   2
BRANCH   1  11
ATOM     11  C   UNL     1     120.946 176.509 124.438  1.00  0.00     0.000 C 
BRANCH  11  12
ATOM     12  C   UNL     1     121.447 176.573 125.891  1.00  0.00    -0.000 C 
BRANCH  12  13
ATOM     13  C   UNL     1     122.211 177.872 126.204  1.00  0.00    -0.000 C 
BRANCH  13  14
ATOM     14  C   UNL     1     122.007 178.432 127.626  1.00  0.00    -0.000 C 
BRANCH  14  15
ATOM     15  C   UNL     1     121.257 177.498 128.595  1.00  0.00    -0.000 C 
BRANCH  15  16
ATOM     16  C   UNL     1     121.131 178.084 130.008  1.00  0.00    -0.000 C 
BRANCH  16  17
ATOM     17  C   UNL     1     119.715 177.880 130.561  1.00  0.00    -0.003 C 
ATOM     18  C   UNL     1     119.364 176.398 130.646  1.00  0.00     0.004 C 
ENDBRANCH  16  17
ENDBRANCH  15  16
ENDBRANCH  14  15
ENDBRANCH  13  14
ENDBRANCH  12  13
ENDBRANCH  11  12
ENDBRANCH   1  11
TORSDOF 14
ENDMDL
MODEL 2
REMARK VINA RESULT:    -4.954      1.799      2.419
REMARK INTER + INTRA:         -11.294
REMARK INTER:                  -9.228
REMARK INTRA:                  -2.066
REMARK UNBOUND:                -2.285
REMARK SMILES CCCCCCCCCCCCCCCC(=O)[O-]
REMARK SMILES IDX 9 1 10 2 11 3 12 4 13 5 14 6 15 7 16 8 17 9 18 10 8 11 7 12
REMARK SMILES IDX 6 13 5 14 4 15 3 16 2 17 1 18
REMARK H PARENT
REMARK Flexibility Score: inf
ROOT
ATOM      1  C   UNL     1     119.334 178.306 124.337  1.00  0.00     0.000 C 
ENDROOT
BRANCH   1   2
ATOM      2  C   UNL     1     118.863 179.419 125.296  1.00  0.00     0.000 C 
BRANCH   2   3
ATOM      3  C   UNL     1     118.011 178.940 126.485  1.00  0.00     0.000 C 
BRANCH   3   4
ATOM      4  C   UNL     1     116.631 179.613 126.606  1.00  0.00     0.000 C 
BRANCH   4   5
ATOM      5  C   UNL     1     115.511 178.869 125.846  1.00  0.00     0.000 C 
BRANCH   5   6
ATOM      6  C   UNL     1     115.034 177.607 126.587  1.00  0.00     0.006 C 
BRANCH   6   7
ATOM      7  C   UNL     1     115.542 176.320 125.925  1.00  0.00     0.053 C 
BRANCH   7   8
ATOM      8  C   UNL     1     116.434 175.539 126.841  1.00  0.00     0.041 C 
ATOM      9  O   UNL     1     116.679 175.965 128.001  1.00  0.00    -0.550 OA
ATOM     10  O   UNL     1     117.024 174.360 126.404  1.00  0.00    -0.550 OA
ENDBRANCH   7   8
ENDBRANCH   6   7
ENDBRANCH   5   6
ENDBRANCH   4   5
ENDBRANCH   3   4
ENDBRANCH   2   3
ENDBRANCH   1   2
BRANCH   1  11
ATOM     11  C   UNL     1     119.114 176.867 124.837  1.00  0.00     0.000 C 
BRANCH  11  12
ATOM     12  C   UNL     1     120.396 176.223 125.393  1.00  0.00    -0.000 C 
BRANCH  12  13
ATOM     13  C   UNL     1     121.667 177.013 125.032  1.00  0.00    -0.000 C 
BRANCH  13  14
ATOM     14  C   UNL     1     122.521 177.473 126.232  1.00  0.00    -0.000 C 
BRANCH  14  15
ATOM     15  C   UNL     1     121.976 178.696 126.991  1.00  0.00    -0.000 C 
BRANCH  15  16
ATOM     16  C   UNL     1     121.850 178.452 128.502  1.00  0.00    -0.000 C 
BRANCH  16  17
ATOM     17  C   UNL     1     120.560 177.689 128.827  1.00  0.00    -0.003 C 
ATOM     18  C   UNL     1     120.560 177.197 130.271  1.00  0.00     0.004 C 
ENDBRANCH  16  17
ENDBRANCH  15  16
ENDBRANCH  14  15
ENDBRANCH  13  14
ENDBRANCH  12  13
ENDBRANCH  11  12
ENDBRANCH   1  11
TORSDOF 14
ENDMDL
MODEL 3
REMARK VINA RESULT:    -4.948      1.469      3.225
REMARK INTER + INTRA:         -11.283
REMARK INTER:                  -8.915
REMARK INTRA:                  -2.368
REMARK UNBOUND:                -2.285
REMARK SMILES CCCCCCCCCCCCCCCC(=O)[O-]
REMARK SMILES IDX 9 1 10 2 11 3 12 4 13 5 14 6 15 7 16 8 17 9 18 10 8 11 7 12
REMARK SMILES IDX 6 13 5 14 4 15 3 16 2 17 1 18
REMARK H PARENT
REMARK Flexibility Score: inf
ROOT
ATOM      1  C   UNL     1     122.267 177.604 126.517  1.00  0.00     0.000 C 
ENDROOT
BRANCH   1   2
ATOM      2  C   UNL     1     121.382 177.281 125.295  1.00  0.00     0.000 C 
BRANCH   2   3
ATOM      3  C   UNL     1     119.878 177.142 125.595  1.00  0.00     0.000 C 
BRANCH   3   4
ATOM      4  C   UNL     1     118.976 178.158 124.870  1.00  0.00     0.000 C 
BRANCH   4   5
ATOM      5  C   UNL     1     118.575 179.366 125.745  1.00  0.00     0.000 C 
BRANCH   5   6
ATOM      6  C   UNL     1     117.455 179.024 126.743  1.00  0.00     0.006 C 
BRANCH   6   7
ATOM      7  C   UNL     1     116.109 179.637 126.336  1.00  0.00     0.053 C 
BRANCH   7   8
ATOM      8  C   UNL     1     115.143 178.593 125.866  1.00  0.00     0.041 C 
ATOM      9  O   UNL     1     114.434 177.967 126.697  1.00  0.00    -0.550 OA
ATOM     10  O   UNL     1     115.049 178.286 124.514  1.00  0.00    -0.550 OA
ENDBRANCH   7   8
ENDBRANCH   6   7
ENDBRANCH   5   6
ENDBRANCH   4   5
ENDBRANCH   3   4
ENDBRANCH   2   3
ENDBRANCH   1   2
BRANCH   1  11
ATOM     11  C   UNL     1     121.597 178.458 127.609  1.00  0.00     0.000 C 
BRANCH  11  12
ATOM     12  C   UNL     1     121.633 177.793 128.995  1.00  0.00    -0.000 C 
BRANCH  12  13
ATOM     13  C   UNL     1     120.293 177.902 129.746  1.00  0.00    -0.000 C 
BRANCH  13  14
ATOM     14  C   UNL     1     119.163 176.997 129.214  1.00  0.00    -0.000 C 
BRANCH  14  15
ATOM     15  C   UNL     1     119.590 175.564 128.849  1.00  0.00    -0.000 C 
BRANCH  15  16
ATOM     16  C   UNL     1     118.408 174.676 128.435  1.00  0.00    -0.000 C 
BRANCH  16  17
ATOM     17  C   UNL     1     117.194 175.528 128.047  1.00  0.00    -0.003 C 
ATOM     18  C   UNL     1     116.814 175.314 126.585  1.00  0.00     0.004 C 
ENDBRANCH  16  17
ENDBRANCH  15  16
ENDBRANCH  14  15
ENDBRANCH  13  14
ENDBRANCH  12  13
ENDBRANCH  11  12
ENDBRANCH   1  11
TORSDOF 14
ENDMDL
MODEL 4
REMARK VINA RESULT:    -4.892      1.806      4.487
REMARK INTER + INTRA:         -11.180
REMARK INTER:                  -8.883
REMARK INTRA:                  -2.297
REMARK UNBOUND:                -2.285
REMARK SMILES CCCCCCCCCCCCCCCC(=O)[O-]
REMARK SMILES IDX 9 1 10 2 11 3 12 4 13 5 14 6 15 7 16 8 17 9 18 10 8 11 7 12
REMARK SMILES IDX 6 13 5 14 4 15 3 16 2 17 1 18
REMARK H PARENT
REMARK Flexibility Score: inf
ROOT
ATOM      1  C   UNL     1     121.628 176.563 125.900  1.00  0.00     0.000 C 
ENDROOT
BRANCH   1   2
ATOM      2  C   UNL     1     122.328 177.884 126.280  1.00  0.00     0.000 C 
BRANCH   2   3
ATOM      3  C   UNL     1     121.795 178.563 127.555  1.00  0.00     0.000 C 
BRANCH   3   4
ATOM      4  C   UNL     1     121.195 177.602 128.598  1.00  0.00     0.000 C 
BRANCH   4   5
ATOM      5  C   UNL     1     119.730 177.924 128.967  1.00  0.00     0.000 C 
BRANCH   5   6
ATOM      6  C   UNL     1     118.924 176.665 129.331  1.00  0.00     0.006 C 
BRANCH   6   7
ATOM      7  C   UNL     1     118.669 175.767 128.114  1.00  0.00     0.053 C 
BRANCH   7   8
ATOM      8  C   UNL     1     117.205 175.587 127.852  1.00  0.00     0.041 C 
ATOM      9  O   UNL     1     116.369 175.796 128.770  1.00  0.00    -0.550 OA
ATOM     10  O   UNL     1     116.766 175.156 126.607  1.00  0.00    -0.550 OA
ENDBRANCH   7   8
ENDBRANCH   6   7
ENDBRANCH   5   6
ENDBRANCH   4   5
ENDBRANCH   3   4
ENDBRANCH   2   3
ENDBRANCH   1   2
BRANCH   1  11
ATOM     11  C   UNL     1     120.911 176.565 124.538  1.00  0.00     0.000 C 
BRANCH  11  12
ATOM     12  C   UNL     1     120.030 177.808 124.326  1.00  0.00    -0.000 C 
BRANCH  12  13
ATOM     13  C   UNL     1     118.740 177.778 125.165  1.00  0.00    -0.000 C 
BRANCH  13  14
ATOM     14  C   UNL     1     118.322 179.129 125.781  1.00  0.00    -0.000 C 
BRANCH  14  15
ATOM     15  C   UNL     1     117.127 179.064 126.750  1.00  0.00    -0.000 C 
BRANCH  15  16
ATOM     16  C   UNL     1     115.793 179.417 126.076  1.00  0.00    -0.000 C 
BRANCH  16  17
ATOM     17  C   UNL     1     115.033 178.150 125.668  1.00  0.00    -0.003 C 
ATOM     18  C   UNL     1     115.155 177.890 124.170  1.00  0.00     0.004 C 
ENDBRANCH  16  17
ENDBRANCH  15  16
ENDBRANCH  14  15
ENDBRANCH  13  14
ENDBRANCH  12  13
ENDBRANCH  11  12
ENDBRANCH   1  11
TORSDOF 14
ENDMDL
MODEL 5
REMARK VINA RESULT:    -4.881      1.979      4.970
REMARK INTER + INTRA:         -11.160
REMARK INTER:                  -8.528
REMARK INTRA:                  -2.632
REMARK UNBOUND:                -2.285
REMARK SMILES CCCCCCCCCCCCCCCC(=O)[O-]
REMARK SMILES IDX 9 1 10 2 11 3 12 4 13 5 14 6 15 7 16 8 17 9 18 10 8 11 7 12
REMARK SMILES IDX 6 13 5 14 4 15 3 16 2 17 1 18
REMARK H PARENT
REMARK Flexibility Score: inf
ROOT
ATOM      1  C   UNL     1     119.559 175.292 129.941  1.00  0.00     0.000 C 
ENDROOT
BRANCH   1   2
ATOM      2  C   UNL     1     120.315 176.622 129.742  1.00  0.00     0.000 C 
BRANCH   2   3
ATOM      3  C   UNL     1     119.420 177.866 129.592  1.00  0.00     0.000 C 
BRANCH   3   4
ATOM      4  C   UNL     1     119.008 178.196 128.145  1.00  0.00     0.000 C 
BRANCH   4   5
ATOM      5  C   UNL     1     120.196 178.258 127.161  1.00  0.00     0.000 C 
BRANCH   5   6
ATOM      6  C   UNL     1     119.745 178.481 125.707  1.00  0.00     0.006 C 
BRANCH   6   7
ATOM      7  C   UNL     1     118.252 178.818 125.608  1.00  0.00     0.053 C 
BRANCH   7   8
ATOM      8  C   UNL     1     117.595 178.103 124.467  1.00  0.00     0.041 C 
ATOM      9  O   UNL     1     116.409 177.696 124.574  1.00  0.00    -0.550 OA
ATOM     10  O   UNL     1     118.304 177.856 123.297  1.00  0.00    -0.550 OA
ENDBRANCH   7   8
ENDBRANCH   6   7
ENDBRANCH   5   6
ENDBRANCH   4   5
ENDBRANCH   3   4
ENDBRANCH   2   3
ENDBRANCH   1   2
BRANCH   1  11
ATOM     11  C   UNL     1     118.192 175.408 130.638  1.00  0.00     0.000 C 
BRANCH  11  12
ATOM     12  C   UNL     1     117.037 174.843 129.793  1.00  0.00    -0.000 C 
BRANCH  12  13
ATOM     13  C   UNL     1     116.306 175.925 128.979  1.00  0.00    -0.000 C 
BRANCH  13  14
ATOM     14  C   UNL     1     116.299 175.711 127.452  1.00  0.00    -0.000 C 
BRANCH  14  15
ATOM     15  C   UNL     1     117.223 174.589 126.945  1.00  0.00    -0.000 C 
BRANCH  15  16
ATOM     16  C   UNL     1     118.504 175.123 126.287  1.00  0.00    -0.000 C 
BRANCH  16  17
ATOM     17  C   UNL     1     119.659 174.128 126.449  1.00  0.00    -0.003 C 
ATOM     18  C   UNL     1     120.895 174.589 125.684  1.00  0.00     0.004 C 
ENDBRANCH  16  17
ENDBRANCH  15  16
ENDBRANCH  14  15
ENDBRANCH  13  14
ENDBRANCH  12  13
ENDBRANCH  11  12
ENDBRANCH   1  11
TORSDOF 14
ENDMDL
MODEL 6
REMARK VINA RESULT:    -4.844      4.254      6.942
REMARK INTER + INTRA:         -11.092
REMARK INTER:                  -9.550
REMARK INTRA:                  -1.542
REMARK UNBOUND:                -2.285
REMARK SMILES CCCCCCCCCCCCCCCC(=O)[O-]
REMARK SMILES IDX 9 1 10 2 11 3 12 4 13 5 14 6 15 7 16 8 17 9 18 10 8 11 7 12
REMARK SMILES IDX 6 13 5 14 4 15 3 16 2 17 1 18
REMARK H PARENT
REMARK Flexibility Score: inf
ROOT
ATOM      1  C   UNL     1     122.224 178.030 126.755  1.00  0.00     0.000 C 
ENDROOT
BRANCH   1   2
ATOM      2  C   UNL     1     121.766 176.928 125.776  1.00  0.00     0.000 C 
BRANCH   2   3
ATOM      3  C   UNL     1     122.729 176.650 124.607  1.00  0.00     0.000 C 
BRANCH   3   4
ATOM      4  C   UNL     1     122.049 176.473 123.236  1.00  0.00     0.000 C 
BRANCH   4   5
ATOM      5  C   UNL     1     123.041 176.442 122.053  1.00  0.00     0.000 C 
BRANCH   5   6
ATOM      6  C   UNL     1     122.532 177.233 120.836  1.00  0.00     0.006 C 
BRANCH   6   7
ATOM      7  C   UNL     1     122.276 176.329 119.622  1.00  0.00     0.053 C 
BRANCH   7   8
ATOM      8  C   UNL     1     122.996 176.820 118.404  1.00  0.00     0.041 C 
ATOM      9  O   UNL     1     122.960 176.152 117.337  1.00  0.00    -0.550 OA
ATOM     10  O   UNL     1     123.734 177.995 118.454  1.00  0.00    -0.550 OA
ENDBRANCH   7   8
ENDBRANCH   6   7
ENDBRANCH   5   6
ENDBRANCH   4   5
ENDBRANCH   3   4
ENDBRANCH   2   3
ENDBRANCH   1   2
BRANCH   1  11
ATOM     11  C   UNL     1     121.338 178.217 127.999  1.00  0.00     0.000 C 
BRANCH  11  12
ATOM     12  C   UNL     1     120.391 177.030 128.244  1.00  0.00    -0.000 C 
BRANCH  12  13
ATOM     13  C   UNL     1     118.939 177.467 128.509  1.00  0.00    -0.000 C 
BRANCH  13  14
ATOM     14  C   UNL     1     118.353 178.463 127.487  1.00  0.00    -0.000 C 
BRANCH  14  15
ATOM     15  C   UNL     1     118.077 177.879 126.089  1.00  0.00    -0.000 C 
BRANCH  15  16
ATOM     16  C   UNL     1     118.664 178.736 124.959  1.00  0.00    -0.000 C 
BRANCH  16  17
ATOM     17  C   UNL     1     118.745 177.937 123.652  1.00  0.00    -0.003 C 
ATOM     18  C   UNL     1     119.379 178.764 122.538  1.00  0.00     0.004 C 
ENDBRANCH  16  17
ENDBRANCH  15  16
ENDBRANCH  14  15
ENDBRANCH  13  14
ENDBRANCH  12  13
ENDBRANCH  11  12
ENDBRANCH   1  11
TORSDOF 14
ENDMDL
MODEL 7
REMARK VINA RESULT:    -4.840      1.466      3.919
REMARK INTER + INTRA:         -11.086
REMARK INTER:                  -8.689
REMARK INTRA:                  -2.397
REMARK UNBOUND:                -2.285
REMARK SMILES CCCCCCCCCCCCCCCC(=O)[O-]
REMARK SMILES IDX 9 1 10 2 11 3 12 4 13 5 14 6 15 7 16 8 17 9 18 10 8 11 7 12
REMARK SMILES IDX 6 13 5 14 4 15 3 16 2 17 1 18
REMARK H PARENT
REMARK Flexibility Score: inf
ROOT
ATOM      1  C   UNL     1     118.700 174.743 129.301  1.00  0.00     0.000 C 
ENDROOT
BRANCH   1   2
ATOM      2  C   UNL     1     117.343 175.277 129.807  1.00  0.00     0.000 C 
BRANCH   2   3
ATOM      3  C   UNL     1     116.494 176.008 128.752  1.00  0.00     0.000 C 
BRANCH   3   4
ATOM      4  C   UNL     1     116.838 175.664 127.291  1.00  0.00     0.000 C 
BRANCH   4   5
ATOM      5  C   UNL     1     117.338 176.874 126.471  1.00  0.00     0.000 C 
BRANCH   5   6
ATOM      6  C   UNL     1     117.106 178.212 127.194  1.00  0.00     0.006 C 
BRANCH   6   7
ATOM      7  C   UNL     1     116.311 179.205 126.336  1.00  0.00     0.053 C 
BRANCH   7   8
ATOM      8  C   UNL     1     115.060 178.589 125.790  1.00  0.00     0.041 C 
ATOM      9  O   UNL     1     114.870 178.539 124.546  1.00  0.00    -0.550 OA
ATOM     10  O   UNL     1     114.087 178.102 126.654  1.00  0.00    -0.550 OA
ENDBRANCH   7   8
ENDBRANCH   6   7
ENDBRANCH   5   6
ENDBRANCH   4   5
ENDBRANCH   3   4
ENDBRANCH   2   3
ENDBRANCH   1   2
BRANCH   1  11
ATOM     11  C   UNL     1     119.942 175.369 129.958  1.00  0.00     0.000 C 
BRANCH  11  12
ATOM     12  C   UNL     1     119.661 176.749 130.578  1.00  0.00    -0.000 C 
BRANCH  12  13
ATOM     13  C   UNL     1     119.819 177.902 129.571  1.00  0.00    -0.000 C 
BRANCH  13  14
ATOM     14  C   UNL     1     121.118 177.878 128.739  1.00  0.00    -0.000 C 
BRANCH  14  15
ATOM     15  C   UNL     1     120.961 178.309 127.270  1.00  0.00    -0.000 C 
BRANCH  15  16
ATOM     16  C   UNL     1     121.540 177.284 126.284  1.00  0.00    -0.000 C 
BRANCH  16  17
ATOM     17  C   UNL     1     120.810 175.941 126.398  1.00  0.00    -0.003 C 
ATOM     18  C   UNL     1     120.553 175.334 125.022  1.00  0.00     0.004 C 
ENDBRANCH  16  17
ENDBRANCH  15  16
ENDBRANCH  14  15
ENDBRANCH  13  14
ENDBRANCH  12  13
ENDBRANCH  11  12
ENDBRANCH   1  11
TORSDOF 14
ENDMDL
MODEL 8
REMARK VINA RESULT:    -4.834      1.393      2.278
REMARK INTER + INTRA:         -11.076
REMARK INTER:                  -8.819
REMARK INTRA:                  -2.257
REMARK UNBOUND:                -2.285
REMARK SMILES CCCCCCCCCCCCCCCC(=O)[O-]
REMARK SMILES IDX 9 1 10 2 11 3 12 4 13 5 14 6 15 7 16 8 17 9 18 10 8 11 7 12
REMARK SMILES IDX 6 13 5 14 4 15 3 16 2 17 1 18
REMARK H PARENT
REMARK Flexibility Score: inf
ROOT
ATOM      1  C   UNL     1     121.087 176.154 126.013  1.00  0.00     0.000 C 
ENDROOT
BRANCH   1   2
ATOM      2  C   UNL     1     119.832 176.284 125.125  1.00  0.00     0.000 C 
BRANCH   2   3
ATOM      3  C   UNL     1     119.870 177.436 124.104  1.00  0.00     0.000 C 
BRANCH   3   4
ATOM      4  C   UNL     1     118.681 178.411 124.184  1.00  0.00     0.000 C 
BRANCH   4   5
ATOM      5  C   UNL     1     118.656 179.252 125.479  1.00  0.00     0.000 C 
BRANCH   5   6
ATOM      6  C   UNL     1     117.413 178.968 126.342  1.00  0.00     0.006 C 
BRANCH   6   7
ATOM      7  C   UNL     1     116.359 178.149 125.588  1.00  0.00     0.053 C 
BRANCH   7   8
ATOM      8  C   UNL     1     115.851 177.004 126.411  1.00  0.00     0.041 C 
ATOM      9  O   UNL     1     115.673 175.875 125.884  1.00  0.00    -0.550 OA
ATOM     10  O   UNL     1     115.543 177.192 127.753  1.00  0.00    -0.550 OA
ENDBRANCH   7   8
ENDBRANCH   6   7
ENDBRANCH   5   6
ENDBRANCH   4   5
ENDBRANCH   3   4
ENDBRANCH   2   3
ENDBRANCH   1   2
BRANCH   1  11
ATOM     11  C   UNL     1     122.254 177.087 125.645  1.00  0.00     0.000 C 
BRANCH  11  12
ATOM     12  C   UNL     1     122.434 178.244 126.644  1.00  0.00    -0.000 C 
BRANCH  12  13
ATOM     13  C   UNL     1     121.255 178.378 127.624  1.00  0.00    -0.000 C 
BRANCH  13  14
ATOM     14  C   UNL     1     121.614 178.214 129.115  1.00  0.00    -0.000 C 
BRANCH  14  15
ATOM     15  C   UNL     1     120.549 177.503 129.970  1.00  0.00    -0.000 C 
BRANCH  15  16
ATOM     16  C   UNL     1     119.173 177.459 129.291  1.00  0.00    -0.000 C 
BRANCH  16  17
ATOM     17  C   UNL     1     118.713 176.012 129.080  1.00  0.00    -0.003 C 
ATOM     18  C   UNL     1     119.846 175.027 129.354  1.00  0.00     0.004 C 
ENDBRANCH  16  17
ENDBRANCH  15  16
ENDBRANCH  14  15
ENDBRANCH  13  14
ENDBRANCH  12  13
ENDBRANCH  11  12
ENDBRANCH   1  11
TORSDOF 14
ENDMDL
MODEL 9
REMARK VINA RESULT:    -4.830      3.371      5.227
REMARK INTER + INTRA:         -11.067
REMARK INTER:                  -8.594
REMARK INTRA:                  -2.474
REMARK UNBOUND:                -2.285
REMARK SMILES CCCCCCCCCCCCCCCC(=O)[O-]
REMARK SMILES IDX 9 1 10 2 11 3 12 4 13 5 14 6 15 7 16 8 17 9 18 10 8 11 7 12
REMARK SMILES IDX 6 13 5 14 4 15 3 16 2 17 1 18
REMARK H PARENT
REMARK Flexibility Score: inf
ROOT
ATOM      1  C   UNL     1     121.229 178.435 127.080  1.00  0.00     0.000 C 
ENDROOT
BRANCH   1   2
ATOM      2  C   UNL     1     121.969 178.278 128.425  1.00  0.00     0.000 C 
BRANCH   2   3
ATOM      3  C   UNL     1     121.088 177.833 129.608  1.00  0.00     0.000 C 
BRANCH   3   4
ATOM      4  C   UNL     1     119.584 177.729 129.292  1.00  0.00     0.000 C 
BRANCH   4   5
ATOM      5  C   UNL     1     118.944 176.404 129.760  1.00  0.00     0.000 C 
BRANCH   5   6
ATOM      6  C   UNL     1     119.803 175.177 129.408  1.00  0.00     0.006 C 
BRANCH   6   7
ATOM      7  C   UNL     1     118.952 173.928 129.147  1.00  0.00     0.053 C 
BRANCH   7   8
ATOM      8  C   UNL     1     119.781 172.784 128.651  1.00  0.00     0.041 C 
ATOM      9  O   UNL     1     120.636 172.967 127.745  1.00  0.00    -0.550 OA
ATOM     10  O   UNL     1     119.588 171.508 129.165  1.00  0.00    -0.550 OA
ENDBRANCH   7   8
ENDBRANCH   6   7
ENDBRANCH   5   6
ENDBRANCH   4   5
ENDBRANCH   3   4
ENDBRANCH   2   3
ENDBRANCH   1   2
BRANCH   1  11
ATOM     11  C   UNL     1     121.715 177.510 125.950  1.00  0.00     0.000 C 
BRANCH  11  12
ATOM     12  C   UNL     1     121.183 176.073 126.081  1.00  0.00    -0.000 C 
BRANCH  12  13
ATOM     13  C   UNL     1     119.923 175.821 125.234  1.00  0.00    -0.000 C 
BRANCH  13  14
ATOM     14  C   UNL     1     118.589 175.865 126.007  1.00  0.00    -0.000 C 
BRANCH  14  15
ATOM     15  C   UNL     1     117.573 176.905 125.500  1.00  0.00    -0.000 C 
BRANCH  15  16
ATOM     16  C   UNL     1     118.241 178.191 124.993  1.00  0.00    -0.000 C 
BRANCH  16  17
ATOM     17  C   UNL     1     117.912 179.377 125.908  1.00  0.00    -0.003 C 
ATOM     18  C   UNL     1     116.978 178.959 127.039  1.00  0.00     0.004 C 
ENDBRANCH  16  17
ENDBRANCH  15  16
ENDBRANCH  14  15
ENDBRANCH  13  14
ENDBRANCH  12  13
ENDBRANCH  11  12
ENDBRANCH   1  11
TORSDOF 14
ENDMDL
