MODEL 1
REMARK VINA RESULT:    -5.249      0.000      0.000
REMARK INTER + INTRA:         -11.646
REMARK INTER:                  -9.238
REMARK INTRA:                  -2.408
REMARK UNBOUND:                -2.408
REMARK SMILES CCCCCCCCCCCCCCC(=O)[O-]
REMARK SMILES IDX 9 1 10 2 11 3 12 4 13 5 14 6 15 7 16 8 17 9 8 10 7 11 6 12
REMARK SMILES IDX 5 13 4 14 3 15 2 16 1 17
REMARK H PARENT
REMARK Flexibility Score: inf
ROOT
ATOM      1  C   UNL     1      21.979  -4.575 -36.444  1.00  0.00     0.000 C 
ENDROOT
BRANCH   1   2
ATOM      2  C   UNL     1      23.420  -5.009 -36.124  1.00  0.00     0.000 C 
BRANCH   2   3
ATOM      3  C   UNL     1      23.728  -6.447 -36.575  1.00  0.00     0.000 C 
BRANCH   3   4
ATOM      4  C   UNL     1      22.500  -7.133 -37.211  1.00  0.00     0.000 C 
BRANCH   4   5
ATOM      5  C   UNL     1      22.809  -8.517 -37.808  1.00  0.00     0.006 C 
BRANCH   5   6
ATOM      6  C   UNL     1      23.302  -8.445 -39.258  1.00  0.00     0.053 C 
BRANCH   6   7
ATOM      7  C   UNL     1      24.772  -8.713 -39.325  1.00  0.00     0.041 C 
ATOM      8  O   UNL     1      25.200  -9.898 -39.342  1.00  0.00    -0.550 OA
ATOM      9  O   UNL     1      25.673  -7.656 -39.318  1.00  0.00    -0.550 OA
ENDBRANCH   6   7
ENDBRANCH   5   6
ENDBRANCH   4   5
ENDBRANCH   3   4
ENDBRANCH   2   3
ENDBRANCH   1   2
BRANCH   1  10
ATOM     10  C   UNL     1      21.765  -3.054 -36.539  1.00  0.00     0.000 C 
BRANCH  10  11
ATOM     11  C   UNL     1      20.818  -2.653 -37.679  1.00  0.00    -0.000 C 
BRANCH  11  12
ATOM     12  C   UNL     1      20.508  -3.851 -38.584  1.00  0.00    -0.000 C 
BRANCH  12  13
ATOM     13  C   UNL     1      21.311  -3.777 -39.891  1.00  0.00    -0.000 C 
BRANCH  13  14
ATOM     14  C   UNL     1      22.194  -5.016 -40.124  1.00  0.00    -0.000 C 
BRANCH  14  15
ATOM     15  C   UNL     1      23.705  -4.779 -39.947  1.00  0.00    -0.000 C 
BRANCH  15  16
ATOM     16  C   UNL     1      24.043  -3.332 -39.560  1.00  0.00    -0.003 C 
ATOM     17  C   UNL     1      25.365  -3.261 -38.801  1.00  0.00     0.004 C 
ENDBRANCH  15  16
ENDBRANCH  14  15
ENDBRANCH  13  14
ENDBRANCH  12  13
ENDBRANCH  11  12
ENDBRANCH  10  11
ENDBRANCH   1  10
TORSDOF 13
ENDMDL
MODEL 2
REMARK VINA RESULT:    -4.993      1.677      4.383
REMARK INTER + INTRA:         -11.196
REMARK INTER:                  -9.014
REMARK INTRA:                  -2.181
REMARK UNBOUND:                -2.408
REMARK SMILES CCCCCCCCCCCCCCC(=O)[O-]
REMARK SMILES IDX 9 1 10 2 11 3 12 4 13 5 14 6 15 7 16 8 17 9 8 10 7 11 6 12
REMARK SMILES IDX 5 13 4 14 3 15 2 16 1 17
REMARK H PARENT
REMARK Flexibility Score: inf
ROOT
ATOM      1  C   UNL     1      21.562  -3.691 -39.502  1.00  0.00     0.000 C 
ENDROOT
BRANCH   1   2
ATOM      2  C   UNL     1      22.308  -4.955 -39.964  1.00  0.00     0.000 C 
BRANCH   2   3
ATOM      3  C   UNL     1      23.837  -4.787 -39.949  1.00  0.00     0.000 C 
BRANCH   3   4
ATOM      4  C   UNL     1      24.261  -3.338 -39.628  1.00  0.00     0.000 C 
BRANCH   4   5
ATOM      5  C   UNL     1      25.491  -3.247 -38.708  1.00  0.00     0.006 C 
BRANCH   5   6
ATOM      6  C   UNL     1      25.802  -4.566 -37.993  1.00  0.00     0.053 C 
BRANCH   6   7
ATOM      7  C   UNL     1      27.280  -4.765 -37.881  1.00  0.00     0.041 C 
ATOM      8  O   UNL     1      28.071  -3.850 -38.231  1.00  0.00    -0.550 OA
ATOM      9  O   UNL     1      27.786  -5.980 -37.438  1.00  0.00    -0.550 OA
ENDBRANCH   6   7
ENDBRANCH   5   6
ENDBRANCH   4   5
ENDBRANCH   3   4
ENDBRANCH   2   3
ENDBRANCH   1   2
BRANCH   1  10
ATOM     10  C   UNL     1      20.960  -3.774 -38.087  1.00  0.00     0.000 C 
BRANCH  10  11
ATOM     11  C   UNL     1      21.189  -5.138 -37.419  1.00  0.00    -0.000 C 
BRANCH  11  12
ATOM     12  C   UNL     1      22.433  -5.110 -36.524  1.00  0.00    -0.000 C 
BRANCH  12  13
ATOM     13  C   UNL     1      23.153  -6.467 -36.540  1.00  0.00    -0.000 C 
BRANCH  13  14
ATOM     14  C   UNL     1      22.362  -7.558 -37.282  1.00  0.00    -0.000 C 
BRANCH  14  15
ATOM     15  C   UNL     1      23.146  -8.292 -38.386  1.00  0.00    -0.000 C 
BRANCH  15  16
ATOM     16  C   UNL     1      24.667  -8.127 -38.250  1.00  0.00    -0.003 C 
ATOM     17  C   UNL     1      25.371  -8.422 -39.571  1.00  0.00     0.004 C 
ENDBRANCH  15  16
ENDBRANCH  14  15
ENDBRANCH  13  14
ENDBRANCH  12  13
ENDBRANCH  11  12
ENDBRANCH  10  11
ENDBRANCH   1  10
TORSDOF 13
ENDMDL
MODEL 3
REMARK VINA RESULT:    -4.938      1.860      3.397
REMARK INTER + INTRA:         -11.100
REMARK INTER:                  -9.136
REMARK INTRA:                  -1.964
REMARK UNBOUND:                -2.408
REMARK SMILES CCCCCCCCCCCCCCC(=O)[O-]
REMARK SMILES IDX 9 1 10 2 11 3 12 4 13 5 14 6 15 7 16 8 17 9 8 10 7 11 6 12
REMARK SMILES IDX 5 13 4 14 3 15 2 16 1 17
REMARK H PARENT
REMARK Flexibility Score: inf
ROOT
ATOM      1  C   UNL     1      21.593  -3.999 -38.924  1.00  0.00     0.000 C 
ENDROOT
BRANCH   1   2
ATOM      2  C   UNL     1      21.192  -4.888 -37.734  1.00  0.00     0.000 C 
BRANCH   2   3
ATOM      3  C   UNL     1      22.133  -4.733 -36.527  1.00  0.00     0.000 C 
BRANCH   3   4
ATOM      4  C   UNL     1      23.194  -5.853 -36.468  1.00  0.00     0.000 C 
BRANCH   4   5
ATOM      5  C   UNL     1      22.742  -7.164 -37.135  1.00  0.00     0.006 C 
BRANCH   5   6
ATOM      6  C   UNL     1      23.782  -7.727 -38.111  1.00  0.00     0.053 C 
BRANCH   6   7
ATOM      7  C   UNL     1      23.109  -8.325 -39.305  1.00  0.00     0.041 C 
ATOM      8  O   UNL     1      23.696  -9.204 -39.989  1.00  0.00    -0.550 OA
ATOM      9  O   UNL     1      21.853  -7.876 -39.693  1.00  0.00    -0.550 OA
ENDBRANCH   6   7
ENDBRANCH   5   6
ENDBRANCH   4   5
ENDBRANCH   3   4
ENDBRANCH   2   3
ENDBRANCH   1   2
BRANCH   1  10
ATOM     10  C   UNL     1      22.394  -4.714 -40.027  1.00  0.00     0.000 C 
BRANCH  10  11
ATOM     11  C   UNL     1      23.908  -4.487 -39.909  1.00  0.00    -0.000 C 
BRANCH  11  12
ATOM     12  C   UNL     1      24.219  -3.040 -39.512  1.00  0.00    -0.000 C 
BRANCH  12  13
ATOM     13  C   UNL     1      25.518  -2.958 -38.698  1.00  0.00    -0.000 C 
BRANCH  13  14
ATOM     14  C   UNL     1      25.964  -4.322 -38.139  1.00  0.00    -0.000 C 
BRANCH  14  15
ATOM     15  C   UNL     1      27.475  -4.455 -37.878  1.00  0.00    -0.000 C 
BRANCH  15  16
ATOM     16  C   UNL     1      27.963  -5.911 -37.911  1.00  0.00    -0.003 C 
ATOM     17  C   UNL     1      27.031  -6.819 -37.113  1.00  0.00     0.004 C 
ENDBRANCH  15  16
ENDBRANCH  14  15
ENDBRANCH  13  14
ENDBRANCH  12  13
ENDBRANCH  11  12
ENDBRANCH  10  11
ENDBRANCH   1  10
TORSDOF 13
ENDMDL
MODEL 4
REMARK VINA RESULT:    -4.878      1.796      3.317
REMARK INTER + INTRA:         -10.993
REMARK INTER:                  -9.103
REMARK INTRA:                  -1.891
REMARK UNBOUND:                -2.408
REMARK SMILES CCCCCCCCCCCCCCC(=O)[O-]
REMARK SMILES IDX 9 1 10 2 11 3 12 4 13 5 14 6 15 7 16 8 17 9 8 10 7 11 6 12
REMARK SMILES IDX 5 13 4 14 3 15 2 16 1 17
REMARK H PARENT
REMARK Flexibility Score: inf
ROOT
ATOM      1  C   UNL     1      25.616  -4.407 -37.852  1.00  0.00     0.000 C 
ENDROOT
BRANCH   1   2
ATOM      2  C   UNL     1      27.069  -4.912 -37.823  1.00  0.00     0.000 C 
BRANCH   2   3
ATOM      3  C   UNL     1      27.170  -6.438 -37.662  1.00  0.00     0.000 C 
BRANCH   3   4
ATOM      4  C   UNL     1      25.791  -7.126 -37.745  1.00  0.00     0.000 C 
BRANCH   4   5
ATOM      5  C   UNL     1      25.543  -7.848 -39.081  1.00  0.00     0.006 C 
BRANCH   5   6
ATOM      6  C   UNL     1      24.601  -9.050 -38.945  1.00  0.00     0.053 C 
BRANCH   6   7
ATOM      7  C   UNL     1      23.180  -8.592 -38.850  1.00  0.00     0.041 C 
ATOM      8  O   UNL     1      22.561  -8.228 -39.884  1.00  0.00    -0.550 OA
ATOM      9  O   UNL     1      22.555  -8.520 -37.612  1.00  0.00    -0.550 OA
ENDBRANCH   6   7
ENDBRANCH   5   6
ENDBRANCH   4   5
ENDBRANCH   3   4
ENDBRANCH   2   3
ENDBRANCH   1   2
BRANCH   1  10
ATOM     10  C   UNL     1      25.366  -3.202 -38.777  1.00  0.00     0.000 C 
BRANCH  10  11
ATOM     11  C   UNL     1      24.032  -3.293 -39.532  1.00  0.00    -0.000 C 
BRANCH  11  12
ATOM     12  C   UNL     1      23.618  -4.754 -39.742  1.00  0.00    -0.000 C 
BRANCH  12  13
ATOM     13  C   UNL     1      22.103  -4.870 -39.970  1.00  0.00    -0.000 C 
BRANCH  13  14
ATOM     14  C   UNL     1      21.276  -4.393 -38.763  1.00  0.00    -0.000 C 
BRANCH  14  15
ATOM     15  C   UNL     1      21.398  -5.270 -37.504  1.00  0.00    -0.000 C 
BRANCH  15  16
ATOM     16  C   UNL     1      22.144  -4.572 -36.358  1.00  0.00    -0.003 C 
ATOM     17  C   UNL     1      21.921  -3.063 -36.396  1.00  0.00     0.004 C 
ENDBRANCH  15  16
ENDBRANCH  14  15
ENDBRANCH  13  14
ENDBRANCH  12  13
ENDBRANCH  11  12
ENDBRANCH  10  11
ENDBRANCH   1  10
TORSDOF 13
ENDMDL
MODEL 5
REMARK VINA RESULT:    -4.865      1.472      3.414
REMARK INTER + INTRA:         -10.970
REMARK INTER:                  -8.780
REMARK INTRA:                  -2.190
REMARK UNBOUND:                -2.408
REMARK SMILES CCCCCCCCCCCCCCC(=O)[O-]
REMARK SMILES IDX 9 1 10 2 11 3 12 4 13 5 14 6 15 7 16 8 17 9 8 10 7 11 6 12
REMARK SMILES IDX 5 13 4 14 3 15 2 16 1 17
REMARK H PARENT
REMARK Flexibility Score: inf
ROOT
ATOM      1  C   UNL     1      25.005  -3.357 -39.075  1.00  0.00     0.000 C 
ENDROOT
BRANCH   1   2
ATOM      2  C   UNL     1      25.422  -4.233 -37.880  1.00  0.00     0.000 C 
BRANCH   2   3
ATOM      3  C   UNL     1      26.897  -4.666 -37.941  1.00  0.00     0.000 C 
BRANCH   3   4
ATOM      4  C   UNL     1      27.055  -6.201 -37.910  1.00  0.00     0.000 C 
BRANCH   4   5
ATOM      5  C   UNL     1      25.734  -6.960 -38.126  1.00  0.00     0.006 C 
BRANCH   5   6
ATOM      6  C   UNL     1      25.662  -7.657 -39.489  1.00  0.00     0.053 C 
BRANCH   6   7
ATOM      7  C   UNL     1      24.799  -8.877 -39.407  1.00  0.00     0.041 C 
ATOM      8  O   UNL     1      25.315 -10.024 -39.475  1.00  0.00    -0.550 OA
ATOM      9  O   UNL     1      23.420  -8.747 -39.306  1.00  0.00    -0.550 OA
ENDBRANCH   6   7
ENDBRANCH   5   6
ENDBRANCH   4   5
ENDBRANCH   3   4
ENDBRANCH   2   3
ENDBRANCH   1   2
BRANCH   1  10
ATOM     10  C   UNL     1      23.547  -3.540 -39.535  1.00  0.00     0.000 C 
BRANCH  10  11
ATOM     11  C   UNL     1      23.236  -4.975 -39.983  1.00  0.00    -0.000 C 
BRANCH  11  12
ATOM     12  C   UNL     1      21.922  -5.471 -39.369  1.00  0.00    -0.000 C 
BRANCH  12  13
ATOM     13  C   UNL     1      22.119  -5.880 -37.901  1.00  0.00    -0.000 C 
BRANCH  13  14
ATOM     14  C   UNL     1      21.317  -5.003 -36.922  1.00  0.00    -0.000 C 
BRANCH  14  15
ATOM     15  C   UNL     1      22.171  -4.141 -35.974  1.00  0.00    -0.000 C 
BRANCH  15  16
ATOM     16  C   UNL     1      22.022  -2.636 -36.237  1.00  0.00    -0.003 C 
ATOM     17  C   UNL     1      20.869  -2.358 -37.198  1.00  0.00     0.004 C 
ENDBRANCH  15  16
ENDBRANCH  14  15
ENDBRANCH  13  14
ENDBRANCH  12  13
ENDBRANCH  11  12
ENDBRANCH  10  11
ENDBRANCH   1  10
TORSDOF 13
ENDMDL
MODEL 6
REMARK VINA RESULT:    -4.831      0.993      2.607
REMARK INTER + INTRA:         -10.911
REMARK INTER:                  -8.451
REMARK INTRA:                  -2.460
REMARK UNBOUND:                -2.408
REMARK SMILES CCCCCCCCCCCCCCC(=O)[O-]
REMARK SMILES IDX 9 1 10 2 11 3 12 4 13 5 14 6 15 7 16 8 17 9 8 10 7 11 6 12
REMARK SMILES IDX 5 13 4 14 3 15 2 16 1 17
REMARK H PARENT
REMARK Flexibility Score: inf
ROOT
ATOM      1  C   UNL     1      20.563  -3.743 -38.605  1.00  0.00     0.000 C 
ENDROOT
BRANCH   1   2
ATOM      2  C   UNL     1      21.266  -3.771 -39.973  1.00  0.00     0.000 C 
BRANCH   2   3
ATOM      3  C   UNL     1      21.886  -5.140 -40.302  1.00  0.00     0.000 C 
BRANCH   3   4
ATOM      4  C   UNL     1      21.594  -6.189 -39.207  1.00  0.00     0.000 C 
BRANCH   4   5
ATOM      5  C   UNL     1      22.118  -7.595 -39.547  1.00  0.00     0.006 C 
BRANCH   5   6
ATOM      6  C   UNL     1      22.861  -8.254 -38.380  1.00  0.00     0.053 C 
BRANCH   6   7
ATOM      7  C   UNL     1      24.234  -8.670 -38.802  1.00  0.00     0.041 C 
ATOM      8  O   UNL     1      24.395  -9.364 -39.840  1.00  0.00    -0.550 OA
ATOM      9  O   UNL     1      25.333  -8.333 -38.022  1.00  0.00    -0.550 OA
ENDBRANCH   6   7
ENDBRANCH   5   6
ENDBRANCH   4   5
ENDBRANCH   3   4
ENDBRANCH   2   3
ENDBRANCH   1   2
BRANCH   1  10
ATOM     10  C   UNL     1      20.845  -2.491 -37.755  1.00  0.00     0.000 C 
BRANCH  10  11
ATOM     11  C   UNL     1      21.776  -2.771 -36.566  1.00  0.00    -0.000 C 
BRANCH  11  12
ATOM     12  C   UNL     1      21.680  -4.236 -36.126  1.00  0.00    -0.000 C 
BRANCH  12  13
ATOM     13  C   UNL     1      23.050  -4.927 -36.204  1.00  0.00    -0.000 C 
BRANCH  13  14
ATOM     14  C   UNL     1      24.128  -4.048 -36.864  1.00  0.00    -0.000 C 
BRANCH  14  15
ATOM     15  C   UNL     1      24.859  -4.700 -38.052  1.00  0.00    -0.000 C 
BRANCH  15  16
ATOM     16  C   UNL     1      24.994  -3.761 -39.259  1.00  0.00    -0.003 C 
ATOM     17  C   UNL     1      24.649  -2.324 -38.879  1.00  0.00     0.004 C 
ENDBRANCH  15  16
ENDBRANCH  14  15
ENDBRANCH  13  14
ENDBRANCH  12  13
ENDBRANCH  11  12
ENDBRANCH  10  11
ENDBRANCH   1  10
TORSDOF 13
ENDMDL
MODEL 7
REMARK VINA RESULT:    -4.789      2.637      5.447
REMARK INTER + INTRA:         -10.837
REMARK INTER:                  -9.106
REMARK INTRA:                  -1.730
REMARK UNBOUND:                -2.408
REMARK SMILES CCCCCCCCCCCCCCC(=O)[O-]
REMARK SMILES IDX 9 1 10 2 11 3 12 4 13 5 14 6 15 7 16 8 17 9 8 10 7 11 6 12
REMARK SMILES IDX 5 13 4 14 3 15 2 16 1 17
REMARK H PARENT
REMARK Flexibility Score: inf
ROOT
ATOM      1  C   UNL     1      25.348  -3.235 -38.745  1.00  0.00     0.000 C 
ENDROOT
BRANCH   1   2
ATOM      2  C   UNL     1      24.064  -3.397 -39.578  1.00  0.00     0.000 C 
BRANCH   2   3
ATOM      3  C   UNL     1      23.691  -4.868 -39.823  1.00  0.00     0.000 C 
BRANCH   3   4
ATOM      4  C   UNL     1      22.177  -5.053 -40.063  1.00  0.00     0.000 C 
BRANCH   4   5
ATOM      5  C   UNL     1      21.298  -4.205 -39.127  1.00  0.00     0.006 C 
BRANCH   5   6
ATOM      6  C   UNL     1      21.089  -4.854 -37.754  1.00  0.00     0.053 C 
BRANCH   6   7
ATOM      7  C   UNL     1      21.646  -3.982 -36.674  1.00  0.00     0.041 C 
ATOM      8  O   UNL     1      21.235  -2.799 -36.540  1.00  0.00    -0.550 OA
ATOM      9  O   UNL     1      22.655  -4.458 -35.847  1.00  0.00    -0.550 OA
ENDBRANCH   6   7
ENDBRANCH   5   6
ENDBRANCH   4   5
ENDBRANCH   3   4
ENDBRANCH   2   3
ENDBRANCH   1   2
BRANCH   1  10
ATOM     10  C   UNL     1      25.679  -4.425 -37.826  1.00  0.00     0.000 C 
BRANCH  10  11
ATOM     11  C   UNL     1      27.168  -4.798 -37.843  1.00  0.00    -0.000 C 
BRANCH  11  12
ATOM     12  C   UNL     1      27.359  -6.309 -37.676  1.00  0.00    -0.000 C 
BRANCH  12  13
ATOM     13  C   UNL     1      26.005  -7.034 -37.629  1.00  0.00    -0.000 C 
BRANCH  13  14
ATOM     14  C   UNL     1      25.693  -7.808 -38.923  1.00  0.00    -0.000 C 
BRANCH  14  15
ATOM     15  C   UNL     1      24.686  -8.961 -38.764  1.00  0.00    -0.000 C 
BRANCH  15  16
ATOM     16  C   UNL     1      23.242  -8.541 -39.073  1.00  0.00    -0.003 C 
ATOM     17  C   UNL     1      22.488  -8.185 -37.795  1.00  0.00     0.004 C 
ENDBRANCH  15  16
ENDBRANCH  14  15
ENDBRANCH  13  14
ENDBRANCH  12  13
ENDBRANCH  11  12
ENDBRANCH  10  11
ENDBRANCH   1  10
TORSDOF 13
ENDMDL
MODEL 8
REMARK VINA RESULT:    -4.771      2.945      5.023
REMARK INTER + INTRA:         -10.805
REMARK INTER:                  -8.612
REMARK INTRA:                  -2.192
REMARK UNBOUND:                -2.408
REMARK SMILES CCCCCCCCCCCCCCC(=O)[O-]
REMARK SMILES IDX 9 1 10 2 11 3 12 4 13 5 14 6 15 7 16 8 17 9 8 10 7 11 6 12
REMARK SMILES IDX 5 13 4 14 3 15 2 16 1 17
REMARK H PARENT
REMARK Flexibility Score: inf
ROOT
ATOM      1  C   UNL     1      23.513  -5.931 -36.341  1.00  0.00     0.000 C 
ENDROOT
BRANCH   1   2
ATOM      2  C   UNL     1      23.697  -4.419 -36.563  1.00  0.00     0.000 C 
BRANCH   2   3
ATOM      3  C   UNL     1      24.708  -4.096 -37.676  1.00  0.00     0.000 C 
BRANCH   3   4
ATOM      4  C   UNL     1      24.137  -4.381 -39.082  1.00  0.00     0.000 C 
BRANCH   4   5
ATOM      5  C   UNL     1      23.032  -3.399 -39.508  1.00  0.00     0.006 C 
BRANCH   5   6
ATOM      6  C   UNL     1      21.664  -4.073 -39.670  1.00  0.00     0.053 C 
BRANCH   6   7
ATOM      7  C   UNL     1      20.605  -3.280 -38.973  1.00  0.00     0.041 C 
ATOM      8  O   UNL     1      20.777  -2.898 -37.785  1.00  0.00    -0.550 OA
ATOM      9  O   UNL     1      19.406  -3.004 -39.617  1.00  0.00    -0.550 OA
ENDBRANCH   6   7
ENDBRANCH   5   6
ENDBRANCH   4   5
ENDBRANCH   3   4
ENDBRANCH   2   3
ENDBRANCH   1   2
BRANCH   1  10
ATOM     10  C   UNL     1      22.204  -6.515 -36.903  1.00  0.00     0.000 C 
BRANCH  10  11
ATOM     11  C   UNL     1      22.394  -7.894 -37.552  1.00  0.00    -0.000 C 
BRANCH  11  12
ATOM     12  C   UNL     1      22.719  -7.760 -39.044  1.00  0.00    -0.000 C 
BRANCH  12  13
ATOM     13  C   UNL     1      23.857  -8.710 -39.447  1.00  0.00    -0.000 C 
BRANCH  13  14
ATOM     14  C   UNL     1      25.048  -8.669 -38.473  1.00  0.00    -0.000 C 
BRANCH  14  15
ATOM     15  C   UNL     1      26.021  -7.495 -38.685  1.00  0.00    -0.000 C 
BRANCH  15  16
ATOM     16  C   UNL     1      26.708  -7.045 -37.387  1.00  0.00    -0.003 C 
ATOM     17  C   UNL     1      27.786  -6.003 -37.669  1.00  0.00     0.004 C 
ENDBRANCH  15  16
ENDBRANCH  14  15
ENDBRANCH  13  14
ENDBRANCH  12  13
ENDBRANCH  11  12
ENDBRANCH  10  11
ENDBRANCH   1  10
TORSDOF 13
ENDMDL
MODEL 9
REMARK VINA RESULT:    -4.754      1.503      3.032
REMARK INTER + INTRA:         -10.775
REMARK INTER:                  -8.623
REMARK INTRA:                  -2.152
REMARK UNBOUND:                -2.408
REMARK SMILES CCCCCCCCCCCCCCC(=O)[O-]
REMARK SMILES IDX 9 1 10 2 11 3 12 4 13 5 14 6 15 7 16 8 17 9 8 10 7 11 6 12
REMARK SMILES IDX 5 13 4 14 3 15 2 16 1 17
REMARK H PARENT
REMARK Flexibility Score: inf
ROOT
ATOM      1  C   UNL     1      22.160  -6.560 -37.181  1.00  0.00     0.000 C 
ENDROOT
BRANCH   1   2
ATOM      2  C   UNL     1      22.399  -7.997 -37.677  1.00  0.00     0.000 C 
BRANCH   2   3
ATOM      3  C   UNL     1      22.875  -8.055 -39.139  1.00  0.00     0.000 C 
BRANCH   3   4
ATOM      4  C   UNL     1      24.112  -8.961 -39.313  1.00  0.00     0.000 C 
BRANCH   4   5
ATOM      5  C   UNL     1      25.363  -8.442 -38.582  1.00  0.00     0.006 C 
BRANCH   5   6
ATOM      6  C   UNL     1      25.809  -7.059 -39.071  1.00  0.00     0.053 C 
BRANCH   6   7
ATOM      7  C   UNL     1      26.574  -6.348 -38.000  1.00  0.00     0.041 C 
ATOM      8  O   UNL     1      27.238  -7.004 -37.154  1.00  0.00    -0.550 OA
ATOM      9  O   UNL     1      26.514  -4.964 -37.905  1.00  0.00    -0.550 OA
ENDBRANCH   6   7
ENDBRANCH   5   6
ENDBRANCH   4   5
ENDBRANCH   3   4
ENDBRANCH   2   3
ENDBRANCH   1   2
BRANCH   1  10
ATOM     10  C   UNL     1      23.371  -5.900 -36.495  1.00  0.00     0.000 C 
BRANCH  10  11
ATOM     11  C   UNL     1      23.085  -4.465 -36.028  1.00  0.00    -0.000 C 
BRANCH  11  12
ATOM     12  C   UNL     1      21.588  -4.146 -36.113  1.00  0.00    -0.000 C 
BRANCH  12  13
ATOM     13  C   UNL     1      21.344  -2.857 -36.911  1.00  0.00    -0.000 C 
BRANCH  13  14
ATOM     14  C   UNL     1      21.940  -2.906 -38.330  1.00  0.00    -0.000 C 
BRANCH  14  15
ATOM     15  C   UNL     1      21.174  -3.795 -39.326  1.00  0.00    -0.000 C 
BRANCH  15  16
ATOM     16  C   UNL     1      22.103  -4.571 -40.272  1.00  0.00    -0.003 C 
ATOM     17  C   UNL     1      23.566  -4.387 -39.878  1.00  0.00     0.004 C 
ENDBRANCH  15  16
ENDBRANCH  14  15
ENDBRANCH  13  14
ENDBRANCH  12  13
ENDBRANCH  11  12
ENDBRANCH  10  11
ENDBRANCH   1  10
TORSDOF 13
ENDMDL
