MODEL 1
REMARK VINA RESULT:    -3.750      0.000      0.000
REMARK INTER + INTRA:          -5.659
REMARK INTER:                  -5.723
REMARK INTRA:                   0.064
REMARK UNBOUND:                 0.064
REMARK SMILES CC1=CCC[C@H](C)C(=O)C[C@@H](C(C)C)C(=O)C1
REMARK SMILES IDX 8 1 9 2 6 3 7 4 5 5 4 6 3 7 2 8 1 9 10 11 11 12 15 13 16 14
REMARK SMILES IDX 17 15 12 17 13 18 14 19
REMARK H PARENT
REMARK Flexibility Score: 70.00
ROOT
ATOM      1  C   UNL     1      -4.939  -3.829  15.738  1.00  0.00     0.136 C 
ATOM      2  O   UNL     1      -4.678  -4.807  16.423  1.00  0.00    -0.299 OA
ENDROOT
BRANCH   1   3
ATOM      3  C   UNL     1      -4.440  -2.470  16.227  1.00  0.00     0.053 C 
ATOM      4  C   UNL     1      -3.618  -2.679  17.506  1.00  0.00     0.016 C 
BRANCH   3   5
ATOM      5  C   UNL     1      -3.620  -1.622  15.218  1.00  0.00     0.015 C 
BRANCH   5   6
ATOM      6  C   UNL     1      -2.284  -2.269  14.778  1.00  0.00     0.028 C 
BRANCH   6   7
ATOM      7  C   UNL     1      -2.080  -2.147  13.285  1.00  0.00    -0.028 C 
ATOM      8  C   UNL     1      -2.252  -3.138  12.379  1.00  0.00    -0.070 CG0
ATOM      9  C   UNL     1      -1.939  -2.838  10.934  1.00  0.00     0.039 C 
ATOM     10  G   UNL     1      -2.758  -4.520  12.749  1.00  0.00     0.000 G0
ENDBRANCH   6   7
ENDBRANCH   5   6
ENDBRANCH   3   5
ENDBRANCH   1   3
BRANCH   1  11
ATOM     11  C   UNL     1      -5.692  -4.054  14.441  1.00  0.00     0.087 C 
BRANCH  11  12
ATOM     12  C   UNL     1      -5.145  -5.236  13.590  1.00  0.00     0.066 C 
BRANCH  12  13
ATOM     13  C   UNL     1      -4.232  -4.705  12.496  1.00  0.00     0.140 C 
ATOM     14  O   UNL     1      -4.699  -4.426  11.400  1.00  0.00    -0.299 OA
BRANCH  13  15
ATOM     15  C   UNL     1      -2.752  -4.538  12.713  1.00  0.00     0.106 CG0
ATOM     16  G   UNL     1      -2.275  -3.132  12.401  1.00  0.00     0.000 G0
ENDBRANCH  13  15
ENDBRANCH  12  13
BRANCH  12  17
ATOM     17  C   UNL     1      -6.242  -6.184  13.003  1.00  0.00    -0.006 C 
ATOM     18  C   UNL     1      -5.610  -7.482  12.464  1.00  0.00     0.008 C 
ATOM     19  C   UNL     1      -7.322  -6.552  14.036  1.00  0.00     0.008 C 
ENDBRANCH  12  17
ENDBRANCH  11  12
ENDBRANCH   1  11
TORSDOF 1
ENDMDL
MODEL 2
REMARK VINA RESULT:    -3.711     10.087     11.222
REMARK INTER + INTRA:          -5.599
REMARK INTER:                  -5.509
REMARK INTRA:                  -0.090
REMARK UNBOUND:                 0.064
REMARK SMILES CC1=CCC[C@H](C)C(=O)C[C@@H](C(C)C)C(=O)C1
REMARK SMILES IDX 8 1 9 2 6 3 7 4 5 5 4 6 3 7 2 8 1 9 10 11 11 12 15 13 16 14
REMARK SMILES IDX 17 15 12 17 13 18 14 19
REMARK H PARENT
REMARK Flexibility Score: 70.00
ROOT
ATOM      1  C   UNL     1      -4.974  -4.001   1.853  1.00  0.00     0.136 C 
ATOM      2  O   UNL     1      -5.236  -3.219   0.950  1.00  0.00    -0.299 OA
ENDROOT
BRANCH   1   3
ATOM      3  C   UNL     1      -5.812  -3.916   3.127  1.00  0.00     0.053 C 
ATOM      4  C   UNL     1      -6.227  -5.335   3.539  1.00  0.00     0.016 C 
BRANCH   3   5
ATOM      5  C   UNL     1      -5.167  -3.194   4.341  1.00  0.00     0.015 C 
BRANCH   5   6
ATOM      6  C   UNL     1      -4.322  -1.951   3.968  1.00  0.00     0.028 C 
BRANCH   6   7
ATOM      7  C   UNL     1      -2.966  -1.988   4.635  1.00  0.00    -0.028 C 
ATOM      8  C   UNL     1      -1.794  -2.284   4.027  1.00  0.00    -0.070 CG0
ATOM      9  C   UNL     1      -0.548  -2.329   4.877  1.00  0.00     0.039 C 
ATOM     10  G   UNL     1      -1.677  -2.553   2.538  1.00  0.00     0.000 G0
ENDBRANCH   6   7
ENDBRANCH   5   6
ENDBRANCH   3   5
ENDBRANCH   1   3
BRANCH   1  11
ATOM     11  C   UNL     1      -3.874  -5.017   1.611  1.00  0.00     0.087 C 
BRANCH  11  12
ATOM     12  C   UNL     1      -2.733  -4.976   2.666  1.00  0.00     0.066 C 
BRANCH  12  13
ATOM     13  C   UNL     1      -1.634  -4.033   2.203  1.00  0.00     0.140 C 
ATOM     14  O   UNL     1      -0.684  -4.474   1.571  1.00  0.00    -0.299 OA
BRANCH  13  15
ATOM     15  C   UNL     1      -1.666  -2.563   2.526  1.00  0.00     0.106 CG0
ATOM     16  G   UNL     1      -1.798  -2.299   4.014  1.00  0.00     0.000 G0
ENDBRANCH  13  15
ENDBRANCH  12  13
BRANCH  12  17
ATOM     17  C   UNL     1      -2.151  -6.375   3.059  1.00  0.00    -0.006 C 
ATOM     18  C   UNL     1      -1.149  -6.243   4.223  1.00  0.00     0.008 C 
ATOM     19  C   UNL     1      -3.246  -7.380   3.461  1.00  0.00     0.008 C 
ENDBRANCH  12  17
ENDBRANCH  11  12
ENDBRANCH   1  11
TORSDOF 1
ENDMDL
MODEL 3
REMARK VINA RESULT:    -3.654     10.131     11.558
REMARK INTER + INTRA:          -5.513
REMARK INTER:                  -5.636
REMARK INTRA:                   0.124
REMARK UNBOUND:                 0.064
REMARK SMILES CC1=CCC[C@H](C)C(=O)C[C@@H](C(C)C)C(=O)C1
REMARK SMILES IDX 8 1 9 2 6 3 7 4 5 5 4 6 3 7 2 8 1 9 10 11 11 12 15 13 16 14
REMARK SMILES IDX 17 15 12 17 13 18 14 19
REMARK H PARENT
REMARK Flexibility Score: 70.00
ROOT
ATOM      1  C   UNL     1      -3.937  -6.364   3.109  1.00  0.00     0.136 C 
ATOM      2  O   UNL     1      -4.249  -7.493   2.760  1.00  0.00    -0.299 OA
ENDROOT
BRANCH   1   3
ATOM      3  C   UNL     1      -2.448  -6.046   3.228  1.00  0.00     0.053 C 
ATOM      4  C   UNL     1      -1.747  -7.225   3.916  1.00  0.00     0.016 C 
BRANCH   3   5
ATOM      5  C   UNL     1      -1.700  -5.697   1.912  1.00  0.00     0.015 C 
BRANCH   5   6
ATOM      6  C   UNL     1      -1.596  -4.180   1.621  1.00  0.00     0.028 C 
BRANCH   6   7
ATOM      7  C   UNL     1      -1.633  -3.372   2.899  1.00  0.00    -0.028 C 
ATOM      8  C   UNL     1      -2.569  -2.451   3.225  1.00  0.00    -0.070 CG0
ATOM      9  C   UNL     1      -2.401  -1.701   4.523  1.00  0.00     0.039 C 
ATOM     10  G   UNL     1      -3.779  -2.154   2.358  1.00  0.00     0.000 G0
ENDBRANCH   6   7
ENDBRANCH   5   6
ENDBRANCH   3   5
ENDBRANCH   1   3
BRANCH   1  11
ATOM     11  C   UNL     1      -5.052  -5.364   3.347  1.00  0.00     0.087 C 
BRANCH  11  12
ATOM     12  C   UNL     1      -5.231  -4.331   2.197  1.00  0.00     0.066 C 
BRANCH  12  13
ATOM     13  C   UNL     1      -5.009  -2.923   2.728  1.00  0.00     0.140 C 
ATOM     14  O   UNL     1      -5.852  -2.409   3.450  1.00  0.00    -0.299 OA
BRANCH  13  15
ATOM     15  C   UNL     1      -3.786  -2.125   2.364  1.00  0.00     0.106 CG0
ATOM     16  G   UNL     1      -2.588  -2.473   3.229  1.00  0.00     0.000 G0
ENDBRANCH  13  15
ENDBRANCH  12  13
BRANCH  12  17
ATOM     17  C   UNL     1      -6.588  -4.438   1.424  1.00  0.00    -0.006 C 
ATOM     18  C   UNL     1      -7.674  -5.075   2.313  1.00  0.00     0.008 C 
ATOM     19  C   UNL     1      -7.095  -3.073   0.926  1.00  0.00     0.008 C 
ENDBRANCH  12  17
ENDBRANCH  11  12
ENDBRANCH   1  11
TORSDOF 1
ENDMDL
MODEL 4
REMARK VINA RESULT:    -3.484      8.623     10.405
REMARK INTER + INTRA:          -5.253
REMARK INTER:                  -4.967
REMARK INTRA:                  -0.285
REMARK UNBOUND:                 0.064
REMARK SMILES CC1=CCC[C@H](C)C(=O)C[C@@H](C(C)C)C(=O)C1
REMARK SMILES IDX 8 1 9 2 6 3 7 4 5 5 4 6 3 7 2 8 1 9 10 11 11 12 15 13 16 14
REMARK SMILES IDX 17 15 12 17 13 18 14 19
REMARK H PARENT
REMARK Flexibility Score: 70.00
ROOT
ATOM      1  C   UNL     1       0.155  -3.270   5.687  1.00  0.00     0.136 C 
ATOM      2  O   UNL     1       0.166  -4.262   4.973  1.00  0.00    -0.299 OA
ENDROOT
BRANCH   1   3
ATOM      3  C   UNL     1       1.102  -3.250   6.885  1.00  0.00     0.053 C 
ATOM      4  C   UNL     1       0.923  -4.554   7.675  1.00  0.00     0.016 C 
BRANCH   3   5
ATOM      5  C   UNL     1       2.609  -3.032   6.581  1.00  0.00     0.015 C 
BRANCH   5   6
ATOM      6  C   UNL     1       3.021  -1.547   6.432  1.00  0.00     0.028 C 
BRANCH   6   7
ATOM      7  C   UNL     1       2.505  -0.716   7.584  1.00  0.00    -0.028 C 
ATOM      8  C   UNL     1       1.740   0.396   7.476  1.00  0.00    -0.070 CG0
ATOM      9  C   UNL     1       1.373   1.127   8.744  1.00  0.00     0.039 C 
ATOM     10  G   UNL     1       1.227   0.924   6.149  1.00  0.00     0.000 G0
ENDBRANCH   6   7
ENDBRANCH   5   6
ENDBRANCH   3   5
ENDBRANCH   1   3
BRANCH   1  11
ATOM     11  C   UNL     1      -0.761  -2.126   5.295  1.00  0.00     0.087 C 
BRANCH  11  12
ATOM     12  C   UNL     1      -0.019  -0.898   4.695  1.00  0.00     0.066 C 
BRANCH  12  13
ATOM     13  C   UNL     1      -0.055   0.259   5.680  1.00  0.00     0.140 C 
ATOM     14  O   UNL     1      -1.131   0.663   6.100  1.00  0.00    -0.299 OA
BRANCH  13  15
ATOM     15  C   UNL     1       1.203   0.949   6.136  1.00  0.00     0.106 CG0
ATOM     16  G   UNL     1       1.717   0.404   7.455  1.00  0.00     0.000 G0
ENDBRANCH  13  15
ENDBRANCH  12  13
BRANCH  12  17
ATOM     17  C   UNL     1      -0.520  -0.455   3.280  1.00  0.00    -0.006 C 
ATOM     18  C   UNL     1       0.535   0.423   2.577  1.00  0.00     0.008 C 
ATOM     19  C   UNL     1      -0.854  -1.650   2.369  1.00  0.00     0.008 C 
ENDBRANCH  12  17
ENDBRANCH  11  12
ENDBRANCH   1  11
TORSDOF 1
ENDMDL
MODEL 5
REMARK VINA RESULT:    -3.429      8.737     11.468
REMARK INTER + INTRA:          -5.170
REMARK INTER:                  -5.103
REMARK INTRA:                  -0.067
REMARK UNBOUND:                 0.064
REMARK SMILES CC1=CCC[C@H](C)C(=O)C[C@@H](C(C)C)C(=O)C1
REMARK SMILES IDX 8 1 9 2 6 3 7 4 5 5 4 6 3 7 2 8 1 9 10 11 11 12 15 13 16 14
REMARK SMILES IDX 17 15 12 17 13 18 14 19
REMARK H PARENT
REMARK Flexibility Score: 70.00
ROOT
ATOM      1  C   UNL     1      -1.908  -3.738   3.243  1.00  0.00     0.136 C 
ATOM      2  O   UNL     1      -0.975  -3.939   4.007  1.00  0.00    -0.299 OA
ENDROOT
BRANCH   1   3
ATOM      3  C   UNL     1      -2.219  -4.818   2.209  1.00  0.00     0.053 C 
ATOM      4  C   UNL     1      -1.085  -4.850   1.174  1.00  0.00     0.016 C 
BRANCH   3   5
ATOM      5  C   UNL     1      -2.466  -6.253   2.749  1.00  0.00     0.015 C 
BRANCH   5   6
ATOM      6  C   UNL     1      -3.780  -6.414   3.552  1.00  0.00     0.028 C 
BRANCH   6   7
ATOM      7  C   UNL     1      -4.991  -6.270   2.659  1.00  0.00    -0.028 C 
ATOM      8  C   UNL     1      -5.979  -5.355   2.808  1.00  0.00    -0.070 CG0
ATOM      9  C   UNL     1      -7.141  -5.408   1.847  1.00  0.00     0.039 C 
ATOM     10  G   UNL     1      -5.958  -4.279   3.878  1.00  0.00     0.000 G0
ENDBRANCH   6   7
ENDBRANCH   5   6
ENDBRANCH   3   5
ENDBRANCH   1   3
BRANCH   1  11
ATOM     11  C   UNL     1      -2.703  -2.459   3.419  1.00  0.00     0.087 C 
BRANCH  11  12
ATOM     12  C   UNL     1      -3.953  -2.613   4.332  1.00  0.00     0.066 C 
BRANCH  12  13
ATOM     13  C   UNL     1      -5.145  -3.067   3.504  1.00  0.00     0.140 C 
ATOM     14  O   UNL     1      -5.468  -2.432   2.509  1.00  0.00    -0.299 OA
BRANCH  13  15
ATOM     15  C   UNL     1      -5.966  -4.268   3.891  1.00  0.00     0.106 CG0
ATOM     16  G   UNL     1      -5.971  -5.337   2.815  1.00  0.00     0.000 G0
ENDBRANCH  13  15
ENDBRANCH  12  13
BRANCH  12  17
ATOM     17  C   UNL     1      -4.303  -1.348   5.184  1.00  0.00    -0.006 C 
ATOM     18  C   UNL     1      -3.647  -1.429   6.577  1.00  0.00     0.008 C 
ATOM     19  C   UNL     1      -3.863  -0.037   4.506  1.00  0.00     0.008 C 
ENDBRANCH  12  17
ENDBRANCH  11  12
ENDBRANCH   1  11
TORSDOF 1
ENDMDL
MODEL 6
REMARK VINA RESULT:    -3.297     10.113     11.674
REMARK INTER + INTRA:          -4.968
REMARK INTER:                  -4.833
REMARK INTRA:                  -0.135
REMARK UNBOUND:                 0.064
REMARK SMILES CC1=CCC[C@H](C)C(=O)C[C@@H](C(C)C)C(=O)C1
REMARK SMILES IDX 8 1 9 2 6 3 7 4 5 5 4 6 3 7 2 8 1 9 10 11 11 12 15 13 16 14
REMARK SMILES IDX 17 15 12 17 13 18 14 19
REMARK H PARENT
REMARK Flexibility Score: 70.00
ROOT
ATOM      1  C   UNL     1      -4.248  -1.440   4.275  1.00  0.00     0.136 C 
ATOM      2  O   UNL     1      -4.464  -0.335   4.753  1.00  0.00    -0.299 OA
ENDROOT
BRANCH   1   3
ATOM      3  C   UNL     1      -5.442  -2.216   3.722  1.00  0.00     0.053 C 
ATOM      4  C   UNL     1      -5.509  -1.998   2.204  1.00  0.00     0.016 C 
BRANCH   3   5
ATOM      5  C   UNL     1      -5.489  -3.738   4.028  1.00  0.00     0.015 C 
BRANCH   5   6
ATOM      6  C   UNL     1      -5.125  -4.642   2.826  1.00  0.00     0.028 C 
BRANCH   6   7
ATOM      7  C   UNL     1      -4.181  -5.749   3.237  1.00  0.00    -0.028 C 
ATOM      8  C   UNL     1      -2.885  -5.863   2.863  1.00  0.00    -0.070 CG0
ATOM      9  C   UNL     1      -2.119  -7.076   3.329  1.00  0.00     0.039 C 
ATOM     10  G   UNL     1      -2.172  -4.825   2.016  1.00  0.00     0.000 G0
ENDBRANCH   6   7
ENDBRANCH   5   6
ENDBRANCH   3   5
ENDBRANCH   1   3
BRANCH   1  11
ATOM     11  C   UNL     1      -2.811  -1.923   4.232  1.00  0.00     0.087 C 
BRANCH  11  12
ATOM     12  C   UNL     1      -2.317  -2.310   2.808  1.00  0.00     0.066 C 
BRANCH  12  13
ATOM     13  C   UNL     1      -1.648  -3.675   2.847  1.00  0.00     0.140 C 
ATOM     14  O   UNL     1      -0.664  -3.847   3.553  1.00  0.00    -0.299 OA
BRANCH  13  15
ATOM     15  C   UNL     1      -2.147  -4.824   2.012  1.00  0.00     0.106 CG0
ATOM     16  G   UNL     1      -2.879  -5.866   2.838  1.00  0.00     0.000 G0
ENDBRANCH  13  15
ENDBRANCH  12  13
BRANCH  12  17
ATOM     17  C   UNL     1      -1.398  -1.247   2.121  1.00  0.00    -0.006 C 
ATOM     18  C   UNL     1      -2.192  -0.425   1.086  1.00  0.00     0.008 C 
ATOM     19  C   UNL     1      -0.754  -0.279   3.131  1.00  0.00     0.008 C 
ENDBRANCH  12  17
ENDBRANCH  11  12
ENDBRANCH   1  11
TORSDOF 1
ENDMDL
MODEL 7
REMARK VINA RESULT:    -3.188      7.960     10.722
REMARK INTER + INTRA:          -4.802
REMARK INTER:                  -4.657
REMARK INTRA:                  -0.144
REMARK UNBOUND:                 0.064
REMARK SMILES CC1=CCC[C@H](C)C(=O)C[C@@H](C(C)C)C(=O)C1
REMARK SMILES IDX 8 1 9 2 6 3 7 4 5 5 4 6 3 7 2 8 1 9 10 11 11 12 15 13 16 14
REMARK SMILES IDX 17 15 12 17 13 18 14 19
REMARK H PARENT
REMARK Flexibility Score: 70.00
ROOT
ATOM      1  C   UNL     1      -4.750  -2.372   5.255  1.00  0.00     0.136 C 
ATOM      2  O   UNL     1      -5.572  -2.854   6.020  1.00  0.00    -0.299 OA
ENDROOT
BRANCH   1   3
ATOM      3  C   UNL     1      -4.851  -2.753   3.779  1.00  0.00     0.053 C 
ATOM      4  C   UNL     1      -5.414  -4.177   3.675  1.00  0.00     0.016 C 
BRANCH   3   5
ATOM      5  C   UNL     1      -5.673  -1.803   2.866  1.00  0.00     0.015 C 
BRANCH   5   6
ATOM      6  C   UNL     1      -4.878  -1.216   1.675  1.00  0.00     0.028 C 
BRANCH   6   7
ATOM      7  C   UNL     1      -3.389  -1.257   1.936  1.00  0.00    -0.028 C 
ATOM      8  C   UNL     1      -2.681  -0.330   2.623  1.00  0.00    -0.070 CG0
ATOM      9  C   UNL     1      -1.187  -0.516   2.725  1.00  0.00     0.039 C 
ATOM     10  G   UNL     1      -3.320   0.866   3.303  1.00  0.00     0.000 G0
ENDBRANCH   6   7
ENDBRANCH   5   6
ENDBRANCH   3   5
ENDBRANCH   1   3
BRANCH   1  11
ATOM     11  C   UNL     1      -3.733  -1.404   5.827  1.00  0.00     0.087 C 
BRANCH  11  12
ATOM     12  C   UNL     1      -4.146   0.091   5.706  1.00  0.00     0.066 C 
BRANCH  12  13
ATOM     13  C   UNL     1      -3.158   0.830   4.818  1.00  0.00     0.140 C 
ATOM     14  O   UNL     1      -2.217   1.427   5.324  1.00  0.00    -0.299 OA
BRANCH  13  15
ATOM     15  C   UNL     1      -3.319   0.875   3.321  1.00  0.00     0.106 CG0
ATOM     16  G   UNL     1      -2.689  -0.323   2.635  1.00  0.00     0.000 G0
ENDBRANCH  13  15
ENDBRANCH  12  13
BRANCH  12  17
ATOM     17  C   UNL     1      -4.345   0.830   7.071  1.00  0.00    -0.006 C 
ATOM     18  C   UNL     1      -5.820   1.231   7.265  1.00  0.00     0.008 C 
ATOM     19  C   UNL     1      -3.901  -0.021   8.274  1.00  0.00     0.008 C 
ENDBRANCH  12  17
ENDBRANCH  11  12
ENDBRANCH   1  11
TORSDOF 1
ENDMDL
MODEL 8
REMARK VINA RESULT:    -3.080      7.392      9.437
REMARK INTER + INTRA:          -4.637
REMARK INTER:                  -5.003
REMARK INTRA:                   0.365
REMARK UNBOUND:                 0.064
REMARK SMILES CC1=CCC[C@H](C)C(=O)C[C@@H](C(C)C)C(=O)C1
REMARK SMILES IDX 8 1 9 2 6 3 7 4 5 5 4 6 3 7 2 8 1 9 10 11 11 12 15 13 16 14
REMARK SMILES IDX 17 15 12 17 13 18 14 19
REMARK H PARENT
REMARK Flexibility Score: 70.00
ROOT
ATOM      1  C   UNL     1       2.377  -0.991   6.826  1.00  0.00     0.136 C 
ATOM      2  O   UNL     1       3.584  -0.825   6.927  1.00  0.00    -0.299 OA
ENDROOT
BRANCH   1   3
ATOM      3  C   UNL     1       1.507   0.249   6.626  1.00  0.00     0.053 C 
ATOM      4  C   UNL     1       2.335   1.493   6.977  1.00  0.00     0.016 C 
BRANCH   3   5
ATOM      5  C   UNL     1       0.866   0.434   5.224  1.00  0.00     0.015 C 
BRANCH   5   6
ATOM      6  C   UNL     1      -0.680   0.512   5.235  1.00  0.00     0.028 C 
BRANCH   6   7
ATOM      7  C   UNL     1      -1.203   0.850   6.613  1.00  0.00    -0.028 C 
ATOM      8  C   UNL     1      -1.770  -0.022   7.479  1.00  0.00    -0.070 CG0
ATOM      9  C   UNL     1      -2.288   0.519   8.789  1.00  0.00     0.039 C 
ATOM     10  G   UNL     1      -1.891  -1.508   7.200  1.00  0.00     0.000 G0
ENDBRANCH   6   7
ENDBRANCH   5   6
ENDBRANCH   3   5
ENDBRANCH   1   3
BRANCH   1  11
ATOM     11  C   UNL     1       1.853  -2.414   6.861  1.00  0.00     0.087 C 
BRANCH  11  12
ATOM     12  C   UNL     1       0.389  -2.561   6.355  1.00  0.00     0.066 C 
BRANCH  12  13
ATOM     13  C   UNL     1      -0.581  -2.233   7.479  1.00  0.00     0.140 C 
ATOM     14  O   UNL     1      -0.321  -2.580   8.624  1.00  0.00    -0.299 OA
BRANCH  13  15
ATOM     15  C   UNL     1      -1.878  -1.515   7.220  1.00  0.00     0.106 CG0
ATOM     16  G   UNL     1      -1.774  -0.022   7.472  1.00  0.00     0.000 G0
ENDBRANCH  13  15
ENDBRANCH  12  13
BRANCH  12  17
ATOM     17  C   UNL     1       0.056  -3.944   5.704  1.00  0.00    -0.006 C 
ATOM     18  C   UNL     1      -0.358  -3.768   4.230  1.00  0.00     0.008 C 
ATOM     19  C   UNL     1       1.237  -4.930   5.771  1.00  0.00     0.008 C 
ENDBRANCH  12  17
ENDBRANCH  11  12
ENDBRANCH   1  11
TORSDOF 1
ENDMDL
MODEL 9
REMARK VINA RESULT:    -3.048      6.723      9.297
REMARK INTER + INTRA:          -4.588
REMARK INTER:                  -4.301
REMARK INTRA:                  -0.287
REMARK UNBOUND:                 0.064
REMARK SMILES CC1=CCC[C@H](C)C(=O)C[C@@H](C(C)C)C(=O)C1
REMARK SMILES IDX 8 1 9 2 6 3 7 4 5 5 4 6 3 7 2 8 1 9 10 11 11 12 15 13 16 14
REMARK SMILES IDX 17 15 12 17 13 18 14 19
REMARK H PARENT
REMARK Flexibility Score: 70.00
ROOT
ATOM      1  C   UNL     1      -3.572   2.241   5.567  1.00  0.00     0.136 C 
ATOM      2  O   UNL     1      -3.898   2.974   4.645  1.00  0.00    -0.299 OA
ENDROOT
BRANCH   1   3
ATOM      3  C   UNL     1      -4.145   2.547   6.950  1.00  0.00     0.053 C 
ATOM      4  C   UNL     1      -4.087   4.063   7.182  1.00  0.00     0.016 C 
BRANCH   3   5
ATOM      5  C   UNL     1      -5.582   2.034   7.240  1.00  0.00     0.015 C 
BRANCH   5   6
ATOM      6  C   UNL     1      -5.636   0.673   7.976  1.00  0.00     0.028 C 
BRANCH   6   7
ATOM      7  C   UNL     1      -4.363   0.416   8.749  1.00  0.00    -0.028 C 
ATOM      8  C   UNL     1      -3.503  -0.609   8.538  1.00  0.00    -0.070 CG0
ATOM      9  C   UNL     1      -2.313  -0.733   9.457  1.00  0.00     0.039 C 
ATOM     10  G   UNL     1      -3.675  -1.618   7.418  1.00  0.00     0.000 G0
ENDBRANCH   6   7
ENDBRANCH   5   6
ENDBRANCH   3   5
ENDBRANCH   1   3
BRANCH   1  11
ATOM     11  C   UNL     1      -2.667   1.066   5.251  1.00  0.00     0.087 C 
BRANCH  11  12
ATOM     12  C   UNL     1      -3.413  -0.294   5.138  1.00  0.00     0.066 C 
BRANCH  12  13
ATOM     13  C   UNL     1      -2.878  -1.264   6.180  1.00  0.00     0.140 C 
ATOM     14  O   UNL     1      -1.790  -1.797   6.009  1.00  0.00    -0.299 OA
BRANCH  13  15
ATOM     15  C   UNL     1      -3.668  -1.616   7.413  1.00  0.00     0.106 CG0
ATOM     16  G   UNL     1      -3.489  -0.599   8.525  1.00  0.00     0.000 G0
ENDBRANCH  13  15
ENDBRANCH  12  13
BRANCH  12  17
ATOM     17  C   UNL     1      -3.402  -0.933   3.710  1.00  0.00    -0.006 C 
ATOM     18  C   UNL     1      -4.223  -2.238   3.689  1.00  0.00     0.008 C 
ATOM     19  C   UNL     1      -3.956   0.016   2.633  1.00  0.00     0.008 C 
ENDBRANCH  12  17
ENDBRANCH  11  12
ENDBRANCH   1  11
TORSDOF 1
ENDMDL
