MODEL 1
REMARK VINA RESULT:    -5.934      0.000      0.000
REMARK INTER + INTRA:          -7.407
REMARK INTER:                  -7.148
REMARK INTRA:                  -0.259
REMARK UNBOUND:                -0.259
REMARK SMILES O=c1c(O)c(-c2ccc(O)c(O)c2)oc2cc(O)cc(O)c12
REMARK SMILES IDX 5 1 3 2 2 3 1 4 22 5 20 6 19 7 17 8 16 9 15 10 14 11 6 12
REMARK SMILES IDX 7 13 8 14 9 15 13 16 11 17 10 18 12 20 4 22 21 24 18 26
REMARK H PARENT 10 19 12 21 4 23 21 25 18 27
REMARK Flexibility Score: inf
ROOT
ATOM      1  C   UNL     1      10.352  23.982  23.937  1.00  0.00     0.180 A 
ATOM      2  C   UNL     1       9.939  24.939  24.880  1.00  0.00     0.208 A 
ATOM      3  C   UNL     1       9.514  26.199  24.429  1.00  0.00     0.238 A 
ATOM      4  O   UNL     1       9.093  27.033  25.273  1.00  0.00    -0.285 OA
ATOM      5  C   UNL     1       9.520  26.491  23.043  1.00  0.00     0.111 A 
ATOM      6  C   UNL     1       9.148  27.747  22.478  1.00  0.00     0.134 A 
ATOM      7  C   UNL     1       9.068  27.882  21.087  1.00  0.00     0.093 A 
ATOM      8  C   UNL     1       9.409  26.828  20.240  1.00  0.00     0.123 A 
ATOM      9  C   UNL     1       9.832  25.614  20.782  1.00  0.00     0.094 A 
ATOM     10  C   UNL     1       9.887  25.437  22.167  1.00  0.00     0.146 A 
ATOM     11  O   UNL     1      10.285  24.263  22.641  1.00  0.00    -0.452 OA
ENDROOT
BRANCH   1  12
ATOM     12  C   UNL     1      10.839  22.642  24.337  1.00  0.00     0.025 A 
ATOM     13  C   UNL     1      12.218  22.379  24.335  1.00  0.00     0.016 A 
ATOM     14  C   UNL     1      12.702  21.128  24.729  1.00  0.00     0.051 A 
ATOM     15  C   UNL     1      11.814  20.127  25.144  1.00  0.00     0.157 A 
ATOM     16  C   UNL     1       9.953  21.640  24.773  1.00  0.00     0.062 A 
ATOM     17  C   UNL     1      10.438  20.385  25.170  1.00  0.00     0.158 A 
BRANCH  15  18
ATOM     18  O   UNL     1      12.291  18.878  25.534  1.00  0.00    -0.504 OA
ATOM     19  H   UNL     1      12.636  18.207  24.857  1.00  0.00     0.293 HD
ENDBRANCH  15  18
BRANCH  17  20
ATOM     20  O   UNL     1       9.558  19.392  25.596  1.00  0.00    -0.504 OA
ATOM     21  H   UNL     1       9.242  19.340  26.558  1.00  0.00     0.293 HD
ENDBRANCH  17  20
ENDBRANCH   1  12
BRANCH   2  22
ATOM     22  O   UNL     1       9.919  24.623  26.240  1.00  0.00    -0.502 OA
ATOM     23  H   UNL     1       9.361  25.137  26.911  1.00  0.00     0.293 HD
ENDBRANCH   2  22
BRANCH   6  24
ATOM     24  O   UNL     1       8.875  28.892  23.232  1.00  0.00    -0.507 OA
ATOM     25  H   UNL     1       8.719  28.901  24.229  1.00  0.00     0.293 HD
ENDBRANCH   6  24
BRANCH   8  26
ATOM     26  O   UNL     1       9.333  27.002  18.860  1.00  0.00    -0.508 OA
ATOM     27  H   UNL     1       9.739  26.332  18.218  1.00  0.00     0.293 HD
ENDBRANCH   8  26
TORSDOF 6
ENDMDL
MODEL 2
REMARK VINA RESULT:    -5.721      1.481      2.005
REMARK INTER + INTRA:          -7.150
REMARK INTER:                  -6.946
REMARK INTRA:                  -0.204
REMARK UNBOUND:                -0.259
REMARK SMILES O=c1c(O)c(-c2ccc(O)c(O)c2)oc2cc(O)cc(O)c12
REMARK SMILES IDX 5 1 3 2 2 3 1 4 22 5 20 6 19 7 17 8 16 9 15 10 14 11 6 12
REMARK SMILES IDX 7 13 8 14 9 15 13 16 11 17 10 18 12 20 4 22 21 24 18 26
REMARK H PARENT 10 19 12 21 4 23 21 25 18 27
REMARK Flexibility Score: inf
ROOT
ATOM      1  C   UNL     1      10.617  24.238  24.179  1.00  0.00     0.180 A 
ATOM      2  C   UNL     1      11.377  25.160  24.919  1.00  0.00     0.208 A 
ATOM      3  C   UNL     1      11.558  26.456  24.410  1.00  0.00     0.238 A 
ATOM      4  O   UNL     1      12.193  27.295  25.103  1.00  0.00    -0.285 OA
ATOM      5  C   UNL     1      10.991  26.809  23.162  1.00  0.00     0.111 A 
ATOM      6  C   UNL     1      11.145  28.080  22.532  1.00  0.00     0.134 A 
ATOM      7  C   UNL     1      10.432  28.360  21.360  1.00  0.00     0.093 A 
ATOM      8  C   UNL     1       9.625  27.396  20.759  1.00  0.00     0.123 A 
ATOM      9  C   UNL     1       9.514  26.129  21.334  1.00  0.00     0.094 A 
ATOM     10  C   UNL     1      10.184  25.831  22.524  1.00  0.00     0.146 A 
ATOM     11  O   UNL     1      10.044  24.618  23.043  1.00  0.00    -0.452 OA
ENDROOT
BRANCH   1  12
ATOM     12  C   UNL     1      10.404  22.846  24.638  1.00  0.00     0.025 A 
ATOM     13  C   UNL     1       9.103  22.408  24.933  1.00  0.00     0.016 A 
ATOM     14  C   UNL     1       8.875  21.093  25.347  1.00  0.00     0.051 A 
ATOM     15  C   UNL     1       9.943  20.193  25.458  1.00  0.00     0.157 A 
ATOM     16  C   UNL     1      11.470  21.934  24.731  1.00  0.00     0.062 A 
ATOM     17  C   UNL     1      11.242  20.613  25.146  1.00  0.00     0.158 A 
BRANCH  15  18
ATOM     18  O   UNL     1       9.721  18.882  25.874  1.00  0.00    -0.504 OA
ATOM     19  H   UNL     1       9.426  18.668  26.820  1.00  0.00     0.293 HD
ENDBRANCH  15  18
BRANCH  17  20
ATOM     20  O   UNL     1      12.300  19.712  25.243  1.00  0.00    -0.504 OA
ATOM     21  H   UNL     1      13.025  19.817  25.944  1.00  0.00     0.293 HD
ENDBRANCH  17  20
ENDBRANCH   1  12
BRANCH   2  22
ATOM     22  O   UNL     1      11.908  24.799  26.160  1.00  0.00    -0.502 OA
ATOM     23  H   UNL     1      12.793  25.157  26.499  1.00  0.00     0.293 HD
ENDBRANCH   2  22
BRANCH   6  24
ATOM     24  O   UNL     1      11.999  29.084  22.998  1.00  0.00    -0.507 OA
ATOM     25  H   UNL     1      12.108  29.342  23.967  1.00  0.00     0.293 HD
ENDBRANCH   6  24
BRANCH   8  26
ATOM     26  O   UNL     1       8.942  27.704  19.584  1.00  0.00    -0.508 OA
ATOM     27  H   UNL     1       9.068  27.160  18.739  1.00  0.00     0.293 HD
ENDBRANCH   8  26
TORSDOF 6
ENDMDL
MODEL 3
REMARK VINA RESULT:    -5.593      1.592      6.909
REMARK INTER + INTRA:          -6.996
REMARK INTER:                  -6.708
REMARK INTRA:                  -0.288
REMARK UNBOUND:                -0.259
REMARK SMILES O=c1c(O)c(-c2ccc(O)c(O)c2)oc2cc(O)cc(O)c12
REMARK SMILES IDX 5 1 3 2 2 3 1 4 22 5 20 6 19 7 17 8 16 9 15 10 14 11 6 12
REMARK SMILES IDX 7 13 8 14 9 15 13 16 11 17 10 18 12 20 4 22 21 24 18 26
REMARK H PARENT 10 19 12 21 4 23 21 25 18 27
REMARK Flexibility Score: inf
ROOT
ATOM      1  C   UNL     1      10.863  23.703  23.910  1.00  0.00     0.180 A 
ATOM      2  C   UNL     1      10.103  22.871  24.751  1.00  0.00     0.208 A 
ATOM      3  C   UNL     1      10.612  21.612  25.103  1.00  0.00     0.238 A 
ATOM      4  O   UNL     1       9.952  20.894  25.900  1.00  0.00    -0.285 OA
ATOM      5  C   UNL     1      11.867  21.192  24.599  1.00  0.00     0.111 A 
ATOM      6  C   UNL     1      12.461  19.921  24.858  1.00  0.00     0.134 A 
ATOM      7  C   UNL     1      13.764  19.665  24.414  1.00  0.00     0.093 A 
ATOM      8  C   UNL     1      14.469  20.606  23.665  1.00  0.00     0.123 A 
ATOM      9  C   UNL     1      13.874  21.830  23.355  1.00  0.00     0.094 A 
ATOM     10  C   UNL     1      12.590  22.130  23.815  1.00  0.00     0.146 A 
ATOM     11  O   UNL     1      12.065  23.309  23.506  1.00  0.00    -0.452 OA
ENDROOT
BRANCH   1  12
ATOM     12  C   UNL     1      10.381  25.034  23.474  1.00  0.00     0.025 A 
ATOM     13  C   UNL     1      10.507  26.131  24.340  1.00  0.00     0.016 A 
ATOM     14  C   UNL     1      10.078  27.401  23.942  1.00  0.00     0.051 A 
ATOM     15  C   UNL     1       9.531  27.593  22.666  1.00  0.00     0.157 A 
ATOM     16  C   UNL     1       9.849  25.235  22.187  1.00  0.00     0.062 A 
ATOM     17  C   UNL     1       9.420  26.509  21.786  1.00  0.00     0.158 A 
BRANCH  15  18
ATOM     18  O   UNL     1       9.099  28.855  22.266  1.00  0.00    -0.504 OA
ATOM     19  H   UNL     1       8.585  29.464  22.894  1.00  0.00     0.293 HD
ENDBRANCH  15  18
BRANCH  17  20
ATOM     20  O   UNL     1       8.889  26.706  20.513  1.00  0.00    -0.504 OA
ATOM     21  H   UNL     1       9.467  26.648  19.682  1.00  0.00     0.293 HD
ENDBRANCH  17  20
ENDBRANCH   1  12
BRANCH   2  22
ATOM     22  O   UNL     1       8.877  23.314  25.255  1.00  0.00    -0.502 OA
ATOM     23  H   UNL     1       8.798  23.815  26.132  1.00  0.00     0.293 HD
ENDBRANCH   2  22
BRANCH   6  24
ATOM     24  O   UNL     1      11.810  18.875  25.518  1.00  0.00    -0.507 OA
ATOM     25  H   UNL     1      12.271  18.071  25.917  1.00  0.00     0.293 HD
ENDBRANCH   6  24
BRANCH   8  26
ATOM     26  O   UNL     1      15.758  20.311  23.227  1.00  0.00    -0.508 OA
ATOM     27  H   UNL     1      16.526  20.957  23.364  1.00  0.00     0.293 HD
ENDBRANCH   8  26
TORSDOF 6
ENDMDL
MODEL 4
REMARK VINA RESULT:    -4.179      2.672      6.904
REMARK INTER + INTRA:          -5.292
REMARK INTER:                  -4.962
REMARK INTRA:                  -0.330
REMARK UNBOUND:                -0.259
REMARK SMILES O=c1c(O)c(-c2ccc(O)c(O)c2)oc2cc(O)cc(O)c12
REMARK SMILES IDX 5 1 3 2 2 3 1 4 22 5 20 6 19 7 17 8 16 9 15 10 14 11 6 12
REMARK SMILES IDX 7 13 8 14 9 15 13 16 11 17 10 18 12 20 4 22 21 24 18 26
REMARK H PARENT 10 19 12 21 4 23 21 25 18 27
REMARK Flexibility Score: inf
ROOT
ATOM      1  C   UNL     1      11.691  24.214  25.017  1.00  0.00     0.180 A 
ATOM      2  C   UNL     1      10.371  23.811  25.288  1.00  0.00     0.208 A 
ATOM      3  C   UNL     1      10.045  22.448  25.201  1.00  0.00     0.238 A 
ATOM      4  O   UNL     1       8.876  22.087  25.498  1.00  0.00    -0.285 OA
ATOM      5  C   UNL     1      11.036  21.508  24.830  1.00  0.00     0.111 A 
ATOM      6  C   UNL     1      10.807  20.108  24.673  1.00  0.00     0.134 A 
ATOM      7  C   UNL     1      11.890  19.255  24.431  1.00  0.00     0.093 A 
ATOM      8  C   UNL     1      13.181  19.755  24.275  1.00  0.00     0.123 A 
ATOM      9  C   UNL     1      13.407  21.129  24.368  1.00  0.00     0.094 A 
ATOM     10  C   UNL     1      12.353  22.003  24.646  1.00  0.00     0.146 A 
ATOM     11  O   UNL     1      12.613  23.301  24.736  1.00  0.00    -0.452 OA
ENDROOT
BRANCH   1  12
ATOM     12  C   UNL     1      12.105  25.635  25.062  1.00  0.00     0.025 A 
ATOM     13  C   UNL     1      12.719  26.139  26.220  1.00  0.00     0.016 A 
ATOM     14  C   UNL     1      13.138  27.471  26.277  1.00  0.00     0.051 A 
ATOM     15  C   UNL     1      12.960  28.315  25.173  1.00  0.00     0.157 A 
ATOM     16  C   UNL     1      11.947  26.480  23.949  1.00  0.00     0.062 A 
ATOM     17  C   UNL     1      12.368  27.817  24.005  1.00  0.00     0.158 A 
BRANCH  15  18
ATOM     18  O   UNL     1      13.373  29.644  25.226  1.00  0.00    -0.504 OA
ATOM     19  H   UNL     1      12.705  30.407  25.219  1.00  0.00     0.293 HD
ENDBRANCH  15  18
BRANCH  17  20
ATOM     20  O   UNL     1      12.207  28.654  22.903  1.00  0.00    -0.504 OA
ATOM     21  H   UNL     1      12.944  28.778  22.218  1.00  0.00     0.293 HD
ENDBRANCH  17  20
ENDBRANCH   1  12
BRANCH   2  22
ATOM     22  O   UNL     1       9.414  24.753  25.674  1.00  0.00    -0.502 OA
ATOM     23  H   UNL     1       8.455  24.719  25.349  1.00  0.00     0.293 HD
ENDBRANCH   2  22
BRANCH   6  24
ATOM     24  O   UNL     1       9.542  19.514  24.717  1.00  0.00    -0.507 OA
ATOM     25  H   UNL     1       9.232  18.775  24.105  1.00  0.00     0.293 HD
ENDBRANCH   6  24
BRANCH   8  26
ATOM     26  O   UNL     1      14.233  18.878  24.019  1.00  0.00    -0.508 OA
ATOM     27  H   UNL     1      14.599  18.264  24.737  1.00  0.00     0.293 HD
ENDBRANCH   8  26
TORSDOF 6
ENDMDL
MODEL 5
REMARK VINA RESULT:    -4.118      5.488      8.819
REMARK INTER + INTRA:          -5.219
REMARK INTER:                  -5.064
REMARK INTRA:                  -0.156
REMARK UNBOUND:                -0.259
REMARK SMILES O=c1c(O)c(-c2ccc(O)c(O)c2)oc2cc(O)cc(O)c12
REMARK SMILES IDX 5 1 3 2 2 3 1 4 22 5 20 6 19 7 17 8 16 9 15 10 14 11 6 12
REMARK SMILES IDX 7 13 8 14 9 15 13 16 11 17 10 18 12 20 4 22 21 24 18 26
REMARK H PARENT 10 19 12 21 4 23 21 25 18 27
REMARK Flexibility Score: inf
ROOT
ATOM      1  C   UNL     1      11.751  27.763  17.745  1.00  0.00     0.180 A 
ATOM      2  C   UNL     1      11.446  28.607  16.662  1.00  0.00     0.208 A 
ATOM      3  C   UNL     1      12.206  28.506  15.486  1.00  0.00     0.238 A 
ATOM      4  O   UNL     1      11.893  29.225  14.501  1.00  0.00    -0.285 OA
ATOM      5  C   UNL     1      13.270  27.576  15.412  1.00  0.00     0.111 A 
ATOM      6  C   UNL     1      14.131  27.416  14.285  1.00  0.00     0.134 A 
ATOM      7  C   UNL     1      15.067  26.376  14.272  1.00  0.00     0.093 A 
ATOM      8  C   UNL     1      15.220  25.530  15.370  1.00  0.00     0.123 A 
ATOM      9  C   UNL     1      14.424  25.714  16.502  1.00  0.00     0.094 A 
ATOM     10  C   UNL     1      13.455  26.721  16.530  1.00  0.00     0.146 A 
ATOM     11  O   UNL     1      12.713  26.855  17.621  1.00  0.00    -0.452 OA
ENDROOT
BRANCH   1  12
ATOM     12  C   UNL     1      11.012  27.828  19.026  1.00  0.00     0.025 A 
ATOM     13  C   UNL     1       9.658  27.458  19.062  1.00  0.00     0.016 A 
ATOM     14  C   UNL     1       8.946  27.491  20.264  1.00  0.00     0.051 A 
ATOM     15  C   UNL     1       9.581  27.881  21.450  1.00  0.00     0.157 A 
ATOM     16  C   UNL     1      11.651  28.199  20.223  1.00  0.00     0.062 A 
ATOM     17  C   UNL     1      10.937  28.231  21.430  1.00  0.00     0.158 A 
BRANCH  15  18
ATOM     18  O   UNL     1       8.875  27.919  22.650  1.00  0.00    -0.504 OA
ATOM     19  H   UNL     1       8.448  28.775  22.988  1.00  0.00     0.293 HD
ENDBRANCH  15  18
BRANCH  17  20
ATOM     20  O   UNL     1      11.571  28.605  22.614  1.00  0.00    -0.504 OA
ATOM     21  H   UNL     1      12.416  29.165  22.610  1.00  0.00     0.293 HD
ENDBRANCH  17  20
ENDBRANCH   1  12
BRANCH   2  22
ATOM     22  O   UNL     1      10.377  29.502  16.749  1.00  0.00    -0.502 OA
ATOM     23  H   UNL     1      10.237  30.249  16.079  1.00  0.00     0.293 HD
ENDBRANCH   2  22
BRANCH   6  24
ATOM     24  O   UNL     1      14.125  28.264  13.173  1.00  0.00    -0.507 OA
ATOM     25  H   UNL     1      14.199  29.269  13.216  1.00  0.00     0.293 HD
ENDBRANCH   6  24
BRANCH   8  26
ATOM     26  O   UNL     1      16.172  24.515  15.330  1.00  0.00    -0.508 OA
ATOM     27  H   UNL     1      16.996  24.536  15.919  1.00  0.00     0.293 HD
ENDBRANCH   8  26
TORSDOF 6
ENDMDL
MODEL 6
REMARK VINA RESULT:    -3.894      2.248      3.476
REMARK INTER + INTRA:          -4.950
REMARK INTER:                  -4.877
REMARK INTRA:                  -0.073
REMARK UNBOUND:                -0.259
REMARK SMILES O=c1c(O)c(-c2ccc(O)c(O)c2)oc2cc(O)cc(O)c12
REMARK SMILES IDX 5 1 3 2 2 3 1 4 22 5 20 6 19 7 17 8 16 9 15 10 14 11 6 12
REMARK SMILES IDX 7 13 8 14 9 15 13 16 11 17 10 18 12 20 4 22 21 24 18 26
REMARK H PARENT 10 19 12 21 4 23 21 25 18 27
REMARK Flexibility Score: inf
ROOT
ATOM      1  C   UNL     1      10.613  24.178  24.154  1.00  0.00     0.180 A 
ATOM      2  C   UNL     1       9.895  24.702  23.065  1.00  0.00     0.208 A 
ATOM      3  C   UNL     1      10.135  26.026  22.666  1.00  0.00     0.238 A 
ATOM      4  O   UNL     1       9.529  26.473  21.656  1.00  0.00    -0.285 OA
ATOM      5  C   UNL     1      11.078  26.815  23.369  1.00  0.00     0.111 A 
ATOM      6  C   UNL     1      11.372  28.180  23.076  1.00  0.00     0.134 A 
ATOM      7  C   UNL     1      12.417  28.822  23.752  1.00  0.00     0.093 A 
ATOM      8  C   UNL     1      13.133  28.171  24.755  1.00  0.00     0.123 A 
ATOM      9  C   UNL     1      12.815  26.854  25.090  1.00  0.00     0.094 A 
ATOM     10  C   UNL     1      11.802  26.175  24.408  1.00  0.00     0.146 A 
ATOM     11  O   UNL     1      11.538  24.921  24.752  1.00  0.00    -0.452 OA
ENDROOT
BRANCH   1  12
ATOM     12  C   UNL     1      10.396  22.800  24.650  1.00  0.00     0.025 A 
ATOM     13  C   UNL     1       9.108  22.402  25.041  1.00  0.00     0.016 A 
ATOM     14  C   UNL     1       8.875  21.099  25.493  1.00  0.00     0.051 A 
ATOM     15  C   UNL     1       9.925  20.173  25.547  1.00  0.00     0.157 A 
ATOM     16  C   UNL     1      11.443  21.861  24.687  1.00  0.00     0.062 A 
ATOM     17  C   UNL     1      11.209  20.553  25.139  1.00  0.00     0.158 A 
BRANCH  15  18
ATOM     18  O   UNL     1       9.698  18.875  25.999  1.00  0.00    -0.504 OA
ATOM     19  H   UNL     1       8.863  18.362  25.741  1.00  0.00     0.293 HD
ENDBRANCH  15  18
BRANCH  17  20
ATOM     20  O   UNL     1      12.249  19.626  25.180  1.00  0.00    -0.504 OA
ATOM     21  H   UNL     1      12.898  19.590  25.958  1.00  0.00     0.293 HD
ENDBRANCH  17  20
ENDBRANCH   1  12
BRANCH   2  22
ATOM     22  O   UNL     1       8.985  23.900  22.372  1.00  0.00    -0.502 OA
ATOM     23  H   UNL     1       9.196  23.493  21.469  1.00  0.00     0.293 HD
ENDBRANCH   2  22
BRANCH   6  24
ATOM     24  O   UNL     1      10.656  28.953  22.156  1.00  0.00    -0.507 OA
ATOM     25  H   UNL     1      10.424  29.927  22.281  1.00  0.00     0.293 HD
ENDBRANCH   6  24
BRANCH   8  26
ATOM     26  O   UNL     1      14.156  28.845  25.418  1.00  0.00    -0.508 OA
ATOM     27  H   UNL     1      14.808  28.358  26.022  1.00  0.00     0.293 HD
ENDBRANCH   8  26
TORSDOF 6
ENDMDL
MODEL 7
REMARK VINA RESULT:    -3.145      3.174      4.055
REMARK INTER + INTRA:          -4.047
REMARK INTER:                  -3.757
REMARK INTRA:                  -0.290
REMARK UNBOUND:                -0.259
REMARK SMILES O=c1c(O)c(-c2ccc(O)c(O)c2)oc2cc(O)cc(O)c12
REMARK SMILES IDX 5 1 3 2 2 3 1 4 22 5 20 6 19 7 17 8 16 9 15 10 14 11 6 12
REMARK SMILES IDX 7 13 8 14 9 15 13 16 11 17 10 18 12 20 4 22 21 24 18 26
REMARK H PARENT 10 19 12 21 4 23 21 25 18 27
REMARK Flexibility Score: inf
ROOT
ATOM      1  C   UNL     1      12.078  24.261  24.719  1.00  0.00     0.180 A 
ATOM      2  C   UNL     1      10.839  24.769  25.149  1.00  0.00     0.208 A 
ATOM      3  C   UNL     1      10.764  26.100  25.587  1.00  0.00     0.238 A 
ATOM      4  O   UNL     1       9.642  26.565  25.918  1.00  0.00    -0.285 OA
ATOM      5  C   UNL     1      11.930  26.903  25.607  1.00  0.00     0.111 A 
ATOM      6  C   UNL     1      11.978  28.252  26.069  1.00  0.00     0.134 A 
ATOM      7  C   UNL     1      13.158  28.991  25.920  1.00  0.00     0.093 A 
ATOM      8  C   UNL     1      14.309  28.413  25.388  1.00  0.00     0.123 A 
ATOM      9  C   UNL     1      14.290  27.076  24.987  1.00  0.00     0.094 A 
ATOM     10  C   UNL     1      13.118  26.322  25.089  1.00  0.00     0.146 A 
ATOM     11  O   UNL     1      13.140  25.058  24.688  1.00  0.00    -0.452 OA
ENDROOT
BRANCH   1  12
ATOM     12  C   UNL     1      12.242  22.861  24.268  1.00  0.00     0.025 A 
ATOM     13  C   UNL     1      11.873  22.510  22.959  1.00  0.00     0.016 A 
ATOM     14  C   UNL     1      12.038  21.198  22.504  1.00  0.00     0.051 A 
ATOM     15  C   UNL     1      12.587  20.223  23.347  1.00  0.00     0.157 A 
ATOM     16  C   UNL     1      12.811  21.883  25.103  1.00  0.00     0.062 A 
ATOM     17  C   UNL     1      12.978  20.567  24.647  1.00  0.00     0.158 A 
BRANCH  15  18
ATOM     18  O   UNL     1      12.750  18.914  22.899  1.00  0.00    -0.504 OA
ATOM     19  H   UNL     1      13.373  18.691  22.130  1.00  0.00     0.293 HD
ENDBRANCH  15  18
BRANCH  17  20
ATOM     20  O   UNL     1      13.538  19.598  25.478  1.00  0.00    -0.504 OA
ATOM     21  H   UNL     1      14.462  19.219  25.304  1.00  0.00     0.293 HD
ENDBRANCH  17  20
ENDBRANCH   1  12
BRANCH   2  22
ATOM     22  O   UNL     1       9.696  23.966  25.100  1.00  0.00    -0.502 OA
ATOM     23  H   UNL     1       9.107  23.809  25.909  1.00  0.00     0.293 HD
ENDBRANCH   2  22
BRANCH   6  24
ATOM     24  O   UNL     1      10.912  28.899  26.701  1.00  0.00    -0.507 OA
ATOM     25  H   UNL     1      10.836  29.044  27.697  1.00  0.00     0.293 HD
ENDBRANCH   6  24
BRANCH   8  26
ATOM     26  O   UNL     1      15.470  29.173  25.269  1.00  0.00    -0.508 OA
ATOM     27  H   UNL     1      15.831  29.716  26.045  1.00  0.00     0.293 HD
ENDBRANCH   8  26
TORSDOF 6
ENDMDL
