MODEL 1
REMARK VINA RESULT:    -3.014      0.000      0.000
REMARK INTER + INTRA:          -3.649
REMARK INTER:                  -3.542
REMARK INTRA:                  -0.107
REMARK UNBOUND:                -0.107
REMARK SMILES O=C([O-])CCC(=O)[O-]
REMARK SMILES IDX 4 1 2 2 1 3 3 4 5 5 6 6 7 7 8 8
REMARK H PARENT
REMARK Flexibility Score: inf
ROOT
ATOM      1  C   UNL     1     -26.379  -9.946  18.204  1.00  0.00     0.059 C 
ENDROOT
BRANCH   1   2
ATOM      2  C   UNL     1     -26.063 -11.404  18.093  1.00  0.00     0.042 C 
ATOM      3  O   UNL     1     -25.602 -11.871  17.018  1.00  0.00    -0.550 OA
ATOM      4  O   UNL     1     -26.228 -12.238  19.191  1.00  0.00    -0.550 OA
ENDBRANCH   1   2
BRANCH   1   5
ATOM      5  C   UNL     1     -26.101  -9.234  16.880  1.00  0.00     0.059 C 
BRANCH   5   6
ATOM      6  C   UNL     1     -25.034  -8.200  17.055  1.00  0.00     0.042 C 
ATOM      7  O   UNL     1     -23.865  -8.543  17.377  1.00  0.00    -0.550 OA
ATOM      8  O   UNL     1     -25.340  -6.852  16.912  1.00  0.00    -0.550 OA
ENDBRANCH   5   6
ENDBRANCH   1   5
TORSDOF 3
ENDMDL
MODEL 2
REMARK VINA RESULT:    -2.968      5.365      6.971
REMARK INTER + INTRA:          -3.595
REMARK INTER:                  -3.560
REMARK INTRA:                  -0.036
REMARK UNBOUND:                -0.107
REMARK SMILES O=C([O-])CCC(=O)[O-]
REMARK SMILES IDX 4 1 2 2 1 3 3 4 5 5 6 6 7 7 8 8
REMARK H PARENT
REMARK Flexibility Score: inf
ROOT
ATOM      1  C   UNL     1     -24.013 -13.190  23.449  1.00  0.00     0.059 C 
ENDROOT
BRANCH   1   2
ATOM      2  C   UNL     1     -23.265 -14.372  23.981  1.00  0.00     0.042 C 
ATOM      3  O   UNL     1     -22.526 -15.050  23.219  1.00  0.00    -0.550 OA
ATOM      4  O   UNL     1     -23.342 -14.695  25.330  1.00  0.00    -0.550 OA
ENDBRANCH   1   2
BRANCH   1   5
ATOM      5  C   UNL     1     -24.575 -13.494  22.060  1.00  0.00     0.059 C 
BRANCH   5   6
ATOM      6  C   UNL     1     -25.794 -12.667  21.795  1.00  0.00     0.042 C 
ATOM      7  O   UNL     1     -26.534 -12.926  20.810  1.00  0.00    -0.550 OA
ATOM      8  O   UNL     1     -26.085 -11.578  22.607  1.00  0.00    -0.550 OA
ENDBRANCH   5   6
ENDBRANCH   1   5
TORSDOF 3
ENDMDL
MODEL 3
REMARK VINA RESULT:    -2.947      0.186      3.999
REMARK INTER + INTRA:          -3.570
REMARK INTER:                  -3.462
REMARK INTRA:                  -0.108
REMARK UNBOUND:                -0.107
REMARK SMILES O=C([O-])CCC(=O)[O-]
REMARK SMILES IDX 4 1 2 2 1 3 3 4 5 5 6 6 7 7 8 8
REMARK H PARENT
REMARK Flexibility Score: inf
ROOT
ATOM      1  C   UNL     1     -26.207  -9.236  17.062  1.00  0.00     0.059 C 
ENDROOT
BRANCH   1   2
ATOM      2  C   UNL     1     -25.135  -8.214  17.275  1.00  0.00     0.042 C 
ATOM      3  O   UNL     1     -23.967  -8.575  17.578  1.00  0.00    -0.550 OA
ATOM      4  O   UNL     1     -25.412  -6.866  17.090  1.00  0.00    -0.550 OA
ENDBRANCH   1   2
BRANCH   1   5
ATOM      5  C   UNL     1     -26.485  -9.999  18.358  1.00  0.00     0.059 C 
BRANCH   5   6
ATOM      6  C   UNL     1     -26.101 -11.438  18.211  1.00  0.00     0.042 C 
ATOM      7  O   UNL     1     -25.707 -11.878  17.099  1.00  0.00    -0.550 OA
ATOM      8  O   UNL     1     -26.227 -12.305  19.289  1.00  0.00    -0.550 OA
ENDBRANCH   5   6
ENDBRANCH   1   5
TORSDOF 3
ENDMDL
MODEL 4
REMARK VINA RESULT:    -2.902     16.075     17.363
REMARK INTER + INTRA:          -3.517
REMARK INTER:                  -3.401
REMARK INTRA:                  -0.116
REMARK UNBOUND:                -0.107
REMARK SMILES O=C([O-])CCC(=O)[O-]
REMARK SMILES IDX 4 1 2 2 1 3 3 4 5 5 6 6 7 7 8 8
REMARK H PARENT
REMARK Flexibility Score: inf
ROOT
ATOM      1  C   UNL     1     -30.259 -15.928  33.011  1.00  0.00     0.059 C 
ENDROOT
BRANCH   1   2
ATOM      2  C   UNL     1     -31.356 -15.249  33.768  1.00  0.00     0.042 C 
ATOM      3  O   UNL     1     -32.145 -15.923  34.482  1.00  0.00    -0.550 OA
ATOM      4  O   UNL     1     -31.477 -13.866  33.728  1.00  0.00    -0.550 OA
ENDBRANCH   1   2
BRANCH   1   5
ATOM      5  C   UNL     1     -28.931 -15.794  33.757  1.00  0.00     0.059 C 
BRANCH   5   6
ATOM      6  C   UNL     1     -28.102 -14.702  33.157  1.00  0.00     0.042 C 
ATOM      7  O   UNL     1     -27.040 -14.330  33.723  1.00  0.00    -0.550 OA
ATOM      8  O   UNL     1     -28.527 -14.060  32.001  1.00  0.00    -0.550 OA
ENDBRANCH   5   6
ENDBRANCH   1   5
TORSDOF 3
ENDMDL
MODEL 5
REMARK VINA RESULT:    -2.894      4.460      6.318
REMARK INTER + INTRA:          -3.508
REMARK INTER:                  -3.474
REMARK INTRA:                  -0.034
REMARK UNBOUND:                -0.107
REMARK SMILES O=C([O-])CCC(=O)[O-]
REMARK SMILES IDX 4 1 2 2 1 3 3 4 5 5 6 6 7 7 8 8
REMARK H PARENT
REMARK Flexibility Score: inf
ROOT
ATOM      1  C   UNL     1     -24.656 -13.549  22.174  1.00  0.00     0.059 C 
ENDROOT
BRANCH   1   2
ATOM      2  C   UNL     1     -23.868 -13.388  23.435  1.00  0.00     0.042 C 
ATOM      3  O   UNL     1     -23.996 -12.349  24.135  1.00  0.00    -0.550 OA
ATOM      4  O   UNL     1     -23.030 -14.409  23.867  1.00  0.00    -0.550 OA
ENDBRANCH   1   2
BRANCH   1   5
ATOM      5  C   UNL     1     -25.638 -12.389  22.005  1.00  0.00     0.059 C 
BRANCH   5   6
ATOM      6  C   UNL     1     -26.553 -12.641  20.848  1.00  0.00     0.042 C 
ATOM      7  O   UNL     1     -27.691 -13.146  21.037  1.00  0.00    -0.550 OA
ATOM      8  O   UNL     1     -26.129 -12.367  19.553  1.00  0.00    -0.550 OA
ENDBRANCH   5   6
ENDBRANCH   1   5
TORSDOF 3
ENDMDL
MODEL 6
REMARK VINA RESULT:    -2.861      4.521      6.508
REMARK INTER + INTRA:          -3.469
REMARK INTER:                  -3.433
REMARK INTRA:                  -0.036
REMARK UNBOUND:                -0.107
REMARK SMILES O=C([O-])CCC(=O)[O-]
REMARK SMILES IDX 4 1 2 2 1 3 3 4 5 5 6 6 7 7 8 8
REMARK H PARENT
REMARK Flexibility Score: inf
ROOT
ATOM      1  C   UNL     1     -25.485 -12.357  21.892  1.00  0.00     0.059 C 
ENDROOT
BRANCH   1   2
ATOM      2  C   UNL     1     -26.461 -12.760  20.832  1.00  0.00     0.042 C 
ATOM      3  O   UNL     1     -26.282 -12.406  19.637  1.00  0.00    -0.550 OA
ATOM      4  O   UNL     1     -27.543 -13.571  21.155  1.00  0.00    -0.550 OA
ENDBRANCH   1   2
BRANCH   1   5
ATOM      5  C   UNL     1     -24.569 -13.529  22.250  1.00  0.00     0.059 C 
BRANCH   5   6
ATOM      6  C   UNL     1     -23.976 -13.334  23.610  1.00  0.00     0.042 C 
ATOM      7  O   UNL     1     -24.029 -12.206  24.168  1.00  0.00    -0.550 OA
ATOM      8  O   UNL     1     -23.319 -14.383  24.239  1.00  0.00    -0.550 OA
ENDBRANCH   5   6
ENDBRANCH   1   5
TORSDOF 3
ENDMDL
MODEL 7
REMARK VINA RESULT:    -2.852      1.993      2.798
REMARK INTER + INTRA:          -3.459
REMARK INTER:                  -3.433
REMARK INTRA:                  -0.026
REMARK UNBOUND:                -0.107
REMARK SMILES O=C([O-])CCC(=O)[O-]
REMARK SMILES IDX 4 1 2 2 1 3 3 4 5 5 6 6 7 7 8 8
REMARK H PARENT
REMARK Flexibility Score: inf
ROOT
ATOM      1  C   UNL     1     -26.246 -11.254  19.750  1.00  0.00     0.059 C 
ENDROOT
BRANCH   1   2
ATOM      2  C   UNL     1     -26.445 -12.474  20.593  1.00  0.00     0.042 C 
ATOM      3  O   UNL     1     -25.451 -13.126  21.009  1.00  0.00    -0.550 OA
ATOM      4  O   UNL     1     -27.727 -12.862  20.964  1.00  0.00    -0.550 OA
ENDBRANCH   1   2
BRANCH   1   5
ATOM      5  C   UNL     1     -26.249 -11.623  18.266  1.00  0.00     0.059 C 
BRANCH   5   6
ATOM      6  C   UNL     1     -25.984 -10.414  17.425  1.00  0.00     0.042 C 
ATOM      7  O   UNL     1     -24.805 -10.010  17.249  1.00  0.00    -0.550 OA
ATOM      8  O   UNL     1     -27.044  -9.702  16.876  1.00  0.00    -0.550 OA
ENDBRANCH   5   6
ENDBRANCH   1   5
TORSDOF 3
ENDMDL
MODEL 8
REMARK VINA RESULT:    -1.256      1.997      4.572
REMARK INTER + INTRA:          -1.583
REMARK INTER:                  -1.557
REMARK INTRA:                  -0.026
REMARK UNBOUND:                -0.107
REMARK SMILES O=C([O-])CCC(=O)[O-]
REMARK SMILES IDX 4 1 2 2 1 3 3 4 5 5 6 6 7 7 8 8
REMARK H PARENT
REMARK Flexibility Score: inf
ROOT
ATOM      1  C   UNL     1     -26.167 -11.706  18.108  1.00  0.00     0.059 C 
ENDROOT
BRANCH   1   2
ATOM      2  C   UNL     1     -26.009 -10.498  17.240  1.00  0.00     0.042 C 
ATOM      3  O   UNL     1     -27.020  -9.842  16.876  1.00  0.00    -0.550 OA
ATOM      4  O   UNL     1     -24.740 -10.065  16.875  1.00  0.00    -0.550 OA
ENDBRANCH   1   2
BRANCH   1   5
ATOM      5  C   UNL     1     -26.372 -11.294  19.567  1.00  0.00     0.059 C 
BRANCH   5   6
ATOM      6  C   UNL     1     -26.486 -12.503  20.441  1.00  0.00     0.042 C 
ATOM      7  O   UNL     1     -27.612 -12.876  20.864  1.00  0.00    -0.550 OA
ATOM      8  O   UNL     1     -25.343 -13.188  20.834  1.00  0.00    -0.550 OA
ENDBRANCH   5   6
ENDBRANCH   1   5
TORSDOF 3
ENDMDL
MODEL 9
REMARK VINA RESULT:    -0.942      5.144      5.673
REMARK INTER + INTRA:          -1.214
REMARK INTER:                  -1.118
REMARK INTRA:                  -0.095
REMARK UNBOUND:                -0.107
REMARK SMILES O=C([O-])CCC(=O)[O-]
REMARK SMILES IDX 4 1 2 2 1 3 3 4 5 5 6 6 7 7 8 8
REMARK H PARENT
REMARK Flexibility Score: inf
ROOT
ATOM      1  C   UNL     1     -26.580  -9.923  22.739  1.00  0.00     0.059 C 
ENDROOT
BRANCH   1   2
ATOM      2  C   UNL     1     -26.928 -10.113  21.296  1.00  0.00     0.042 C 
ATOM      3  O   UNL     1     -26.623  -9.232  20.449  1.00  0.00    -0.550 OA
ATOM      4  O   UNL     1     -27.542 -11.287  20.877  1.00  0.00    -0.550 OA
ENDBRANCH   1   2
BRANCH   1   5
ATOM      5  C   UNL     1     -25.721  -8.671  22.922  1.00  0.00     0.059 C 
BRANCH   5   6
ATOM      6  C   UNL     1     -26.368  -7.729  23.888  1.00  0.00     0.042 C 
ATOM      7  O   UNL     1     -25.751  -7.358  24.921  1.00  0.00    -0.550 OA
ATOM      8  O   UNL     1     -27.673  -7.301  23.675  1.00  0.00    -0.550 OA
ENDBRANCH   5   6
ENDBRANCH   1   5
TORSDOF 3
ENDMDL
