MODEL 1
REMARK VINA RESULT:    -5.498      0.000      0.000
REMARK INTER + INTRA:          -9.129
REMARK INTER:                  -8.551
REMARK INTRA:                  -0.578
REMARK UNBOUND:                -0.578
REMARK SMILES COc1cc(CNC(=O)CCCCC=CC(C)C)ccc1O
REMARK SMILES IDX 11 1 12 2 13 3 14 4 15 5 16 6 17 7 18 8 10 9 8 10 9 11 7 12
REMARK SMILES IDX 6 14 5 15 4 16 19 17 3 18 20 19 21 20 2 21 1 22 22 23
REMARK H PARENT 7 13 22 24
REMARK Flexibility Score: inf
ROOT
ATOM      1  C   UNL     1     115.209 255.725 337.429  1.00  0.00     0.010 C 
ENDROOT
BRANCH   1   2
ATOM      2  C   UNL     1     114.459 257.021 337.057  1.00  0.00     0.005 C 
BRANCH   2   3
ATOM      3  C   UNL     1     113.235 256.815 336.150  1.00  0.00     0.027 C 
BRANCH   3   4
ATOM      4  C   UNL     1     112.994 257.939 335.170  1.00  0.00    -0.031 C 
ATOM      5  C   UNL     1     112.706 257.857 333.851  1.00  0.00    -0.028 C 
BRANCH   5   6
ATOM      6  C   UNL     1     112.653 256.642 332.936  1.00  0.00     0.005 C 
ATOM      7  C   UNL     1     111.486 256.743 331.948  1.00  0.00     0.012 C 
ATOM      8  C   UNL     1     113.969 256.264 332.248  1.00  0.00     0.012 C 
ENDBRANCH   5   6
ENDBRANCH   3   4
ENDBRANCH   2   3
ENDBRANCH   1   2
BRANCH   1   9
ATOM      9  C   UNL     1     116.653 255.936 337.916  1.00  0.00     0.100 C 
BRANCH   9  10
ATOM     10  C   UNL     1     116.915 255.277 339.240  1.00  0.00     0.220 C 
ATOM     11  O   UNL     1     118.098 254.995 339.573  1.00  0.00    -0.275 OA
ATOM     12  N   UNL     1     115.825 254.962 340.117  1.00  0.00    -0.352 N 
ATOM     13  H   UNL     1     114.878 255.353 339.908  1.00  0.00     0.163 HD
BRANCH  12  14
ATOM     14  C   UNL     1     115.912 253.895 341.110  1.00  0.00     0.151 C 
BRANCH  14  15
ATOM     15  C   UNL     1     114.696 253.933 341.994  1.00  0.00    -0.025 A 
ATOM     16  C   UNL     1     114.627 254.836 343.066  1.00  0.00     0.056 A 
ATOM     17  C   UNL     1     113.672 252.994 341.817  1.00  0.00     0.009 A 
ATOM     18  C   UNL     1     113.540 254.801 343.963  1.00  0.00     0.160 A 
ATOM     19  C   UNL     1     112.586 252.963 342.692  1.00  0.00     0.050 A 
ATOM     20  C   UNL     1     112.515 253.858 343.764  1.00  0.00     0.157 A 
BRANCH  18  21
ATOM     21  O   UNL     1     113.454 255.674 345.060  1.00  0.00    -0.493 OA
ATOM     22  C   UNL     1     114.574 256.180 345.778  1.00  0.00     0.278 C 
ENDBRANCH  18  21
BRANCH  20  23
ATOM     23  O   UNL     1     111.422 253.789 344.628  1.00  0.00    -0.504 OA
ATOM     24  H   UNL     1     110.822 254.586 344.804  1.00  0.00     0.293 HD
ENDBRANCH  20  23
ENDBRANCH  14  15
ENDBRANCH  12  14
ENDBRANCH   9  10
ENDBRANCH   1   9
TORSDOF 10
ENDMDL
MODEL 2
REMARK VINA RESULT:    -5.411      3.176      8.827
REMARK INTER + INTRA:          -8.995
REMARK INTER:                  -8.772
REMARK INTRA:                  -0.223
REMARK UNBOUND:                -0.578
REMARK SMILES COc1cc(CNC(=O)CCCCC=CC(C)C)ccc1O
REMARK SMILES IDX 11 1 12 2 13 3 14 4 15 5 16 6 17 7 18 8 10 9 8 10 9 11 7 12
REMARK SMILES IDX 6 14 5 15 4 16 19 17 3 18 20 19 21 20 2 21 1 22 22 23
REMARK H PARENT 7 13 22 24
REMARK Flexibility Score: inf
ROOT
ATOM      1  C   UNL     1     116.609 254.462 340.349  1.00  0.00     0.010 C 
ENDROOT
BRANCH   1   2
ATOM      2  C   UNL     1     115.230 254.909 340.877  1.00  0.00     0.005 C 
BRANCH   2   3
ATOM      3  C   UNL     1     114.842 254.312 342.240  1.00  0.00     0.027 C 
BRANCH   3   4
ATOM      4  C   UNL     1     113.804 253.218 342.165  1.00  0.00    -0.031 C 
ATOM      5  C   UNL     1     112.602 253.155 342.782  1.00  0.00    -0.028 C 
BRANCH   5   6
ATOM      6  C   UNL     1     111.983 254.088 343.812  1.00  0.00     0.005 C 
ATOM      7  C   UNL     1     113.061 254.750 344.677  1.00  0.00     0.012 C 
ATOM      8  C   UNL     1     110.964 255.099 343.276  1.00  0.00     0.012 C 
ENDBRANCH   5   6
ENDBRANCH   3   4
ENDBRANCH   2   3
ENDBRANCH   1   2
BRANCH   1   9
ATOM      9  C   UNL     1     116.678 254.259 338.825  1.00  0.00     0.100 C 
BRANCH   9  10
ATOM     10  C   UNL     1     116.292 255.495 338.063  1.00  0.00     0.220 C 
ATOM     11  O   UNL     1     117.073 256.485 338.043  1.00  0.00    -0.275 OA
ATOM     12  N   UNL     1     115.038 255.552 337.370  1.00  0.00    -0.352 N 
ATOM     13  H   UNL     1     114.484 254.673 337.252  1.00  0.00     0.163 HD
BRANCH  12  14
ATOM     14  C   UNL     1     114.368 256.818 337.083  1.00  0.00     0.151 C 
BRANCH  14  15
ATOM     15  C   UNL     1     113.503 256.660 335.862  1.00  0.00    -0.025 A 
ATOM     16  C   UNL     1     114.024 256.923 334.586  1.00  0.00     0.056 A 
ATOM     17  C   UNL     1     112.143 256.355 336.003  1.00  0.00     0.009 A 
ATOM     18  C   UNL     1     113.189 256.884 333.450  1.00  0.00     0.160 A 
ATOM     19  C   UNL     1     111.315 256.301 334.882  1.00  0.00     0.050 A 
ATOM     20  C   UNL     1     111.828 256.565 333.608  1.00  0.00     0.157 A 
BRANCH  18  21
ATOM     21  O   UNL     1     113.674 257.166 332.163  1.00  0.00    -0.493 OA
ATOM     22  C   UNL     1     114.722 258.087 331.879  1.00  0.00     0.278 C 
ENDBRANCH  18  21
BRANCH  20  23
ATOM     23  O   UNL     1     110.967 256.516 332.512  1.00  0.00    -0.504 OA
ATOM     24  H   UNL     1     110.723 255.645 332.056  1.00  0.00     0.293 HD
ENDBRANCH  20  23
ENDBRANCH  14  15
ENDBRANCH  12  14
ENDBRANCH   9  10
ENDBRANCH   1   9
TORSDOF 10
ENDMDL
MODEL 3
REMARK VINA RESULT:    -3.336      2.576      9.936
REMARK INTER + INTRA:          -5.766
REMARK INTER:                  -5.117
REMARK INTRA:                  -0.650
REMARK UNBOUND:                -0.578
REMARK SMILES COc1cc(CNC(=O)CCCCC=CC(C)C)ccc1O
REMARK SMILES IDX 11 1 12 2 13 3 14 4 15 5 16 6 17 7 18 8 10 9 8 10 9 11 7 12
REMARK SMILES IDX 6 14 5 15 4 16 19 17 3 18 20 19 21 20 2 21 1 22 22 23
REMARK H PARENT 7 13 22 24
REMARK Flexibility Score: inf
ROOT
ATOM      1  C   UNL     1     114.614 255.872 345.386  1.00  0.00     0.010 C 
ENDROOT
BRANCH   1   2
ATOM      2  C   UNL     1     114.508 257.411 345.363  1.00  0.00     0.005 C 
BRANCH   2   3
ATOM      3  C   UNL     1     115.224 258.121 346.524  1.00  0.00     0.027 C 
BRANCH   3   4
ATOM      4  C   UNL     1     116.319 257.305 347.169  1.00  0.00    -0.031 C 
ATOM      5  C   UNL     1     116.673 257.254 348.474  1.00  0.00    -0.028 C 
BRANCH   5   6
ATOM      6  C   UNL     1     116.170 258.072 349.654  1.00  0.00     0.005 C 
ATOM      7  C   UNL     1     114.735 257.683 350.025  1.00  0.00     0.012 C 
ATOM      8  C   UNL     1     117.094 258.125 350.876  1.00  0.00     0.012 C 
ENDBRANCH   5   6
ENDBRANCH   3   4
ENDBRANCH   2   3
ENDBRANCH   1   2
BRANCH   1   9
ATOM      9  C   UNL     1     113.322 255.134 344.994  1.00  0.00     0.100 C 
BRANCH   9  10
ATOM     10  C   UNL     1     113.302 254.743 343.544  1.00  0.00     0.220 C 
ATOM     11  O   UNL     1     112.198 254.546 342.967  1.00  0.00    -0.275 OA
ATOM     12  N   UNL     1     114.531 254.586 342.822  1.00  0.00    -0.352 N 
ATOM     13  H   UNL     1     115.421 254.917 343.260  1.00  0.00     0.163 HD
BRANCH  12  14
ATOM     14  C   UNL     1     114.634 253.729 341.643  1.00  0.00     0.151 C 
BRANCH  14  15
ATOM     15  C   UNL     1     115.724 254.245 340.744  1.00  0.00    -0.025 A 
ATOM     16  C   UNL     1     115.406 255.005 339.609  1.00  0.00     0.056 A 
ATOM     17  C   UNL     1     117.056 253.877 340.977  1.00  0.00     0.009 A 
ATOM     18  C   UNL     1     116.414 255.395 338.703  1.00  0.00     0.160 A 
ATOM     19  C   UNL     1     118.060 254.272 340.094  1.00  0.00     0.050 A 
ATOM     20  C   UNL     1     117.748 255.026 338.958  1.00  0.00     0.157 A 
BRANCH  18  21
ATOM     21  O   UNL     1     116.126 256.135 337.545  1.00  0.00    -0.493 OA
ATOM     22  C   UNL     1     114.854 256.169 336.906  1.00  0.00     0.278 C 
ENDBRANCH  18  21
BRANCH  20  23
ATOM     23  O   UNL     1     118.775 255.392 338.089  1.00  0.00    -0.504 OA
ATOM     24  H   UNL     1     118.960 254.890 337.229  1.00  0.00     0.293 HD
ENDBRANCH  20  23
ENDBRANCH  14  15
ENDBRANCH  12  14
ENDBRANCH   9  10
ENDBRANCH   1   9
TORSDOF 10
ENDMDL
