MODEL 1
REMARK VINA RESULT:     3.120      0.000      0.000
REMARK INTER + INTRA:           3.929
REMARK INTER:                   3.758
REMARK INTRA:                   0.170
REMARK UNBOUND:                 0.170
REMARK SMILES O=c1c(O)c(-c2ccc(O)c(O)c2)oc2cc(O)cc(O)c12
REMARK SMILES IDX 5 1 3 2 2 3 1 4 22 5 20 6 19 7 17 8 16 9 15 10 14 11 6 12
REMARK SMILES IDX 7 13 8 14 9 15 13 16 11 17 10 18 12 20 4 22 21 24 18 26
REMARK H PARENT 10 19 12 21 4 23 21 25 18 27
REMARK Flexibility Score: inf
ROOT
ATOM      1  C   UNL     1      11.843  21.816  -0.116  1.00  0.00     0.180 A 
ATOM      2  C   UNL     1      12.618  22.863  -0.644  1.00  0.00     0.208 A 
ATOM      3  C   UNL     1      12.592  23.098  -2.028  1.00  0.00     0.238 A 
ATOM      4  O   UNL     1      13.246  24.071  -2.488  1.00  0.00    -0.285 OA
ATOM      5  C   UNL     1      11.806  22.274  -2.869  1.00  0.00     0.111 A 
ATOM      6  C   UNL     1      11.737  22.396  -4.289  1.00  0.00     0.134 A 
ATOM      7  C   UNL     1      10.826  21.611  -5.006  1.00  0.00     0.093 A 
ATOM      8  C   UNL     1      10.027  20.662  -4.361  1.00  0.00     0.123 A 
ATOM      9  C   UNL     1      10.131  20.495  -2.983  1.00  0.00     0.094 A 
ATOM     10  C   UNL     1      11.005  21.288  -2.236  1.00  0.00     0.146 A 
ATOM     11  O   UNL     1      11.065  21.103  -0.922  1.00  0.00    -0.452 OA
ENDROOT
BRANCH   1  12
ATOM     12  C   UNL     1      11.837  21.491   1.328  1.00  0.00     0.025 A 
ATOM     13  C   UNL     1      11.818  20.158   1.778  1.00  0.00     0.016 A 
ATOM     14  C   UNL     1      11.788  19.875   3.146  1.00  0.00     0.051 A 
ATOM     15  C   UNL     1      11.764  20.917   4.082  1.00  0.00     0.157 A 
ATOM     16  C   UNL     1      11.790  22.530   2.271  1.00  0.00     0.062 A 
ATOM     17  C   UNL     1      11.762  22.247   3.645  1.00  0.00     0.158 A 
BRANCH  15  18
ATOM     18  O   UNL     1      11.735  20.639   5.448  1.00  0.00    -0.504 OA
ATOM     19  H   UNL     1      10.994  20.987   6.045  1.00  0.00     0.293 HD
ENDBRANCH  15  18
BRANCH  17  20
ATOM     20  O   UNL     1      11.730  23.281   4.578  1.00  0.00    -0.504 OA
ATOM     21  H   UNL     1      11.683  23.096   5.573  1.00  0.00     0.293 HD
ENDBRANCH  17  20
ENDBRANCH   1  12
BRANCH   2  22
ATOM     22  O   UNL     1      13.371  23.679   0.206  1.00  0.00    -0.502 OA
ATOM     23  H   UNL     1      13.148  24.654   0.361  1.00  0.00     0.293 HD
ENDBRANCH   2  22
BRANCH   6  24
ATOM     24  O   UNL     1      12.555  23.246  -5.040  1.00  0.00    -0.507 OA
ATOM     25  H   UNL     1      12.966  24.100  -4.696  1.00  0.00     0.293 HD
ENDBRANCH   6  24
BRANCH   8  26
ATOM     26  O   UNL     1       9.135  19.875  -5.084  1.00  0.00    -0.508 OA
ATOM     27  H   UNL     1       8.250  20.243  -5.414  1.00  0.00     0.293 HD
ENDBRANCH   8  26
TORSDOF 6
ENDMDL
MODEL 2
REMARK VINA RESULT:     4.649      1.433      3.110
REMARK INTER + INTRA:           5.770
REMARK INTER:                   5.293
REMARK INTRA:                   0.478
REMARK UNBOUND:                 0.170
REMARK SMILES O=c1c(O)c(-c2ccc(O)c(O)c2)oc2cc(O)cc(O)c12
REMARK SMILES IDX 5 1 3 2 2 3 1 4 22 5 20 6 19 7 17 8 16 9 15 10 14 11 6 12
REMARK SMILES IDX 7 13 8 14 9 15 13 16 11 17 10 18 12 20 4 22 21 24 18 26
REMARK H PARENT 10 19 12 21 4 23 21 25 18 27
REMARK Flexibility Score: inf
ROOT
ATOM      1  C   UNL     1      11.618  22.243  -0.052  1.00  0.00     0.180 A 
ATOM      2  C   UNL     1      11.286  21.067  -0.746  1.00  0.00     0.208 A 
ATOM      3  C   UNL     1      11.223  21.098  -2.148  1.00  0.00     0.238 A 
ATOM      4  O   UNL     1      10.978  20.029  -2.767  1.00  0.00    -0.285 OA
ATOM      5  C   UNL     1      11.475  22.308  -2.839  1.00  0.00     0.111 A 
ATOM      6  C   UNL     1      11.399  22.465  -4.255  1.00  0.00     0.134 A 
ATOM      7  C   UNL     1      11.797  23.674  -4.838  1.00  0.00     0.093 A 
ATOM      8  C   UNL     1      12.206  24.754  -4.052  1.00  0.00     0.123 A 
ATOM      9  C   UNL     1      12.227  24.630  -2.665  1.00  0.00     0.094 A 
ATOM     10  C   UNL     1      11.870  23.424  -2.056  1.00  0.00     0.146 A 
ATOM     11  O   UNL     1      11.913  23.345  -0.731  1.00  0.00    -0.452 OA
ENDROOT
BRANCH   1  12
ATOM     12  C   UNL     1      11.680  22.295   1.426  1.00  0.00     0.025 A 
ATOM     13  C   UNL     1      11.711  23.521   2.114  1.00  0.00     0.016 A 
ATOM     14  C   UNL     1      11.793  23.546   3.509  1.00  0.00     0.051 A 
ATOM     15  C   UNL     1      11.860  22.349   4.234  1.00  0.00     0.157 A 
ATOM     16  C   UNL     1      11.768  21.100   2.157  1.00  0.00     0.062 A 
ATOM     17  C   UNL     1      11.850  21.124   3.557  1.00  0.00     0.158 A 
BRANCH  15  18
ATOM     18  O   UNL     1      11.941  22.370   5.625  1.00  0.00    -0.504 OA
ATOM     19  H   UNL     1      11.196  22.754   6.195  1.00  0.00     0.293 HD
ENDBRANCH  15  18
BRANCH  17  20
ATOM     20  O   UNL     1      11.924  19.935   4.281  1.00  0.00    -0.504 OA
ATOM     21  H   UNL     1      11.318  19.759   5.073  1.00  0.00     0.293 HD
ENDBRANCH  17  20
ENDBRANCH   1  12
BRANCH   2  22
ATOM     22  O   UNL     1      11.061  19.877  -0.047  1.00  0.00    -0.502 OA
ATOM     23  H   UNL     1      10.782  19.020  -0.508  1.00  0.00     0.293 HD
ENDBRANCH   2  22
BRANCH   6  24
ATOM     24  O   UNL     1      10.918  21.481  -5.124  1.00  0.00    -0.507 OA
ATOM     25  H   UNL     1      10.778  21.608  -6.115  1.00  0.00     0.293 HD
ENDBRANCH   6  24
BRANCH   8  26
ATOM     26  O   UNL     1      12.585  25.958  -4.640  1.00  0.00    -0.508 OA
ATOM     27  H   UNL     1      12.885  26.749  -4.081  1.00  0.00     0.293 HD
ENDBRANCH   8  26
TORSDOF 6
ENDMDL
MODEL 3
REMARK VINA RESULT:     5.294      1.370      1.421
REMARK INTER + INTRA:           6.548
REMARK INTER:                   6.023
REMARK INTRA:                   0.525
REMARK UNBOUND:                 0.170
REMARK SMILES O=c1c(O)c(-c2ccc(O)c(O)c2)oc2cc(O)cc(O)c12
REMARK SMILES IDX 5 1 3 2 2 3 1 4 22 5 20 6 19 7 17 8 16 9 15 10 14 11 6 12
REMARK SMILES IDX 7 13 8 14 9 15 13 16 11 17 10 18 12 20 4 22 21 24 18 26
REMARK H PARENT 10 19 12 21 4 23 21 25 18 27
REMARK Flexibility Score: inf
ROOT
ATOM      1  C   UNL     1      11.729  22.280   0.341  1.00  0.00     0.180 A 
ATOM      2  C   UNL     1      11.511  23.629   0.009  1.00  0.00     0.208 A 
ATOM      3  C   UNL     1      11.517  24.007  -1.343  1.00  0.00     0.238 A 
ATOM      4  O   UNL     1      11.267  25.206  -1.636  1.00  0.00    -0.285 OA
ATOM      5  C   UNL     1      11.756  23.036  -2.346  1.00  0.00     0.111 A 
ATOM      6  C   UNL     1      11.825  23.315  -3.743  1.00  0.00     0.134 A 
ATOM      7  C   UNL     1      11.937  22.257  -4.654  1.00  0.00     0.093 A 
ATOM      8  C   UNL     1      12.049  20.935  -4.213  1.00  0.00     0.123 A 
ATOM      9  C   UNL     1      12.043  20.660  -2.848  1.00  0.00     0.094 A 
ATOM     10  C   UNL     1      11.896  21.690  -1.917  1.00  0.00     0.146 A 
ATOM     11  O   UNL     1      11.885  21.382  -0.625  1.00  0.00    -0.452 OA
ENDROOT
BRANCH   1  12
ATOM     12  C   UNL     1      11.762  21.809   1.744  1.00  0.00     0.025 A 
ATOM     13  C   UNL     1      11.743  20.437   2.056  1.00  0.00     0.016 A 
ATOM     14  C   UNL     1      11.752  20.016   3.388  1.00  0.00     0.051 A 
ATOM     15  C   UNL     1      11.765  20.957   4.426  1.00  0.00     0.157 A 
ATOM     16  C   UNL     1      11.754  22.746   2.789  1.00  0.00     0.062 A 
ATOM     17  C   UNL     1      11.764  22.324   4.126  1.00  0.00     0.158 A 
BRANCH  15  18
ATOM     18  O   UNL     1      11.774  20.541   5.756  1.00  0.00    -0.504 OA
ATOM     19  H   UNL     1      11.178  20.974   6.452  1.00  0.00     0.293 HD
ENDBRANCH  15  18
BRANCH  17  20
ATOM     20  O   UNL     1      11.769  23.258   5.161  1.00  0.00    -0.504 OA
ATOM     21  H   UNL     1      12.295  23.102   6.013  1.00  0.00     0.293 HD
ENDBRANCH  17  20
ENDBRANCH   1  12
BRANCH   2  22
ATOM     22  O   UNL     1      11.255  24.567   1.013  1.00  0.00    -0.502 OA
ATOM     23  H   UNL     1      10.490  24.466   1.670  1.00  0.00     0.293 HD
ENDBRANCH   2  22
BRANCH   6  24
ATOM     24  O   UNL     1      11.815  24.604  -4.284  1.00  0.00    -0.507 OA
ATOM     25  H   UNL     1      11.315  25.388  -3.892  1.00  0.00     0.293 HD
ENDBRANCH   6  24
BRANCH   8  26
ATOM     26  O   UNL     1      12.176  19.890  -5.125  1.00  0.00    -0.508 OA
ATOM     27  H   UNL     1      12.760  19.974  -5.949  1.00  0.00     0.293 HD
ENDBRANCH   8  26
TORSDOF 6
ENDMDL
