MODEL 1
REMARK VINA RESULT:    -5.888      0.000      0.000
REMARK INTER + INTRA:          -6.789
REMARK INTER:                  -6.576
REMARK INTRA:                  -0.212
REMARK UNBOUND:                -0.212
REMARK SMILES CC(C)c1ccc(C(=O)[O-])cc1
REMARK SMILES IDX 7 1 6 2 11 3 5 4 12 5 4 6 8 7 9 8 10 9 2 10 1 11 3 12
REMARK H PARENT
REMARK Flexibility Score: inf
ROOT
ATOM      1  C   UNL     1     -43.791  72.159  -6.678  1.00  0.00    -0.003 A 
ATOM      2  C   UNL     1     -44.299  73.298  -6.031  1.00  0.00     0.010 A 
ATOM      3  C   UNL     1     -44.372  71.750  -7.891  1.00  0.00     0.010 A 
ATOM      4  C   UNL     1     -45.364  74.013  -6.585  1.00  0.00     0.004 A 
ATOM      5  C   UNL     1     -45.436  72.465  -8.445  1.00  0.00     0.004 A 
ATOM      6  C   UNL     1     -45.945  73.606  -7.797  1.00  0.00    -0.045 A 
ENDROOT
BRANCH   1   7
ATOM      7  C   UNL     1     -42.664  71.404  -6.089  1.00  0.00     0.071 C 
ATOM      8  O   UNL     1     -42.867  70.322  -5.476  1.00  0.00    -0.545 OA
ATOM      9  O   UNL     1     -41.362  71.879  -6.203  1.00  0.00    -0.545 OA
ENDBRANCH   1   7
BRANCH   6  10
ATOM     10  C   UNL     1     -47.101  74.393  -8.388  1.00  0.00     0.013 C 
ATOM     11  C   UNL     1     -47.933  73.524  -9.338  1.00  0.00     0.012 C 
ATOM     12  C   UNL     1     -47.978  74.998  -7.285  1.00  0.00     0.012 C 
ENDBRANCH   6  10
TORSDOF 2
ENDMDL
MODEL 2
REMARK VINA RESULT:    -5.868      0.065      1.399
REMARK INTER + INTRA:          -6.767
REMARK INTER:                  -6.555
REMARK INTRA:                  -0.212
REMARK UNBOUND:                -0.212
REMARK SMILES CC(C)c1ccc(C(=O)[O-])cc1
REMARK SMILES IDX 7 1 6 2 11 3 5 4 12 5 4 6 8 7 9 8 10 9 2 10 1 11 3 12
REMARK H PARENT
REMARK Flexibility Score: inf
ROOT
ATOM      1  C   UNL     1     -43.838  72.137  -6.665  1.00  0.00    -0.003 A 
ATOM      2  C   UNL     1     -44.403  71.771  -7.897  1.00  0.00     0.010 A 
ATOM      3  C   UNL     1     -44.352  73.254  -5.984  1.00  0.00     0.010 A 
ATOM      4  C   UNL     1     -45.461  72.505  -8.439  1.00  0.00     0.004 A 
ATOM      5  C   UNL     1     -45.410  73.989  -6.526  1.00  0.00     0.004 A 
ATOM      6  C   UNL     1     -45.977  73.622  -7.761  1.00  0.00    -0.045 A 
ENDROOT
BRANCH   1   7
ATOM      7  C   UNL     1     -42.717  71.357  -6.095  1.00  0.00     0.071 C 
ATOM      8  O   UNL     1     -42.927  70.252  -5.527  1.00  0.00    -0.545 OA
ATOM      9  O   UNL     1     -41.414  71.833  -6.180  1.00  0.00    -0.545 OA
ENDBRANCH   1   7
BRANCH   6  10
ATOM     10  C   UNL     1     -47.128  74.411  -8.360  1.00  0.00     0.013 C 
ATOM     11  C   UNL     1     -47.928  73.556  -9.349  1.00  0.00     0.012 C 
ATOM     12  C   UNL     1     -48.035  74.983  -7.264  1.00  0.00     0.012 C 
ENDBRANCH   6  10
TORSDOF 2
ENDMDL
MODEL 3
REMARK VINA RESULT:    -5.760      3.127      5.014
REMARK INTER + INTRA:          -6.646
REMARK INTER:                  -6.446
REMARK INTRA:                  -0.200
REMARK UNBOUND:                -0.212
REMARK SMILES CC(C)c1ccc(C(=O)[O-])cc1
REMARK SMILES IDX 7 1 6 2 11 3 5 4 12 5 4 6 8 7 9 8 10 9 2 10 1 11 3 12
REMARK H PARENT
REMARK Flexibility Score: inf
ROOT
ATOM      1  C   UNL     1     -45.988  73.202  -8.498  1.00  0.00    -0.003 A 
ATOM      2  C   UNL     1     -45.820  74.004  -7.357  1.00  0.00     0.010 A 
ATOM      3  C   UNL     1     -45.208  72.040  -8.634  1.00  0.00     0.010 A 
ATOM      4  C   UNL     1     -44.894  73.652  -6.372  1.00  0.00     0.004 A 
ATOM      5  C   UNL     1     -44.282  71.688  -7.649  1.00  0.00     0.004 A 
ATOM      6  C   UNL     1     -44.114  72.491  -6.505  1.00  0.00    -0.045 A 
ENDROOT
BRANCH   1   7
ATOM      7  C   UNL     1     -46.969  73.578  -9.539  1.00  0.00     0.071 C 
ATOM      8  O   UNL     1     -46.595  74.152 -10.597  1.00  0.00    -0.545 OA
ATOM      9  O   UNL     1     -48.321  73.302  -9.365  1.00  0.00    -0.545 OA
ENDBRANCH   1   7
BRANCH   6  10
ATOM     10  C   UNL     1     -43.112  72.121  -5.427  1.00  0.00     0.013 C 
ATOM     11  C   UNL     1     -43.262  70.652  -5.014  1.00  0.00     0.012 C 
ATOM     12  C   UNL     1     -41.678  72.424  -5.878  1.00  0.00     0.012 C 
ENDBRANCH   6  10
TORSDOF 2
ENDMDL
MODEL 4
REMARK VINA RESULT:    -5.757      3.118      5.183
REMARK INTER + INTRA:          -6.642
REMARK INTER:                  -6.440
REMARK INTRA:                  -0.202
REMARK UNBOUND:                -0.212
REMARK SMILES CC(C)c1ccc(C(=O)[O-])cc1
REMARK SMILES IDX 7 1 6 2 11 3 5 4 12 5 4 6 8 7 9 8 10 9 2 10 1 11 3 12
REMARK H PARENT
REMARK Flexibility Score: inf
ROOT
ATOM      1  C   UNL     1     -45.988  73.233  -8.454  1.00  0.00    -0.003 A 
ATOM      2  C   UNL     1     -45.190  72.085  -8.589  1.00  0.00     0.010 A 
ATOM      3  C   UNL     1     -45.841  74.033  -7.307  1.00  0.00     0.010 A 
ATOM      4  C   UNL     1     -44.264  71.743  -7.601  1.00  0.00     0.004 A 
ATOM      5  C   UNL     1     -44.915  73.691  -6.318  1.00  0.00     0.004 A 
ATOM      6  C   UNL     1     -44.115  72.541  -6.454  1.00  0.00    -0.045 A 
ENDROOT
BRANCH   1   7
ATOM      7  C   UNL     1     -46.967  73.592  -9.503  1.00  0.00     0.071 C 
ATOM      8  O   UNL     1     -46.597  74.183 -10.552  1.00  0.00    -0.545 OA
ATOM      9  O   UNL     1     -48.313  73.279  -9.345  1.00  0.00    -0.545 OA
ENDBRANCH   1   7
BRANCH   6  10
ATOM     10  C   UNL     1     -43.105  72.159  -5.388  1.00  0.00     0.013 C 
ATOM     11  C   UNL     1     -43.244  70.683  -4.997  1.00  0.00     0.012 C 
ATOM     12  C   UNL     1     -41.675  72.476  -5.842  1.00  0.00     0.012 C 
ENDBRANCH   6  10
TORSDOF 2
ENDMDL
MODEL 5
REMARK VINA RESULT:    -5.712      0.971      1.916
REMARK INTER + INTRA:          -6.592
REMARK INTER:                  -6.386
REMARK INTRA:                  -0.206
REMARK UNBOUND:                -0.212
REMARK SMILES CC(C)c1ccc(C(=O)[O-])cc1
REMARK SMILES IDX 7 1 6 2 11 3 5 4 12 5 4 6 8 7 9 8 10 9 2 10 1 11 3 12
REMARK H PARENT
REMARK Flexibility Score: inf
ROOT
ATOM      1  C   UNL     1     -43.495  72.573  -6.304  1.00  0.00    -0.003 A 
ATOM      2  C   UNL     1     -43.844  71.753  -7.389  1.00  0.00     0.010 A 
ATOM      3  C   UNL     1     -44.297  73.689  -6.008  1.00  0.00     0.010 A 
ATOM      4  C   UNL     1     -44.971  72.041  -8.163  1.00  0.00     0.004 A 
ATOM      5  C   UNL     1     -45.424  73.977  -6.782  1.00  0.00     0.004 A 
ATOM      6  C   UNL     1     -45.774  73.156  -7.870  1.00  0.00    -0.045 A 
ENDROOT
BRANCH   1   7
ATOM      7  C   UNL     1     -42.301  72.265  -5.486  1.00  0.00     0.071 C 
ATOM      8  O   UNL     1     -42.414  71.661  -4.387  1.00  0.00    -0.545 OA
ATOM      9  O   UNL     1     -41.034  72.638  -5.922  1.00  0.00    -0.545 OA
ENDBRANCH   1   7
BRANCH   6  10
ATOM     10  C   UNL     1     -46.996  73.457  -8.719  1.00  0.00     0.013 C 
ATOM     11  C   UNL     1     -47.886  74.511  -8.051  1.00  0.00     0.012 C 
ATOM     12  C   UNL     1     -46.592  73.891 -10.133  1.00  0.00     0.012 C 
ENDBRANCH   6  10
TORSDOF 2
ENDMDL
MODEL 6
REMARK VINA RESULT:    -5.594      3.131      5.243
REMARK INTER + INTRA:          -6.461
REMARK INTER:                  -6.254
REMARK INTRA:                  -0.207
REMARK UNBOUND:                -0.212
REMARK SMILES CC(C)c1ccc(C(=O)[O-])cc1
REMARK SMILES IDX 7 1 6 2 11 3 5 4 12 5 4 6 8 7 9 8 10 9 2 10 1 11 3 12
REMARK H PARENT
REMARK Flexibility Score: inf
ROOT
ATOM      1  C   UNL     1     -46.186  73.571  -7.974  1.00  0.00    -0.003 A 
ATOM      2  C   UNL     1     -45.638  72.468  -8.649  1.00  0.00     0.010 A 
ATOM      3  C   UNL     1     -45.623  73.968  -6.749  1.00  0.00     0.010 A 
ATOM      4  C   UNL     1     -44.549  71.777  -8.112  1.00  0.00     0.004 A 
ATOM      5  C   UNL     1     -44.534  73.277  -6.212  1.00  0.00     0.004 A 
ATOM      6  C   UNL     1     -43.984  72.172  -6.888  1.00  0.00    -0.045 A 
ENDROOT
BRANCH   1   7
ATOM      7  C   UNL     1     -47.340  74.300  -8.546  1.00  0.00     0.071 C 
ATOM      8  O   UNL     1     -47.606  74.217  -9.775  1.00  0.00    -0.545 OA
ATOM      9  O   UNL     1     -48.148  75.087  -7.734  1.00  0.00    -0.545 OA
ENDBRANCH   1   7
BRANCH   6  10
ATOM     10  C   UNL     1     -42.801  71.413  -6.316  1.00  0.00     0.013 C 
ATOM     11  C   UNL     1     -41.671  72.368  -5.917  1.00  0.00     0.012 C 
ATOM     12  C   UNL     1     -43.227  70.537  -5.131  1.00  0.00     0.012 C 
ENDBRANCH   6  10
TORSDOF 2
ENDMDL
MODEL 7
REMARK VINA RESULT:    -4.927      3.715      5.007
REMARK INTER + INTRA:          -5.715
REMARK INTER:                  -5.506
REMARK INTRA:                  -0.209
REMARK UNBOUND:                -0.212
REMARK SMILES CC(C)c1ccc(C(=O)[O-])cc1
REMARK SMILES IDX 7 1 6 2 11 3 5 4 12 5 4 6 8 7 9 8 10 9 2 10 1 11 3 12
REMARK H PARENT
REMARK Flexibility Score: inf
ROOT
ATOM      1  C   UNL     1     -47.360  75.749  -5.673  1.00  0.00    -0.003 A 
ATOM      2  C   UNL     1     -46.090  75.194  -5.897  1.00  0.00     0.010 A 
ATOM      3  C   UNL     1     -48.396  75.470  -6.582  1.00  0.00     0.010 A 
ATOM      4  C   UNL     1     -45.859  74.375  -7.005  1.00  0.00     0.004 A 
ATOM      5  C   UNL     1     -48.165  74.652  -7.690  1.00  0.00     0.004 A 
ATOM      6  C   UNL     1     -46.892  74.095  -7.915  1.00  0.00    -0.045 A 
ENDROOT
BRANCH   1   7
ATOM      7  C   UNL     1     -47.601  76.616  -4.498  1.00  0.00     0.071 C 
ATOM      8  O   UNL     1     -48.214  77.710  -4.622  1.00  0.00    -0.545 OA
ATOM      9  O   UNL     1     -47.155  76.233  -3.238  1.00  0.00    -0.545 OA
ENDBRANCH   1   7
BRANCH   6  10
ATOM     10  C   UNL     1     -46.627  73.204  -9.115  1.00  0.00     0.013 C 
ATOM     11  C   UNL     1     -46.598  74.018 -10.413  1.00  0.00     0.012 C 
ATOM     12  C   UNL     1     -45.330  72.406  -8.935  1.00  0.00     0.012 C 
ENDBRANCH   6  10
TORSDOF 2
ENDMDL
MODEL 8
REMARK VINA RESULT:    -4.817      2.867      4.227
REMARK INTER + INTRA:          -5.593
REMARK INTER:                  -5.382
REMARK INTRA:                  -0.211
REMARK UNBOUND:                -0.212
REMARK SMILES CC(C)c1ccc(C(=O)[O-])cc1
REMARK SMILES IDX 7 1 6 2 11 3 5 4 12 5 4 6 8 7 9 8 10 9 2 10 1 11 3 12
REMARK H PARENT
REMARK Flexibility Score: inf
ROOT
ATOM      1  C   UNL     1     -46.389  73.789  -8.055  1.00  0.00    -0.003 A 
ATOM      2  C   UNL     1     -47.670  74.362  -8.117  1.00  0.00     0.010 A 
ATOM      3  C   UNL     1     -45.591  74.027  -6.923  1.00  0.00     0.010 A 
ATOM      4  C   UNL     1     -48.144  75.156  -7.070  1.00  0.00     0.004 A 
ATOM      5  C   UNL     1     -46.065  74.820  -5.875  1.00  0.00     0.004 A 
ATOM      6  C   UNL     1     -47.348  75.395  -5.937  1.00  0.00    -0.045 A 
ENDROOT
BRANCH   1   7
ATOM      7  C   UNL     1     -45.891  72.950  -9.167  1.00  0.00     0.071 C 
ATOM      8  O   UNL     1     -46.191  73.220 -10.360  1.00  0.00    -0.545 OA
ATOM      9  O   UNL     1     -45.082  71.849  -8.909  1.00  0.00    -0.545 OA
ENDBRANCH   1   7
BRANCH   6  10
ATOM     10  C   UNL     1     -47.876  76.258  -4.806  1.00  0.00     0.013 C 
ATOM     11  C   UNL     1     -49.033  77.145  -5.280  1.00  0.00     0.012 C 
ATOM     12  C   UNL     1     -48.294  75.401  -3.605  1.00  0.00     0.012 C 
ENDBRANCH   6  10
TORSDOF 2
ENDMDL
MODEL 9
REMARK VINA RESULT:    -4.798      3.886      5.501
REMARK INTER + INTRA:          -5.571
REMARK INTER:                  -5.353
REMARK INTRA:                  -0.218
REMARK UNBOUND:                -0.212
REMARK SMILES CC(C)c1ccc(C(=O)[O-])cc1
REMARK SMILES IDX 7 1 6 2 11 3 5 4 12 5 4 6 8 7 9 8 10 9 2 10 1 11 3 12
REMARK H PARENT
REMARK Flexibility Score: inf
ROOT
ATOM      1  C   UNL     1     -47.728  75.487  -6.306  1.00  0.00    -0.003 A 
ATOM      2  C   UNL     1     -47.909  74.860  -7.549  1.00  0.00     0.010 A 
ATOM      3  C   UNL     1     -46.576  75.192  -5.555  1.00  0.00     0.010 A 
ATOM      4  C   UNL     1     -46.959  73.958  -8.034  1.00  0.00     0.004 A 
ATOM      5  C   UNL     1     -45.626  74.290  -6.040  1.00  0.00     0.004 A 
ATOM      6  C   UNL     1     -45.807  73.662  -7.286  1.00  0.00    -0.045 A 
ENDROOT
BRANCH   1   7
ATOM      7  C   UNL     1     -48.737  76.442  -5.795  1.00  0.00     0.071 C 
ATOM      8  O   UNL     1     -49.963  76.259  -6.017  1.00  0.00    -0.545 OA
ATOM      9  O   UNL     1     -48.344  77.555  -5.062  1.00  0.00    -0.545 OA
ENDBRANCH   1   7
BRANCH   6  10
ATOM     10  C   UNL     1     -44.783  72.680  -7.825  1.00  0.00     0.013 C 
ATOM     11  C   UNL     1     -44.229  71.790  -6.708  1.00  0.00     0.012 C 
ATOM     12  C   UNL     1     -45.371  71.836  -8.962  1.00  0.00     0.012 C 
ENDBRANCH   6  10
TORSDOF 2
ENDMDL
