MODEL 1
REMARK VINA RESULT:    31.526      0.000      0.000
REMARK INTER + INTRA:          37.999
REMARK INTER:                  37.977
REMARK INTRA:                   0.023
REMARK UNBOUND:                 0.023
REMARK SMILES O=c1c(O)c(-c2ccc(O)c(O)c2)oc2cc(O)cc(O)c12
REMARK SMILES IDX 5 1 3 2 2 3 1 4 22 5 20 6 19 7 17 8 16 9 15 10 14 11 6 12
REMARK SMILES IDX 7 13 8 14 9 15 13 16 11 17 10 18 12 20 4 22 21 24 18 26
REMARK H PARENT 10 19 12 21 4 23 21 25 18 27
REMARK Flexibility Score: inf
ROOT
ATOM      1  C   UNL     1       2.380  -1.257   0.946  1.00  0.00     0.180 A 
ATOM      2  C   UNL     1       1.510  -0.801   1.950  1.00  0.00     0.208 A 
ATOM      3  C   UNL     1       0.124  -0.848   1.724  1.00  0.00     0.238 A 
ATOM      4  O   UNL     1      -0.651  -0.488   2.648  1.00  0.00    -0.285 OA
ATOM      5  C   UNL     1      -0.372  -1.336   0.492  1.00  0.00     0.111 A 
ATOM      6  C   UNL     1      -1.754  -1.391   0.139  1.00  0.00     0.134 A 
ATOM      7  C   UNL     1      -2.138  -2.015  -1.055  1.00  0.00     0.093 A 
ATOM      8  C   UNL     1      -1.188  -2.524  -1.938  1.00  0.00     0.123 A 
ATOM      9  C   UNL     1       0.170  -2.423  -1.632  1.00  0.00     0.094 A 
ATOM     10  C   UNL     1       0.582  -1.839  -0.431  1.00  0.00     0.146 A 
ATOM     11  O   UNL     1       1.882  -1.771  -0.173  1.00  0.00    -0.452 OA
ENDROOT
BRANCH   1  12
ATOM     12  C   UNL     1       3.852  -1.216   1.101  1.00  0.00     0.025 A 
ATOM     13  C   UNL     1       4.634  -0.604   0.109  1.00  0.00     0.016 A 
ATOM     14  C   UNL     1       6.023  -0.535   0.245  1.00  0.00     0.051 A 
ATOM     15  C   UNL     1       6.649  -1.062   1.379  1.00  0.00     0.157 A 
ATOM     16  C   UNL     1       4.482  -1.727   2.250  1.00  0.00     0.062 A 
ATOM     17  C   UNL     1       5.876  -1.657   2.389  1.00  0.00     0.158 A 
BRANCH  15  18
ATOM     18  O   UNL     1       8.037  -0.981   1.486  1.00  0.00    -0.504 OA
ATOM     19  H   UNL     1       8.647  -1.717   1.149  1.00  0.00     0.293 HD
ENDBRANCH  15  18
BRANCH  17  20
ATOM     20  O   UNL     1       6.492  -2.171   3.528  1.00  0.00    -0.504 OA
ATOM     21  H   UNL     1       6.798  -3.136   3.578  1.00  0.00     0.293 HD
ENDBRANCH  17  20
ENDBRANCH   1  12
BRANCH   2  22
ATOM     22  O   UNL     1       2.020  -0.342   3.168  1.00  0.00    -0.502 OA
ATOM     23  H   UNL     1       2.521   0.535   3.252  1.00  0.00     0.293 HD
ENDBRANCH   2  22
BRANCH   6  24
ATOM     24  O   UNL     1      -2.779  -0.830   0.908  1.00  0.00    -0.507 OA
ATOM     25  H   UNL     1      -3.749  -0.794   0.635  1.00  0.00     0.293 HD
ENDBRANCH   6  24
BRANCH   8  26
ATOM     26  O   UNL     1      -1.606  -3.125  -3.125  1.00  0.00    -0.508 OA
ATOM     27  H   UNL     1      -1.665  -4.133  -3.216  1.00  0.00     0.293 HD
ENDBRANCH   8  26
TORSDOF 6
ENDMDL
