MODEL 1
REMARK VINA RESULT:    -4.145      0.000      0.000
REMARK INTER + INTRA:          -6.947
REMARK INTER:                  -6.326
REMARK INTRA:                  -0.622
REMARK UNBOUND:                -0.622
REMARK SMILES O=C([O-])CCCCCCCCC(=O)[O-]
REMARK SMILES IDX 7 1 6 2 5 3 4 4 2 5 1 6 3 7 8 8 9 9 10 10 11 11 12 12 13 13
REMARK SMILES IDX 14 14
REMARK H PARENT
REMARK Flexibility Score: inf
ROOT
ATOM      1  C   UNL     1       8.686  -3.511  41.480  1.00  0.00     0.000 C 
ENDROOT
BRANCH   1   2
ATOM      2  C   UNL     1       7.922  -3.829  42.777  1.00  0.00     0.000 C 
BRANCH   2   3
ATOM      3  C   UNL     1       7.310  -5.245  42.802  1.00  0.00     0.006 C 
BRANCH   3   4
ATOM      4  C   UNL     1       7.604  -6.026  41.514  1.00  0.00     0.053 C 
BRANCH   4   5
ATOM      5  C   UNL     1       8.002  -7.432  41.833  1.00  0.00     0.041 C 
ATOM      6  O   UNL     1       8.948  -7.657  42.634  1.00  0.00    -0.550 OA
ATOM      7  O   UNL     1       7.297  -8.496  41.285  1.00  0.00    -0.550 OA
ENDBRANCH   4   5
ENDBRANCH   3   4
ENDBRANCH   2   3
ENDBRANCH   1   2
BRANCH   1   8
ATOM      8  C   UNL     1       8.723  -2.010  41.162  1.00  0.00     0.000 C 
BRANCH   8   9
ATOM      9  C   UNL     1       7.873  -1.688  39.927  1.00  0.00     0.000 C 
BRANCH   9  10
ATOM     10  C   UNL     1       7.430  -2.970  39.213  1.00  0.00     0.006 C 
BRANCH  10  11
ATOM     11  C   UNL     1       6.751  -2.650  37.878  1.00  0.00     0.053 C 
BRANCH  11  12
ATOM     12  C   UNL     1       7.398  -3.413  36.767  1.00  0.00     0.041 C 
ATOM     13  O   UNL     1       6.805  -3.554  35.665  1.00  0.00    -0.550 OA
ATOM     14  O   UNL     1       8.678  -3.929  36.930  1.00  0.00    -0.550 OA
ENDBRANCH  11  12
ENDBRANCH  10  11
ENDBRANCH   9  10
ENDBRANCH   8   9
ENDBRANCH   1   8
TORSDOF 9
ENDMDL
MODEL 2
REMARK VINA RESULT:    -4.022      1.020      5.536
REMARK INTER + INTRA:          -6.760
REMARK INTER:                  -6.085
REMARK INTRA:                  -0.675
REMARK UNBOUND:                -0.622
REMARK SMILES O=C([O-])CCCCCCCCC(=O)[O-]
REMARK SMILES IDX 7 1 6 2 5 3 4 4 2 5 1 6 3 7 8 8 9 9 10 10 11 11 12 12 13 13
REMARK SMILES IDX 14 14
REMARK H PARENT
REMARK Flexibility Score: inf
ROOT
ATOM      1  C   UNL     1       8.488  -1.712  41.551  1.00  0.00     0.000 C 
ENDROOT
BRANCH   1   2
ATOM      2  C   UNL     1       8.735  -2.504  40.256  1.00  0.00     0.000 C 
BRANCH   2   3
ATOM      3  C   UNL     1       7.486  -2.623  39.357  1.00  0.00     0.006 C 
BRANCH   3   4
ATOM      4  C   UNL     1       7.673  -3.660  38.241  1.00  0.00     0.053 C 
BRANCH   4   5
ATOM      5  C   UNL     1       6.964  -3.224  36.997  1.00  0.00     0.041 C 
ATOM      6  O   UNL     1       6.179  -2.240  37.028  1.00  0.00    -0.550 OA
ATOM      7  O   UNL     1       7.209  -3.873  35.794  1.00  0.00    -0.550 OA
ENDBRANCH   4   5
ENDBRANCH   3   4
ENDBRANCH   2   3
ENDBRANCH   1   2
BRANCH   1   8
ATOM      8  C   UNL     1       8.626  -2.573  42.814  1.00  0.00     0.000 C 
BRANCH   8   9
ATOM      9  C   UNL     1       8.880  -4.041  42.454  1.00  0.00     0.000 C 
BRANCH   9  10
ATOM     10  C   UNL     1       7.628  -4.892  42.696  1.00  0.00     0.006 C 
BRANCH  10  11
ATOM     11  C   UNL     1       7.528  -6.026  41.672  1.00  0.00     0.053 C 
BRANCH  11  12
ATOM     12  C   UNL     1       8.118  -7.284  42.225  1.00  0.00     0.041 C 
ATOM     13  O   UNL     1       8.074  -7.514  43.463  1.00  0.00    -0.550 OA
ATOM     14  O   UNL     1       8.675  -8.226  41.370  1.00  0.00    -0.550 OA
ENDBRANCH  11  12
ENDBRANCH  10  11
ENDBRANCH   9  10
ENDBRANCH   8   9
ENDBRANCH   1   8
TORSDOF 9
ENDMDL
MODEL 3
REMARK VINA RESULT:    -4.015      1.524      6.489
REMARK INTER + INTRA:          -6.749
REMARK INTER:                  -6.234
REMARK INTRA:                  -0.515
REMARK UNBOUND:                -0.622
REMARK SMILES O=C([O-])CCCCCCCCC(=O)[O-]
REMARK SMILES IDX 7 1 6 2 5 3 4 4 2 5 1 6 3 7 8 8 9 9 10 10 11 11 12 12 13 13
REMARK SMILES IDX 14 14
REMARK H PARENT
REMARK Flexibility Score: inf
ROOT
ATOM      1  C   UNL     1       8.070  -3.546  38.574  1.00  0.00     0.000 C 
ENDROOT
BRANCH   1   2
ATOM      2  C   UNL     1       7.251  -2.253  38.726  1.00  0.00     0.000 C 
BRANCH   2   3
ATOM      3  C   UNL     1       5.938  -2.254  37.914  1.00  0.00     0.006 C 
BRANCH   3   4
ATOM      4  C   UNL     1       5.944  -1.196  36.802  1.00  0.00     0.053 C 
BRANCH   4   5
ATOM      5  C   UNL     1       6.025  -1.849  35.459  1.00  0.00     0.041 C 
ATOM      6  O   UNL     1       5.680  -1.216  34.426  1.00  0.00    -0.550 OA
ATOM      7  O   UNL     1       6.529  -3.138  35.340  1.00  0.00    -0.550 OA
ENDBRANCH   4   5
ENDBRANCH   3   4
ENDBRANCH   2   3
ENDBRANCH   1   2
BRANCH   1   8
ATOM      8  C   UNL     1       8.478  -4.157  39.922  1.00  0.00     0.000 C 
BRANCH   8   9
ATOM      9  C   UNL     1       8.227  -3.173  41.070  1.00  0.00     0.000 C 
BRANCH   9  10
ATOM     10  C   UNL     1       8.116  -3.908  42.412  1.00  0.00     0.006 C 
BRANCH  10  11
ATOM     11  C   UNL     1       7.452  -5.276  42.234  1.00  0.00     0.053 C 
BRANCH  11  12
ATOM     12  C   UNL     1       8.191  -6.320  43.011  1.00  0.00     0.041 C 
ATOM     13  O   UNL     1       7.782  -6.671  44.149  1.00  0.00    -0.550 OA
ATOM     14  O   UNL     1       9.304  -6.940  42.458  1.00  0.00    -0.550 OA
ENDBRANCH  11  12
ENDBRANCH  10  11
ENDBRANCH   9  10
ENDBRANCH   8   9
ENDBRANCH   1   8
TORSDOF 9
ENDMDL
MODEL 4
REMARK VINA RESULT:    -4.010      4.165      6.655
REMARK INTER + INTRA:          -6.741
REMARK INTER:                  -6.097
REMARK INTRA:                  -0.643
REMARK UNBOUND:                -0.622
REMARK SMILES O=C([O-])CCCCCCCCC(=O)[O-]
REMARK SMILES IDX 7 1 6 2 5 3 4 4 2 5 1 6 3 7 8 8 9 9 10 10 11 11 12 12 13 13
REMARK SMILES IDX 14 14
REMARK H PARENT
REMARK Flexibility Score: inf
ROOT
ATOM      1  C   UNL     1       7.039 -10.782  43.192  1.00  0.00     0.000 C 
ENDROOT
BRANCH   1   2
ATOM      2  C   UNL     1       5.578 -11.243  43.331  1.00  0.00     0.000 C 
BRANCH   2   3
ATOM      3  C   UNL     1       4.876 -11.488  41.979  1.00  0.00     0.006 C 
BRANCH   3   4
ATOM      4  C   UNL     1       5.714 -10.992  40.794  1.00  0.00     0.053 C 
BRANCH   4   5
ATOM      5  C   UNL     1       5.857 -12.069  39.766  1.00  0.00     0.041 C 
ATOM      6  O   UNL     1       6.748 -11.984  38.879  1.00  0.00    -0.550 OA
ATOM      7  O   UNL     1       5.041 -13.191  39.815  1.00  0.00    -0.550 OA
ENDBRANCH   4   5
ENDBRANCH   3   4
ENDBRANCH   2   3
ENDBRANCH   1   2
BRANCH   1   8
ATOM      8  C   UNL     1       7.461  -9.795  44.288  1.00  0.00     0.000 C 
BRANCH   8   9
ATOM      9  C   UNL     1       8.282  -8.640  43.702  1.00  0.00     0.000 C 
BRANCH   9  10
ATOM     10  C   UNL     1       8.002  -8.469  42.204  1.00  0.00     0.006 C 
BRANCH  10  11
ATOM     11  C   UNL     1       7.796  -6.994  41.848  1.00  0.00     0.053 C 
BRANCH  11  12
ATOM     12  C   UNL     1       9.111  -6.286  41.774  1.00  0.00     0.041 C 
ATOM     13  O   UNL     1       9.427  -5.442  42.654  1.00  0.00    -0.550 OA
ATOM     14  O   UNL     1      10.009  -6.591  40.760  1.00  0.00    -0.550 OA
ENDBRANCH  11  12
ENDBRANCH  10  11
ENDBRANCH   9  10
ENDBRANCH   8   9
ENDBRANCH   1   8
TORSDOF 9
ENDMDL
MODEL 5
REMARK VINA RESULT:    -3.972      1.669      2.423
REMARK INTER + INTRA:          -6.684
REMARK INTER:                  -6.240
REMARK INTRA:                  -0.444
REMARK UNBOUND:                -0.622
REMARK SMILES O=C([O-])CCCCCCCCC(=O)[O-]
REMARK SMILES IDX 7 1 6 2 5 3 4 4 2 5 1 6 3 7 8 8 9 9 10 10 11 11 12 12 13 13
REMARK SMILES IDX 14 14
REMARK H PARENT
REMARK Flexibility Score: inf
ROOT
ATOM      1  C   UNL     1       8.250  -2.307  40.567  1.00  0.00     0.000 C 
ENDROOT
BRANCH   1   2
ATOM      2  C   UNL     1       7.957  -3.764  40.965  1.00  0.00     0.000 C 
BRANCH   2   3
ATOM      3  C   UNL     1       8.202  -4.057  42.461  1.00  0.00     0.006 C 
BRANCH   3   4
ATOM      4  C   UNL     1       7.379  -5.252  42.959  1.00  0.00     0.053 C 
BRANCH   4   5
ATOM      5  C   UNL     1       8.054  -6.538  42.601  1.00  0.00     0.041 C 
ATOM      6  O   UNL     1       7.597  -7.256  41.672  1.00  0.00    -0.550 OA
ATOM      7  O   UNL     1       9.215  -6.922  43.259  1.00  0.00    -0.550 OA
ENDBRANCH   4   5
ENDBRANCH   3   4
ENDBRANCH   2   3
ENDBRANCH   1   2
BRANCH   1   8
ATOM      8  C   UNL     1       7.674  -1.936  39.194  1.00  0.00     0.000 C 
BRANCH   8   9
ATOM      9  C   UNL     1       7.533  -3.175  38.303  1.00  0.00     0.000 C 
BRANCH   9  10
ATOM     10  C   UNL     1       6.435  -2.975  37.251  1.00  0.00     0.006 C 
BRANCH  10  11
ATOM     11  C   UNL     1       5.844  -1.564  37.334  1.00  0.00     0.053 C 
BRANCH  11  12
ATOM     12  C   UNL     1       5.862  -0.910  35.990  1.00  0.00     0.041 C 
ATOM     13  O   UNL     1       5.272   0.188  35.811  1.00  0.00    -0.550 OA
ATOM     14  O   UNL     1       6.571  -1.488  34.944  1.00  0.00    -0.550 OA
ENDBRANCH  11  12
ENDBRANCH  10  11
ENDBRANCH   9  10
ENDBRANCH   8   9
ENDBRANCH   1   8
TORSDOF 9
ENDMDL
MODEL 6
REMARK VINA RESULT:    -3.942      1.583      2.275
REMARK INTER + INTRA:          -6.638
REMARK INTER:                  -6.104
REMARK INTRA:                  -0.534
REMARK UNBOUND:                -0.622
REMARK SMILES O=C([O-])CCCCCCCCC(=O)[O-]
REMARK SMILES IDX 7 1 6 2 5 3 4 4 2 5 1 6 3 7 8 8 9 9 10 10 11 11 12 12 13 13
REMARK SMILES IDX 14 14
REMARK H PARENT
REMARK Flexibility Score: inf
ROOT
ATOM      1  C   UNL     1       9.517  -4.662  41.963  1.00  0.00     0.000 C 
ENDROOT
BRANCH   1   2
ATOM      2  C   UNL     1       9.224  -6.006  41.274  1.00  0.00     0.000 C 
BRANCH   2   3
ATOM      3  C   UNL     1       7.848  -6.601  41.642  1.00  0.00     0.006 C 
BRANCH   3   4
ATOM      4  C   UNL     1       7.974  -7.945  42.370  1.00  0.00     0.053 C 
BRANCH   4   5
ATOM      5  C   UNL     1       8.387  -7.734  43.793  1.00  0.00     0.041 C 
ATOM      6  O   UNL     1       9.394  -8.332  44.256  1.00  0.00    -0.550 OA
ATOM      7  O   UNL     1       7.690  -6.838  44.594  1.00  0.00    -0.550 OA
ENDBRANCH   4   5
ENDBRANCH   3   4
ENDBRANCH   2   3
ENDBRANCH   1   2
BRANCH   1   8
ATOM      8  C   UNL     1       8.260  -3.804  42.158  1.00  0.00     0.000 C 
BRANCH   8   9
ATOM      9  C   UNL     1       8.230  -2.637  41.163  1.00  0.00     0.000 C 
BRANCH   9  10
ATOM     10  C   UNL     1       7.808  -3.113  39.768  1.00  0.00     0.006 C 
BRANCH  10  11
ATOM     11  C   UNL     1       7.424  -1.929  38.876  1.00  0.00     0.053 C 
BRANCH  11  12
ATOM     12  C   UNL     1       6.440  -2.358  37.834  1.00  0.00     0.041 C 
ATOM     13  O   UNL     1       6.596  -3.450  37.226  1.00  0.00    -0.550 OA
ATOM     14  O   UNL     1       5.325  -1.574  37.566  1.00  0.00    -0.550 OA
ENDBRANCH  11  12
ENDBRANCH  10  11
ENDBRANCH   9  10
ENDBRANCH   8   9
ENDBRANCH   1   8
TORSDOF 9
ENDMDL
MODEL 7
REMARK VINA RESULT:    -3.914      1.681      6.460
REMARK INTER + INTRA:          -6.595
REMARK INTER:                  -6.265
REMARK INTRA:                  -0.329
REMARK UNBOUND:                -0.622
REMARK SMILES O=C([O-])CCCCCCCCC(=O)[O-]
REMARK SMILES IDX 7 1 6 2 5 3 4 4 2 5 1 6 3 7 8 8 9 9 10 10 11 11 12 12 13 13
REMARK SMILES IDX 14 14
REMARK H PARENT
REMARK Flexibility Score: inf
ROOT
ATOM      1  C   UNL     1       7.906  -3.717  40.305  1.00  0.00     0.000 C 
ENDROOT
BRANCH   1   2
ATOM      2  C   UNL     1       7.610  -2.429  39.517  1.00  0.00     0.000 C 
BRANCH   2   3
ATOM      3  C   UNL     1       7.126  -2.685  38.074  1.00  0.00     0.006 C 
BRANCH   3   4
ATOM      4  C   UNL     1       5.690  -2.196  37.850  1.00  0.00     0.053 C 
BRANCH   4   5
ATOM      5  C   UNL     1       5.678  -0.999  36.952  1.00  0.00     0.041 C 
ATOM      6  O   UNL     1       5.833   0.155  37.434  1.00  0.00    -0.550 OA
ATOM      7  O   UNL     1       5.546  -1.159  35.579  1.00  0.00    -0.550 OA
ENDBRANCH   4   5
ENDBRANCH   3   4
ENDBRANCH   2   3
ENDBRANCH   1   2
BRANCH   1   8
ATOM      8  C   UNL     1       8.253  -3.451  41.776  1.00  0.00     0.000 C 
BRANCH   8   9
ATOM      9  C   UNL     1       7.828  -4.626  42.664  1.00  0.00     0.000 C 
BRANCH   9  10
ATOM     10  C   UNL     1       7.493  -5.862  41.819  1.00  0.00     0.006 C 
BRANCH  10  11
ATOM     11  C   UNL     1       8.540  -6.961  42.013  1.00  0.00     0.053 C 
BRANCH  11  12
ATOM     12  C   UNL     1       7.879  -8.296  42.148  1.00  0.00     0.041 C 
ATOM     13  O   UNL     1       7.224  -8.779  41.187  1.00  0.00    -0.550 OA
ATOM     14  O   UNL     1       8.025  -9.029  43.319  1.00  0.00    -0.550 OA
ENDBRANCH  11  12
ENDBRANCH  10  11
ENDBRANCH   9  10
ENDBRANCH   8   9
ENDBRANCH   1   8
TORSDOF 9
ENDMDL
MODEL 8
REMARK VINA RESULT:    -3.907      1.666      2.929
REMARK INTER + INTRA:          -6.584
REMARK INTER:                  -5.925
REMARK INTRA:                  -0.659
REMARK UNBOUND:                -0.622
REMARK SMILES O=C([O-])CCCCCCCCC(=O)[O-]
REMARK SMILES IDX 7 1 6 2 5 3 4 4 2 5 1 6 3 7 8 8 9 9 10 10 11 11 12 12 13 13
REMARK SMILES IDX 14 14
REMARK H PARENT
REMARK Flexibility Score: inf
ROOT
ATOM      1  C   UNL     1       7.548  -1.809  38.865  1.00  0.00     0.000 C 
ENDROOT
BRANCH   1   2
ATOM      2  C   UNL     1       7.874  -2.608  40.138  1.00  0.00     0.000 C 
BRANCH   2   3
ATOM      3  C   UNL     1       8.179  -4.098  39.871  1.00  0.00     0.006 C 
BRANCH   3   4
ATOM      4  C   UNL     1       7.824  -4.985  41.071  1.00  0.00     0.053 C 
BRANCH   4   5
ATOM      5  C   UNL     1       9.034  -5.718  41.558  1.00  0.00     0.041 C 
ATOM      6  O   UNL     1       9.287  -6.876  41.131  1.00  0.00    -0.550 OA
ATOM      7  O   UNL     1       9.910  -5.104  42.443  1.00  0.00    -0.550 OA
ENDBRANCH   4   5
ENDBRANCH   3   4
ENDBRANCH   2   3
ENDBRANCH   1   2
BRANCH   1   8
ATOM      8  C   UNL     1       6.237  -2.252  38.201  1.00  0.00     0.000 C 
BRANCH   8   9
ATOM      9  C   UNL     1       6.045  -1.561  36.846  1.00  0.00     0.000 C 
BRANCH   9  10
ATOM     10  C   UNL     1       7.132  -1.988  35.851  1.00  0.00     0.006 C 
BRANCH  10  11
ATOM     11  C   UNL     1       7.008  -3.475  35.507  1.00  0.00     0.053 C 
BRANCH  11  12
ATOM     12  C   UNL     1       8.337  -4.151  35.621  1.00  0.00     0.041 C 
ATOM     13  O   UNL     1       9.155  -3.796  36.510  1.00  0.00    -0.550 OA
ATOM     14  O   UNL     1       8.655  -5.207  34.776  1.00  0.00    -0.550 OA
ENDBRANCH  11  12
ENDBRANCH  10  11
ENDBRANCH   9  10
ENDBRANCH   8   9
ENDBRANCH   1   8
TORSDOF 9
ENDMDL
MODEL 9
REMARK VINA RESULT:    -3.862      2.369      6.984
REMARK INTER + INTRA:          -6.516
REMARK INTER:                  -6.073
REMARK INTRA:                  -0.443
REMARK UNBOUND:                -0.622
REMARK SMILES O=C([O-])CCCCCCCCC(=O)[O-]
REMARK SMILES IDX 7 1 6 2 5 3 4 4 2 5 1 6 3 7 8 8 9 9 10 10 11 11 12 12 13 13
REMARK SMILES IDX 14 14
REMARK H PARENT
REMARK Flexibility Score: inf
ROOT
ATOM      1  C   UNL     1       7.271  -3.409  37.833  1.00  0.00     0.000 C 
ENDROOT
BRANCH   1   2
ATOM      2  C   UNL     1       7.088  -1.888  37.695  1.00  0.00     0.000 C 
BRANCH   2   3
ATOM      3  C   UNL     1       5.667  -1.474  37.259  1.00  0.00     0.006 C 
BRANCH   3   4
ATOM      4  C   UNL     1       5.672  -0.199  36.406  1.00  0.00     0.053 C 
BRANCH   4   5
ATOM      5  C   UNL     1       5.400  -0.526  34.972  1.00  0.00     0.041 C 
ATOM      6  O   UNL     1       5.601  -1.693  34.540  1.00  0.00    -0.550 OA
ATOM      7  O   UNL     1       4.878   0.441  34.123  1.00  0.00    -0.550 OA
ENDBRANCH   4   5
ENDBRANCH   3   4
ENDBRANCH   2   3
ENDBRANCH   1   2
BRANCH   1   8
ATOM      8  C   UNL     1       7.916  -3.816  39.165  1.00  0.00     0.000 C 
BRANCH   8   9
ATOM      9  C   UNL     1       8.022  -2.617  40.114  1.00  0.00     0.000 C 
BRANCH   9  10
ATOM     10  C   UNL     1       8.245  -3.076  41.560  1.00  0.00     0.006 C 
BRANCH  10  11
ATOM     11  C   UNL     1       8.090  -4.594  41.684  1.00  0.00     0.053 C 
BRANCH  11  12
ATOM     12  C   UNL     1       9.237  -5.177  42.446  1.00  0.00     0.041 C 
ATOM     13  O   UNL     1       9.109  -6.279  43.042  1.00  0.00    -0.550 OA
ATOM     14  O   UNL     1      10.464  -4.526  42.460  1.00  0.00    -0.550 OA
ENDBRANCH  11  12
ENDBRANCH  10  11
ENDBRANCH   9  10
ENDBRANCH   8   9
ENDBRANCH   1   8
TORSDOF 9
ENDMDL
