MODEL 1
REMARK VINA RESULT:    -3.291      0.000      0.000
REMARK INTER + INTRA:         -14.410
REMARK INTER:                  -8.581
REMARK INTRA:                  -5.830
REMARK UNBOUND:                -5.830
REMARK SMILES CCCCCCCCCCCCCCCCCCCCCCCCCCCCCO
REMARK SMILES IDX 16 1 15 2 14 3 13 4 12 5 11 6 10 7 9 8 8 9 7 10 6 11 5 12
REMARK SMILES IDX 4 13 3 14 2 15 1 16 17 17 18 18 19 19 20 20 21 21 22 22
REMARK SMILES IDX 23 23 24 24 25 25 26 26 27 27 28 28 29 29 30 30
REMARK H PARENT 30 31
REMARK Flexibility Score: inf
ROOT
ATOM      1  C   UNL     1     172.879 172.840 163.005  1.00  0.00     0.000 C 
ENDROOT
BRANCH   1   2
ATOM      2  C   UNL     1     174.281 172.852 162.370  1.00  0.00     0.000 C 
BRANCH   2   3
ATOM      3  C   UNL     1     174.600 171.555 161.609  1.00  0.00     0.000 C 
BRANCH   3   4
ATOM      4  C   UNL     1     175.271 171.850 160.259  1.00  0.00     0.000 C 
BRANCH   4   5
ATOM      5  C   UNL     1     175.755 173.305 160.149  1.00  0.00     0.000 C 
BRANCH   5   6
ATOM      6  C   UNL     1     175.054 174.079 159.019  1.00  0.00     0.000 C 
BRANCH   6   7
ATOM      7  C   UNL     1     174.266 175.297 159.529  1.00  0.00     0.000 C 
BRANCH   7   8
ATOM      8  C   UNL     1     172.776 174.978 159.755  1.00  0.00    -0.000 C 
BRANCH   8   9
ATOM      9  C   UNL     1     172.303 173.742 158.959  1.00  0.00    -0.000 C 
BRANCH   9  10
ATOM     10  C   UNL     1     171.467 172.746 159.786  1.00  0.00    -0.000 C 
BRANCH  10  11
ATOM     11  C   UNL     1     171.407 171.319 159.218  1.00  0.00    -0.000 C 
BRANCH  11  12
ATOM     12  C   UNL     1     170.463 170.398 160.012  1.00  0.00    -0.000 C 
BRANCH  12  13
ATOM     13  C   UNL     1     169.281 169.900 159.164  1.00  0.00    -0.000 C 
BRANCH  13  14
ATOM     14  C   UNL     1     168.934 168.431 159.451  1.00  0.00    -0.000 C 
BRANCH  14  15
ATOM     15  C   UNL     1     170.150 167.676 159.999  1.00  0.00    -0.003 C 
ATOM     16  C   UNL     1     169.822 166.991 161.324  1.00  0.00     0.004 C 
ENDBRANCH  14  15
ENDBRANCH  13  14
ENDBRANCH  12  13
ENDBRANCH  11  12
ENDBRANCH  10  11
ENDBRANCH   9  10
ENDBRANCH   8   9
ENDBRANCH   7   8
ENDBRANCH   6   7
ENDBRANCH   5   6
ENDBRANCH   4   5
ENDBRANCH   3   4
ENDBRANCH   2   3
ENDBRANCH   1   2
BRANCH   1  17
ATOM     17  C   UNL     1     172.230 171.447 163.150  1.00  0.00     0.000 C 
BRANCH  17  18
ATOM     18  C   UNL     1     171.851 171.071 164.598  1.00  0.00     0.000 C 
BRANCH  18  19
ATOM     19  C   UNL     1     170.359 170.718 164.757  1.00  0.00     0.000 C 
BRANCH  19  20
ATOM     20  C   UNL     1     169.724 170.184 163.459  1.00  0.00     0.000 C 
BRANCH  20  21
ATOM     21  C   UNL     1     168.187 170.089 163.467  1.00  0.00     0.000 C 
BRANCH  21  22
ATOM     22  C   UNL     1     167.530 170.752 162.242  1.00  0.00     0.000 C 
BRANCH  22  23
ATOM     23  C   UNL     1     167.877 172.246 162.133  1.00  0.00     0.000 C 
BRANCH  23  24
ATOM     24  C   UNL     1     167.143 173.104 163.176  1.00  0.00     0.000 C 
BRANCH  24  25
ATOM     25  C   UNL     1     168.080 174.164 163.769  1.00  0.00     0.000 C 
BRANCH  25  26
ATOM     26  C   UNL     1     169.511 173.997 163.234  1.00  0.00     0.000 C 
BRANCH  26  27
ATOM     27  C   UNL     1     170.059 175.286 162.595  1.00  0.00     0.002 C 
BRANCH  27  28
ATOM     28  C   UNL     1     169.432 175.574 161.223  1.00  0.00     0.028 C 
BRANCH  28  29
ATOM     29  C   UNL     1     168.806 176.971 161.184  1.00  0.00     0.156 C 
BRANCH  29  30
ATOM     30  O   UNL     1     169.811 177.950 161.234  1.00  0.00    -0.396 OA
ATOM     31  H   UNL     1     169.441 178.713 161.747  1.00  0.00     0.210 HD
ENDBRANCH  29  30
ENDBRANCH  28  29
ENDBRANCH  27  28
ENDBRANCH  26  27
ENDBRANCH  25  26
ENDBRANCH  24  25
ENDBRANCH  23  24
ENDBRANCH  22  23
ENDBRANCH  21  22
ENDBRANCH  20  21
ENDBRANCH  19  20
ENDBRANCH  18  19
ENDBRANCH  17  18
ENDBRANCH   1  17
TORSDOF 28
ENDMDL
MODEL 2
REMARK VINA RESULT:    -3.232      3.375      6.661
REMARK INTER + INTRA:         -14.257
REMARK INTER:                  -8.481
REMARK INTRA:                  -5.776
REMARK UNBOUND:                -5.830
REMARK SMILES CCCCCCCCCCCCCCCCCCCCCCCCCCCCCO
REMARK SMILES IDX 16 1 15 2 14 3 13 4 12 5 11 6 10 7 9 8 8 9 7 10 6 11 5 12
REMARK SMILES IDX 4 13 3 14 2 15 1 16 17 17 18 18 19 19 20 20 21 21 22 22
REMARK SMILES IDX 23 23 24 24 25 25 26 26 27 27 28 28 29 29 30 30
REMARK H PARENT 30 31
REMARK Flexibility Score: inf
ROOT
ATOM      1  C   UNL     1     172.532 171.115 163.510  1.00  0.00     0.000 C 
ENDROOT
BRANCH   1   2
ATOM      2  C   UNL     1     172.811 172.406 162.721  1.00  0.00     0.000 C 
BRANCH   2   3
ATOM      3  C   UNL     1     171.900 173.570 163.142  1.00  0.00     0.000 C 
BRANCH   3   4
ATOM      4  C   UNL     1     171.047 174.067 161.966  1.00  0.00     0.000 C 
BRANCH   4   5
ATOM      5  C   UNL     1     169.711 174.673 162.424  1.00  0.00     0.000 C 
BRANCH   5   6
ATOM      6  C   UNL     1     169.129 173.960 163.657  1.00  0.00     0.000 C 
BRANCH   6   7
ATOM      7  C   UNL     1     167.752 173.332 163.390  1.00  0.00     0.000 C 
BRANCH   7   8
ATOM      8  C   UNL     1     166.924 174.143 162.377  1.00  0.00    -0.000 C 
BRANCH   8   9
ATOM      9  C   UNL     1     165.576 173.471 162.034  1.00  0.00    -0.000 C 
BRANCH   9  10
ATOM     10  C   UNL     1     165.704 172.003 161.583  1.00  0.00    -0.000 C 
BRANCH  10  11
ATOM     11  C   UNL     1     164.544 171.485 160.717  1.00  0.00    -0.000 C 
BRANCH  11  12
ATOM     12  C   UNL     1     164.847 171.555 159.209  1.00  0.00    -0.000 C 
BRANCH  12  13
ATOM     13  C   UNL     1     166.277 171.096 158.878  1.00  0.00    -0.000 C 
BRANCH  13  14
ATOM     14  C   UNL     1     166.972 172.028 157.874  1.00  0.00    -0.000 C 
BRANCH  14  15
ATOM     15  C   UNL     1     167.181 173.424 158.473  1.00  0.00    -0.003 C 
ATOM     16  C   UNL     1     168.571 173.555 159.092  1.00  0.00     0.004 C 
ENDBRANCH  14  15
ENDBRANCH  13  14
ENDBRANCH  12  13
ENDBRANCH  11  12
ENDBRANCH  10  11
ENDBRANCH   9  10
ENDBRANCH   8   9
ENDBRANCH   7   8
ENDBRANCH   6   7
ENDBRANCH   5   6
ENDBRANCH   4   5
ENDBRANCH   3   4
ENDBRANCH   2   3
ENDBRANCH   1   2
BRANCH   1  17
ATOM     17  C   UNL     1     171.632 171.281 164.754  1.00  0.00     0.000 C 
BRANCH  17  18
ATOM     18  C   UNL     1     170.309 170.488 164.691  1.00  0.00     0.000 C 
BRANCH  18  19
ATOM     19  C   UNL     1     170.130 169.721 163.366  1.00  0.00     0.000 C 
BRANCH  19  20
ATOM     20  C   UNL     1     168.759 169.967 162.708  1.00  0.00     0.000 C 
BRANCH  20  21
ATOM     21  C   UNL     1     168.801 170.343 161.215  1.00  0.00     0.000 C 
BRANCH  21  22
ATOM     22  C   UNL     1     170.217 170.679 160.712  1.00  0.00     0.000 C 
BRANCH  22  23
ATOM     23  C   UNL     1     170.416 170.297 159.236  1.00  0.00     0.000 C 
BRANCH  23  24
ATOM     24  C   UNL     1     169.508 169.140 158.793  1.00  0.00     0.000 C 
BRANCH  24  25
ATOM     25  C   UNL     1     170.288 167.820 158.743  1.00  0.00     0.000 C 
BRANCH  25  26
ATOM     26  C   UNL     1     169.473 166.673 159.361  1.00  0.00     0.000 C 
BRANCH  26  27
ATOM     27  C   UNL     1     169.680 166.553 160.882  1.00  0.00     0.002 C 
BRANCH  27  28
ATOM     28  C   UNL     1     170.793 165.558 161.247  1.00  0.00     0.028 C 
BRANCH  28  29
ATOM     29  C   UNL     1     170.655 164.259 160.449  1.00  0.00     0.156 C 
BRANCH  29  30
ATOM     30  O   UNL     1     169.910 163.322 161.183  1.00  0.00    -0.396 OA
ATOM     31  H   UNL     1     169.835 163.677 162.106  1.00  0.00     0.210 HD
ENDBRANCH  29  30
ENDBRANCH  28  29
ENDBRANCH  27  28
ENDBRANCH  26  27
ENDBRANCH  25  26
ENDBRANCH  24  25
ENDBRANCH  23  24
ENDBRANCH  22  23
ENDBRANCH  21  22
ENDBRANCH  20  21
ENDBRANCH  19  20
ENDBRANCH  18  19
ENDBRANCH  17  18
ENDBRANCH   1  17
TORSDOF 28
ENDMDL
MODEL 3
REMARK VINA RESULT:    -3.216      3.821      7.893
REMARK INTER + INTRA:         -14.215
REMARK INTER:                  -9.707
REMARK INTRA:                  -4.508
REMARK UNBOUND:                -5.830
REMARK SMILES CCCCCCCCCCCCCCCCCCCCCCCCCCCCCO
REMARK SMILES IDX 16 1 15 2 14 3 13 4 12 5 11 6 10 7 9 8 8 9 7 10 6 11 5 12
REMARK SMILES IDX 4 13 3 14 2 15 1 16 17 17 18 18 19 19 20 20 21 21 22 22
REMARK SMILES IDX 23 23 24 24 25 25 26 26 27 27 28 28 29 29 30 30
REMARK H PARENT 30 31
REMARK Flexibility Score: inf
ROOT
ATOM      1  C   UNL     1     169.584 168.492 162.046  1.00  0.00     0.000 C 
ENDROOT
BRANCH   1   2
ATOM      2  C   UNL     1     169.376 168.851 163.529  1.00  0.00     0.000 C 
BRANCH   2   3
ATOM      3  C   UNL     1     168.931 170.307 163.732  1.00  0.00     0.000 C 
BRANCH   3   4
ATOM      4  C   UNL     1     169.779 171.008 164.804  1.00  0.00     0.000 C 
BRANCH   4   5
ATOM      5  C   UNL     1     171.284 170.750 164.623  1.00  0.00     0.000 C 
BRANCH   5   6
ATOM      6  C   UNL     1     172.004 171.913 163.919  1.00  0.00     0.000 C 
BRANCH   6   7
ATOM      7  C   UNL     1     172.038 171.756 162.390  1.00  0.00     0.000 C 
BRANCH   7   8
ATOM      8  C   UNL     1     171.217 172.842 161.671  1.00  0.00    -0.000 C 
BRANCH   8   9
ATOM      9  C   UNL     1     171.203 174.184 162.436  1.00  0.00    -0.000 C 
BRANCH   9  10
ATOM     10  C   UNL     1     169.824 174.561 163.015  1.00  0.00    -0.000 C 
BRANCH  10  11
ATOM     11  C   UNL     1     168.648 173.720 162.493  1.00  0.00    -0.000 C 
BRANCH  11  12
ATOM     12  C   UNL     1     167.414 173.784 163.410  1.00  0.00    -0.000 C 
BRANCH  12  13
ATOM     13  C   UNL     1     166.122 173.372 162.685  1.00  0.00    -0.000 C 
BRANCH  13  14
ATOM     14  C   UNL     1     166.400 172.744 161.310  1.00  0.00    -0.000 C 
BRANCH  14  15
ATOM     15  C   UNL     1     165.995 171.266 161.288  1.00  0.00    -0.003 C 
ATOM     16  C   UNL     1     165.647 170.811 159.873  1.00  0.00     0.004 C 
ENDBRANCH  14  15
ENDBRANCH  13  14
ENDBRANCH  12  13
ENDBRANCH  11  12
ENDBRANCH  10  11
ENDBRANCH   9  10
ENDBRANCH   8   9
ENDBRANCH   7   8
ENDBRANCH   6   7
ENDBRANCH   5   6
ENDBRANCH   4   5
ENDBRANCH   3   4
ENDBRANCH   2   3
ENDBRANCH   1   2
BRANCH   1  17
ATOM     17  C   UNL     1     169.294 169.630 161.043  1.00  0.00     0.000 C 
BRANCH  17  18
ATOM     18  C   UNL     1     170.281 169.698 159.859  1.00  0.00     0.000 C 
BRANCH  18  19
ATOM     19  C   UNL     1     169.788 168.924 158.620  1.00  0.00     0.000 C 
BRANCH  19  20
ATOM     20  C   UNL     1     168.257 168.962 158.456  1.00  0.00     0.000 C 
BRANCH  20  21
ATOM     21  C   UNL     1     167.590 167.604 158.169  1.00  0.00     0.000 C 
BRANCH  21  22
ATOM     22  C   UNL     1     168.596 166.499 157.796  1.00  0.00     0.000 C 
BRANCH  22  23
ATOM     23  C   UNL     1     168.610 165.354 158.821  1.00  0.00     0.000 C 
BRANCH  23  24
ATOM     24  C   UNL     1     170.020 164.796 159.071  1.00  0.00     0.000 C 
BRANCH  24  25
ATOM     25  C   UNL     1     170.777 165.657 160.090  1.00  0.00     0.000 C 
BRANCH  25  26
ATOM     26  C   UNL     1     171.230 164.817 161.294  1.00  0.00     0.000 C 
BRANCH  26  27
ATOM     27  C   UNL     1     170.906 163.321 161.128  1.00  0.00     0.002 C 
BRANCH  27  28
ATOM     28  C   UNL     1     172.167 162.445 161.115  1.00  0.00     0.028 C 
BRANCH  28  29
ATOM     29  C   UNL     1     172.496 161.930 162.519  1.00  0.00     0.156 C 
BRANCH  29  30
ATOM     30  O   UNL     1     173.886 161.796 162.669  1.00  0.00    -0.396 OA
ATOM     31  H   UNL     1     174.034 161.026 163.277  1.00  0.00     0.210 HD
ENDBRANCH  29  30
ENDBRANCH  28  29
ENDBRANCH  27  28
ENDBRANCH  26  27
ENDBRANCH  25  26
ENDBRANCH  24  25
ENDBRANCH  23  24
ENDBRANCH  22  23
ENDBRANCH  21  22
ENDBRANCH  20  21
ENDBRANCH  19  20
ENDBRANCH  18  19
ENDBRANCH  17  18
ENDBRANCH   1  17
TORSDOF 28
ENDMDL
MODEL 4
REMARK VINA RESULT:    -3.208      2.288      6.450
REMARK INTER + INTRA:         -14.195
REMARK INTER:                  -8.264
REMARK INTRA:                  -5.931
REMARK UNBOUND:                -5.830
REMARK SMILES CCCCCCCCCCCCCCCCCCCCCCCCCCCCCO
REMARK SMILES IDX 16 1 15 2 14 3 13 4 12 5 11 6 10 7 9 8 8 9 7 10 6 11 5 12
REMARK SMILES IDX 4 13 3 14 2 15 1 16 17 17 18 18 19 19 20 20 21 21 22 22
REMARK SMILES IDX 23 23 24 24 25 25 26 26 27 27 28 28 29 29 30 30
REMARK H PARENT 30 31
REMARK Flexibility Score: inf
ROOT
ATOM      1  C   UNL     1     169.296 170.107 161.233  1.00  0.00     0.000 C 
ENDROOT
BRANCH   1   2
ATOM      2  C   UNL     1     170.512 170.744 160.537  1.00  0.00     0.000 C 
BRANCH   2   3
ATOM      3  C   UNL     1     170.152 172.019 159.760  1.00  0.00     0.000 C 
BRANCH   3   4
ATOM      4  C   UNL     1     168.631 172.183 159.627  1.00  0.00     0.000 C 
BRANCH   4   5
ATOM      5  C   UNL     1     168.228 173.606 159.203  1.00  0.00     0.000 C 
BRANCH   5   6
ATOM      6  C   UNL     1     166.892 174.052 159.820  1.00  0.00     0.000 C 
BRANCH   6   7
ATOM      7  C   UNL     1     166.019 172.869 160.273  1.00  0.00     0.000 C 
BRANCH   7   8
ATOM      8  C   UNL     1     165.536 173.021 161.727  1.00  0.00    -0.000 C 
BRANCH   8   9
ATOM      9  C   UNL     1     166.656 172.760 162.758  1.00  0.00    -0.000 C 
BRANCH   9  10
ATOM     10  C   UNL     1     167.086 174.012 163.548  1.00  0.00    -0.000 C 
BRANCH  10  11
ATOM     11  C   UNL     1     168.568 174.048 163.954  1.00  0.00    -0.000 C 
BRANCH  11  12
ATOM     12  C   UNL     1     169.519 173.885 162.754  1.00  0.00    -0.000 C 
BRANCH  12  13
ATOM     13  C   UNL     1     170.362 175.146 162.500  1.00  0.00    -0.000 C 
BRANCH  13  14
ATOM     14  C   UNL     1     169.646 176.152 161.584  1.00  0.00    -0.000 C 
BRANCH  14  15
ATOM     15  C   UNL     1     170.400 176.325 160.261  1.00  0.00    -0.003 C 
ATOM     16  C   UNL     1     171.680 175.493 160.245  1.00  0.00     0.004 C 
ENDBRANCH  14  15
ENDBRANCH  13  14
ENDBRANCH  12  13
ENDBRANCH  11  12
ENDBRANCH  10  11
ENDBRANCH   9  10
ENDBRANCH   8   9
ENDBRANCH   7   8
ENDBRANCH   6   7
ENDBRANCH   5   6
ENDBRANCH   4   5
ENDBRANCH   3   4
ENDBRANCH   2   3
ENDBRANCH   1   2
BRANCH   1  17
ATOM     17  C   UNL     1     169.560 168.743 161.908  1.00  0.00     0.000 C 
BRANCH  17  18
ATOM     18  C   UNL     1     169.402 168.754 163.443  1.00  0.00     0.000 C 
BRANCH  18  19
ATOM     19  C   UNL     1     168.882 170.100 163.985  1.00  0.00     0.000 C 
BRANCH  19  20
ATOM     20  C   UNL     1     169.854 170.765 164.978  1.00  0.00     0.000 C 
BRANCH  20  21
ATOM     21  C   UNL     1     171.348 170.619 164.637  1.00  0.00     0.000 C 
BRANCH  21  22
ATOM     22  C   UNL     1     171.988 171.925 164.132  1.00  0.00     0.000 C 
BRANCH  22  23
ATOM     23  C   UNL     1     172.941 171.688 162.949  1.00  0.00     0.000 C 
BRANCH  23  24
ATOM     24  C   UNL     1     173.459 172.996 162.331  1.00  0.00     0.000 C 
BRANCH  24  25
ATOM     25  C   UNL     1     174.790 172.768 161.604  1.00  0.00     0.000 C 
BRANCH  25  26
ATOM     26  C   UNL     1     174.766 173.393 160.200  1.00  0.00     0.000 C 
BRANCH  26  27
ATOM     27  C   UNL     1     173.913 172.584 159.206  1.00  0.00     0.002 C 
BRANCH  27  28
ATOM     28  C   UNL     1     174.177 171.073 159.299  1.00  0.00     0.028 C 
BRANCH  28  29
ATOM     29  C   UNL     1     174.814 170.544 158.012  1.00  0.00     0.156 C 
BRANCH  29  30
ATOM     30  O   UNL     1     174.567 171.432 156.953  1.00  0.00    -0.396 OA
ATOM     31  H   UNL     1     175.058 172.269 157.163  1.00  0.00     0.210 HD
ENDBRANCH  29  30
ENDBRANCH  28  29
ENDBRANCH  27  28
ENDBRANCH  26  27
ENDBRANCH  25  26
ENDBRANCH  24  25
ENDBRANCH  23  24
ENDBRANCH  22  23
ENDBRANCH  21  22
ENDBRANCH  20  21
ENDBRANCH  19  20
ENDBRANCH  18  19
ENDBRANCH  17  18
ENDBRANCH   1  17
TORSDOF 28
ENDMDL
MODEL 5
REMARK VINA RESULT:    -3.200      3.412      6.764
REMARK INTER + INTRA:         -14.174
REMARK INTER:                  -8.205
REMARK INTRA:                  -5.969
REMARK UNBOUND:                -5.830
REMARK SMILES CCCCCCCCCCCCCCCCCCCCCCCCCCCCCO
REMARK SMILES IDX 16 1 15 2 14 3 13 4 12 5 11 6 10 7 9 8 8 9 7 10 6 11 5 12
REMARK SMILES IDX 4 13 3 14 2 15 1 16 17 17 18 18 19 19 20 20 21 21 22 22
REMARK SMILES IDX 23 23 24 24 25 25 26 26 27 27 28 28 29 29 30 30
REMARK H PARENT 30 31
REMARK Flexibility Score: inf
ROOT
ATOM      1  C   UNL     1     168.176 174.159 163.134  1.00  0.00     0.000 C 
ENDROOT
BRANCH   1   2
ATOM      2  C   UNL     1     169.402 175.010 162.757  1.00  0.00     0.000 C 
BRANCH   2   3
ATOM      3  C   UNL     1     170.698 174.187 162.686  1.00  0.00     0.000 C 
BRANCH   3   4
ATOM      4  C   UNL     1     170.707 173.067 163.737  1.00  0.00     0.000 C 
BRANCH   4   5
ATOM      5  C   UNL     1     171.965 172.186 163.644  1.00  0.00     0.000 C 
BRANCH   5   6
ATOM      6  C   UNL     1     171.816 170.859 164.408  1.00  0.00     0.000 C 
BRANCH   6   7
ATOM      7  C   UNL     1     170.355 170.534 164.761  1.00  0.00     0.000 C 
BRANCH   7   8
ATOM      8  C   UNL     1     169.924 169.146 164.251  1.00  0.00    -0.000 C 
BRANCH   8   9
ATOM      9  C   UNL     1     169.434 169.174 162.787  1.00  0.00    -0.000 C 
BRANCH   9  10
ATOM     10  C   UNL     1     168.421 170.297 162.486  1.00  0.00    -0.000 C 
BRANCH  10  11
ATOM     11  C   UNL     1     168.667 171.060 161.174  1.00  0.00    -0.000 C 
BRANCH  11  12
ATOM     12  C   UNL     1     170.131 170.982 160.703  1.00  0.00    -0.000 C 
BRANCH  12  13
ATOM     13  C   UNL     1     170.391 171.843 159.456  1.00  0.00    -0.000 C 
BRANCH  13  14
ATOM     14  C   UNL     1     169.595 173.158 159.478  1.00  0.00    -0.000 C 
BRANCH  14  15
ATOM     15  C   UNL     1     168.725 173.294 158.223  1.00  0.00    -0.003 C 
ATOM     16  C   UNL     1     167.488 174.145 158.501  1.00  0.00     0.004 C 
ENDBRANCH  14  15
ENDBRANCH  13  14
ENDBRANCH  12  13
ENDBRANCH  11  12
ENDBRANCH  10  11
ENDBRANCH   9  10
ENDBRANCH   8   9
ENDBRANCH   7   8
ENDBRANCH   6   7
ENDBRANCH   5   6
ENDBRANCH   4   5
ENDBRANCH   3   4
ENDBRANCH   2   3
ENDBRANCH   1   2
BRANCH   1  17
ATOM     17  C   UNL     1     167.015 174.183 162.115  1.00  0.00     0.000 C 
BRANCH  17  18
ATOM     18  C   UNL     1     165.904 173.149 162.394  1.00  0.00     0.000 C 
BRANCH  18  19
ATOM     19  C   UNL     1     164.640 173.379 161.543  1.00  0.00     0.000 C 
BRANCH  19  20
ATOM     20  C   UNL     1     164.514 172.388 160.371  1.00  0.00     0.000 C 
BRANCH  20  21
ATOM     21  C   UNL     1     165.007 170.958 160.661  1.00  0.00     0.000 C 
BRANCH  21  22
ATOM     22  C   UNL     1     165.171 170.102 159.392  1.00  0.00     0.000 C 
BRANCH  22  23
ATOM     23  C   UNL     1     166.191 170.704 158.411  1.00  0.00     0.000 C 
BRANCH  23  24
ATOM     24  C   UNL     1     167.344 169.741 158.087  1.00  0.00     0.000 C 
BRANCH  24  25
ATOM     25  C   UNL     1     166.874 168.282 158.156  1.00  0.00     0.000 C 
BRANCH  25  26
ATOM     26  C   UNL     1     168.071 167.321 158.234  1.00  0.00     0.000 C 
BRANCH  26  27
ATOM     27  C   UNL     1     169.280 167.938 158.960  1.00  0.00     0.002 C 
BRANCH  27  28
ATOM     28  C   UNL     1     169.833 167.024 160.064  1.00  0.00     0.028 C 
BRANCH  28  29
ATOM     29  C   UNL     1     169.418 165.568 159.834  1.00  0.00     0.156 C 
BRANCH  29  30
ATOM     30  O   UNL     1     169.916 164.759 160.867  1.00  0.00    -0.396 OA
ATOM     31  H   UNL     1     169.780 165.260 161.713  1.00  0.00     0.210 HD
ENDBRANCH  29  30
ENDBRANCH  28  29
ENDBRANCH  27  28
ENDBRANCH  26  27
ENDBRANCH  25  26
ENDBRANCH  24  25
ENDBRANCH  23  24
ENDBRANCH  22  23
ENDBRANCH  21  22
ENDBRANCH  20  21
ENDBRANCH  19  20
ENDBRANCH  18  19
ENDBRANCH  17  18
ENDBRANCH   1  17
TORSDOF 28
ENDMDL
MODEL 6
REMARK VINA RESULT:    -3.157      2.116      4.648
REMARK INTER + INTRA:         -14.063
REMARK INTER:                  -8.281
REMARK INTRA:                  -5.782
REMARK UNBOUND:                -5.830
REMARK SMILES CCCCCCCCCCCCCCCCCCCCCCCCCCCCCO
REMARK SMILES IDX 16 1 15 2 14 3 13 4 12 5 11 6 10 7 9 8 8 9 7 10 6 11 5 12
REMARK SMILES IDX 4 13 3 14 2 15 1 16 17 17 18 18 19 19 20 20 21 21 22 22
REMARK SMILES IDX 23 23 24 24 25 25 26 26 27 27 28 28 29 29 30 30
REMARK H PARENT 30 31
REMARK Flexibility Score: inf
ROOT
ATOM      1  C   UNL     1     169.223 171.884 159.583  1.00  0.00     0.000 C 
ENDROOT
BRANCH   1   2
ATOM      2  C   UNL     1     169.997 171.481 160.850  1.00  0.00     0.000 C 
BRANCH   2   3
ATOM      3  C   UNL     1     171.519 171.474 160.641  1.00  0.00     0.000 C 
BRANCH   3   4
ATOM      4  C   UNL     1     172.187 172.664 161.345  1.00  0.00     0.000 C 
BRANCH   4   5
ATOM      5  C   UNL     1     172.955 172.244 162.609  1.00  0.00     0.000 C 
BRANCH   5   6
ATOM      6  C   UNL     1     172.080 172.282 163.874  1.00  0.00     0.000 C 
BRANCH   6   7
ATOM      7  C   UNL     1     171.730 170.881 164.401  1.00  0.00     0.000 C 
BRANCH   7   8
ATOM      8  C   UNL     1     170.313 170.816 164.998  1.00  0.00    -0.000 C 
BRANCH   8   9
ATOM      9  C   UNL     1     169.312 170.082 164.079  1.00  0.00    -0.000 C 
BRANCH   9  10
ATOM     10  C   UNL     1     169.759 168.664 163.670  1.00  0.00    -0.000 C 
BRANCH  10  11
ATOM     11  C   UNL     1     169.462 168.285 162.210  1.00  0.00    -0.000 C 
BRANCH  11  12
ATOM     12  C   UNL     1     170.042 166.914 161.819  1.00  0.00    -0.000 C 
BRANCH  12  13
ATOM     13  C   UNL     1     169.610 166.476 160.409  1.00  0.00    -0.000 C 
BRANCH  13  14
ATOM     14  C   UNL     1     170.552 167.009 159.318  1.00  0.00    -0.000 C 
BRANCH  14  15
ATOM     15  C   UNL     1     170.018 168.315 158.720  1.00  0.00    -0.003 C 
ATOM     16  C   UNL     1     168.510 168.238 158.488  1.00  0.00     0.004 C 
ENDBRANCH  14  15
ENDBRANCH  13  14
ENDBRANCH  12  13
ENDBRANCH  11  12
ENDBRANCH  10  11
ENDBRANCH   9  10
ENDBRANCH   8   9
ENDBRANCH   7   8
ENDBRANCH   6   7
ENDBRANCH   5   6
ENDBRANCH   4   5
ENDBRANCH   3   4
ENDBRANCH   2   3
ENDBRANCH   1   2
BRANCH   1  17
ATOM     17  C   UNL     1     167.690 171.706 159.659  1.00  0.00     0.000 C 
BRANCH  17  18
ATOM     18  C   UNL     1     167.184 171.126 160.996  1.00  0.00     0.000 C 
BRANCH  18  19
ATOM     19  C   UNL     1     166.289 172.108 161.778  1.00  0.00     0.000 C 
BRANCH  19  20
ATOM     20  C   UNL     1     166.880 172.505 163.144  1.00  0.00     0.000 C 
BRANCH  20  21
ATOM     21  C   UNL     1     167.467 173.926 163.221  1.00  0.00     0.000 C 
BRANCH  21  22
ATOM     22  C   UNL     1     168.964 173.948 163.582  1.00  0.00     0.000 C 
BRANCH  22  23
ATOM     23  C   UNL     1     169.733 175.035 162.812  1.00  0.00     0.000 C 
BRANCH  23  24
ATOM     24  C   UNL     1     169.335 175.107 161.330  1.00  0.00     0.000 C 
BRANCH  24  25
ATOM     25  C   UNL     1     169.120 176.562 160.892  1.00  0.00     0.000 C 
BRANCH  25  26
ATOM     26  C   UNL     1     167.869 176.693 160.008  1.00  0.00     0.000 C 
BRANCH  26  27
ATOM     27  C   UNL     1     167.116 175.360 159.847  1.00  0.00     0.002 C 
BRANCH  27  28
ATOM     28  C   UNL     1     165.651 175.455 160.299  1.00  0.00     0.028 C 
BRANCH  28  29
ATOM     29  C   UNL     1     165.442 176.633 161.254  1.00  0.00     0.156 C 
BRANCH  29  30
ATOM     30  O   UNL     1     164.105 176.675 161.680  1.00  0.00    -0.396 OA
ATOM     31  H   UNL     1     163.849 175.744 161.908  1.00  0.00     0.210 HD
ENDBRANCH  29  30
ENDBRANCH  28  29
ENDBRANCH  27  28
ENDBRANCH  26  27
ENDBRANCH  25  26
ENDBRANCH  24  25
ENDBRANCH  23  24
ENDBRANCH  22  23
ENDBRANCH  21  22
ENDBRANCH  20  21
ENDBRANCH  19  20
ENDBRANCH  18  19
ENDBRANCH  17  18
ENDBRANCH   1  17
TORSDOF 28
ENDMDL
MODEL 7
REMARK VINA RESULT:    -3.156      3.560      7.029
REMARK INTER + INTRA:         -14.058
REMARK INTER:                  -8.683
REMARK INTRA:                  -5.375
REMARK UNBOUND:                -5.830
REMARK SMILES CCCCCCCCCCCCCCCCCCCCCCCCCCCCCO
REMARK SMILES IDX 16 1 15 2 14 3 13 4 12 5 11 6 10 7 9 8 8 9 7 10 6 11 5 12
REMARK SMILES IDX 4 13 3 14 2 15 1 16 17 17 18 18 19 19 20 20 21 21 22 22
REMARK SMILES IDX 23 23 24 24 25 25 26 26 27 27 28 28 29 29 30 30
REMARK H PARENT 30 31
REMARK Flexibility Score: inf
ROOT
ATOM      1  C   UNL     1     171.750 170.818 164.636  1.00  0.00     0.000 C 
ENDROOT
BRANCH   1   2
ATOM      2  C   UNL     1     170.251 170.470 164.671  1.00  0.00     0.000 C 
BRANCH   2   3
ATOM      3  C   UNL     1     169.879 169.337 163.702  1.00  0.00     0.000 C 
BRANCH   3   4
ATOM      4  C   UNL     1     168.616 169.680 162.898  1.00  0.00     0.000 C 
BRANCH   4   5
ATOM      5  C   UNL     1     167.798 170.811 163.544  1.00  0.00     0.000 C 
BRANCH   5   6
ATOM      6  C   UNL     1     167.378 171.890 162.531  1.00  0.00     0.000 C 
BRANCH   6   7
ATOM      7  C   UNL     1     166.972 173.213 163.202  1.00  0.00     0.000 C 
BRANCH   7   8
ATOM      8  C   UNL     1     167.248 174.433 162.304  1.00  0.00    -0.000 C 
BRANCH   8   9
ATOM      9  C   UNL     1     166.208 174.588 161.173  1.00  0.00    -0.000 C 
BRANCH   9  10
ATOM     10  C   UNL     1     166.827 174.755 159.771  1.00  0.00    -0.000 C 
BRANCH  10  11
ATOM     11  C   UNL     1     167.956 173.767 159.436  1.00  0.00    -0.000 C 
BRANCH  11  12
ATOM     12  C   UNL     1     167.541 172.717 158.390  1.00  0.00    -0.000 C 
BRANCH  12  13
ATOM     13  C   UNL     1     166.969 171.443 159.034  1.00  0.00    -0.000 C 
BRANCH  13  14
ATOM     14  C   UNL     1     165.459 171.293 158.790  1.00  0.00    -0.000 C 
BRANCH  14  15
ATOM     15  C   UNL     1     164.673 171.456 160.095  1.00  0.00    -0.003 C 
ATOM     16  C   UNL     1     163.726 170.279 160.319  1.00  0.00     0.004 C 
ENDBRANCH  14  15
ENDBRANCH  13  14
ENDBRANCH  12  13
ENDBRANCH  11  12
ENDBRANCH  10  11
ENDBRANCH   9  10
ENDBRANCH   8   9
ENDBRANCH   7   8
ENDBRANCH   6   7
ENDBRANCH   5   6
ENDBRANCH   4   5
ENDBRANCH   3   4
ENDBRANCH   2   3
ENDBRANCH   1   2
BRANCH   1  17
ATOM     17  C   UNL     1     172.122 172.056 163.791  1.00  0.00     0.000 C 
BRANCH  17  18
ATOM     18  C   UNL     1     170.938 172.998 163.490  1.00  0.00     0.000 C 
BRANCH  18  19
ATOM     19  C   UNL     1     170.737 173.248 161.982  1.00  0.00     0.000 C 
BRANCH  19  20
ATOM     20  C   UNL     1     171.387 172.166 161.099  1.00  0.00     0.000 C 
BRANCH  20  21
ATOM     21  C   UNL     1     170.403 171.266 160.329  1.00  0.00     0.000 C 
BRANCH  21  22
ATOM     22  C   UNL     1     170.904 170.879 158.925  1.00  0.00     0.000 C 
BRANCH  22  23
ATOM     23  C   UNL     1     170.921 169.356 158.713  1.00  0.00     0.000 C 
BRANCH  23  24
ATOM     24  C   UNL     1     170.137 168.596 159.794  1.00  0.00     0.000 C 
BRANCH  24  25
ATOM     25  C   UNL     1     169.081 167.679 159.163  1.00  0.00     0.000 C 
BRANCH  25  26
ATOM     26  C   UNL     1     169.163 166.260 159.747  1.00  0.00     0.000 C 
BRANCH  26  27
ATOM     27  C   UNL     1     169.912 166.215 161.091  1.00  0.00     0.002 C 
BRANCH  27  28
ATOM     28  C   UNL     1     171.045 165.178 161.097  1.00  0.00     0.028 C 
BRANCH  28  29
ATOM     29  C   UNL     1     170.613 163.883 160.405  1.00  0.00     0.156 C 
BRANCH  29  30
ATOM     30  O   UNL     1     169.858 163.095 161.288  1.00  0.00    -0.396 OA
ATOM     31  H   UNL     1     169.762 163.617 162.126  1.00  0.00     0.210 HD
ENDBRANCH  29  30
ENDBRANCH  28  29
ENDBRANCH  27  28
ENDBRANCH  26  27
ENDBRANCH  25  26
ENDBRANCH  24  25
ENDBRANCH  23  24
ENDBRANCH  22  23
ENDBRANCH  21  22
ENDBRANCH  20  21
ENDBRANCH  19  20
ENDBRANCH  18  19
ENDBRANCH  17  18
ENDBRANCH   1  17
TORSDOF 28
ENDMDL
MODEL 8
REMARK VINA RESULT:    -3.147      2.205      4.765
REMARK INTER + INTRA:         -14.035
REMARK INTER:                  -8.684
REMARK INTRA:                  -5.351
REMARK UNBOUND:                -5.830
REMARK SMILES CCCCCCCCCCCCCCCCCCCCCCCCCCCCCO
REMARK SMILES IDX 16 1 15 2 14 3 13 4 12 5 11 6 10 7 9 8 8 9 7 10 6 11 5 12
REMARK SMILES IDX 4 13 3 14 2 15 1 16 17 17 18 18 19 19 20 20 21 21 22 22
REMARK SMILES IDX 23 23 24 24 25 25 26 26 27 27 28 28 29 29 30 30
REMARK H PARENT 30 31
REMARK Flexibility Score: inf
ROOT
ATOM      1  C   UNL     1     172.375 172.253 160.438  1.00  0.00     0.000 C 
ENDROOT
BRANCH   1   2
ATOM      2  C   UNL     1     173.473 172.986 161.229  1.00  0.00     0.000 C 
BRANCH   2   3
ATOM      3  C   UNL     1     173.538 172.550 162.701  1.00  0.00     0.000 C 
BRANCH   3   4
ATOM      4  C   UNL     1     172.491 171.470 163.011  1.00  0.00     0.000 C 
BRANCH   4   5
ATOM      5  C   UNL     1     172.114 171.429 164.502  1.00  0.00     0.000 C 
BRANCH   5   6
ATOM      6  C   UNL     1     170.816 170.646 164.763  1.00  0.00     0.000 C 
BRANCH   6   7
ATOM      7  C   UNL     1     170.621 169.472 163.789  1.00  0.00     0.000 C 
BRANCH   7   8
ATOM      8  C   UNL     1     169.136 169.119 163.586  1.00  0.00    -0.000 C 
BRANCH   8   9
ATOM      9  C   UNL     1     168.397 170.143 162.696  1.00  0.00    -0.000 C 
BRANCH   9  10
ATOM     10  C   UNL     1     169.213 170.620 161.478  1.00  0.00    -0.000 C 
BRANCH  10  11
ATOM     11  C   UNL     1     168.447 170.626 160.145  1.00  0.00    -0.000 C 
BRANCH  11  12
ATOM     12  C   UNL     1     168.748 169.391 159.278  1.00  0.00    -0.000 C 
BRANCH  12  13
ATOM     13  C   UNL     1     170.245 169.035 159.265  1.00  0.00    -0.000 C 
BRANCH  13  14
ATOM     14  C   UNL     1     170.485 167.518 159.302  1.00  0.00    -0.000 C 
BRANCH  14  15
ATOM     15  C   UNL     1     170.040 166.923 160.642  1.00  0.00    -0.003 C 
ATOM     16  C   UNL     1     169.866 165.410 160.543  1.00  0.00     0.004 C 
ENDBRANCH  14  15
ENDBRANCH  13  14
ENDBRANCH  12  13
ENDBRANCH  11  12
ENDBRANCH  10  11
ENDBRANCH   9  10
ENDBRANCH   8   9
ENDBRANCH   7   8
ENDBRANCH   6   7
ENDBRANCH   5   6
ENDBRANCH   4   5
ENDBRANCH   3   4
ENDBRANCH   2   3
ENDBRANCH   1   2
BRANCH   1  17
ATOM     17  C   UNL     1     171.438 173.160 159.611  1.00  0.00     0.000 C 
BRANCH  17  18
ATOM     18  C   UNL     1     171.552 174.662 159.944  1.00  0.00     0.000 C 
BRANCH  18  19
ATOM     19  C   UNL     1     170.187 175.322 160.222  1.00  0.00     0.000 C 
BRANCH  19  20
ATOM     20  C   UNL     1     170.082 175.917 161.639  1.00  0.00     0.000 C 
BRANCH  20  21
ATOM     21  C   UNL     1     170.585 175.007 162.775  1.00  0.00     0.000 C 
BRANCH  21  22
ATOM     22  C   UNL     1     169.723 173.746 162.971  1.00  0.00     0.000 C 
BRANCH  22  23
ATOM     23  C   UNL     1     168.674 173.925 164.080  1.00  0.00     0.000 C 
BRANCH  23  24
ATOM     24  C   UNL     1     167.242 174.031 163.532  1.00  0.00     0.000 C 
BRANCH  24  25
ATOM     25  C   UNL     1     167.194 173.641 162.049  1.00  0.00     0.000 C 
BRANCH  25  26
ATOM     26  C   UNL     1     166.544 174.751 161.207  1.00  0.00     0.000 C 
BRANCH  26  27
ATOM     27  C   UNL     1     165.412 175.476 161.957  1.00  0.00     0.002 C 
BRANCH  27  28
ATOM     28  C   UNL     1     164.041 174.822 161.726  1.00  0.00     0.028 C 
BRANCH  28  29
ATOM     29  C   UNL     1     162.905 175.747 162.172  1.00  0.00     0.156 C 
BRANCH  29  30
ATOM     30  O   UNL     1     162.760 175.692 163.567  1.00  0.00    -0.396 OA
ATOM     31  H   UNL     1     162.222 176.483 163.829  1.00  0.00     0.210 HD
ENDBRANCH  29  30
ENDBRANCH  28  29
ENDBRANCH  27  28
ENDBRANCH  26  27
ENDBRANCH  25  26
ENDBRANCH  24  25
ENDBRANCH  23  24
ENDBRANCH  22  23
ENDBRANCH  21  22
ENDBRANCH  20  21
ENDBRANCH  19  20
ENDBRANCH  18  19
ENDBRANCH  17  18
ENDBRANCH   1  17
TORSDOF 28
ENDMDL
MODEL 9
REMARK VINA RESULT:    -3.138      2.901      5.876
REMARK INTER + INTRA:         -14.013
REMARK INTER:                  -8.262
REMARK INTRA:                  -5.751
REMARK UNBOUND:                -5.830
REMARK SMILES CCCCCCCCCCCCCCCCCCCCCCCCCCCCCO
REMARK SMILES IDX 16 1 15 2 14 3 13 4 12 5 11 6 10 7 9 8 8 9 7 10 6 11 5 12
REMARK SMILES IDX 4 13 3 14 2 15 1 16 17 17 18 18 19 19 20 20 21 21 22 22
REMARK SMILES IDX 23 23 24 24 25 25 26 26 27 27 28 28 29 29 30 30
REMARK H PARENT 30 31
REMARK Flexibility Score: inf
ROOT
ATOM      1  C   UNL     1     171.623 172.180 160.548  1.00  0.00     0.000 C 
ENDROOT
BRANCH   1   2
ATOM      2  C   UNL     1     170.953 172.589 159.224  1.00  0.00     0.000 C 
BRANCH   2   3
ATOM      3  C   UNL     1     169.419 172.609 159.315  1.00  0.00     0.000 C 
BRANCH   3   4
ATOM      4  C   UNL     1     168.866 174.030 159.129  1.00  0.00     0.000 C 
BRANCH   4   5
ATOM      5  C   UNL     1     169.980 175.073 158.938  1.00  0.00     0.000 C 
BRANCH   5   6
ATOM      6  C   UNL     1     169.925 176.197 159.987  1.00  0.00     0.000 C 
BRANCH   6   7
ATOM      7  C   UNL     1     168.946 175.896 161.134  1.00  0.00     0.000 C 
BRANCH   7   8
ATOM      8  C   UNL     1     169.662 175.388 162.398  1.00  0.00    -0.000 C 
BRANCH   8   9
ATOM      9  C   UNL     1     169.129 174.020 162.877  1.00  0.00    -0.000 C 
BRANCH   9  10
ATOM     10  C   UNL     1     167.763 174.093 163.587  1.00  0.00    -0.000 C 
BRANCH  10  11
ATOM     11  C   UNL     1     166.738 173.038 163.136  1.00  0.00    -0.000 C 
BRANCH  11  12
ATOM     12  C   UNL     1     166.355 173.175 161.651  1.00  0.00    -0.000 C 
BRANCH  12  13
ATOM     13  C   UNL     1     165.778 171.871 161.074  1.00  0.00    -0.000 C 
BRANCH  13  14
ATOM     14  C   UNL     1     165.104 172.085 159.710  1.00  0.00    -0.000 C 
BRANCH  14  15
ATOM     15  C   UNL     1     165.421 170.931 158.753  1.00  0.00    -0.003 C 
ATOM     16  C   UNL     1     166.674 170.178 159.193  1.00  0.00     0.004 C 
ENDBRANCH  14  15
ENDBRANCH  13  14
ENDBRANCH  12  13
ENDBRANCH  11  12
ENDBRANCH  10  11
ENDBRANCH   9  10
ENDBRANCH   8   9
ENDBRANCH   7   8
ENDBRANCH   6   7
ENDBRANCH   5   6
ENDBRANCH   4   5
ENDBRANCH   3   4
ENDBRANCH   2   3
ENDBRANCH   1   2
BRANCH   1  17
ATOM     17  C   UNL     1     172.435 173.291 161.249  1.00  0.00     0.000 C 
BRANCH  17  18
ATOM     18  C   UNL     1     173.396 172.780 162.343  1.00  0.00     0.000 C 
BRANCH  18  19
ATOM     19  C   UNL     1     172.884 171.509 163.048  1.00  0.00     0.000 C 
BRANCH  19  20
ATOM     20  C   UNL     1     171.884 171.808 164.180  1.00  0.00     0.000 C 
BRANCH  20  21
ATOM     21  C   UNL     1     171.041 170.608 164.649  1.00  0.00     0.000 C 
BRANCH  21  22
ATOM     22  C   UNL     1     169.526 170.883 164.625  1.00  0.00     0.000 C 
BRANCH  22  23
ATOM     23  C   UNL     1     168.774 169.917 163.693  1.00  0.00     0.000 C 
BRANCH  23  24
ATOM     24  C   UNL     1     168.882 170.315 162.213  1.00  0.00     0.000 C 
BRANCH  24  25
ATOM     25  C   UNL     1     169.653 169.254 161.416  1.00  0.00     0.000 C 
BRANCH  25  26
ATOM     26  C   UNL     1     169.866 167.982 162.253  1.00  0.00     0.000 C 
BRANCH  26  27
ATOM     27  C   UNL     1     169.759 166.696 161.414  1.00  0.00     0.002 C 
BRANCH  27  28
ATOM     28  C   UNL     1     169.943 166.958 159.911  1.00  0.00     0.028 C 
BRANCH  28  29
ATOM     29  C   UNL     1     168.808 166.329 159.098  1.00  0.00     0.156 C 
BRANCH  29  30
ATOM     30  O   UNL     1     168.236 165.266 159.814  1.00  0.00    -0.396 OA
ATOM     31  H   UNL     1     167.597 164.820 159.200  1.00  0.00     0.210 HD
ENDBRANCH  29  30
ENDBRANCH  28  29
ENDBRANCH  27  28
ENDBRANCH  26  27
ENDBRANCH  25  26
ENDBRANCH  24  25
ENDBRANCH  23  24
ENDBRANCH  22  23
ENDBRANCH  21  22
ENDBRANCH  20  21
ENDBRANCH  19  20
ENDBRANCH  18  19
ENDBRANCH  17  18
ENDBRANCH   1  17
TORSDOF 28
ENDMDL
