MODEL 1
REMARK VINA RESULT:    -5.183      0.000      0.000
REMARK INTER + INTRA:         -11.719
REMARK INTER:                 -10.031
REMARK INTRA:                  -1.688
REMARK UNBOUND:                -1.688
REMARK SMILES CCCCCCCCCCCCCCCCCC(=O)[O-]
REMARK SMILES IDX 10 1 11 2 12 3 13 4 14 5 15 6 16 7 17 8 18 9 19 10 20 11
REMARK SMILES IDX 9 12 8 13 7 14 6 15 5 16 4 17 3 18 2 19 1 20
REMARK H PARENT
REMARK Flexibility Score: inf
ROOT
ATOM      1  C   UNL     1     -21.811  46.525  85.991  1.00  0.00     0.000 C 
ENDROOT
BRANCH   1   2
ATOM      2  C   UNL     1     -23.319  46.804  85.858  1.00  0.00     0.000 C 
BRANCH   2   3
ATOM      3  C   UNL     1     -24.083  46.588  87.174  1.00  0.00     0.000 C 
BRANCH   3   4
ATOM      4  C   UNL     1     -25.508  46.093  86.904  1.00  0.00     0.000 C 
BRANCH   4   5
ATOM      5  C   UNL     1     -26.259  45.834  88.219  1.00  0.00     0.000 C 
BRANCH   5   6
ATOM      6  C   UNL     1     -25.312  45.680  89.419  1.00  0.00     0.000 C 
BRANCH   6   7
ATOM      7  C   UNL     1     -25.748  44.557  90.377  1.00  0.00     0.006 C 
BRANCH   7   8
ATOM      8  C   UNL     1     -26.984  43.805  89.863  1.00  0.00     0.053 C 
BRANCH   8   9
ATOM      9  C   UNL     1     -27.730  43.137  90.976  1.00  0.00     0.041 C 
ATOM     10  O   UNL     1     -27.114  42.725  91.994  1.00  0.00    -0.550 OA
ATOM     11  O   UNL     1     -29.111  43.000  90.906  1.00  0.00    -0.550 OA
ENDBRANCH   8   9
ENDBRANCH   7   8
ENDBRANCH   6   7
ENDBRANCH   5   6
ENDBRANCH   4   5
ENDBRANCH   3   4
ENDBRANCH   2   3
ENDBRANCH   1   2
BRANCH   1  12
ATOM     12  C   UNL     1     -21.427  45.497  87.076  1.00  0.00     0.000 C 
BRANCH  12  13
ATOM     13  C   UNL     1     -21.159  44.071  86.560  1.00  0.00    -0.000 C 
BRANCH  13  14
ATOM     14  C   UNL     1     -20.335  44.050  85.265  1.00  0.00    -0.000 C 
BRANCH  14  15
ATOM     15  C   UNL     1     -18.850  44.316  85.556  1.00  0.00    -0.000 C 
BRANCH  15  16
ATOM     16  C   UNL     1     -18.072  44.800  84.319  1.00  0.00    -0.000 C 
BRANCH  16  17
ATOM     17  C   UNL     1     -17.790  46.313  84.270  1.00  0.00    -0.000 C 
BRANCH  17  18
ATOM     18  C   UNL     1     -18.962  47.124  83.690  1.00  0.00    -0.000 C 
BRANCH  18  19
ATOM     19  C   UNL     1     -19.574  46.464  82.445  1.00  0.00    -0.003 C 
ATOM     20  C   UNL     1     -21.081  46.694  82.331  1.00  0.00     0.004 C 
ENDBRANCH  18  19
ENDBRANCH  17  18
ENDBRANCH  16  17
ENDBRANCH  15  16
ENDBRANCH  14  15
ENDBRANCH  13  14
ENDBRANCH  12  13
ENDBRANCH   1  12
TORSDOF 16
ENDMDL
MODEL 2
REMARK VINA RESULT:    -5.035      1.438      2.026
REMARK INTER + INTRA:         -11.433
REMARK INTER:                  -9.370
REMARK INTRA:                  -2.063
REMARK UNBOUND:                -1.688
REMARK SMILES CCCCCCCCCCCCCCCCCC(=O)[O-]
REMARK SMILES IDX 10 1 11 2 12 3 13 4 14 5 15 6 16 7 17 8 18 9 19 10 20 11
REMARK SMILES IDX 9 12 8 13 7 14 6 15 5 16 4 17 3 18 2 19 1 20
REMARK H PARENT
REMARK Flexibility Score: inf
ROOT
ATOM      1  C   UNL     1     -23.459  44.939  87.372  1.00  0.00     0.000 C 
ENDROOT
BRANCH   1   2
ATOM      2  C   UNL     1     -23.703  46.426  87.054  1.00  0.00     0.000 C 
BRANCH   2   3
ATOM      3  C   UNL     1     -25.106  46.692  86.488  1.00  0.00     0.000 C 
BRANCH   3   4
ATOM      4  C   UNL     1     -26.179  45.997  87.334  1.00  0.00     0.000 C 
BRANCH   4   5
ATOM      5  C   UNL     1     -26.536  46.838  88.569  1.00  0.00     0.000 C 
BRANCH   5   6
ATOM      6  C   UNL     1     -26.153  46.146  89.887  1.00  0.00     0.000 C 
BRANCH   6   7
ATOM      7  C   UNL     1     -26.246  44.612  89.799  1.00  0.00     0.006 C 
BRANCH   7   8
ATOM      8  C   UNL     1     -27.059  44.015  90.956  1.00  0.00     0.053 C 
BRANCH   8   9
ATOM      9  C   UNL     1     -28.150  43.116  90.462  1.00  0.00     0.041 C 
ATOM     10  O   UNL     1     -28.175  42.754  89.255  1.00  0.00    -0.550 OA
ATOM     11  O   UNL     1     -29.120  42.650  91.340  1.00  0.00    -0.550 OA
ENDBRANCH   8   9
ENDBRANCH   7   8
ENDBRANCH   6   7
ENDBRANCH   5   6
ENDBRANCH   4   5
ENDBRANCH   3   4
ENDBRANCH   2   3
ENDBRANCH   1   2
BRANCH   1  12
ATOM     12  C   UNL     1     -22.570  44.670  88.604  1.00  0.00     0.000 C 
BRANCH  12  13
ATOM     13  C   UNL     1     -22.009  43.240  88.705  1.00  0.00    -0.000 C 
BRANCH  13  14
ATOM     14  C   UNL     1     -20.648  43.082  88.010  1.00  0.00    -0.000 C 
BRANCH  14  15
ATOM     15  C   UNL     1     -20.818  42.500  86.599  1.00  0.00    -0.000 C 
BRANCH  15  16
ATOM     16  C   UNL     1     -19.876  43.143  85.565  1.00  0.00    -0.000 C 
BRANCH  16  17
ATOM     17  C   UNL     1     -19.430  44.582  85.889  1.00  0.00    -0.000 C 
BRANCH  17  18
ATOM     18  C   UNL     1     -20.423  45.645  85.388  1.00  0.00    -0.000 C 
BRANCH  18  19
ATOM     19  C   UNL     1     -21.017  45.295  84.014  1.00  0.00    -0.003 C 
ATOM     20  C   UNL     1     -20.299  45.996  82.862  1.00  0.00     0.004 C 
ENDBRANCH  18  19
ENDBRANCH  17  18
ENDBRANCH  16  17
ENDBRANCH  15  16
ENDBRANCH  14  15
ENDBRANCH  13  14
ENDBRANCH  12  13
ENDBRANCH   1  12
TORSDOF 16
ENDMDL
MODEL 3
REMARK VINA RESULT:    -5.023      5.585      7.869
REMARK INTER + INTRA:         -11.410
REMARK INTER:                  -9.771
REMARK INTRA:                  -1.639
REMARK UNBOUND:                -1.688
REMARK SMILES CCCCCCCCCCCCCCCCCC(=O)[O-]
REMARK SMILES IDX 10 1 11 2 12 3 13 4 14 5 15 6 16 7 17 8 18 9 19 10 20 11
REMARK SMILES IDX 9 12 8 13 7 14 6 15 5 16 4 17 3 18 2 19 1 20
REMARK H PARENT
REMARK Flexibility Score: inf
ROOT
ATOM      1  C   UNL     1     -19.704  42.964  85.761  1.00  0.00     0.000 C 
ENDROOT
BRANCH   1   2
ATOM      2  C   UNL     1     -21.040  43.103  86.512  1.00  0.00     0.000 C 
BRANCH   2   3
ATOM      3  C   UNL     1     -21.539  41.771  87.093  1.00  0.00     0.000 C 
BRANCH   3   4
ATOM      4  C   UNL     1     -20.430  40.713  87.067  1.00  0.00     0.000 C 
BRANCH   4   5
ATOM      5  C   UNL     1     -21.021  39.296  87.096  1.00  0.00     0.000 C 
BRANCH   5   6
ATOM      6  C   UNL     1     -20.890  38.573  85.746  1.00  0.00     0.000 C 
BRANCH   6   7
ATOM      7  C   UNL     1     -19.573  37.785  85.622  1.00  0.00     0.006 C 
BRANCH   7   8
ATOM      8  C   UNL     1     -19.057  37.745  84.176  1.00  0.00     0.053 C 
BRANCH   8   9
ATOM      9  C   UNL     1     -17.857  36.860  84.040  1.00  0.00     0.041 C 
ATOM     10  O   UNL     1     -17.754  35.819  84.742  1.00  0.00    -0.550 OA
ATOM     11  O   UNL     1     -16.868  37.165  83.113  1.00  0.00    -0.550 OA
ENDBRANCH   8   9
ENDBRANCH   7   8
ENDBRANCH   6   7
ENDBRANCH   5   6
ENDBRANCH   4   5
ENDBRANCH   3   4
ENDBRANCH   2   3
ENDBRANCH   1   2
BRANCH   1  12
ATOM     12  C   UNL     1     -18.854  44.251  85.691  1.00  0.00     0.000 C 
BRANCH  12  13
ATOM     13  C   UNL     1     -18.410  44.665  84.278  1.00  0.00    -0.000 C 
BRANCH  13  14
ATOM     14  C   UNL     1     -17.644  45.996  84.258  1.00  0.00    -0.000 C 
BRANCH  14  15
ATOM     15  C   UNL     1     -18.521  47.125  83.694  1.00  0.00    -0.000 C 
BRANCH  15  16
ATOM     16  C   UNL     1     -19.505  46.639  82.615  1.00  0.00    -0.000 C 
BRANCH  16  17
ATOM     17  C   UNL     1     -20.974  47.050  82.833  1.00  0.00    -0.000 C 
BRANCH  17  18
ATOM     18  C   UNL     1     -21.698  46.168  83.865  1.00  0.00    -0.000 C 
BRANCH  18  19
ATOM     19  C   UNL     1     -22.257  46.980  85.043  1.00  0.00    -0.003 C 
ATOM     20  C   UNL     1     -21.452  46.793  86.328  1.00  0.00     0.004 C 
ENDBRANCH  18  19
ENDBRANCH  17  18
ENDBRANCH  16  17
ENDBRANCH  15  16
ENDBRANCH  14  15
ENDBRANCH  13  14
ENDBRANCH  12  13
ENDBRANCH   1  12
TORSDOF 16
ENDMDL
MODEL 4
REMARK VINA RESULT:    -4.992      7.107      9.566
REMARK INTER + INTRA:         -11.350
REMARK INTER:                  -9.380
REMARK INTRA:                  -1.970
REMARK UNBOUND:                -1.688
REMARK SMILES CCCCCCCCCCCCCCCCCC(=O)[O-]
REMARK SMILES IDX 10 1 11 2 12 3 13 4 14 5 15 6 16 7 17 8 18 9 19 10 20 11
REMARK SMILES IDX 9 12 8 13 7 14 6 15 5 16 4 17 3 18 2 19 1 20
REMARK H PARENT
REMARK Flexibility Score: inf
ROOT
ATOM      1  C   UNL     1     -18.378  38.177  90.441  1.00  0.00     0.000 C 
ENDROOT
BRANCH   1   2
ATOM      2  C   UNL     1     -19.709  37.747  89.799  1.00  0.00     0.000 C 
BRANCH   2   3
ATOM      3  C   UNL     1     -19.658  37.750  88.264  1.00  0.00     0.000 C 
BRANCH   3   4
ATOM      4  C   UNL     1     -21.048  38.007  87.670  1.00  0.00     0.000 C 
BRANCH   4   5
ATOM      5  C   UNL     1     -20.948  38.805  86.361  1.00  0.00     0.000 C 
BRANCH   5   6
ATOM      6  C   UNL     1     -19.589  38.633  85.666  1.00  0.00     0.000 C 
BRANCH   6   7
ATOM      7  C   UNL     1     -19.595  37.498  84.627  1.00  0.00     0.006 C 
BRANCH   7   8
ATOM      8  C   UNL     1     -18.266  37.404  83.864  1.00  0.00     0.053 C 
BRANCH   8   9
ATOM      9  C   UNL     1     -17.549  36.121  84.155  1.00  0.00     0.041 C 
ATOM     10  O   UNL     1     -17.518  35.664  85.328  1.00  0.00    -0.550 OA
ATOM     11  O   UNL     1     -16.944  35.412  83.124  1.00  0.00    -0.550 OA
ENDBRANCH   8   9
ENDBRANCH   7   8
ENDBRANCH   6   7
ENDBRANCH   5   6
ENDBRANCH   4   5
ENDBRANCH   3   4
ENDBRANCH   2   3
ENDBRANCH   1   2
BRANCH   1  12
ATOM     12  C   UNL     1     -18.503  39.210  91.582  1.00  0.00     0.000 C 
BRANCH  12  13
ATOM     13  C   UNL     1     -18.755  40.658  91.127  1.00  0.00    -0.000 C 
BRANCH  13  14
ATOM     14  C   UNL     1     -20.188  41.133  91.409  1.00  0.00    -0.000 C 
BRANCH  14  15
ATOM     15  C   UNL     1     -21.006  41.209  90.112  1.00  0.00    -0.000 C 
BRANCH  15  16
ATOM     16  C   UNL     1     -20.132  41.400  88.859  1.00  0.00    -0.000 C 
BRANCH  16  17
ATOM     17  C   UNL     1     -20.771  42.236  87.734  1.00  0.00    -0.000 C 
BRANCH  17  18
ATOM     18  C   UNL     1     -19.889  42.324  86.476  1.00  0.00    -0.000 C 
BRANCH  18  19
ATOM     19  C   UNL     1     -20.202  43.565  85.625  1.00  0.00    -0.003 C 
ATOM     20  C   UNL     1     -18.955  44.174  84.984  1.00  0.00     0.004 C 
ENDBRANCH  18  19
ENDBRANCH  17  18
ENDBRANCH  16  17
ENDBRANCH  15  16
ENDBRANCH  14  15
ENDBRANCH  13  14
ENDBRANCH  12  13
ENDBRANCH   1  12
TORSDOF 16
ENDMDL
MODEL 5
REMARK VINA RESULT:    -4.974      2.821      7.611
REMARK INTER + INTRA:         -11.315
REMARK INTER:                  -9.457
REMARK INTRA:                  -1.858
REMARK UNBOUND:                -1.688
REMARK SMILES CCCCCCCCCCCCCCCCCC(=O)[O-]
REMARK SMILES IDX 10 1 11 2 12 3 13 4 14 5 15 6 16 7 17 8 18 9 19 10 20 11
REMARK SMILES IDX 9 12 8 13 7 14 6 15 5 16 4 17 3 18 2 19 1 20
REMARK H PARENT
REMARK Flexibility Score: inf
ROOT
ATOM      1  C   UNL     1     -21.473  46.979  84.657  1.00  0.00     0.000 C 
ENDROOT
BRANCH   1   2
ATOM      2  C   UNL     1     -21.338  46.351  83.257  1.00  0.00     0.000 C 
BRANCH   2   3
ATOM      3  C   UNL     1     -19.918  46.472  82.684  1.00  0.00     0.000 C 
BRANCH   3   4
ATOM      4  C   UNL     1     -18.871  46.454  83.804  1.00  0.00     0.000 C 
BRANCH   4   5
ATOM      5  C   UNL     1     -18.331  45.034  84.030  1.00  0.00     0.000 C 
BRANCH   5   6
ATOM      6  C   UNL     1     -18.687  44.480  85.418  1.00  0.00     0.000 C 
BRANCH   6   7
ATOM      7  C   UNL     1     -19.884  43.514  85.381  1.00  0.00     0.006 C 
BRANCH   7   8
ATOM      8  C   UNL     1     -20.610  43.440  86.732  1.00  0.00     0.053 C 
BRANCH   8   9
ATOM      9  C   UNL     1     -20.417  42.111  87.394  1.00  0.00     0.041 C 
ATOM     10  O   UNL     1     -21.019  41.845  88.468  1.00  0.00    -0.550 OA
ATOM     11  O   UNL     1     -19.601  41.153  86.807  1.00  0.00    -0.550 OA
ENDBRANCH   8   9
ENDBRANCH   7   8
ENDBRANCH   6   7
ENDBRANCH   5   6
ENDBRANCH   4   5
ENDBRANCH   3   4
ENDBRANCH   2   3
ENDBRANCH   1   2
BRANCH   1  12
ATOM     12  C   UNL     1     -22.795  46.670  85.390  1.00  0.00     0.000 C 
BRANCH  12  13
ATOM     13  C   UNL     1     -22.665  46.452  86.908  1.00  0.00    -0.000 C 
BRANCH  13  14
ATOM     14  C   UNL     1     -23.813  45.616  87.491  1.00  0.00    -0.000 C 
BRANCH  14  15
ATOM     15  C   UNL     1     -25.171  46.106  86.967  1.00  0.00    -0.000 C 
BRANCH  15  16
ATOM     16  C   UNL     1     -25.863  47.096  87.921  1.00  0.00    -0.000 C 
BRANCH  16  17
ATOM     17  C   UNL     1     -25.725  46.769  89.420  1.00  0.00    -0.000 C 
BRANCH  17  18
ATOM     18  C   UNL     1     -27.063  46.387  90.077  1.00  0.00    -0.000 C 
BRANCH  18  19
ATOM     19  C   UNL     1     -27.034  44.980  90.694  1.00  0.00    -0.003 C 
ATOM     20  C   UNL     1     -25.771  44.199  90.333  1.00  0.00     0.004 C 
ENDBRANCH  18  19
ENDBRANCH  17  18
ENDBRANCH  16  17
ENDBRANCH  15  16
ENDBRANCH  14  15
ENDBRANCH  13  14
ENDBRANCH  12  13
ENDBRANCH   1  12
TORSDOF 16
ENDMDL
MODEL 6
REMARK VINA RESULT:    -4.973      1.010      2.864
REMARK INTER + INTRA:         -11.313
REMARK INTER:                  -9.421
REMARK INTRA:                  -1.892
REMARK UNBOUND:                -1.688
REMARK SMILES CCCCCCCCCCCCCCCCCC(=O)[O-]
REMARK SMILES IDX 10 1 11 2 12 3 13 4 14 5 15 6 16 7 17 8 18 9 19 10 20 11
REMARK SMILES IDX 9 12 8 13 7 14 6 15 5 16 4 17 3 18 2 19 1 20
REMARK H PARENT
REMARK Flexibility Score: inf
ROOT
ATOM      1  C   UNL     1     -21.668  47.086  84.896  1.00  0.00     0.000 C 
ENDROOT
BRANCH   1   2
ATOM      2  C   UNL     1     -22.844  46.876  85.867  1.00  0.00     0.000 C 
BRANCH   2   3
ATOM      3  C   UNL     1     -22.442  47.061  87.338  1.00  0.00     0.000 C 
BRANCH   3   4
ATOM      4  C   UNL     1     -23.543  46.549  88.275  1.00  0.00     0.000 C 
BRANCH   4   5
ATOM      5  C   UNL     1     -24.518  45.628  87.526  1.00  0.00     0.000 C 
BRANCH   5   6
ATOM      6  C   UNL     1     -25.906  45.576  88.184  1.00  0.00     0.000 C 
BRANCH   6   7
ATOM      7  C   UNL     1     -25.835  45.263  89.690  1.00  0.00     0.006 C 
BRANCH   7   8
ATOM      8  C   UNL     1     -27.209  45.367  90.367  1.00  0.00     0.053 C 
BRANCH   8   9
ATOM      9  C   UNL     1     -27.677  44.039  90.878  1.00  0.00     0.041 C 
ATOM     10  O   UNL     1     -28.786  43.571  90.505  1.00  0.00    -0.550 OA
ATOM     11  O   UNL     1     -26.874  43.302  91.739  1.00  0.00    -0.550 OA
ENDBRANCH   8   9
ENDBRANCH   7   8
ENDBRANCH   6   7
ENDBRANCH   5   6
ENDBRANCH   4   5
ENDBRANCH   3   4
ENDBRANCH   2   3
ENDBRANCH   1   2
BRANCH   1  12
ATOM     12  C   UNL     1     -21.709  46.219  83.620  1.00  0.00     0.000 C 
BRANCH  12  13
ATOM     13  C   UNL     1     -20.900  46.768  82.431  1.00  0.00    -0.000 C 
BRANCH  13  14
ATOM     14  C   UNL     1     -19.417  46.985  82.766  1.00  0.00    -0.000 C 
BRANCH  14  15
ATOM     15  C   UNL     1     -18.734  45.654  83.117  1.00  0.00    -0.000 C 
BRANCH  15  16
ATOM     16  C   UNL     1     -17.781  45.765  84.321  1.00  0.00    -0.000 C 
BRANCH  16  17
ATOM     17  C   UNL     1     -17.873  44.614  85.340  1.00  0.00    -0.000 C 
BRANCH  17  18
ATOM     18  C   UNL     1     -19.263  43.957  85.380  1.00  0.00    -0.000 C 
BRANCH  18  19
ATOM     19  C   UNL     1     -20.051  44.323  86.648  1.00  0.00    -0.003 C 
ATOM     20  C   UNL     1     -21.288  43.448  86.851  1.00  0.00     0.004 C 
ENDBRANCH  18  19
ENDBRANCH  17  18
ENDBRANCH  16  17
ENDBRANCH  15  16
ENDBRANCH  14  15
ENDBRANCH  13  14
ENDBRANCH  12  13
ENDBRANCH   1  12
TORSDOF 16
ENDMDL
MODEL 7
REMARK VINA RESULT:    -4.938      5.331      8.519
REMARK INTER + INTRA:         -11.246
REMARK INTER:                  -9.760
REMARK INTRA:                  -1.486
REMARK UNBOUND:                -1.688
REMARK SMILES CCCCCCCCCCCCCCCCCC(=O)[O-]
REMARK SMILES IDX 10 1 11 2 12 3 13 4 14 5 15 6 16 7 17 8 18 9 19 10 20 11
REMARK SMILES IDX 9 12 8 13 7 14 6 15 5 16 4 17 3 18 2 19 1 20
REMARK H PARENT
REMARK Flexibility Score: inf
ROOT
ATOM      1  C   UNL     1     -21.583  42.621  88.345  1.00  0.00     0.000 C 
ENDROOT
BRANCH   1   2
ATOM      2  C   UNL     1     -21.221  42.816  86.862  1.00  0.00     0.000 C 
BRANCH   2   3
ATOM      3  C   UNL     1     -20.225  43.964  86.637  1.00  0.00     0.000 C 
BRANCH   3   4
ATOM      4  C   UNL     1     -19.343  43.692  85.413  1.00  0.00     0.000 C 
BRANCH   4   5
ATOM      5  C   UNL     1     -18.134  44.639  85.385  1.00  0.00     0.000 C 
BRANCH   5   6
ATOM      6  C   UNL     1     -17.966  45.344  84.031  1.00  0.00     0.000 C 
BRANCH   6   7
ATOM      7  C   UNL     1     -18.510  46.784  84.042  1.00  0.00     0.006 C 
BRANCH   7   8
ATOM      8  C   UNL     1     -19.406  47.074  82.829  1.00  0.00     0.053 C 
BRANCH   8   9
ATOM      9  C   UNL     1     -20.818  46.635  83.065  1.00  0.00     0.041 C 
ATOM     10  O   UNL     1     -21.565  46.355  82.090  1.00  0.00    -0.550 OA
ATOM     11  O   UNL     1     -21.298  46.500  84.361  1.00  0.00    -0.550 OA
ENDBRANCH   8   9
ENDBRANCH   7   8
ENDBRANCH   6   7
ENDBRANCH   5   6
ENDBRANCH   4   5
ENDBRANCH   3   4
ENDBRANCH   2   3
ENDBRANCH   1   2
BRANCH   1  12
ATOM     12  C   UNL     1     -20.594  41.757  89.154  1.00  0.00     0.000 C 
BRANCH  12  13
ATOM     13  C   UNL     1     -21.005  41.481  90.611  1.00  0.00    -0.000 C 
BRANCH  13  14
ATOM     14  C   UNL     1     -20.358  40.213  91.185  1.00  0.00    -0.000 C 
BRANCH  14  15
ATOM     15  C   UNL     1     -20.987  38.952  90.574  1.00  0.00    -0.000 C 
BRANCH  15  16
ATOM     16  C   UNL     1     -19.942  37.902  90.153  1.00  0.00    -0.000 C 
BRANCH  16  17
ATOM     17  C   UNL     1     -19.768  37.720  88.633  1.00  0.00    -0.000 C 
BRANCH  17  18
ATOM     18  C   UNL     1     -20.935  38.307  87.821  1.00  0.00    -0.000 C 
BRANCH  18  19
ATOM     19  C   UNL     1     -20.458  39.088  86.586  1.00  0.00    -0.003 C 
ATOM     20  C   UNL     1     -20.022  38.176  85.440  1.00  0.00     0.004 C 
ENDBRANCH  18  19
ENDBRANCH  17  18
ENDBRANCH  16  17
ENDBRANCH  15  16
ENDBRANCH  14  15
ENDBRANCH  13  14
ENDBRANCH  12  13
ENDBRANCH   1  12
TORSDOF 16
ENDMDL
MODEL 8
REMARK VINA RESULT:    -4.834      2.795      6.651
REMARK INTER + INTRA:         -11.043
REMARK INTER:                  -8.689
REMARK INTRA:                  -2.354
REMARK UNBOUND:                -1.688
REMARK SMILES CCCCCCCCCCCCCCCCCC(=O)[O-]
REMARK SMILES IDX 10 1 11 2 12 3 13 4 14 5 15 6 16 7 17 8 18 9 19 10 20 11
REMARK SMILES IDX 9 12 8 13 7 14 6 15 5 16 4 17 3 18 2 19 1 20
REMARK H PARENT
REMARK Flexibility Score: inf
ROOT
ATOM      1  C   UNL     1     -21.353  46.153  83.377  1.00  0.00     0.000 C 
ENDROOT
BRANCH   1   2
ATOM      2  C   UNL     1     -20.009  46.585  82.764  1.00  0.00     0.000 C 
BRANCH   2   3
ATOM      3  C   UNL     1     -18.836  46.454  83.747  1.00  0.00     0.000 C 
BRANCH   3   4
ATOM      4  C   UNL     1     -18.367  44.998  83.850  1.00  0.00     0.000 C 
BRANCH   4   5
ATOM      5  C   UNL     1     -18.586  44.449  85.268  1.00  0.00     0.000 C 
BRANCH   5   6
ATOM      6  C   UNL     1     -19.737  43.434  85.338  1.00  0.00     0.000 C 
BRANCH   6   7
ATOM      7  C   UNL     1     -19.475  42.310  86.357  1.00  0.00     0.006 C 
BRANCH   7   8
ATOM      8  C   UNL     1     -20.777  41.722  86.918  1.00  0.00     0.053 C 
BRANCH   8   9
ATOM      9  C   UNL     1     -20.589  41.170  88.297  1.00  0.00     0.041 C 
ATOM     10  O   UNL     1     -19.785  40.221  88.495  1.00  0.00    -0.550 OA
ATOM     11  O   UNL     1     -21.273  41.728  89.370  1.00  0.00    -0.550 OA
ENDBRANCH   8   9
ENDBRANCH   7   8
ENDBRANCH   6   7
ENDBRANCH   5   6
ENDBRANCH   4   5
ENDBRANCH   3   4
ENDBRANCH   2   3
ENDBRANCH   1   2
BRANCH   1  12
ATOM     12  C   UNL     1     -21.754  46.897  84.669  1.00  0.00     0.000 C 
BRANCH  12  13
ATOM     13  C   UNL     1     -22.286  46.000  85.801  1.00  0.00    -0.000 C 
BRANCH  13  14
ATOM     14  C   UNL     1     -21.501  46.163  87.111  1.00  0.00    -0.000 C 
BRANCH  14  15
ATOM     15  C   UNL     1     -21.920  45.101  88.137  1.00  0.00    -0.000 C 
BRANCH  15  16
ATOM     16  C   UNL     1     -23.205  44.352  87.738  1.00  0.00    -0.000 C 
BRANCH  16  17
ATOM     17  C   UNL     1     -24.419  44.595  88.654  1.00  0.00    -0.000 C 
BRANCH  17  18
ATOM     18  C   UNL     1     -24.585  46.072  89.051  1.00  0.00    -0.000 C 
BRANCH  18  19
ATOM     19  C   UNL     1     -25.757  46.749  88.323  1.00  0.00    -0.003 C 
ATOM     20  C   UNL     1     -25.900  46.288  86.873  1.00  0.00     0.004 C 
ENDBRANCH  18  19
ENDBRANCH  17  18
ENDBRANCH  16  17
ENDBRANCH  15  16
ENDBRANCH  14  15
ENDBRANCH  13  14
ENDBRANCH  12  13
ENDBRANCH   1  12
TORSDOF 16
ENDMDL
MODEL 9
REMARK VINA RESULT:    -4.818      1.873      4.422
REMARK INTER + INTRA:         -11.012
REMARK INTER:                  -8.708
REMARK INTRA:                  -2.304
REMARK UNBOUND:                -1.688
REMARK SMILES CCCCCCCCCCCCCCCCCC(=O)[O-]
REMARK SMILES IDX 10 1 11 2 12 3 13 4 14 5 15 6 16 7 17 8 18 9 19 10 20 11
REMARK SMILES IDX 9 12 8 13 7 14 6 15 5 16 4 17 3 18 2 19 1 20
REMARK H PARENT
REMARK Flexibility Score: inf
ROOT
ATOM      1  C   UNL     1     -19.975  46.264  82.743  1.00  0.00     0.000 C 
ENDROOT
BRANCH   1   2
ATOM      2  C   UNL     1     -21.365  46.233  83.403  1.00  0.00     0.000 C 
BRANCH   2   3
ATOM      3  C   UNL     1     -21.453  47.125  84.651  1.00  0.00     0.000 C 
BRANCH   3   4
ATOM      4  C   UNL     1     -22.485  46.578  85.644  1.00  0.00     0.000 C 
BRANCH   4   5
ATOM      5  C   UNL     1     -22.051  46.847  87.092  1.00  0.00     0.000 C 
BRANCH   5   6
ATOM      6  C   UNL     1     -23.043  46.283  88.121  1.00  0.00     0.000 C 
BRANCH   6   7
ATOM      7  C   UNL     1     -24.090  45.351  87.485  1.00  0.00     0.006 C 
BRANCH   7   8
ATOM      8  C   UNL     1     -25.506  45.629  88.008  1.00  0.00     0.053 C 
BRANCH   8   9
ATOM      9  C   UNL     1     -25.763  44.937  89.311  1.00  0.00     0.041 C 
ATOM     10  O   UNL     1     -25.228  43.823  89.553  1.00  0.00    -0.550 OA
ATOM     11  O   UNL     1     -26.564  45.539  90.273  1.00  0.00    -0.550 OA
ENDBRANCH   8   9
ENDBRANCH   7   8
ENDBRANCH   6   7
ENDBRANCH   5   6
ENDBRANCH   4   5
ENDBRANCH   3   4
ENDBRANCH   2   3
ENDBRANCH   1   2
BRANCH   1  12
ATOM     12  C   UNL     1     -18.796  46.504  83.710  1.00  0.00     0.000 C 
BRANCH  12  13
ATOM     13  C   UNL     1     -18.008  45.243  84.106  1.00  0.00    -0.000 C 
BRANCH  13  14
ATOM     14  C   UNL     1     -18.409  44.697  85.484  1.00  0.00    -0.000 C 
BRANCH  14  15
ATOM     15  C   UNL     1     -19.234  43.409  85.345  1.00  0.00    -0.000 C 
BRANCH  15  16
ATOM     16  C   UNL     1     -20.668  43.551  85.885  1.00  0.00    -0.000 C 
BRANCH  16  17
ATOM     17  C   UNL     1     -20.820  43.357  87.406  1.00  0.00    -0.000 C 
BRANCH  17  18
ATOM     18  C   UNL     1     -21.849  42.275  87.774  1.00  0.00    -0.000 C 
BRANCH  18  19
ATOM     19  C   UNL     1     -21.446  40.882  87.263  1.00  0.00    -0.003 C 
ATOM     20  C   UNL     1     -20.247  40.300  88.011  1.00  0.00     0.004 C 
ENDBRANCH  18  19
ENDBRANCH  17  18
ENDBRANCH  16  17
ENDBRANCH  15  16
ENDBRANCH  14  15
ENDBRANCH  13  14
ENDBRANCH  12  13
ENDBRANCH   1  12
TORSDOF 16
ENDMDL
