MODEL 1
REMARK VINA RESULT:    -6.825      0.000      0.000
REMARK INTER + INTRA:          -8.042
REMARK INTER:                  -7.823
REMARK INTRA:                  -0.220
REMARK UNBOUND:                -0.220
REMARK SMILES C=C(C)[C@H]1CC[C@]2(C(=O)[O-])CC[C@]3(C)[C@H](CC[C@H]4[C@]5(C)CC[C@@H](O)C(C)(C)[C@H]5CC[C@]43C)[C@@H]12
REMARK SMILES IDX 7 1 6 2 33 3 11 4 5 5 15 6 4 7 12 8 16 9 13 10 17 11 31 12
REMARK SMILES IDX 14 13 18 14 30 15 32 16 19 17 29 18 21 19 20 20 28 21 22 22
REMARK SMILES IDX 25 23 23 24 26 25 27 26 8 27 9 28 10 29 2 30 3 31 1 32 24 33
REMARK H PARENT 24 34
REMARK Flexibility Score: inf
ROOT
ATOM      1  C   UNL     1       1.689  25.916  26.883  1.00  0.00     0.014 C 
ATOM      2  C   UNL     1       2.363  26.000  25.500  1.00  0.00     0.014 C 
ATOM      3  C   UNL     1       0.267  26.405  26.512  1.00  0.00     0.012 C 
ATOM      4  C   UNL     1       1.598  24.494  27.471  1.00  0.00     0.014 C 
ATOM      5  C   UNL     1       1.831  27.307  24.876  1.00  0.00     0.009 C 
ATOM      6  C   UNL     1      -0.719  26.381  27.713  1.00  0.00     0.000 C 
ATOM      7  C   UNL     1       0.463  27.601  25.546  1.00  0.00     0.018 C 
ATOM      8  C   UNL     1       0.561  24.418  28.638  1.00  0.00     0.008 C 
ATOM      9  C   UNL     1      -2.079  27.009  27.474  1.00  0.00     0.005 C 
ATOM     10  C   UNL     1      -0.911  24.925  28.303  1.00  0.00    -0.024 C 
ATOM     11  C   UNL     1      -2.737  27.324  28.823  1.00  0.00     0.005 C 
ATOM     12  C   UNL     1      -1.964  24.971  29.596  1.00  0.00    -0.024 C 
ATOM     13  C   UNL     1      -1.439  23.901  27.226  1.00  0.00     0.012 C 
ATOM     14  C   UNL     1      -2.264  26.460  30.069  1.00  0.00     0.002 C 
ATOM     15  C   UNL     1      -3.395  24.340  29.268  1.00  0.00     0.008 C 
ATOM     16  C   UNL     1      -1.295  24.140  30.748  1.00  0.00     0.012 C 
ATOM     17  C   UNL     1      -3.267  26.610  31.339  1.00  0.00    -0.026 C 
ATOM     18  C   UNL     1      -4.640  24.875  30.043  1.00  0.00     0.005 C 
ATOM     19  C   UNL     1      -2.478  26.666  32.693  1.00  0.00     0.010 C 
ATOM     20  C   UNL     1      -4.019  27.978  31.235  1.00  0.00     0.012 C 
ATOM     21  C   UNL     1      -4.264  25.393  31.430  1.00  0.00     0.003 C 
ATOM     22  C   UNL     1      -3.220  26.051  33.917  1.00  0.00     0.033 C 
ATOM     23  C   UNL     1      -5.387  25.481  32.542  1.00  0.00    -0.006 C 
ATOM     24  C   UNL     1      -4.775  26.095  33.872  1.00  0.00     0.120 C 
ATOM     25  C   UNL     1      -6.647  26.247  32.058  1.00  0.00     0.014 C 
ATOM     26  C   UNL     1      -5.881  24.041  32.887  1.00  0.00     0.014 C 
ENDROOT
BRANCH   1  27
ATOM     27  C   UNL     1       2.492  26.770  27.875  1.00  0.00     0.048 C 
ATOM     28  O   UNL     1       1.956  27.296  28.883  1.00  0.00    -0.550 OA
ATOM     29  O   UNL     1       3.875  26.867  27.751  1.00  0.00    -0.550 OA
ENDBRANCH   1  27
BRANCH   7  30
ATOM     30  C   UNL     1       0.336  29.025  26.112  1.00  0.00    -0.077 C 
ATOM     31  C   UNL     1      -0.967  29.776  25.959  1.00  0.00     0.039 C 
ATOM     32  C   UNL     1       1.375  29.719  26.609  1.00  0.00     0.008 C 
ENDBRANCH   7  30
BRANCH  24  33
ATOM     33  O   UNL     1      -5.242  27.397  34.120  1.00  0.00    -0.393 OA
ATOM     34  H   UNL     1      -6.231  27.349  34.204  1.00  0.00     0.210 HD
ENDBRANCH  24  33
TORSDOF 3
ENDMDL
MODEL 2
REMARK VINA RESULT:    -6.726      1.401      1.606
REMARK INTER + INTRA:          -7.929
REMARK INTER:                  -7.710
REMARK INTRA:                  -0.219
REMARK UNBOUND:                -0.220
REMARK SMILES C=C(C)[C@H]1CC[C@]2(C(=O)[O-])CC[C@]3(C)[C@H](CC[C@H]4[C@]5(C)CC[C@@H](O)C(C)(C)[C@H]5CC[C@]43C)[C@@H]12
REMARK SMILES IDX 7 1 6 2 33 3 11 4 5 5 15 6 4 7 12 8 16 9 13 10 17 11 31 12
REMARK SMILES IDX 14 13 18 14 30 15 32 16 19 17 29 18 21 19 20 20 28 21 22 22
REMARK SMILES IDX 25 23 23 24 26 25 27 26 8 27 9 28 10 29 2 30 3 31 1 32 24 33
REMARK H PARENT 24 34
REMARK Flexibility Score: inf
ROOT
ATOM      1  C   UNL     1       1.381  25.326  27.768  1.00  0.00     0.014 C 
ATOM      2  C   UNL     1       2.339  24.934  26.627  1.00  0.00     0.014 C 
ATOM      3  C   UNL     1       0.149  25.762  26.938  1.00  0.00     0.012 C 
ATOM      4  C   UNL     1       0.978  24.165  28.699  1.00  0.00     0.014 C 
ATOM      5  C   UNL     1       2.132  26.013  25.544  1.00  0.00     0.009 C 
ATOM      6  C   UNL     1      -1.064  26.175  27.816  1.00  0.00     0.000 C 
ATOM      7  C   UNL     1       0.703  26.585  25.747  1.00  0.00     0.018 C 
ATOM      8  C   UNL     1      -0.286  24.520  29.549  1.00  0.00     0.008 C 
ATOM      9  C   UNL     1      -2.246  26.780  27.083  1.00  0.00     0.005 C 
ATOM     10  C   UNL     1      -1.571  24.989  28.735  1.00  0.00    -0.024 C 
ATOM     11  C   UNL     1      -3.129  27.539  28.082  1.00  0.00     0.005 C 
ATOM     12  C   UNL     1      -2.859  25.499  29.663  1.00  0.00    -0.024 C 
ATOM     13  C   UNL     1      -1.989  23.716  27.903  1.00  0.00     0.012 C 
ATOM     14  C   UNL     1      -3.053  27.077  29.600  1.00  0.00     0.002 C 
ATOM     15  C   UNL     1      -4.259  24.887  29.191  1.00  0.00     0.008 C 
ATOM     16  C   UNL     1      -2.568  25.027  31.132  1.00  0.00     0.012 C 
ATOM     17  C   UNL     1      -4.274  27.676  30.489  1.00  0.00    -0.026 C 
ATOM     18  C   UNL     1      -5.557  25.714  29.453  1.00  0.00     0.005 C 
ATOM     19  C   UNL     1      -3.792  28.100  31.920  1.00  0.00     0.010 C 
ATOM     20  C   UNL     1      -4.797  28.988  29.817  1.00  0.00     0.012 C 
ATOM     21  C   UNL     1      -5.421  26.613  30.680  1.00  0.00     0.003 C 
ATOM     22  C   UNL     1      -4.852  27.944  33.049  1.00  0.00     0.033 C 
ATOM     23  C   UNL     1      -6.732  27.111  31.411  1.00  0.00    -0.006 C 
ATOM     24  C   UNL     1      -6.342  28.069  32.616  1.00  0.00     0.120 C 
ATOM     25  C   UNL     1      -7.747  27.766  30.436  1.00  0.00     0.014 C 
ATOM     26  C   UNL     1      -7.476  25.883  32.023  1.00  0.00     0.014 C 
ENDROOT
BRANCH   1  27
ATOM     27  C   UNL     1       2.060  26.393  28.638  1.00  0.00     0.048 C 
ATOM     28  O   UNL     1       1.396  27.243  29.284  1.00  0.00    -0.550 OA
ATOM     29  O   UNL     1       3.437  26.357  28.838  1.00  0.00    -0.550 OA
ENDBRANCH   1  27
BRANCH   7  30
ATOM     30  C   UNL     1       0.650  28.120  25.831  1.00  0.00    -0.077 C 
ATOM     31  C   UNL     1      -0.476  28.865  25.153  1.00  0.00     0.039 C 
ATOM     32  C   UNL     1       1.642  28.867  26.347  1.00  0.00     0.008 C 
ENDBRANCH   7  30
BRANCH  24  33
ATOM     33  O   UNL     1      -6.673  29.409  32.358  1.00  0.00    -0.393 OA
ATOM     34  H   UNL     1      -7.278  29.421  31.569  1.00  0.00     0.210 HD
ENDBRANCH  24  33
TORSDOF 3
ENDMDL
MODEL 3
REMARK VINA RESULT:    -6.602      1.636      2.557
REMARK INTER + INTRA:          -7.787
REMARK INTER:                  -7.642
REMARK INTRA:                  -0.145
REMARK UNBOUND:                -0.220
REMARK SMILES C=C(C)[C@H]1CC[C@]2(C(=O)[O-])CC[C@]3(C)[C@H](CC[C@H]4[C@]5(C)CC[C@@H](O)C(C)(C)[C@H]5CC[C@]43C)[C@@H]12
REMARK SMILES IDX 7 1 6 2 33 3 11 4 5 5 15 6 4 7 12 8 16 9 13 10 17 11 31 12
REMARK SMILES IDX 14 13 18 14 30 15 32 16 19 17 29 18 21 19 20 20 28 21 22 22
REMARK SMILES IDX 25 23 23 24 26 25 27 26 8 27 9 28 10 29 2 30 3 31 1 32 24 33
REMARK H PARENT 24 34
REMARK Flexibility Score: inf
ROOT
ATOM      1  C   UNL     1       1.419  25.534  26.560  1.00  0.00     0.014 C 
ATOM      2  C   UNL     1       2.495  26.129  25.631  1.00  0.00     0.014 C 
ATOM      3  C   UNL     1       0.922  26.830  27.247  1.00  0.00     0.012 C 
ATOM      4  C   UNL     1       0.238  24.861  25.833  1.00  0.00     0.014 C 
ATOM      5  C   UNL     1       3.203  27.206  26.477  1.00  0.00     0.009 C 
ATOM      6  C   UNL     1      -0.250  26.584  28.238  1.00  0.00     0.000 C 
ATOM      7  C   UNL     1       2.190  27.664  27.561  1.00  0.00     0.018 C 
ATOM      8  C   UNL     1      -0.987  24.663  26.784  1.00  0.00     0.008 C 
ATOM      9  C   UNL     1      -0.675  27.773  29.079  1.00  0.00     0.005 C 
ATOM     10  C   UNL     1      -1.521  25.968  27.523  1.00  0.00    -0.024 C 
ATOM     11  C   UNL     1      -1.480  27.278  30.287  1.00  0.00     0.005 C 
ATOM     12  C   UNL     1      -2.733  25.713  28.640  1.00  0.00    -0.024 C 
ATOM     13  C   UNL     1      -2.060  26.882  26.356  1.00  0.00     0.012 C 
ATOM     14  C   UNL     1      -2.212  25.877  30.134  1.00  0.00     0.002 C 
ATOM     15  C   UNL     1      -3.945  26.746  28.504  1.00  0.00     0.008 C 
ATOM     16  C   UNL     1      -3.274  24.260  28.390  1.00  0.00     0.012 C 
ATOM     17  C   UNL     1      -3.316  25.628  31.300  1.00  0.00    -0.026 C 
ATOM     18  C   UNL     1      -4.769  27.097  29.783  1.00  0.00     0.005 C 
ATOM     19  C   UNL     1      -3.314  24.137  31.788  1.00  0.00     0.010 C 
ATOM     20  C   UNL     1      -2.933  26.480  32.554  1.00  0.00     0.012 C 
ATOM     21  C   UNL     1      -4.772  25.949  30.789  1.00  0.00     0.003 C 
ATOM     22  C   UNL     1      -4.696  23.592  32.254  1.00  0.00     0.033 C 
ATOM     23  C   UNL     1      -5.930  25.880  31.866  1.00  0.00    -0.006 C 
ATOM     24  C   UNL     1      -5.692  24.640  32.829  1.00  0.00     0.120 C 
ATOM     25  C   UNL     1      -6.101  27.212  32.643  1.00  0.00     0.014 C 
ATOM     26  C   UNL     1      -7.291  25.643  31.140  1.00  0.00     0.014 C 
ENDROOT
BRANCH   1  27
ATOM     27  C   UNL     1       2.072  24.469  27.452  1.00  0.00     0.048 C 
ATOM     28  O   UNL     1       3.192  23.968  27.176  1.00  0.00    -0.550 OA
ATOM     29  O   UNL     1       1.494  24.131  28.673  1.00  0.00    -0.550 OA
ENDBRANCH   1  27
BRANCH   7  30
ATOM     30  C   UNL     1       2.749  27.633  28.993  1.00  0.00    -0.077 C 
ATOM     31  C   UNL     1       2.370  28.726  29.965  1.00  0.00     0.039 C 
ATOM     32  C   UNL     1       3.693  26.767  29.400  1.00  0.00     0.008 C 
ENDBRANCH   7  30
BRANCH  24  33
ATOM     33  O   UNL     1      -5.305  25.037  34.120  1.00  0.00    -0.393 OA
ATOM     34  H   UNL     1      -6.115  25.014  34.695  1.00  0.00     0.210 HD
ENDBRANCH  24  33
TORSDOF 3
ENDMDL
MODEL 4
REMARK VINA RESULT:    -6.496      1.917      7.567
REMARK INTER + INTRA:          -7.665
REMARK INTER:                  -7.445
REMARK INTRA:                  -0.220
REMARK UNBOUND:                -0.220
REMARK SMILES C=C(C)[C@H]1CC[C@]2(C(=O)[O-])CC[C@]3(C)[C@H](CC[C@H]4[C@]5(C)CC[C@@H](O)C(C)(C)[C@H]5CC[C@]43C)[C@@H]12
REMARK SMILES IDX 7 1 6 2 33 3 11 4 5 5 15 6 4 7 12 8 16 9 13 10 17 11 31 12
REMARK SMILES IDX 14 13 18 14 30 15 32 16 19 17 29 18 21 19 20 20 28 21 22 22
REMARK SMILES IDX 25 23 23 24 26 25 27 26 8 27 9 28 10 29 2 30 3 31 1 32 24 33
REMARK H PARENT 24 34
REMARK Flexibility Score: inf
ROOT
ATOM      1  C   UNL     1      -5.600  26.455  30.203  1.00  0.00     0.014 C 
ATOM      2  C   UNL     1      -6.834  26.228  31.098  1.00  0.00     0.014 C 
ATOM      3  C   UNL     1      -4.480  26.055  31.195  1.00  0.00     0.012 C 
ATOM      4  C   UNL     1      -5.527  25.543  28.962  1.00  0.00     0.014 C 
ATOM      5  C   UNL     1      -6.423  26.759  32.486  1.00  0.00     0.009 C 
ATOM      6  C   UNL     1      -3.060  26.114  30.568  1.00  0.00     0.000 C 
ATOM      7  C   UNL     1      -4.875  26.674  32.561  1.00  0.00     0.018 C 
ATOM      8  C   UNL     1      -4.090  25.523  28.346  1.00  0.00     0.008 C 
ATOM      9  C   UNL     1      -1.898  25.907  31.521  1.00  0.00     0.005 C 
ATOM     10  C   UNL     1      -2.906  25.131  29.336  1.00  0.00    -0.024 C 
ATOM     11  C   UNL     1      -0.612  26.441  30.878  1.00  0.00     0.005 C 
ATOM     12  C   UNL     1      -1.370  25.254  28.699  1.00  0.00    -0.024 C 
ATOM     13  C   UNL     1      -3.201  23.630  29.720  1.00  0.00     0.012 C 
ATOM     14  C   UNL     1      -0.576  26.499  29.292  1.00  0.00     0.002 C 
ATOM     15  C   UNL     1      -0.452  23.984  29.014  1.00  0.00     0.008 C 
ATOM     16  C   UNL     1      -1.539  25.385  27.143  1.00  0.00     0.012 C 
ATOM     17  C   UNL     1       0.929  26.717  28.717  1.00  0.00    -0.026 C 
ATOM     18  C   UNL     1       1.093  24.189  29.110  1.00  0.00     0.005 C 
ATOM     19  C   UNL     1       0.941  27.687  27.485  1.00  0.00     0.010 C 
ATOM     20  C   UNL     1       1.795  27.421  29.813  1.00  0.00     0.012 C 
ATOM     21  C   UNL     1       1.566  25.355  28.245  1.00  0.00     0.003 C 
ATOM     22  C   UNL     1       2.044  27.397  26.425  1.00  0.00     0.033 C 
ATOM     23  C   UNL     1       3.081  25.404  27.790  1.00  0.00    -0.006 C 
ATOM     24  C   UNL     1       3.345  26.726  26.952  1.00  0.00     0.120 C 
ATOM     25  C   UNL     1       4.065  25.247  28.979  1.00  0.00     0.014 C 
ATOM     26  C   UNL     1       3.371  24.196  26.846  1.00  0.00     0.014 C 
ENDROOT
BRANCH   1  27
ATOM     27  C   UNL     1      -5.614  27.906  29.702  1.00  0.00     0.048 C 
ATOM     28  O   UNL     1      -4.562  28.496  29.349  1.00  0.00    -0.550 OA
ATOM     29  O   UNL     1      -6.825  28.561  29.498  1.00  0.00    -0.550 OA
ENDBRANCH   1  27
BRANCH   7  30
ATOM     30  C   UNL     1      -4.195  27.984  32.992  1.00  0.00    -0.077 C 
ATOM     31  C   UNL     1      -3.044  27.939  33.971  1.00  0.00     0.039 C 
ATOM     32  C   UNL     1      -4.665  29.202  32.670  1.00  0.00     0.008 C 
ENDBRANCH   7  30
BRANCH  24  33
ATOM     33  O   UNL     1       4.131  27.654  27.657  1.00  0.00    -0.393 OA
ATOM     34  H   UNL     1       3.565  28.037  28.379  1.00  0.00     0.210 HD
ENDBRANCH  24  33
TORSDOF 3
ENDMDL
MODEL 5
REMARK VINA RESULT:    -6.185      1.936      7.733
REMARK INTER + INTRA:          -7.309
REMARK INTER:                  -7.258
REMARK INTRA:                  -0.051
REMARK UNBOUND:                -0.220
REMARK SMILES C=C(C)[C@H]1CC[C@]2(C(=O)[O-])CC[C@]3(C)[C@H](CC[C@H]4[C@]5(C)CC[C@@H](O)C(C)(C)[C@H]5CC[C@]43C)[C@@H]12
REMARK SMILES IDX 7 1 6 2 33 3 11 4 5 5 15 6 4 7 12 8 16 9 13 10 17 11 31 12
REMARK SMILES IDX 14 13 18 14 30 15 32 16 19 17 29 18 21 19 20 20 28 21 22 22
REMARK SMILES IDX 25 23 23 24 26 25 27 26 8 27 9 28 10 29 2 30 3 31 1 32 24 33
REMARK H PARENT 24 34
REMARK Flexibility Score: inf
ROOT
ATOM      1  C   UNL     1      -5.743  25.537  32.301  1.00  0.00     0.014 C 
ATOM      2  C   UNL     1      -6.597  25.875  33.539  1.00  0.00     0.014 C 
ATOM      3  C   UNL     1      -4.675  26.653  32.407  1.00  0.00     0.012 C 
ATOM      4  C   UNL     1      -5.046  24.163  32.354  1.00  0.00     0.014 C 
ATOM      5  C   UNL     1      -6.686  27.415  33.553  1.00  0.00     0.009 C 
ATOM      6  C   UNL     1      -3.585  26.560  31.304  1.00  0.00     0.000 C 
ATOM      7  C   UNL     1      -5.441  27.945  32.793  1.00  0.00     0.018 C 
ATOM      8  C   UNL     1      -3.894  24.060  31.303  1.00  0.00     0.008 C 
ATOM      9  C   UNL     1      -2.605  27.716  31.233  1.00  0.00     0.005 C 
ATOM     10  C   UNL     1      -2.782  25.198  31.367  1.00  0.00    -0.024 C 
ATOM     11  C   UNL     1      -1.919  27.716  29.861  1.00  0.00     0.005 C 
ATOM     12  C   UNL     1      -1.642  25.153  30.150  1.00  0.00    -0.024 C 
ATOM     13  C   UNL     1      -2.078  24.975  32.760  1.00  0.00     0.012 C 
ATOM     14  C   UNL     1      -1.848  26.327  29.096  1.00  0.00     0.002 C 
ATOM     15  C   UNL     1      -0.145  25.325  30.680  1.00  0.00     0.008 C 
ATOM     16  C   UNL     1      -1.777  23.749  29.460  1.00  0.00     0.012 C 
ATOM     17  C   UNL     1      -0.796  26.358  27.857  1.00  0.00    -0.026 C 
ATOM     18  C   UNL     1       0.913  25.965  29.727  1.00  0.00     0.005 C 
ATOM     19  C   UNL     1      -1.340  25.564  26.618  1.00  0.00     0.010 C 
ATOM     20  C   UNL     1      -0.629  27.834  27.369  1.00  0.00     0.012 C 
ATOM     21  C   UNL     1       0.582  25.708  28.258  1.00  0.00     0.003 C 
ATOM     22  C   UNL     1      -0.251  24.874  25.745  1.00  0.00     0.033 C 
ATOM     23  C   UNL     1       1.744  25.797  27.187  1.00  0.00    -0.006 C 
ATOM     24  C   UNL     1       1.152  25.547  25.735  1.00  0.00     0.120 C 
ATOM     25  C   UNL     1       2.544  27.123  27.283  1.00  0.00     0.014 C 
ATOM     26  C   UNL     1       2.781  24.663  27.461  1.00  0.00     0.014 C 
ENDROOT
BRANCH   1  27
ATOM     27  C   UNL     1      -6.649  25.541  31.061  1.00  0.00     0.048 C 
ATOM     28  O   UNL     1      -7.900  25.614  31.154  1.00  0.00    -0.550 OA
ATOM     29  O   UNL     1      -6.088  25.604  29.789  1.00  0.00    -0.550 OA
ENDBRANCH   1  27
BRANCH   7  30
ATOM     30  C   UNL     1      -5.768  28.959  31.685  1.00  0.00    -0.077 C 
ATOM     31  C   UNL     1      -4.837  30.125  31.442  1.00  0.00     0.039 C 
ATOM     32  C   UNL     1      -6.929  28.964  31.006  1.00  0.00     0.008 C 
ENDBRANCH   7  30
BRANCH  24  33
ATOM     33  O   UNL     1       1.135  26.719  24.960  1.00  0.00    -0.393 OA
ATOM     34  H   UNL     1       0.218  26.818  24.589  1.00  0.00     0.210 HD
ENDBRANCH  24  33
TORSDOF 3
ENDMDL
MODEL 6
REMARK VINA RESULT:    -5.982      1.524      7.828
REMARK INTER + INTRA:          -7.076
REMARK INTER:                  -7.168
REMARK INTRA:                   0.093
REMARK UNBOUND:                -0.220
REMARK SMILES C=C(C)[C@H]1CC[C@]2(C(=O)[O-])CC[C@]3(C)[C@H](CC[C@H]4[C@]5(C)CC[C@@H](O)C(C)(C)[C@H]5CC[C@]43C)[C@@H]12
REMARK SMILES IDX 7 1 6 2 33 3 11 4 5 5 15 6 4 7 12 8 16 9 13 10 17 11 31 12
REMARK SMILES IDX 14 13 18 14 30 15 32 16 19 17 29 18 21 19 20 20 28 21 22 22
REMARK SMILES IDX 25 23 23 24 26 25 27 26 8 27 9 28 10 29 2 30 3 31 1 32 24 33
REMARK H PARENT 24 34
REMARK Flexibility Score: inf
ROOT
ATOM      1  C   UNL     1      -5.812  26.692  30.935  1.00  0.00     0.014 C 
ATOM      2  C   UNL     1      -7.089  26.034  31.494  1.00  0.00     0.014 C 
ATOM      3  C   UNL     1      -4.971  25.424  30.642  1.00  0.00     0.012 C 
ATOM      4  C   UNL     1      -6.012  27.480  29.626  1.00  0.00     0.014 C 
ATOM      5  C   UNL     1      -6.587  24.879  32.384  1.00  0.00     0.009 C 
ATOM      6  C   UNL     1      -3.597  25.741  29.991  1.00  0.00     0.000 C 
ATOM      7  C   UNL     1      -5.184  24.479  31.853  1.00  0.00     0.018 C 
ATOM      8  C   UNL     1      -4.652  27.756  28.906  1.00  0.00     0.008 C 
ATOM      9  C   UNL     1      -2.645  24.571  29.834  1.00  0.00     0.005 C 
ATOM     10  C   UNL     1      -3.749  26.480  28.599  1.00  0.00    -0.024 C 
ATOM     11  C   UNL     1      -1.220  25.099  29.626  1.00  0.00     0.005 C 
ATOM     12  C   UNL     1      -2.243  26.807  27.962  1.00  0.00    -0.024 C 
ATOM     13  C   UNL     1      -4.594  25.647  27.561  1.00  0.00     0.012 C 
ATOM     14  C   UNL     1      -1.081  26.560  29.020  1.00  0.00     0.002 C 
ATOM     15  C   UNL     1      -1.873  25.883  26.711  1.00  0.00     0.008 C 
ATOM     16  C   UNL     1      -2.269  28.306  27.495  1.00  0.00     0.012 C 
ATOM     17  C   UNL     1       0.428  26.870  28.499  1.00  0.00    -0.026 C 
ATOM     18  C   UNL     1      -0.368  25.568  26.439  1.00  0.00     0.005 C 
ATOM     19  C   UNL     1       0.860  28.341  28.826  1.00  0.00     0.010 C 
ATOM     20  C   UNL     1       1.431  25.956  29.275  1.00  0.00     0.012 C 
ATOM     21  C   UNL     1       0.545  26.685  26.939  1.00  0.00     0.003 C 
ATOM     22  C   UNL     1       1.835  28.989  27.799  1.00  0.00     0.033 C 
ATOM     23  C   UNL     1       1.994  26.823  26.318  1.00  0.00    -0.006 C 
ATOM     24  C   UNL     1       2.770  28.012  27.028  1.00  0.00     0.120 C 
ATOM     25  C   UNL     1       2.788  25.490  26.356  1.00  0.00     0.014 C 
ATOM     26  C   UNL     1       1.872  27.192  24.806  1.00  0.00     0.014 C 
ENDROOT
BRANCH   1  27
ATOM     27  C   UNL     1      -5.266  27.674  31.981  1.00  0.00     0.048 C 
ATOM     28  O   UNL     1      -4.044  27.962  32.047  1.00  0.00    -0.550 OA
ATOM     29  O   UNL     1      -6.143  28.379  32.800  1.00  0.00    -0.550 OA
ENDBRANCH   1  27
BRANCH   7  30
ATOM     30  C   UNL     1      -4.096  24.425  32.937  1.00  0.00    -0.077 C 
ATOM     31  C   UNL     1      -4.180  25.355  34.125  1.00  0.00     0.039 C 
ATOM     32  C   UNL     1      -2.970  23.698  32.821  1.00  0.00     0.008 C 
ENDBRANCH   7  30
BRANCH  24  33
ATOM     33  O   UNL     1       3.802  27.551  27.863  1.00  0.00    -0.393 OA
ATOM     34  H   UNL     1       4.129  26.691  27.486  1.00  0.00     0.210 HD
ENDBRANCH  24  33
TORSDOF 3
ENDMDL
MODEL 7
REMARK VINA RESULT:    -5.939      1.995      3.893
REMARK INTER + INTRA:          -7.027
REMARK INTER:                  -7.027
REMARK INTRA:                   0.000
REMARK UNBOUND:                -0.220
REMARK SMILES C=C(C)[C@H]1CC[C@]2(C(=O)[O-])CC[C@]3(C)[C@H](CC[C@H]4[C@]5(C)CC[C@@H](O)C(C)(C)[C@H]5CC[C@]43C)[C@@H]12
REMARK SMILES IDX 7 1 6 2 33 3 11 4 5 5 15 6 4 7 12 8 16 9 13 10 17 11 31 12
REMARK SMILES IDX 14 13 18 14 30 15 32 16 19 17 29 18 21 19 20 20 28 21 22 22
REMARK SMILES IDX 25 23 23 24 26 25 27 26 8 27 9 28 10 29 2 30 3 31 1 32 24 33
REMARK H PARENT 24 34
REMARK Flexibility Score: inf
ROOT
ATOM      1  C   UNL     1       2.177  27.279  28.438  1.00  0.00     0.014 C 
ATOM      2  C   UNL     1       3.645  26.821  28.344  1.00  0.00     0.014 C 
ATOM      3  C   UNL     1       1.555  26.030  29.110  1.00  0.00     0.012 C 
ATOM      4  C   UNL     1       1.942  28.509  29.338  1.00  0.00     0.014 C 
ATOM      5  C   UNL     1       3.574  25.335  27.936  1.00  0.00     0.009 C 
ATOM      6  C   UNL     1       0.040  26.192  29.413  1.00  0.00     0.000 C 
ATOM      7  C   UNL     1       2.196  24.803  28.412  1.00  0.00     0.018 C 
ATOM      8  C   UNL     1       0.434  28.661  29.721  1.00  0.00     0.008 C 
ATOM      9  C   UNL     1      -0.679  24.951  29.908  1.00  0.00     0.005 C 
ATOM     10  C   UNL     1      -0.249  27.394  30.401  1.00  0.00    -0.024 C 
ATOM     11  C   UNL     1      -2.190  25.130  29.718  1.00  0.00     0.005 C 
ATOM     12  C   UNL     1      -1.890  27.524  30.672  1.00  0.00    -0.024 C 
ATOM     13  C   UNL     1       0.503  27.239  31.778  1.00  0.00     0.012 C 
ATOM     14  C   UNL     1      -2.734  26.622  29.670  1.00  0.00     0.002 C 
ATOM     15  C   UNL     1      -2.329  27.049  32.133  1.00  0.00     0.008 C 
ATOM     16  C   UNL     1      -2.253  29.042  30.501  1.00  0.00     0.012 C 
ATOM     17  C   UNL     1      -4.349  26.695  29.841  1.00  0.00    -0.026 C 
ATOM     18  C   UNL     1      -3.767  26.474  32.328  1.00  0.00     0.005 C 
ATOM     19  C   UNL     1      -4.979  27.784  28.905  1.00  0.00     0.010 C 
ATOM     20  C   UNL     1      -4.971  25.336  29.380  1.00  0.00     0.012 C 
ATOM     21  C   UNL     1      -4.754  27.059  31.319  1.00  0.00     0.003 C 
ATOM     22  C   UNL     1      -6.254  28.480  29.465  1.00  0.00     0.033 C 
ATOM     23  C   UNL     1      -6.299  27.029  31.657  1.00  0.00    -0.006 C 
ATOM     24  C   UNL     1      -7.123  27.639  30.444  1.00  0.00     0.120 C 
ATOM     25  C   UNL     1      -6.794  25.615  32.060  1.00  0.00     0.014 C 
ATOM     26  C   UNL     1      -6.571  27.935  32.898  1.00  0.00     0.014 C 
ENDROOT
BRANCH   1  27
ATOM     27  C   UNL     1       1.684  27.643  27.030  1.00  0.00     0.048 C 
ATOM     28  O   UNL     1       2.473  27.758  26.059  1.00  0.00    -0.550 OA
ATOM     29  O   UNL     1       0.319  27.720  26.768  1.00  0.00    -0.550 OA
ENDBRANCH   1  27
BRANCH   7  30
ATOM     30  C   UNL     1       1.391  24.083  27.317  1.00  0.00    -0.077 C 
ATOM     31  C   UNL     1       0.961  22.650  27.530  1.00  0.00     0.039 C 
ATOM     32  C   UNL     1       1.173  24.602  26.096  1.00  0.00     0.008 C 
ENDBRANCH   7  30
BRANCH  24  33
ATOM     33  O   UNL     1      -7.848  26.658  29.747  1.00  0.00    -0.393 OA
ATOM     34  H   UNL     1      -7.621  25.777  30.148  1.00  0.00     0.210 HD
ENDBRANCH  24  33
TORSDOF 3
ENDMDL
MODEL 8
REMARK VINA RESULT:    -5.924      2.020      3.926
REMARK INTER + INTRA:          -7.010
REMARK INTER:                  -6.860
REMARK INTRA:                  -0.150
REMARK UNBOUND:                -0.220
REMARK SMILES C=C(C)[C@H]1CC[C@]2(C(=O)[O-])CC[C@]3(C)[C@H](CC[C@H]4[C@]5(C)CC[C@@H](O)C(C)(C)[C@H]5CC[C@]43C)[C@@H]12
REMARK SMILES IDX 7 1 6 2 33 3 11 4 5 5 15 6 4 7 12 8 16 9 13 10 17 11 31 12
REMARK SMILES IDX 14 13 18 14 30 15 32 16 19 17 29 18 21 19 20 20 28 21 22 22
REMARK SMILES IDX 25 23 23 24 26 25 27 26 8 27 9 28 10 29 2 30 3 31 1 32 24 33
REMARK H PARENT 24 34
REMARK Flexibility Score: inf
ROOT
ATOM      1  C   UNL     1       1.056  25.926  28.765  1.00  0.00     0.014 C 
ATOM      2  C   UNL     1       2.302  25.074  28.454  1.00  0.00     0.014 C 
ATOM      3  C   UNL     1       0.099  24.817  29.267  1.00  0.00     0.012 C 
ATOM      4  C   UNL     1       1.251  26.971  29.881  1.00  0.00     0.014 C 
ATOM      5  C   UNL     1       1.753  23.787  27.804  1.00  0.00     0.009 C 
ATOM      6  C   UNL     1      -1.277  25.365  29.737  1.00  0.00     0.000 C 
ATOM      7  C   UNL     1       0.296  23.613  28.311  1.00  0.00     0.018 C 
ATOM      8  C   UNL     1      -0.118  27.493  30.427  1.00  0.00     0.008 C 
ATOM      9  C   UNL     1      -2.329  24.327  30.077  1.00  0.00     0.005 C 
ATOM     10  C   UNL     1      -1.138  26.383  30.941  1.00  0.00    -0.024 C 
ATOM     11  C   UNL     1      -3.715  24.986  30.066  1.00  0.00     0.005 C 
ATOM     12  C   UNL     1      -2.644  26.947  31.385  1.00  0.00    -0.024 C 
ATOM     13  C   UNL     1      -0.421  25.746  32.192  1.00  0.00     0.012 C 
ATOM     14  C   UNL     1      -3.765  26.552  30.328  1.00  0.00     0.002 C 
ATOM     15  C   UNL     1      -3.155  26.353  32.778  1.00  0.00     0.008 C 
ATOM     16  C   UNL     1      -2.519  28.507  31.514  1.00  0.00     0.012 C 
ATOM     17  C   UNL     1      -5.268  27.073  30.661  1.00  0.00    -0.026 C 
ATOM     18  C   UNL     1      -4.693  26.211  33.006  1.00  0.00     0.005 C 
ATOM     19  C   UNL     1      -5.559  28.461  29.992  1.00  0.00     0.010 C 
ATOM     20  C   UNL     1      -6.301  26.080  30.035  1.00  0.00     0.012 C 
ATOM     21  C   UNL     1      -5.483  27.249  32.212  1.00  0.00     0.003 C 
ATOM     22  C   UNL     1      -6.530  29.386  30.782  1.00  0.00     0.033 C 
ATOM     23  C   UNL     1      -6.946  27.621  32.685  1.00  0.00    -0.006 C 
ATOM     24  C   UNL     1      -7.582  28.673  31.680  1.00  0.00     0.120 C 
ATOM     25  C   UNL     1      -7.844  26.371  32.884  1.00  0.00     0.014 C 
ATOM     26  C   UNL     1      -6.874  28.309  34.085  1.00  0.00     0.014 C 
ENDROOT
BRANCH   1  27
ATOM     27  C   UNL     1       0.649  26.686  27.495  1.00  0.00     0.048 C 
ATOM     28  O   UNL     1      -0.555  26.913  27.214  1.00  0.00    -0.550 OA
ATOM     29  O   UNL     1       1.624  27.266  26.687  1.00  0.00    -0.550 OA
ENDBRANCH   1  27
BRANCH   7  30
ATOM     30  C   UNL     1      -0.734  23.394  27.190  1.00  0.00    -0.077 C 
ATOM     31  C   UNL     1      -1.983  22.592  27.473  1.00  0.00     0.039 C 
ATOM     32  C   UNL     1      -0.520  23.745  25.910  1.00  0.00     0.008 C 
ENDBRANCH   7  30
BRANCH  24  33
ATOM     33  O   UNL     1      -8.603  28.109  30.896  1.00  0.00    -0.393 OA
ATOM     34  H   UNL     1      -9.226  27.638  31.511  1.00  0.00     0.210 HD
ENDBRANCH  24  33
TORSDOF 3
ENDMDL
MODEL 9
REMARK VINA RESULT:    -5.908      3.562      5.554
REMARK INTER + INTRA:          -6.991
REMARK INTER:                  -7.440
REMARK INTRA:                   0.449
REMARK UNBOUND:                -0.220
REMARK SMILES C=C(C)[C@H]1CC[C@]2(C(=O)[O-])CC[C@]3(C)[C@H](CC[C@H]4[C@]5(C)CC[C@@H](O)C(C)(C)[C@H]5CC[C@]43C)[C@@H]12
REMARK SMILES IDX 7 1 6 2 33 3 11 4 5 5 15 6 4 7 12 8 16 9 13 10 17 11 31 12
REMARK SMILES IDX 14 13 18 14 30 15 32 16 19 17 29 18 21 19 20 20 28 21 22 22
REMARK SMILES IDX 25 23 23 24 26 25 27 26 8 27 9 28 10 29 2 30 3 31 1 32 24 33
REMARK H PARENT 24 34
REMARK Flexibility Score: inf
ROOT
ATOM      1  C   UNL     1       5.189  28.464  30.161  1.00  0.00     0.014 C 
ATOM      2  C   UNL     1       6.224  29.545  30.528  1.00  0.00     0.014 C 
ATOM      3  C   UNL     1       3.923  29.085  30.802  1.00  0.00     0.012 C 
ATOM      4  C   UNL     1       4.954  28.283  28.648  1.00  0.00     0.014 C 
ATOM      5  C   UNL     1       5.874  29.960  31.972  1.00  0.00     0.009 C 
ATOM      6  C   UNL     1       2.640  28.246  30.554  1.00  0.00     0.000 C 
ATOM      7  C   UNL     1       4.368  29.644  32.178  1.00  0.00     0.018 C 
ATOM      8  C   UNL     1       3.630  27.502  28.360  1.00  0.00     0.008 C 
ATOM      9  C   UNL     1       1.394  28.694  31.295  1.00  0.00     0.005 C 
ATOM     10  C   UNL     1       2.307  28.099  29.013  1.00  0.00    -0.024 C 
ATOM     11  C   UNL     1       0.379  27.545  31.323  1.00  0.00     0.005 C 
ATOM     12  C   UNL     1       0.932  27.176  28.815  1.00  0.00    -0.024 C 
ATOM     13  C   UNL     1       2.116  29.493  28.300  1.00  0.00     0.012 C 
ATOM     14  C   UNL     1       0.492  26.462  30.167  1.00  0.00     0.002 C 
ATOM     15  C   UNL     1      -0.341  28.028  28.359  1.00  0.00     0.008 C 
ATOM     16  C   UNL     1       1.259  26.118  27.702  1.00  0.00     0.012 C 
ATOM     17  C   UNL     1      -0.830  25.521  30.072  1.00  0.00    -0.026 C 
ATOM     18  C   UNL     1      -1.760  27.522  28.768  1.00  0.00     0.005 C 
ATOM     19  C   UNL     1      -0.455  24.029  29.766  1.00  0.00     0.010 C 
ATOM     20  C   UNL     1      -1.538  25.497  31.466  1.00  0.00     0.012 C 
ATOM     21  C   UNL     1      -1.797  26.004  28.926  1.00  0.00     0.003 C 
ATOM     22  C   UNL     1      -1.504  23.243  28.926  1.00  0.00     0.033 C 
ATOM     23  C   UNL     1      -3.188  25.258  28.814  1.00  0.00    -0.006 C 
ATOM     24  C   UNL     1      -2.984  23.703  29.066  1.00  0.00     0.120 C 
ATOM     25  C   UNL     1      -4.270  25.872  29.742  1.00  0.00     0.014 C 
ATOM     26  C   UNL     1      -3.742  25.419  27.364  1.00  0.00     0.014 C 
ENDROOT
BRANCH   1  27
ATOM     27  C   UNL     1       5.669  27.115  30.713  1.00  0.00     0.048 C 
ATOM     28  O   UNL     1       5.173  26.026  30.328  1.00  0.00    -0.550 OA
ATOM     29  O   UNL     1       6.771  27.061  31.561  1.00  0.00    -0.550 OA
ENDBRANCH   1  27
BRANCH   7  30
ATOM     30  C   UNL     1       4.070  28.810  33.435  1.00  0.00    -0.077 C 
ATOM     31  C   UNL     1       2.691  28.859  34.052  1.00  0.00     0.039 C 
ATOM     32  C   UNL     1       5.015  28.148  34.125  1.00  0.00     0.008 C 
ENDBRANCH   7  30
BRANCH  24  33
ATOM     33  O   UNL     1      -3.517  23.289  30.298  1.00  0.00    -0.393 OA
ATOM     34  H   UNL     1      -2.797  22.816  30.792  1.00  0.00     0.210 HD
ENDBRANCH  24  33
TORSDOF 3
ENDMDL
