MODEL 1
REMARK VINA RESULT:    -3.006      0.000      0.000
REMARK INTER + INTRA:         -12.753
REMARK INTER:                  -7.575
REMARK INTRA:                  -5.178
REMARK UNBOUND:                -5.178
REMARK SMILES CCCCCCCCCCCCCCCCCCCCCCCCCCCC(=O)[O-]
REMARK SMILES IDX 15 1 16 2 17 3 18 4 19 5 20 6 21 7 22 8 23 9 24 10 25 11
REMARK SMILES IDX 26 12 27 13 28 14 29 15 30 16 14 17 13 18 12 19 11 20 10 21
REMARK SMILES IDX 9 22 8 23 7 24 6 25 5 26 4 27 3 28 2 29 1 30
REMARK H PARENT
REMARK Flexibility Score: inf
ROOT
ATOM      1  C   UNL     1      -6.279   4.485  -4.125  1.00  0.00     0.000 C 
ENDROOT
BRANCH   1   2
ATOM      2  C   UNL     1      -6.093   4.728  -5.634  1.00  0.00     0.000 C 
BRANCH   2   3
ATOM      3  C   UNL     1      -5.617   6.152  -5.956  1.00  0.00     0.000 C 
BRANCH   3   4
ATOM      4  C   UNL     1      -5.504   6.370  -7.472  1.00  0.00     0.000 C 
BRANCH   4   5
ATOM      5  C   UNL     1      -6.045   7.743  -7.908  1.00  0.00     0.000 C 
BRANCH   5   6
ATOM      6  C   UNL     1      -6.143   8.734  -6.735  1.00  0.00     0.000 C 
BRANCH   6   7
ATOM      7  C   UNL     1      -7.496   9.461  -6.688  1.00  0.00     0.000 C 
BRANCH   7   8
ATOM      8  C   UNL     1      -8.082   9.544  -5.271  1.00  0.00     0.000 C 
BRANCH   8   9
ATOM      9  C   UNL     1      -7.561   8.389  -4.401  1.00  0.00     0.000 C 
BRANCH   9  10
ATOM     10  C   UNL     1      -8.235   8.333  -3.021  1.00  0.00     0.000 C 
BRANCH  10  11
ATOM     11  C   UNL     1      -8.159   6.938  -2.380  1.00  0.00     0.000 C 
BRANCH  11  12
ATOM     12  C   UNL     1      -6.941   6.831  -1.450  1.00  0.00     0.006 C 
BRANCH  12  13
ATOM     13  C   UNL     1      -6.678   8.131  -0.681  1.00  0.00     0.053 C 
BRANCH  13  14
ATOM     14  C   UNL     1      -7.562   8.255   0.522  1.00  0.00     0.041 C 
ATOM     15  O   UNL     1      -8.074   9.367   0.821  1.00  0.00    -0.550 OA
ATOM     16  O   UNL     1      -7.834   7.139   1.304  1.00  0.00    -0.550 OA
ENDBRANCH  13  14
ENDBRANCH  12  13
ENDBRANCH  11  12
ENDBRANCH  10  11
ENDBRANCH   9  10
ENDBRANCH   8   9
ENDBRANCH   7   8
ENDBRANCH   6   7
ENDBRANCH   5   6
ENDBRANCH   4   5
ENDBRANCH   3   4
ENDBRANCH   2   3
ENDBRANCH   1   2
BRANCH   1  17
ATOM     17  C   UNL     1      -7.127   3.248  -3.757  1.00  0.00     0.000 C 
BRANCH  17  18
ATOM     18  C   UNL     1      -7.196   2.156  -4.839  1.00  0.00     0.000 C 
BRANCH  18  19
ATOM     19  C   UNL     1      -8.641   1.794  -5.227  1.00  0.00     0.000 C 
BRANCH  19  20
ATOM     20  C   UNL     1      -9.666   2.835  -4.748  1.00  0.00     0.000 C 
BRANCH  20  21
ATOM     21  C   UNL     1     -10.107   3.798  -5.860  1.00  0.00     0.000 C 
BRANCH  21  22
ATOM     22  C   UNL     1      -9.757   5.252  -5.500  1.00  0.00    -0.000 C 
BRANCH  22  23
ATOM     23  C   UNL     1      -9.240   6.047  -6.718  1.00  0.00    -0.000 C 
BRANCH  23  24
ATOM     24  C   UNL     1      -9.620   5.429  -8.074  1.00  0.00    -0.000 C 
BRANCH  24  25
ATOM     25  C   UNL     1      -8.397   4.981  -8.893  1.00  0.00    -0.000 C 
BRANCH  25  26
ATOM     26  C   UNL     1      -8.329   3.455  -9.083  1.00  0.00    -0.000 C 
BRANCH  26  27
ATOM     27  C   UNL     1      -7.106   2.770  -8.444  1.00  0.00    -0.000 C 
BRANCH  27  28
ATOM     28  C   UNL     1      -6.654   1.513  -9.207  1.00  0.00    -0.000 C 
BRANCH  28  29
ATOM     29  C   UNL     1      -6.900   0.221  -8.412  1.00  0.00    -0.003 C 
ATOM     30  C   UNL     1      -5.608  -0.389  -7.870  1.00  0.00     0.004 C 
ENDBRANCH  28  29
ENDBRANCH  27  28
ENDBRANCH  26  27
ENDBRANCH  25  26
ENDBRANCH  24  25
ENDBRANCH  23  24
ENDBRANCH  22  23
ENDBRANCH  21  22
ENDBRANCH  20  21
ENDBRANCH  19  20
ENDBRANCH  18  19
ENDBRANCH  17  18
ENDBRANCH   1  17
TORSDOF 26
ENDMDL
MODEL 2
REMARK VINA RESULT:    -2.991      3.352      7.589
REMARK INTER + INTRA:         -12.714
REMARK INTER:                  -7.088
REMARK INTRA:                  -5.626
REMARK UNBOUND:                -5.178
REMARK SMILES CCCCCCCCCCCCCCCCCCCCCCCCCCCC(=O)[O-]
REMARK SMILES IDX 15 1 16 2 17 3 18 4 19 5 20 6 21 7 22 8 23 9 24 10 25 11
REMARK SMILES IDX 26 12 27 13 28 14 29 15 30 16 14 17 13 18 12 19 11 20 10 21
REMARK SMILES IDX 9 22 8 23 7 24 6 25 5 26 4 27 3 28 2 29 1 30
REMARK H PARENT
REMARK Flexibility Score: inf
ROOT
ATOM      1  C   UNL     1      -8.123   2.599  -3.751  1.00  0.00     0.000 C 
ENDROOT
BRANCH   1   2
ATOM      2  C   UNL     1      -9.325   1.837  -4.338  1.00  0.00     0.000 C 
BRANCH   2   3
ATOM      3  C   UNL     1     -10.056   2.626  -5.434  1.00  0.00     0.000 C 
BRANCH   3   4
ATOM      4  C   UNL     1      -9.876   4.140  -5.241  1.00  0.00     0.000 C 
BRANCH   4   5
ATOM      5  C   UNL     1      -9.235   4.813  -6.467  1.00  0.00     0.000 C 
BRANCH   5   6
ATOM      6  C   UNL     1      -9.164   3.873  -7.683  1.00  0.00     0.000 C 
BRANCH   6   7
ATOM      7  C   UNL     1      -7.721   3.511  -8.066  1.00  0.00     0.000 C 
BRANCH   7   8
ATOM      8  C   UNL     1      -7.631   2.711  -9.374  1.00  0.00     0.000 C 
BRANCH   8   9
ATOM      9  C   UNL     1      -9.008   2.148  -9.760  1.00  0.00     0.000 C 
BRANCH   9  10
ATOM     10  C   UNL     1      -9.098   0.624  -9.582  1.00  0.00     0.000 C 
BRANCH  10  11
ATOM     11  C   UNL     1      -9.451   0.215  -8.144  1.00  0.00     0.000 C 
BRANCH  11  12
ATOM     12  C   UNL     1      -8.246  -0.436  -7.449  1.00  0.00     0.006 C 
BRANCH  12  13
ATOM     13  C   UNL     1      -7.197  -0.937  -8.450  1.00  0.00     0.053 C 
BRANCH  13  14
ATOM     14  C   UNL     1      -5.844  -0.356  -8.176  1.00  0.00     0.041 C 
ATOM     15  O   UNL     1      -4.888  -0.574  -8.968  1.00  0.00    -0.550 OA
ATOM     16  O   UNL     1      -5.642   0.439  -7.055  1.00  0.00    -0.550 OA
ENDBRANCH  13  14
ENDBRANCH  12  13
ENDBRANCH  11  12
ENDBRANCH  10  11
ENDBRANCH   9  10
ENDBRANCH   8   9
ENDBRANCH   7   8
ENDBRANCH   6   7
ENDBRANCH   5   6
ENDBRANCH   4   5
ENDBRANCH   3   4
ENDBRANCH   2   3
ENDBRANCH   1   2
BRANCH   1  17
ATOM     17  C   UNL     1      -6.764   2.295  -4.417  1.00  0.00     0.000 C 
BRANCH  17  18
ATOM     18  C   UNL     1      -5.966   3.531  -4.872  1.00  0.00     0.000 C 
BRANCH  18  19
ATOM     19  C   UNL     1      -6.383   4.814  -4.129  1.00  0.00     0.000 C 
BRANCH  19  20
ATOM     20  C   UNL     1      -5.936   6.094  -4.854  1.00  0.00     0.000 C 
BRANCH  20  21
ATOM     21  C   UNL     1      -5.660   5.872  -6.348  1.00  0.00     0.000 C 
BRANCH  21  22
ATOM     22  C   UNL     1      -5.759   7.193  -7.128  1.00  0.00    -0.000 C 
BRANCH  22  23
ATOM     23  C   UNL     1      -7.213   7.700  -7.237  1.00  0.00    -0.000 C 
BRANCH  23  24
ATOM     24  C   UNL     1      -7.466   9.031  -6.508  1.00  0.00    -0.000 C 
BRANCH  24  25
ATOM     25  C   UNL     1      -8.475   8.900  -5.355  1.00  0.00    -0.000 C 
BRANCH  25  26
ATOM     26  C   UNL     1      -7.864   9.242  -3.983  1.00  0.00    -0.000 C 
BRANCH  26  27
ATOM     27  C   UNL     1      -8.455   8.463  -2.792  1.00  0.00    -0.000 C 
BRANCH  27  28
ATOM     28  C   UNL     1      -9.161   7.163  -3.215  1.00  0.00    -0.000 C 
BRANCH  28  29
ATOM     29  C   UNL     1      -9.160   6.103  -2.103  1.00  0.00    -0.003 C 
ATOM     30  C   UNL     1      -7.931   6.201  -1.200  1.00  0.00     0.004 C 
ENDBRANCH  28  29
ENDBRANCH  27  28
ENDBRANCH  26  27
ENDBRANCH  25  26
ENDBRANCH  24  25
ENDBRANCH  23  24
ENDBRANCH  22  23
ENDBRANCH  21  22
ENDBRANCH  20  21
ENDBRANCH  19  20
ENDBRANCH  18  19
ENDBRANCH  17  18
ENDBRANCH   1  17
TORSDOF 26
ENDMDL
MODEL 3
REMARK VINA RESULT:    -2.933      1.638      4.106
REMARK INTER + INTRA:         -12.568
REMARK INTER:                  -8.119
REMARK INTRA:                  -4.449
REMARK UNBOUND:                -5.178
REMARK SMILES CCCCCCCCCCCCCCCCCCCCCCCCCCCC(=O)[O-]
REMARK SMILES IDX 15 1 16 2 17 3 18 4 19 5 20 6 21 7 22 8 23 9 24 10 25 11
REMARK SMILES IDX 26 12 27 13 28 14 29 15 30 16 14 17 13 18 12 19 11 20 10 21
REMARK SMILES IDX 9 22 8 23 7 24 6 25 5 26 4 27 3 28 2 29 1 30
REMARK H PARENT
REMARK Flexibility Score: inf
ROOT
ATOM      1  C   UNL     1      -5.265   6.772  -7.629  1.00  0.00     0.000 C 
ENDROOT
BRANCH   1   2
ATOM      2  C   UNL     1      -5.717   8.190  -7.237  1.00  0.00     0.000 C 
BRANCH   2   3
ATOM      3  C   UNL     1      -6.776   8.764  -8.190  1.00  0.00     0.000 C 
BRANCH   3   4
ATOM      4  C   UNL     1      -8.038   9.190  -7.425  1.00  0.00     0.000 C 
BRANCH   4   5
ATOM      5  C   UNL     1      -8.981   8.005  -7.150  1.00  0.00     0.000 C 
BRANCH   5   6
ATOM      6  C   UNL     1      -9.165   7.738  -5.646  1.00  0.00     0.000 C 
BRANCH   6   7
ATOM      7  C   UNL     1      -8.711   8.919  -4.776  1.00  0.00     0.000 C 
BRANCH   7   8
ATOM      8  C   UNL     1      -7.904   8.481  -3.545  1.00  0.00     0.000 C 
BRANCH   8   9
ATOM      9  C   UNL     1      -7.338   7.066  -3.744  1.00  0.00     0.000 C 
BRANCH   9  10
ATOM     10  C   UNL     1      -6.753   6.472  -2.452  1.00  0.00     0.000 C 
BRANCH  10  11
ATOM     11  C   UNL     1      -7.388   7.067  -1.186  1.00  0.00     0.000 C 
BRANCH  11  12
ATOM     12  C   UNL     1      -6.309   7.593  -0.229  1.00  0.00     0.006 C 
BRANCH  12  13
ATOM     13  C   UNL     1      -6.151   9.117  -0.309  1.00  0.00     0.053 C 
BRANCH  13  14
ATOM     14  C   UNL     1      -5.014   9.605   0.536  1.00  0.00     0.041 C 
ATOM     15  O   UNL     1      -5.203   9.893   1.748  1.00  0.00    -0.550 OA
ATOM     16  O   UNL     1      -3.743   9.726  -0.012  1.00  0.00    -0.550 OA
ENDBRANCH  13  14
ENDBRANCH  12  13
ENDBRANCH  11  12
ENDBRANCH  10  11
ENDBRANCH   9  10
ENDBRANCH   8   9
ENDBRANCH   7   8
ENDBRANCH   6   7
ENDBRANCH   5   6
ENDBRANCH   4   5
ENDBRANCH   3   4
ENDBRANCH   2   3
ENDBRANCH   1   2
BRANCH   1  17
ATOM     17  C   UNL     1      -5.825   5.636  -6.746  1.00  0.00     0.000 C 
BRANCH  17  18
ATOM     18  C   UNL     1      -7.092   4.949  -7.288  1.00  0.00     0.000 C 
BRANCH  18  19
ATOM     19  C   UNL     1      -7.100   4.843  -8.824  1.00  0.00     0.000 C 
BRANCH  19  20
ATOM     20  C   UNL     1      -6.776   3.426  -9.326  1.00  0.00     0.000 C 
BRANCH  20  21
ATOM     21  C   UNL     1      -7.616   2.340  -8.638  1.00  0.00     0.000 C 
BRANCH  21  22
ATOM     22  C   UNL     1      -6.721   1.214  -8.094  1.00  0.00    -0.000 C 
BRANCH  22  23
ATOM     23  C   UNL     1      -7.543   0.033  -7.535  1.00  0.00    -0.000 C 
BRANCH  23  24
ATOM     24  C   UNL     1      -9.028   0.361  -7.302  1.00  0.00    -0.000 C 
BRANCH  24  25
ATOM     25  C   UNL     1      -9.535  -0.102  -5.925  1.00  0.00    -0.000 C 
BRANCH  25  26
ATOM     26  C   UNL     1      -9.213   0.898  -4.800  1.00  0.00    -0.000 C 
BRANCH  26  27
ATOM     27  C   UNL     1      -8.955   2.344  -5.265  1.00  0.00    -0.000 C 
BRANCH  27  28
ATOM     28  C   UNL     1      -8.547   3.281  -4.114  1.00  0.00    -0.000 C 
BRANCH  28  29
ATOM     29  C   UNL     1      -7.155   2.950  -3.551  1.00  0.00    -0.003 C 
ATOM     30  C   UNL     1      -6.138   2.638  -4.648  1.00  0.00     0.004 C 
ENDBRANCH  28  29
ENDBRANCH  27  28
ENDBRANCH  26  27
ENDBRANCH  25  26
ENDBRANCH  24  25
ENDBRANCH  23  24
ENDBRANCH  22  23
ENDBRANCH  21  22
ENDBRANCH  20  21
ENDBRANCH  19  20
ENDBRANCH  18  19
ENDBRANCH  17  18
ENDBRANCH   1  17
TORSDOF 26
ENDMDL
MODEL 4
REMARK VINA RESULT:    -2.899      1.266      2.688
REMARK INTER + INTRA:         -12.483
REMARK INTER:                  -7.424
REMARK INTRA:                  -5.059
REMARK UNBOUND:                -5.178
REMARK SMILES CCCCCCCCCCCCCCCCCCCCCCCCCCCC(=O)[O-]
REMARK SMILES IDX 15 1 16 2 17 3 18 4 19 5 20 6 21 7 22 8 23 9 24 10 25 11
REMARK SMILES IDX 26 12 27 13 28 14 29 15 30 16 14 17 13 18 12 19 11 20 10 21
REMARK SMILES IDX 9 22 8 23 7 24 6 25 5 26 4 27 3 28 2 29 1 30
REMARK H PARENT
REMARK Flexibility Score: inf
ROOT
ATOM      1  C   UNL     1      -5.627   5.930  -6.853  1.00  0.00     0.000 C 
ENDROOT
BRANCH   1   2
ATOM      2  C   UNL     1      -5.321   7.069  -7.843  1.00  0.00     0.000 C 
BRANCH   2   3
ATOM      3  C   UNL     1      -5.728   8.450  -7.308  1.00  0.00     0.000 C 
BRANCH   3   4
ATOM      4  C   UNL     1      -6.623   9.192  -8.313  1.00  0.00     0.000 C 
BRANCH   4   5
ATOM      5  C   UNL     1      -7.621   8.252  -9.011  1.00  0.00     0.000 C 
BRANCH   5   6
ATOM      6  C   UNL     1      -8.963   8.162  -8.264  1.00  0.00     0.000 C 
BRANCH   6   7
ATOM      7  C   UNL     1      -9.123   6.842  -7.495  1.00  0.00     0.000 C 
BRANCH   7   8
ATOM      8  C   UNL     1      -9.564   7.047  -6.038  1.00  0.00     0.000 C 
BRANCH   8   9
ATOM      9  C   UNL     1      -8.960   8.340  -5.467  1.00  0.00     0.000 C 
BRANCH   9  10
ATOM     10  C   UNL     1      -9.181   8.481  -3.953  1.00  0.00     0.000 C 
BRANCH  10  11
ATOM     11  C   UNL     1      -7.906   8.898  -3.204  1.00  0.00     0.000 C 
BRANCH  11  12
ATOM     12  C   UNL     1      -8.035   8.610  -1.701  1.00  0.00     0.006 C 
BRANCH  12  13
ATOM     13  C   UNL     1      -6.848   7.806  -1.157  1.00  0.00     0.053 C 
BRANCH  13  14
ATOM     14  C   UNL     1      -6.748   7.900   0.334  1.00  0.00     0.041 C 
ATOM     15  O   UNL     1      -6.698   9.026   0.896  1.00  0.00    -0.550 OA
ATOM     16  O   UNL     1      -6.725   6.744   1.105  1.00  0.00    -0.550 OA
ENDBRANCH  13  14
ENDBRANCH  12  13
ENDBRANCH  11  12
ENDBRANCH  10  11
ENDBRANCH   9  10
ENDBRANCH   8   9
ENDBRANCH   7   8
ENDBRANCH   6   7
ENDBRANCH   5   6
ENDBRANCH   4   5
ENDBRANCH   3   4
ENDBRANCH   2   3
ENDBRANCH   1   2
BRANCH   1  17
ATOM     17  C   UNL     1      -5.954   6.381  -5.413  1.00  0.00     0.000 C 
BRANCH  17  18
ATOM     18  C   UNL     1      -6.023   5.250  -4.371  1.00  0.00     0.000 C 
BRANCH  18  19
ATOM     19  C   UNL     1      -7.358   5.227  -3.605  1.00  0.00     0.000 C 
BRANCH  19  20
ATOM     20  C   UNL     1      -7.939   3.811  -3.463  1.00  0.00     0.000 C 
BRANCH  20  21
ATOM     21  C   UNL     1      -6.971   2.715  -3.931  1.00  0.00     0.000 C 
BRANCH  21  22
ATOM     22  C   UNL     1      -7.598   1.868  -5.051  1.00  0.00    -0.000 C 
BRANCH  22  23
ATOM     23  C   UNL     1      -8.724   2.620  -5.792  1.00  0.00    -0.000 C 
BRANCH  23  24
ATOM     24  C   UNL     1      -8.283   3.244  -7.127  1.00  0.00    -0.000 C 
BRANCH  24  25
ATOM     25  C   UNL     1      -6.915   2.729  -7.607  1.00  0.00    -0.000 C 
BRANCH  25  26
ATOM     26  C   UNL     1      -6.863   2.493  -9.128  1.00  0.00    -0.000 C 
BRANCH  26  27
ATOM     27  C   UNL     1      -6.187   1.179  -9.563  1.00  0.00    -0.000 C 
BRANCH  27  28
ATOM     28  C   UNL     1      -6.028   0.175  -8.408  1.00  0.00    -0.000 C 
BRANCH  28  29
ATOM     29  C   UNL     1      -7.025  -0.991  -8.499  1.00  0.00    -0.003 C 
ATOM     30  C   UNL     1      -8.320  -0.716  -7.735  1.00  0.00     0.004 C 
ENDBRANCH  28  29
ENDBRANCH  27  28
ENDBRANCH  26  27
ENDBRANCH  25  26
ENDBRANCH  24  25
ENDBRANCH  23  24
ENDBRANCH  22  23
ENDBRANCH  21  22
ENDBRANCH  20  21
ENDBRANCH  19  20
ENDBRANCH  18  19
ENDBRANCH  17  18
ENDBRANCH   1  17
TORSDOF 26
ENDMDL
MODEL 5
REMARK VINA RESULT:    -2.748      3.551      8.148
REMARK INTER + INTRA:         -12.102
REMARK INTER:                  -7.433
REMARK INTRA:                  -4.669
REMARK UNBOUND:                -5.178
REMARK SMILES CCCCCCCCCCCCCCCCCCCCCCCCCCCC(=O)[O-]
REMARK SMILES IDX 15 1 16 2 17 3 18 4 19 5 20 6 21 7 22 8 23 9 24 10 25 11
REMARK SMILES IDX 26 12 27 13 28 14 29 15 30 16 14 17 13 18 12 19 11 20 10 21
REMARK SMILES IDX 9 22 8 23 7 24 6 25 5 26 4 27 3 28 2 29 1 30
REMARK H PARENT
REMARK Flexibility Score: inf
ROOT
ATOM      1  C   UNL     1      -8.462   3.937  -3.348  1.00  0.00     0.000 C 
ENDROOT
BRANCH   1   2
ATOM      2  C   UNL     1      -9.842   4.034  -4.024  1.00  0.00     0.000 C 
BRANCH   2   3
ATOM      3  C   UNL     1     -10.077   2.930  -5.065  1.00  0.00     0.000 C 
BRANCH   3   4
ATOM      4  C   UNL     1     -10.066   3.500  -6.491  1.00  0.00     0.000 C 
BRANCH   4   5
ATOM      5  C   UNL     1      -9.329   2.583  -7.482  1.00  0.00     0.000 C 
BRANCH   5   6
ATOM      6  C   UNL     1      -9.095   1.172  -6.915  1.00  0.00     0.000 C 
BRANCH   6   7
ATOM      7  C   UNL     1      -9.797   0.081  -7.737  1.00  0.00     0.000 C 
BRANCH   7   8
ATOM      8  C   UNL     1      -9.367  -1.339  -7.339  1.00  0.00     0.000 C 
BRANCH   8   9
ATOM      9  C   UNL     1      -9.616  -2.323  -8.493  1.00  0.00     0.000 C 
BRANCH   9  10
ATOM     10  C   UNL     1      -8.325  -2.986  -8.998  1.00  0.00     0.000 C 
BRANCH  10  11
ATOM     11  C   UNL     1      -7.377  -1.992  -9.686  1.00  0.00     0.000 C 
BRANCH  11  12
ATOM     12  C   UNL     1      -6.015  -1.956  -8.978  1.00  0.00     0.006 C 
BRANCH  12  13
ATOM     13  C   UNL     1      -5.252  -0.653  -9.248  1.00  0.00     0.053 C 
BRANCH  13  14
ATOM     14  C   UNL     1      -5.745   0.469  -8.387  1.00  0.00     0.041 C 
ATOM     15  O   UNL     1      -6.137   1.546  -8.911  1.00  0.00    -0.550 OA
ATOM     16  O   UNL     1      -5.786   0.321  -7.006  1.00  0.00    -0.550 OA
ENDBRANCH  13  14
ENDBRANCH  12  13
ENDBRANCH  11  12
ENDBRANCH  10  11
ENDBRANCH   9  10
ENDBRANCH   8   9
ENDBRANCH   7   8
ENDBRANCH   6   7
ENDBRANCH   5   6
ENDBRANCH   4   5
ENDBRANCH   3   4
ENDBRANCH   2   3
ENDBRANCH   1   2
BRANCH   1  17
ATOM     17  C   UNL     1      -7.589   2.748  -3.805  1.00  0.00     0.000 C 
BRANCH  17  18
ATOM     18  C   UNL     1      -6.430   3.112  -4.750  1.00  0.00     0.000 C 
BRANCH  18  19
ATOM     19  C   UNL     1      -5.865   4.519  -4.483  1.00  0.00     0.000 C 
BRANCH  19  20
ATOM     20  C   UNL     1      -5.886   5.417  -5.732  1.00  0.00     0.000 C 
BRANCH  20  21
ATOM     21  C   UNL     1      -6.515   4.730  -6.953  1.00  0.00     0.000 C 
BRANCH  21  22
ATOM     22  C   UNL     1      -6.326   5.580  -8.220  1.00  0.00    -0.000 C 
BRANCH  22  23
ATOM     23  C   UNL     1      -5.225   6.648  -8.049  1.00  0.00    -0.000 C 
BRANCH  23  24
ATOM     24  C   UNL     1      -5.378   7.858  -8.987  1.00  0.00    -0.000 C 
BRANCH  24  25
ATOM     25  C   UNL     1      -5.986   9.086  -8.287  1.00  0.00    -0.000 C 
BRANCH  25  26
ATOM     26  C   UNL     1      -6.038   8.939  -6.756  1.00  0.00    -0.000 C 
BRANCH  26  27
ATOM     27  C   UNL     1      -7.408   9.238  -6.116  1.00  0.00    -0.000 C 
BRANCH  27  28
ATOM     28  C   UNL     1      -7.547   8.659  -4.698  1.00  0.00    -0.000 C 
BRANCH  28  29
ATOM     29  C   UNL     1      -8.481   7.439  -4.649  1.00  0.00    -0.003 C 
ATOM     30  C   UNL     1      -9.166   7.170  -5.988  1.00  0.00     0.004 C 
ENDBRANCH  28  29
ENDBRANCH  27  28
ENDBRANCH  26  27
ENDBRANCH  25  26
ENDBRANCH  24  25
ENDBRANCH  23  24
ENDBRANCH  22  23
ENDBRANCH  21  22
ENDBRANCH  20  21
ENDBRANCH  19  20
ENDBRANCH  18  19
ENDBRANCH  17  18
ENDBRANCH   1  17
TORSDOF 26
ENDMDL
MODEL 6
REMARK VINA RESULT:    -2.720      4.249      8.657
REMARK INTER + INTRA:         -12.033
REMARK INTER:                  -7.950
REMARK INTRA:                  -4.084
REMARK UNBOUND:                -5.178
REMARK SMILES CCCCCCCCCCCCCCCCCCCCCCCCCCCC(=O)[O-]
REMARK SMILES IDX 15 1 16 2 17 3 18 4 19 5 20 6 21 7 22 8 23 9 24 10 25 11
REMARK SMILES IDX 26 12 27 13 28 14 29 15 30 16 14 17 13 18 12 19 11 20 10 21
REMARK SMILES IDX 9 22 8 23 7 24 6 25 5 26 4 27 3 28 2 29 1 30
REMARK H PARENT
REMARK Flexibility Score: inf
ROOT
ATOM      1  C   UNL     1      -7.903   2.980  -3.094  1.00  0.00     0.000 C 
ENDROOT
BRANCH   1   2
ATOM      2  C   UNL     1      -9.378   2.964  -3.533  1.00  0.00     0.000 C 
BRANCH   2   3
ATOM      3  C   UNL     1      -9.547   2.859  -5.057  1.00  0.00     0.000 C 
BRANCH   3   4
ATOM      4  C   UNL     1      -9.805   4.237  -5.683  1.00  0.00     0.000 C 
BRANCH   4   5
ATOM      5  C   UNL     1      -9.168   4.375  -7.077  1.00  0.00     0.000 C 
BRANCH   5   6
ATOM      6  C   UNL     1      -8.634   3.035  -7.613  1.00  0.00     0.000 C 
BRANCH   6   7
ATOM      7  C   UNL     1      -7.150   3.105  -8.004  1.00  0.00     0.000 C 
BRANCH   7   8
ATOM      8  C   UNL     1      -6.627   1.792  -8.606  1.00  0.00     0.000 C 
BRANCH   8   9
ATOM      9  C   UNL     1      -6.689   0.659  -7.571  1.00  0.00     0.000 C 
BRANCH   9  10
ATOM     10  C   UNL     1      -5.710  -0.485  -7.881  1.00  0.00     0.000 C 
BRANCH  10  11
ATOM     11  C   UNL     1      -6.331  -1.571  -8.773  1.00  0.00     0.000 C 
BRANCH  11  12
ATOM     12  C   UNL     1      -7.859  -1.590  -8.627  1.00  0.00     0.006 C 
BRANCH  12  13
ATOM     13  C   UNL     1      -8.533  -2.493  -9.668  1.00  0.00     0.053 C 
BRANCH  13  14
ATOM     14  C   UNL     1      -8.802  -3.863  -9.126  1.00  0.00     0.041 C 
ATOM     15  O   UNL     1      -8.460  -4.883  -9.783  1.00  0.00    -0.550 OA
ATOM     16  O   UNL     1      -9.416  -4.014  -7.889  1.00  0.00    -0.550 OA
ENDBRANCH  13  14
ENDBRANCH  12  13
ENDBRANCH  11  12
ENDBRANCH  10  11
ENDBRANCH   9  10
ENDBRANCH   8   9
ENDBRANCH   7   8
ENDBRANCH   6   7
ENDBRANCH   5   6
ENDBRANCH   4   5
ENDBRANCH   3   4
ENDBRANCH   2   3
ENDBRANCH   1   2
BRANCH   1  17
ATOM     17  C   UNL     1      -6.901   2.432  -4.134  1.00  0.00     0.000 C 
BRANCH  17  18
ATOM     18  C   UNL     1      -5.941   3.476  -4.731  1.00  0.00     0.000 C 
BRANCH  18  19
ATOM     19  C   UNL     1      -6.435   4.920  -4.534  1.00  0.00     0.000 C 
BRANCH  19  20
ATOM     20  C   UNL     1      -5.539   5.957  -5.232  1.00  0.00     0.000 C 
BRANCH  20  21
ATOM     21  C   UNL     1      -5.873   6.134  -6.720  1.00  0.00     0.000 C 
BRANCH  21  22
ATOM     22  C   UNL     1      -6.289   7.583  -7.022  1.00  0.00    -0.000 C 
BRANCH  22  23
ATOM     23  C   UNL     1      -7.580   7.988  -6.277  1.00  0.00    -0.000 C 
BRANCH  23  24
ATOM     24  C   UNL     1      -7.430   9.247  -5.407  1.00  0.00    -0.000 C 
BRANCH  24  25
ATOM     25  C   UNL     1      -8.346   9.235  -4.171  1.00  0.00    -0.000 C 
BRANCH  25  26
ATOM     26  C   UNL     1      -7.765   8.420  -3.001  1.00  0.00    -0.000 C 
BRANCH  26  27
ATOM     27  C   UNL     1      -8.506   7.106  -2.687  1.00  0.00    -0.000 C 
BRANCH  27  28
ATOM     28  C   UNL     1      -7.905   6.348  -1.491  1.00  0.00    -0.000 C 
BRANCH  28  29
ATOM     29  C   UNL     1      -7.842   7.208  -0.220  1.00  0.00    -0.003 C 
ATOM     30  C   UNL     1      -6.413   7.608   0.148  1.00  0.00     0.004 C 
ENDBRANCH  28  29
ENDBRANCH  27  28
ENDBRANCH  26  27
ENDBRANCH  25  26
ENDBRANCH  24  25
ENDBRANCH  23  24
ENDBRANCH  22  23
ENDBRANCH  21  22
ENDBRANCH  20  21
ENDBRANCH  19  20
ENDBRANCH  18  19
ENDBRANCH  17  18
ENDBRANCH   1  17
TORSDOF 26
ENDMDL
MODEL 7
REMARK VINA RESULT:    -2.702      1.377      2.942
REMARK INTER + INTRA:         -11.987
REMARK INTER:                  -8.114
REMARK INTRA:                  -3.873
REMARK UNBOUND:                -5.178
REMARK SMILES CCCCCCCCCCCCCCCCCCCCCCCCCCCC(=O)[O-]
REMARK SMILES IDX 15 1 16 2 17 3 18 4 19 5 20 6 21 7 22 8 23 9 24 10 25 11
REMARK SMILES IDX 26 12 27 13 28 14 29 15 30 16 14 17 13 18 12 19 11 20 10 21
REMARK SMILES IDX 9 22 8 23 7 24 6 25 5 26 4 27 3 28 2 29 1 30
REMARK H PARENT
REMARK Flexibility Score: inf
ROOT
ATOM      1  C   UNL     1      -5.874   6.037  -7.136  1.00  0.00     0.000 C 
ENDROOT
BRANCH   1   2
ATOM      2  C   UNL     1      -5.870   7.434  -7.784  1.00  0.00     0.000 C 
BRANCH   2   3
ATOM      3  C   UNL     1      -5.970   8.570  -6.756  1.00  0.00     0.000 C 
BRANCH   3   4
ATOM      4  C   UNL     1      -7.281   9.354  -6.922  1.00  0.00     0.000 C 
BRANCH   4   5
ATOM      5  C   UNL     1      -8.494   8.588  -6.364  1.00  0.00     0.000 C 
BRANCH   5   6
ATOM      6  C   UNL     1      -8.425   8.411  -4.837  1.00  0.00     0.000 C 
BRANCH   6   7
ATOM      7  C   UNL     1      -8.228   9.742  -4.096  1.00  0.00     0.000 C 
BRANCH   7   8
ATOM      8  C   UNL     1      -8.177   9.576  -2.570  1.00  0.00     0.000 C 
BRANCH   8   9
ATOM      9  C   UNL     1      -7.646   8.184  -2.194  1.00  0.00     0.000 C 
BRANCH   9  10
ATOM     10  C   UNL     1      -7.078   8.130  -0.767  1.00  0.00     0.000 C 
BRANCH  10  11
ATOM     11  C   UNL     1      -6.306   9.403  -0.388  1.00  0.00     0.000 C 
BRANCH  11  12
ATOM     12  C   UNL     1      -5.736   9.293   1.034  1.00  0.00     0.006 C 
BRANCH  12  13
ATOM     13  C   UNL     1      -6.559   8.350   1.921  1.00  0.00     0.053 C 
BRANCH  13  14
ATOM     14  C   UNL     1      -7.464   9.104   2.846  1.00  0.00     0.041 C 
ATOM     15  O   UNL     1      -8.629   9.417   2.479  1.00  0.00    -0.550 OA
ATOM     16  O   UNL     1      -7.028   9.449   4.119  1.00  0.00    -0.550 OA
ENDBRANCH  13  14
ENDBRANCH  12  13
ENDBRANCH  11  12
ENDBRANCH  10  11
ENDBRANCH   9  10
ENDBRANCH   8   9
ENDBRANCH   7   8
ENDBRANCH   6   7
ENDBRANCH   5   6
ENDBRANCH   4   5
ENDBRANCH   3   4
ENDBRANCH   2   3
ENDBRANCH   1   2
BRANCH   1  17
ATOM     17  C   UNL     1      -5.628   6.020  -5.611  1.00  0.00     0.000 C 
BRANCH  17  18
ATOM     18  C   UNL     1      -6.148   4.770  -4.878  1.00  0.00     0.000 C 
BRANCH  18  19
ATOM     19  C   UNL     1      -7.385   5.062  -4.010  1.00  0.00     0.000 C 
BRANCH  19  20
ATOM     20  C   UNL     1      -8.132   3.786  -3.587  1.00  0.00     0.000 C 
BRANCH  20  21
ATOM     21  C   UNL     1      -7.446   2.501  -4.075  1.00  0.00     0.000 C 
BRANCH  21  22
ATOM     22  C   UNL     1      -8.485   1.456  -4.515  1.00  0.00    -0.000 C 
BRANCH  22  23
ATOM     23  C   UNL     1      -9.621   2.079  -5.355  1.00  0.00    -0.000 C 
BRANCH  23  24
ATOM     24  C   UNL     1      -9.707   1.531  -6.790  1.00  0.00    -0.000 C 
BRANCH  24  25
ATOM     25  C   UNL     1      -9.623   2.634  -7.859  1.00  0.00    -0.000 C 
BRANCH  25  26
ATOM     26  C   UNL     1      -8.338   3.475  -7.753  1.00  0.00    -0.000 C 
BRANCH  26  27
ATOM     27  C   UNL     1      -7.026   2.667  -7.746  1.00  0.00    -0.000 C 
BRANCH  27  28
ATOM     28  C   UNL     1      -6.665   2.096  -9.128  1.00  0.00    -0.000 C 
BRANCH  28  29
ATOM     29  C   UNL     1      -6.258   0.616  -9.067  1.00  0.00    -0.003 C 
ATOM     30  C   UNL     1      -6.535  -0.012  -7.700  1.00  0.00     0.004 C 
ENDBRANCH  28  29
ENDBRANCH  27  28
ENDBRANCH  26  27
ENDBRANCH  25  26
ENDBRANCH  24  25
ENDBRANCH  23  24
ENDBRANCH  22  23
ENDBRANCH  21  22
ENDBRANCH  20  21
ENDBRANCH  19  20
ENDBRANCH  18  19
ENDBRANCH  17  18
ENDBRANCH   1  17
TORSDOF 26
ENDMDL
MODEL 8
REMARK VINA RESULT:    -2.688      1.382      2.618
REMARK INTER + INTRA:         -11.952
REMARK INTER:                  -7.562
REMARK INTRA:                  -4.390
REMARK UNBOUND:                -5.178
REMARK SMILES CCCCCCCCCCCCCCCCCCCCCCCCCCCC(=O)[O-]
REMARK SMILES IDX 15 1 16 2 17 3 18 4 19 5 20 6 21 7 22 8 23 9 24 10 25 11
REMARK SMILES IDX 26 12 27 13 28 14 29 15 30 16 14 17 13 18 12 19 11 20 10 21
REMARK SMILES IDX 9 22 8 23 7 24 6 25 5 26 4 27 3 28 2 29 1 30
REMARK H PARENT
REMARK Flexibility Score: inf
ROOT
ATOM      1  C   UNL     1      -6.032   5.194  -6.339  1.00  0.00     0.000 C 
ENDROOT
BRANCH   1   2
ATOM      2  C   UNL     1      -5.625   6.621  -6.748  1.00  0.00     0.000 C 
BRANCH   2   3
ATOM      3  C   UNL     1      -6.583   7.693  -6.207  1.00  0.00     0.000 C 
BRANCH   3   4
ATOM      4  C   UNL     1      -7.687   8.015  -7.225  1.00  0.00     0.000 C 
BRANCH   4   5
ATOM      5  C   UNL     1      -8.867   7.031  -7.138  1.00  0.00     0.000 C 
BRANCH   5   6
ATOM      6  C   UNL     1      -9.243   6.691  -5.685  1.00  0.00     0.000 C 
BRANCH   6   7
ATOM      7  C   UNL     1     -10.125   7.768  -5.036  1.00  0.00     0.000 C 
BRANCH   7   8
ATOM      8  C   UNL     1      -9.807   7.987  -3.549  1.00  0.00     0.000 C 
BRANCH   8   9
ATOM      9  C   UNL     1      -8.849   6.901  -3.035  1.00  0.00     0.000 C 
BRANCH   9  10
ATOM     10  C   UNL     1      -7.484   7.465  -2.609  1.00  0.00     0.000 C 
BRANCH  10  11
ATOM     11  C   UNL     1      -6.751   6.554  -1.613  1.00  0.00     0.000 C 
BRANCH  11  12
ATOM     12  C   UNL     1      -6.032   7.385  -0.540  1.00  0.00     0.006 C 
BRANCH  12  13
ATOM     13  C   UNL     1      -6.964   8.402   0.132  1.00  0.00     0.053 C 
BRANCH  13  14
ATOM     14  C   UNL     1      -7.529   7.877   1.416  1.00  0.00     0.041 C 
ATOM     15  O   UNL     1      -8.453   7.021   1.399  1.00  0.00    -0.550 OA
ATOM     16  O   UNL     1      -7.024   8.322   2.631  1.00  0.00    -0.550 OA
ENDBRANCH  13  14
ENDBRANCH  12  13
ENDBRANCH  11  12
ENDBRANCH  10  11
ENDBRANCH   9  10
ENDBRANCH   8   9
ENDBRANCH   7   8
ENDBRANCH   6   7
ENDBRANCH   5   6
ENDBRANCH   4   5
ENDBRANCH   3   4
ENDBRANCH   2   3
ENDBRANCH   1   2
BRANCH   1  17
ATOM     17  C   UNL     1      -5.959   4.898  -4.825  1.00  0.00     0.000 C 
BRANCH  17  18
ATOM     18  C   UNL     1      -6.333   3.461  -4.419  1.00  0.00     0.000 C 
BRANCH  18  19
ATOM     19  C   UNL     1      -7.516   3.410  -3.435  1.00  0.00     0.000 C 
BRANCH  19  20
ATOM     20  C   UNL     1      -8.853   3.095  -4.127  1.00  0.00     0.000 C 
BRANCH  20  21
ATOM     21  C   UNL     1      -9.013   1.607  -4.473  1.00  0.00     0.000 C 
BRANCH  21  22
ATOM     22  C   UNL     1      -9.008   1.392  -5.995  1.00  0.00    -0.000 C 
BRANCH  22  23
ATOM     23  C   UNL     1      -9.177   2.715  -6.773  1.00  0.00    -0.000 C 
BRANCH  23  24
ATOM     24  C   UNL     1      -8.173   2.894  -7.925  1.00  0.00    -0.000 C 
BRANCH  24  25
ATOM     25  C   UNL     1      -6.975   1.933  -7.831  1.00  0.00    -0.000 C 
BRANCH  25  26
ATOM     26  C   UNL     1      -6.462   1.478  -9.209  1.00  0.00    -0.000 C 
BRANCH  26  27
ATOM     27  C   UNL     1      -6.511  -0.042  -9.456  1.00  0.00    -0.000 C 
BRANCH  27  28
ATOM     28  C   UNL     1      -7.202  -0.813  -8.317  1.00  0.00    -0.000 C 
BRANCH  28  29
ATOM     29  C   UNL     1      -8.473  -1.540  -8.784  1.00  0.00    -0.003 C 
ATOM     30  C   UNL     1      -8.277  -3.052  -8.892  1.00  0.00     0.004 C 
ENDBRANCH  28  29
ENDBRANCH  27  28
ENDBRANCH  26  27
ENDBRANCH  25  26
ENDBRANCH  24  25
ENDBRANCH  23  24
ENDBRANCH  22  23
ENDBRANCH  21  22
ENDBRANCH  20  21
ENDBRANCH  19  20
ENDBRANCH  18  19
ENDBRANCH  17  18
ENDBRANCH   1  17
TORSDOF 26
ENDMDL
MODEL 9
REMARK VINA RESULT:    -2.680      1.357      4.015
REMARK INTER + INTRA:         -11.931
REMARK INTER:                  -6.633
REMARK INTRA:                  -5.298
REMARK UNBOUND:                -5.178
REMARK SMILES CCCCCCCCCCCCCCCCCCCCCCCCCCCC(=O)[O-]
REMARK SMILES IDX 15 1 16 2 17 3 18 4 19 5 20 6 21 7 22 8 23 9 24 10 25 11
REMARK SMILES IDX 26 12 27 13 28 14 29 15 30 16 14 17 13 18 12 19 11 20 10 21
REMARK SMILES IDX 9 22 8 23 7 24 6 25 5 26 4 27 3 28 2 29 1 30
REMARK H PARENT
REMARK Flexibility Score: inf
ROOT
ATOM      1  C   UNL     1      -5.989   5.418  -7.060  1.00  0.00     0.000 C 
ENDROOT
BRANCH   1   2
ATOM      2  C   UNL     1      -5.261   6.769  -7.183  1.00  0.00     0.000 C 
BRANCH   2   3
ATOM      3  C   UNL     1      -5.534   7.475  -8.520  1.00  0.00     0.000 C 
BRANCH   3   4
ATOM      4  C   UNL     1      -6.221   8.831  -8.301  1.00  0.00     0.000 C 
BRANCH   4   5
ATOM      5  C   UNL     1      -7.742   8.692  -8.115  1.00  0.00     0.000 C 
BRANCH   5   6
ATOM      6  C   UNL     1      -8.252   9.427  -6.863  1.00  0.00     0.000 C 
BRANCH   6   7
ATOM      7  C   UNL     1      -7.190   9.513  -5.756  1.00  0.00     0.000 C 
BRANCH   7   8
ATOM      8  C   UNL     1      -7.754   9.216  -4.359  1.00  0.00     0.000 C 
BRANCH   8   9
ATOM      9  C   UNL     1      -8.811   8.103  -4.428  1.00  0.00     0.000 C 
BRANCH   9  10
ATOM     10  C   UNL     1      -8.710   7.113  -3.257  1.00  0.00     0.000 C 
BRANCH  10  11
ATOM     11  C   UNL     1      -7.360   7.193  -2.528  1.00  0.00     0.000 C 
BRANCH  11  12
ATOM     12  C   UNL     1      -7.535   6.935  -1.025  1.00  0.00     0.006 C 
BRANCH  12  13
ATOM     13  C   UNL     1      -6.272   7.276  -0.224  1.00  0.00     0.053 C 
BRANCH  13  14
ATOM     14  C   UNL     1      -6.206   8.732   0.119  1.00  0.00     0.041 C 
ATOM     15  O   UNL     1      -5.102   9.339   0.100  1.00  0.00    -0.550 OA
ATOM     16  O   UNL     1      -7.367   9.424   0.444  1.00  0.00    -0.550 OA
ENDBRANCH  13  14
ENDBRANCH  12  13
ENDBRANCH  11  12
ENDBRANCH  10  11
ENDBRANCH   9  10
ENDBRANCH   8   9
ENDBRANCH   7   8
ENDBRANCH   6   7
ENDBRANCH   5   6
ENDBRANCH   4   5
ENDBRANCH   3   4
ENDBRANCH   2   3
ENDBRANCH   1   2
BRANCH   1  17
ATOM     17  C   UNL     1      -7.252   5.431  -6.172  1.00  0.00     0.000 C 
BRANCH  17  18
ATOM     18  C   UNL     1      -8.585   5.272  -6.926  1.00  0.00     0.000 C 
BRANCH  18  19
ATOM     19  C   UNL     1      -8.390   5.041  -8.435  1.00  0.00     0.000 C 
BRANCH  19  20
ATOM     20  C   UNL     1      -8.544   3.565  -8.837  1.00  0.00     0.000 C 
BRANCH  20  21
ATOM     21  C   UNL     1      -7.403   3.065  -9.736  1.00  0.00     0.000 C 
BRANCH  21  22
ATOM     22  C   UNL     1      -6.580   1.978  -9.027  1.00  0.00    -0.000 C 
BRANCH  22  23
ATOM     23  C   UNL     1      -7.388   1.258  -7.925  1.00  0.00    -0.000 C 
BRANCH  23  24
ATOM     24  C   UNL     1      -6.600   1.025  -6.625  1.00  0.00    -0.000 C 
BRANCH  24  25
ATOM     25  C   UNL     1      -7.097   1.897  -5.459  1.00  0.00    -0.000 C 
BRANCH  25  26
ATOM     26  C   UNL     1      -8.632   1.916  -5.337  1.00  0.00    -0.000 C 
BRANCH  26  27
ATOM     27  C   UNL     1      -9.180   2.654  -4.100  1.00  0.00    -0.000 C 
BRANCH  27  28
ATOM     28  C   UNL     1      -8.084   3.370  -3.293  1.00  0.00    -0.000 C 
BRANCH  28  29
ATOM     29  C   UNL     1      -8.402   3.432  -1.791  1.00  0.00    -0.003 C 
ATOM     30  C   UNL     1      -9.817   3.939  -1.513  1.00  0.00     0.004 C 
ENDBRANCH  28  29
ENDBRANCH  27  28
ENDBRANCH  26  27
ENDBRANCH  25  26
ENDBRANCH  24  25
ENDBRANCH  23  24
ENDBRANCH  22  23
ENDBRANCH  21  22
ENDBRANCH  20  21
ENDBRANCH  19  20
ENDBRANCH  18  19
ENDBRANCH  17  18
ENDBRANCH   1  17
TORSDOF 26
ENDMDL
