MODEL 1
REMARK VINA RESULT:    -4.508      0.000      0.000
REMARK INTER + INTRA:          -6.844
REMARK INTER:                  -6.353
REMARK INTRA:                  -0.491
REMARK UNBOUND:                -0.491
REMARK SMILES C=CCCCCCCC(=O)[O-]
REMARK SMILES IDX 6 1 7 2 8 3 9 4 10 5 11 6 5 7 4 8 3 9 2 10 1 11
REMARK H PARENT
REMARK Flexibility Score: inf
ROOT
ATOM      1  C   UNL     1      11.498   1.571  -0.321  1.00  0.00     0.000 C 
ENDROOT
BRANCH   1   2
ATOM      2  C   UNL     1      10.197   2.379  -0.396  1.00  0.00     0.006 C 
BRANCH   2   3
ATOM      3  C   UNL     1       9.925   3.107   0.923  1.00  0.00     0.053 C 
BRANCH   3   4
ATOM      4  C   UNL     1       9.571   4.538   0.669  1.00  0.00     0.041 C 
ATOM      5  O   UNL     1      10.013   5.129  -0.351  1.00  0.00    -0.550 OA
ATOM      6  O   UNL     1       8.791   5.234   1.583  1.00  0.00    -0.550 OA
ENDBRANCH   3   4
ENDBRANCH   2   3
ENDBRANCH   1   2
BRANCH   1   7
ATOM      7  C   UNL     1      12.266   1.640  -1.647  1.00  0.00     0.000 C 
BRANCH   7   8
ATOM      8  C   UNL     1      11.888   2.898  -2.436  1.00  0.00     0.004 C 
BRANCH   8   9
ATOM      9  C   UNL     1      11.419   2.539  -3.852  1.00  0.00     0.027 C 
BRANCH   9  10
ATOM     10  C   UNL     1      11.557   1.065  -4.115  1.00  0.00    -0.035 C 
ATOM     11  C   UNL     1      11.631   0.577  -5.357  1.00  0.00     0.004 C 
ENDBRANCH   9  10
ENDBRANCH   8   9
ENDBRANCH   7   8
ENDBRANCH   1   7
TORSDOF 7
ENDMDL
MODEL 2
REMARK VINA RESULT:    -4.432      3.345      5.686
REMARK INTER + INTRA:          -6.737
REMARK INTER:                  -6.460
REMARK INTRA:                  -0.277
REMARK UNBOUND:                -0.491
REMARK SMILES C=CCCCCCCC(=O)[O-]
REMARK SMILES IDX 6 1 7 2 8 3 9 4 10 5 11 6 5 7 4 8 3 9 2 10 1 11
REMARK H PARENT
REMARK Flexibility Score: inf
ROOT
ATOM      1  C   UNL     1      11.824   3.026  -2.201  1.00  0.00     0.000 C 
ENDROOT
BRANCH   1   2
ATOM      2  C   UNL     1      11.169   2.591  -3.517  1.00  0.00     0.006 C 
BRANCH   2   3
ATOM      3  C   UNL     1      11.563   1.157  -3.880  1.00  0.00     0.053 C 
BRANCH   3   4
ATOM      4  C   UNL     1      11.582   0.978  -5.365  1.00  0.00     0.041 C 
ATOM      5  O   UNL     1      11.316   1.947  -6.124  1.00  0.00    -0.550 OA
ATOM      6  O   UNL     1      11.845  -0.271  -5.912  1.00  0.00    -0.550 OA
ENDBRANCH   3   4
ENDBRANCH   2   3
ENDBRANCH   1   2
BRANCH   1   7
ATOM      7  C   UNL     1      12.279   1.810  -1.385  1.00  0.00     0.000 C 
BRANCH   7   8
ATOM      8  C   UNL     1      11.324   1.544  -0.215  1.00  0.00     0.004 C 
BRANCH   8   9
ATOM      9  C   UNL     1      10.073   2.425  -0.315  1.00  0.00     0.027 C 
BRANCH   9  10
ATOM     10  C   UNL     1       9.887   3.252   0.927  1.00  0.00    -0.035 C 
ATOM     11  C   UNL     1       8.917   4.167   1.025  1.00  0.00     0.004 C 
ENDBRANCH   9  10
ENDBRANCH   8   9
ENDBRANCH   7   8
ENDBRANCH   1   7
TORSDOF 7
ENDMDL
MODEL 3
REMARK VINA RESULT:    -4.353      3.530      5.518
REMARK INTER + INTRA:          -6.625
REMARK INTER:                  -6.346
REMARK INTRA:                  -0.279
REMARK UNBOUND:                -0.491
REMARK SMILES C=CCCCCCCC(=O)[O-]
REMARK SMILES IDX 6 1 7 2 8 3 9 4 10 5 11 6 5 7 4 8 3 9 2 10 1 11
REMARK H PARENT
REMARK Flexibility Score: inf
ROOT
ATOM      1  C   UNL     1      10.090   1.920  -2.035  1.00  0.00     0.000 C 
ENDROOT
BRANCH   1   2
ATOM      2  C   UNL     1      10.729   2.271  -3.384  1.00  0.00     0.006 C 
BRANCH   2   3
ATOM      3  C   UNL     1      11.605   1.123  -3.893  1.00  0.00     0.053 C 
BRANCH   3   4
ATOM      4  C   UNL     1      11.584   1.070  -5.388  1.00  0.00     0.041 C 
ATOM      5  O   UNL     1      11.789  -0.018  -5.987  1.00  0.00    -0.550 OA
ATOM      6  O   UNL     1      11.386   2.233  -6.121  1.00  0.00    -0.550 OA
ENDBRANCH   3   4
ENDBRANCH   2   3
ENDBRANCH   1   2
BRANCH   1   7
ATOM      7  C   UNL     1      10.823   2.614  -0.881  1.00  0.00     0.000 C 
BRANCH   7   8
ATOM      8  C   UNL     1      11.437   1.586   0.077  1.00  0.00     0.004 C 
BRANCH   8   9
ATOM      9  C   UNL     1      12.609   0.850  -0.584  1.00  0.00     0.027 C 
BRANCH   9  10
ATOM     10  C   UNL     1      13.361   0.013   0.414  1.00  0.00    -0.035 C 
ATOM     11  C   UNL     1      12.784  -0.432   1.534  1.00  0.00     0.004 C 
ENDBRANCH   9  10
ENDBRANCH   8   9
ENDBRANCH   7   8
ENDBRANCH   1   7
TORSDOF 7
ENDMDL
MODEL 4
REMARK VINA RESULT:    -4.334      0.928      1.742
REMARK INTER + INTRA:          -6.599
REMARK INTER:                  -6.206
REMARK INTRA:                  -0.393
REMARK UNBOUND:                -0.491
REMARK SMILES C=CCCCCCCC(=O)[O-]
REMARK SMILES IDX 6 1 7 2 8 3 9 4 10 5 11 6 5 7 4 8 3 9 2 10 1 11
REMARK H PARENT
REMARK Flexibility Score: inf
ROOT
ATOM      1  C   UNL     1      10.201   2.642  -0.426  1.00  0.00     0.000 C 
ENDROOT
BRANCH   1   2
ATOM      2  C   UNL     1       9.987   3.154   1.003  1.00  0.00     0.006 C 
BRANCH   2   3
ATOM      3  C   UNL     1       9.130   4.423   1.011  1.00  0.00     0.053 C 
BRANCH   3   4
ATOM      4  C   UNL     1       9.951   5.607   1.411  1.00  0.00     0.041 C 
ATOM      5  O   UNL     1      10.446   5.674   2.567  1.00  0.00    -0.550 OA
ATOM      6  O   UNL     1      10.130   6.661   0.524  1.00  0.00    -0.550 OA
ENDBRANCH   3   4
ENDBRANCH   2   3
ENDBRANCH   1   2
BRANCH   1   7
ATOM      7  C   UNL     1      11.281   1.554  -0.465  1.00  0.00     0.000 C 
BRANCH   7   8
ATOM      8  C   UNL     1      12.298   1.828  -1.580  1.00  0.00     0.004 C 
BRANCH   8   9
ATOM      9  C   UNL     1      11.785   2.911  -2.538  1.00  0.00     0.027 C 
BRANCH   9  10
ATOM     10  C   UNL     1      11.590   2.364  -3.925  1.00  0.00    -0.035 C 
ATOM     11  C   UNL     1      11.582   1.050  -4.168  1.00  0.00     0.004 C 
ENDBRANCH   9  10
ENDBRANCH   8   9
ENDBRANCH   7   8
ENDBRANCH   1   7
TORSDOF 7
ENDMDL
MODEL 5
REMARK VINA RESULT:    -4.272      2.866      5.550
REMARK INTER + INTRA:          -6.511
REMARK INTER:                  -6.185
REMARK INTRA:                  -0.326
REMARK UNBOUND:                -0.491
REMARK SMILES C=CCCCCCCC(=O)[O-]
REMARK SMILES IDX 6 1 7 2 8 3 9 4 10 5 11 6 5 7 4 8 3 9 2 10 1 11
REMARK H PARENT
REMARK Flexibility Score: inf
ROOT
ATOM      1  C   UNL     1      11.369   1.621  -0.484  1.00  0.00     0.000 C 
ENDROOT
BRANCH   1   2
ATOM      2  C   UNL     1      12.295   1.866  -1.682  1.00  0.00     0.006 C 
BRANCH   2   3
ATOM      3  C   UNL     1      11.669   2.855  -2.668  1.00  0.00     0.053 C 
BRANCH   3   4
ATOM      4  C   UNL     1      11.503   2.222  -4.013  1.00  0.00     0.041 C 
ATOM      5  O   UNL     1      11.298   2.936  -5.029  1.00  0.00    -0.550 OA
ATOM      6  O   UNL     1      11.528   0.839  -4.137  1.00  0.00    -0.550 OA
ENDBRANCH   3   4
ENDBRANCH   2   3
ENDBRANCH   1   2
BRANCH   1   7
ATOM      7  C   UNL     1      10.229   2.646  -0.452  1.00  0.00     0.000 C 
BRANCH   7   8
ATOM      8  C   UNL     1       9.971   3.137   0.978  1.00  0.00     0.004 C 
BRANCH   8   9
ATOM      9  C   UNL     1       9.038   4.355   0.982  1.00  0.00     0.027 C 
BRANCH   9  10
ATOM     10  C   UNL     1       9.801   5.625   1.236  1.00  0.00    -0.035 C 
ATOM     11  C   UNL     1      10.327   5.902   2.432  1.00  0.00     0.004 C 
ENDBRANCH   9  10
ENDBRANCH   8   9
ENDBRANCH   7   8
ENDBRANCH   1   7
TORSDOF 7
ENDMDL
MODEL 6
REMARK VINA RESULT:    -4.248      2.941      5.093
REMARK INTER + INTRA:          -6.478
REMARK INTER:                  -5.858
REMARK INTRA:                  -0.619
REMARK UNBOUND:                -0.491
REMARK SMILES C=CCCCCCCC(=O)[O-]
REMARK SMILES IDX 6 1 7 2 8 3 9 4 10 5 11 6 5 7 4 8 3 9 2 10 1 11
REMARK H PARENT
REMARK Flexibility Score: inf
ROOT
ATOM      1  C   UNL     1      11.398   1.642  -0.585  1.00  0.00     0.000 C 
ENDROOT
BRANCH   1   2
ATOM      2  C   UNL     1      12.242   2.048  -1.799  1.00  0.00     0.006 C 
BRANCH   2   3
ATOM      3  C   UNL     1      11.404   2.829  -2.815  1.00  0.00     0.053 C 
BRANCH   3   4
ATOM      4  C   UNL     1      11.474   2.181  -4.161  1.00  0.00     0.041 C 
ATOM      5  O   UNL     1      11.384   2.877  -5.206  1.00  0.00    -0.550 OA
ATOM      6  O   UNL     1      11.590   0.800  -4.263  1.00  0.00    -0.550 OA
ENDBRANCH   3   4
ENDBRANCH   2   3
ENDBRANCH   1   2
BRANCH   1   7
ATOM      7  C   UNL     1      10.144   2.517  -0.469  1.00  0.00     0.000 C 
BRANCH   7   8
ATOM      8  C   UNL     1      10.001   3.088   0.947  1.00  0.00     0.004 C 
BRANCH   8   9
ATOM      9  C   UNL     1       9.623   4.574   0.906  1.00  0.00     0.027 C 
BRANCH   9  10
ATOM     10  C   UNL     1       9.672   5.110  -0.498  1.00  0.00    -0.035 C 
ATOM     11  C   UNL     1      10.422   6.169  -0.821  1.00  0.00     0.004 C 
ENDBRANCH   9  10
ENDBRANCH   8   9
ENDBRANCH   7   8
ENDBRANCH   1   7
TORSDOF 7
ENDMDL
MODEL 7
REMARK VINA RESULT:    -4.056      1.744      3.263
REMARK INTER + INTRA:          -6.206
REMARK INTER:                  -5.819
REMARK INTRA:                  -0.387
REMARK UNBOUND:                -0.491
REMARK SMILES C=CCCCCCCC(=O)[O-]
REMARK SMILES IDX 6 1 7 2 8 3 9 4 10 5 11 6 5 7 4 8 3 9 2 10 1 11
REMARK H PARENT
REMARK Flexibility Score: inf
ROOT
ATOM      1  C   UNL     1      10.707   3.510  -3.015  1.00  0.00     0.000 C 
ENDROOT
BRANCH   1   2
ATOM      2  C   UNL     1      10.158   4.279  -1.808  1.00  0.00     0.006 C 
BRANCH   2   3
ATOM      3  C   UNL     1       8.912   3.594  -1.239  1.00  0.00     0.053 C 
BRANCH   3   4
ATOM      4  C   UNL     1       8.790   3.861   0.227  1.00  0.00     0.041 C 
ATOM      5  O   UNL     1       7.891   4.629   0.659  1.00  0.00    -0.550 OA
ATOM      6  O   UNL     1       9.700   3.300   1.114  1.00  0.00    -0.550 OA
ENDBRANCH   3   4
ENDBRANCH   2   3
ENDBRANCH   1   2
BRANCH   1   7
ATOM      7  C   UNL     1      11.049   2.064  -2.637  1.00  0.00     0.000 C 
BRANCH   7   8
ATOM      8  C   UNL     1      12.222   2.016  -1.650  1.00  0.00     0.004 C 
BRANCH   8   9
ATOM      9  C   UNL     1      11.864   1.186  -0.411  1.00  0.00     0.027 C 
BRANCH   9  10
ATOM     10  C   UNL     1      12.962   0.219  -0.066  1.00  0.00    -0.035 C 
ATOM     11  C   UNL     1      13.038  -0.360   1.136  1.00  0.00     0.004 C 
ENDBRANCH   9  10
ENDBRANCH   8   9
ENDBRANCH   7   8
ENDBRANCH   1   7
TORSDOF 7
ENDMDL
MODEL 8
REMARK VINA RESULT:    -4.044      1.417      2.191
REMARK INTER + INTRA:          -6.190
REMARK INTER:                  -5.528
REMARK INTRA:                  -0.662
REMARK UNBOUND:                -0.491
REMARK SMILES C=CCCCCCCC(=O)[O-]
REMARK SMILES IDX 6 1 7 2 8 3 9 4 10 5 11 6 5 7 4 8 3 9 2 10 1 11
REMARK H PARENT
REMARK Flexibility Score: inf
ROOT
ATOM      1  C   UNL     1      10.146   2.841   0.426  1.00  0.00     0.000 C 
ENDROOT
BRANCH   1   2
ATOM      2  C   UNL     1       9.211   4.029   0.174  1.00  0.00     0.006 C 
BRANCH   2   3
ATOM      3  C   UNL     1       9.118   4.349  -1.321  1.00  0.00     0.053 C 
BRANCH   3   4
ATOM      4  C   UNL     1       9.851   5.615  -1.633  1.00  0.00     0.041 C 
ATOM      5  O   UNL     1      11.106   5.612  -1.735  1.00  0.00    -0.550 OA
ATOM      6  O   UNL     1       9.153   6.808  -1.763  1.00  0.00    -0.550 OA
ENDBRANCH   3   4
ENDBRANCH   2   3
ENDBRANCH   1   2
BRANCH   1   7
ATOM      7  C   UNL     1      10.287   1.975  -0.831  1.00  0.00     0.000 C 
BRANCH   7   8
ATOM      8  C   UNL     1      11.761   1.672  -1.128  1.00  0.00     0.004 C 
BRANCH   8   9
ATOM      9  C   UNL     1      12.248   2.454  -2.354  1.00  0.00     0.027 C 
BRANCH   9  10
ATOM     10  C   UNL     1      11.388   2.176  -3.555  1.00  0.00    -0.035 C 
ATOM     11  C   UNL     1      11.514   1.051  -4.265  1.00  0.00     0.004 C 
ENDBRANCH   9  10
ENDBRANCH   8   9
ENDBRANCH   7   8
ENDBRANCH   1   7
TORSDOF 7
ENDMDL
MODEL 9
REMARK VINA RESULT:    -4.003      2.132      4.855
REMARK INTER + INTRA:          -6.133
REMARK INTER:                  -5.754
REMARK INTRA:                  -0.378
REMARK UNBOUND:                -0.491
REMARK SMILES C=CCCCCCCC(=O)[O-]
REMARK SMILES IDX 6 1 7 2 8 3 9 4 10 5 11 6 5 7 4 8 3 9 2 10 1 11
REMARK H PARENT
REMARK Flexibility Score: inf
ROOT
ATOM      1  C   UNL     1      12.158   1.893  -1.891  1.00  0.00     0.000 C 
ENDROOT
BRANCH   1   2
ATOM      2  C   UNL     1      11.128   1.586  -2.985  1.00  0.00     0.006 C 
BRANCH   2   3
ATOM      3  C   UNL     1      11.552   2.190  -4.326  1.00  0.00     0.053 C 
BRANCH   3   4
ATOM      4  C   UNL     1      10.831   3.477  -4.572  1.00  0.00     0.041 C 
ATOM      5  O   UNL     1      10.979   4.088  -5.663  1.00  0.00    -0.550 OA
ATOM      6  O   UNL     1      10.032   4.028  -3.579  1.00  0.00    -0.550 OA
ENDBRANCH   3   4
ENDBRANCH   2   3
ENDBRANCH   1   2
BRANCH   1   7
ATOM      7  C   UNL     1      11.543   1.734  -0.496  1.00  0.00     0.000 C 
BRANCH   7   8
ATOM      8  C   UNL     1      10.155   2.382  -0.428  1.00  0.00     0.004 C 
BRANCH   8   9
ATOM      9  C   UNL     1       9.954   3.114   0.905  1.00  0.00     0.027 C 
BRANCH   9  10
ATOM     10  C   UNL     1       8.790   4.063   0.836  1.00  0.00    -0.035 C 
ATOM     11  C   UNL     1       8.086   4.233  -0.288  1.00  0.00     0.004 C 
ENDBRANCH   9  10
ENDBRANCH   8   9
ENDBRANCH   7   8
ENDBRANCH   1   7
TORSDOF 7
ENDMDL
