MODEL 1
REMARK VINA RESULT:    -2.313      0.000      0.000
REMARK INTER + INTRA:          -2.903
REMARK INTER:                  -2.786
REMARK INTRA:                  -0.117
REMARK UNBOUND:                -0.117
REMARK SMILES Oc1cc(O)c2c(c1)O[C@@H](c1ccc(O)c(O)c1)[C@@H](O)C2
REMARK SMILES IDX 21 1 19 2 10 3 9 4 7 5 8 6 2 7 3 8 4 9 6 10 20 11 11 13
REMARK SMILES IDX 18 14 12 15 16 16 13 17 14 18 17 19 15 21 5 23 1 25
REMARK H PARENT 20 12 17 20 15 22 5 24 1 26
REMARK Flexibility Score: inf
ROOT
ATOM      1  C   UNL     1      13.989 -10.814  30.447  1.00  0.00     0.079 C 
ATOM      2  C   UNL     1      14.707 -11.875  29.588  1.00  0.00     0.164 C 
ATOM      3  C   UNL     1      13.842 -13.150  29.485  1.00  0.00     0.232 C 
ATOM      4  O   UNL     1      12.542 -12.834  28.988  1.00  0.00    -0.482 OA
ATOM      5  C   UNL     1      11.863 -11.668  29.366  1.00  0.00     0.131 A 
ATOM      6  C   UNL     1      10.517 -11.518  29.022  1.00  0.00     0.093 A 
ATOM      7  C   UNL     1       9.819 -10.365  29.392  1.00  0.00     0.122 A 
ATOM      8  C   UNL     1      10.472  -9.357  30.112  1.00  0.00     0.092 A 
ATOM      9  C   UNL     1      11.825  -9.490  30.453  1.00  0.00     0.126 A 
ATOM     10  C   UNL     1      12.536 -10.642  30.063  1.00  0.00     0.039 A 
ENDROOT
BRANCH   2  11
ATOM     11  O   UNL     1      15.031 -11.359  28.318  1.00  0.00    -0.389 OA
ATOM     12  H   UNL     1      14.800 -10.395  28.308  1.00  0.00     0.211 HD
ENDBRANCH   2  11
BRANCH   3  13
ATOM     13  C   UNL     1      14.503 -14.199  28.621  1.00  0.00    -0.001 A 
ATOM     14  C   UNL     1      15.305 -15.190  29.214  1.00  0.00     0.057 A 
ATOM     15  C   UNL     1      14.386 -14.161  27.220  1.00  0.00     0.012 A 
ATOM     16  C   UNL     1      15.961 -16.143  28.422  1.00  0.00     0.157 A 
ATOM     17  C   UNL     1      15.037 -15.112  26.431  1.00  0.00     0.050 A 
ATOM     18  C   UNL     1      15.824 -16.105  27.024  1.00  0.00     0.157 A 
BRANCH  16  19
ATOM     19  O   UNL     1      16.751 -17.125  29.020  1.00  0.00    -0.504 OA
ATOM     20  H   UNL     1      16.349 -17.984  29.376  1.00  0.00     0.293 HD
ENDBRANCH  16  19
BRANCH  18  21
ATOM     21  O   UNL     1      16.463 -17.040  26.210  1.00  0.00    -0.504 OA
ATOM     22  H   UNL     1      16.395 -17.009  25.201  1.00  0.00     0.293 HD
ENDBRANCH  18  21
ENDBRANCH   3  13
BRANCH   9  23
ATOM     23  O   UNL     1      12.464  -8.486  31.181  1.00  0.00    -0.507 OA
ATOM     24  H   UNL     1      13.131  -7.859  30.747  1.00  0.00     0.293 HD
ENDBRANCH   9  23
BRANCH   7  25
ATOM     25  O   UNL     1       8.477 -10.232  29.042  1.00  0.00    -0.508 OA
ATOM     26  H   UNL     1       8.189  -9.654  28.261  1.00  0.00     0.293 HD
ENDBRANCH   7  25
TORSDOF 6
ENDMDL
MODEL 2
REMARK VINA RESULT:    -2.222      9.697     11.599
REMARK INTER + INTRA:          -2.793
REMARK INTER:                  -3.278
REMARK INTRA:                   0.484
REMARK UNBOUND:                -0.117
REMARK SMILES Oc1cc(O)c2c(c1)O[C@@H](c1ccc(O)c(O)c1)[C@@H](O)C2
REMARK SMILES IDX 21 1 19 2 10 3 9 4 7 5 8 6 2 7 3 8 4 9 6 10 20 11 11 13
REMARK SMILES IDX 18 14 12 15 16 16 13 17 14 18 17 19 15 21 5 23 1 25
REMARK H PARENT 20 12 17 20 15 22 5 24 1 26
REMARK Flexibility Score: inf
ROOT
ATOM      1  C   UNL     1      15.560  -0.463  28.903  1.00  0.00     0.079 C 
ATOM      2  C   UNL     1      15.993  -1.871  28.445  1.00  0.00     0.164 C 
ATOM      3  C   UNL     1      15.113  -2.339  27.265  1.00  0.00     0.232 C 
ATOM      4  O   UNL     1      15.150  -1.384  26.205  1.00  0.00    -0.482 OA
ATOM      5  C   UNL     1      15.160  -0.004  26.445  1.00  0.00     0.131 A 
ATOM      6  C   UNL     1      14.977   0.878  25.377  1.00  0.00     0.093 A 
ATOM      7  C   UNL     1      14.979   2.259  25.593  1.00  0.00     0.122 A 
ATOM      8  C   UNL     1      15.163   2.760  26.888  1.00  0.00     0.092 A 
ATOM      9  C   UNL     1      15.359   1.885  27.967  1.00  0.00     0.126 A 
ATOM     10  C   UNL     1      15.378   0.494  27.747  1.00  0.00     0.039 A 
ENDROOT
BRANCH   2  11
ATOM     11  O   UNL     1      17.362  -1.895  28.118  1.00  0.00    -0.389 OA
ATOM     12  H   UNL     1      17.601  -2.820  27.852  1.00  0.00     0.211 HD
ENDBRANCH   2  11
BRANCH   3  13
ATOM     13  C   UNL     1      15.534  -3.703  26.769  1.00  0.00    -0.001 A 
ATOM     14  C   UNL     1      14.559  -4.634  26.371  1.00  0.00     0.057 A 
ATOM     15  C   UNL     1      16.888  -4.085  26.763  1.00  0.00     0.012 A 
ATOM     16  C   UNL     1      14.931  -5.919  25.951  1.00  0.00     0.157 A 
ATOM     17  C   UNL     1      17.259  -5.364  26.341  1.00  0.00     0.050 A 
ATOM     18  C   UNL     1      16.288  -6.284  25.934  1.00  0.00     0.157 A 
BRANCH  16  19
ATOM     19  O   UNL     1      13.955  -6.834  25.554  1.00  0.00    -0.504 OA
ATOM     20  H   UNL     1      14.094  -7.833  25.654  1.00  0.00     0.293 HD
ENDBRANCH  16  19
BRANCH  18  21
ATOM     21  O   UNL     1      16.688  -7.555  25.520  1.00  0.00    -0.504 OA
ATOM     22  H   UNL     1      16.197  -8.392  25.808  1.00  0.00     0.293 HD
ENDBRANCH  18  21
ENDBRANCH   3  13
BRANCH   9  23
ATOM     23  O   UNL     1      15.530   2.393  29.254  1.00  0.00    -0.507 OA
ATOM     24  H   UNL     1      14.748   2.747  29.793  1.00  0.00     0.293 HD
ENDBRANCH   9  23
BRANCH   7  25
ATOM     25  O   UNL     1      14.795   3.124  24.517  1.00  0.00    -0.508 OA
ATOM     26  H   UNL     1      15.495   3.223  23.793  1.00  0.00     0.293 HD
ENDBRANCH   7  25
TORSDOF 6
ENDMDL
MODEL 3
REMARK VINA RESULT:    -1.429      1.509      7.022
REMARK INTER + INTRA:          -1.838
REMARK INTER:                  -1.450
REMARK INTRA:                  -0.388
REMARK UNBOUND:                -0.117
REMARK SMILES Oc1cc(O)c2c(c1)O[C@@H](c1ccc(O)c(O)c1)[C@@H](O)C2
REMARK SMILES IDX 21 1 19 2 10 3 9 4 7 5 8 6 2 7 3 8 4 9 6 10 20 11 11 13
REMARK SMILES IDX 18 14 12 15 16 16 13 17 14 18 17 19 15 21 5 23 1 25
REMARK H PARENT 20 12 17 20 15 22 5 24 1 26
REMARK Flexibility Score: inf
ROOT
ATOM      1  C   UNL     1      14.401 -14.817  27.638  1.00  0.00     0.079 C 
ATOM      2  C   UNL     1      13.898 -13.376  27.860  1.00  0.00     0.164 C 
ATOM      3  C   UNL     1      13.066 -13.298  29.159  1.00  0.00     0.232 C 
ATOM      4  O   UNL     1      13.820 -13.791  30.267  1.00  0.00    -0.482 OA
ATOM      5  C   UNL     1      14.671 -14.898  30.155  1.00  0.00     0.131 A 
ATOM      6  C   UNL     1      15.212 -15.465  31.312  1.00  0.00     0.093 A 
ATOM      7  C   UNL     1      16.059 -16.573  31.226  1.00  0.00     0.122 A 
ATOM      8  C   UNL     1      16.365 -17.118  29.973  1.00  0.00     0.092 A 
ATOM      9  C   UNL     1      15.838 -16.552  28.804  1.00  0.00     0.126 A 
ATOM     10  C   UNL     1      15.001 -15.422  28.888  1.00  0.00     0.039 A 
ENDROOT
BRANCH   2  11
ATOM     11  O   UNL     1      14.971 -12.464  27.872  1.00  0.00    -0.389 OA
ATOM     12  H   UNL     1      15.810 -12.976  28.007  1.00  0.00     0.211 HD
ENDBRANCH   2  11
BRANCH   3  13
ATOM     13  C   UNL     1      12.586 -11.890  29.424  1.00  0.00    -0.001 A 
ATOM     14  C   UNL     1      13.063 -11.187  30.544  1.00  0.00     0.057 A 
ATOM     15  C   UNL     1      11.612 -11.291  28.605  1.00  0.00     0.012 A 
ATOM     16  C   UNL     1      12.595  -9.896  30.828  1.00  0.00     0.157 A 
ATOM     17  C   UNL     1      11.146 -10.004  28.886  1.00  0.00     0.050 A 
ATOM     18  C   UNL     1      11.633  -9.302  29.994  1.00  0.00     0.157 A 
BRANCH  16  19
ATOM     19  O   UNL     1      13.078  -9.206  31.940  1.00  0.00    -0.504 OA
ATOM     20  H   UNL     1      12.580  -9.206  32.822  1.00  0.00     0.293 HD
ENDBRANCH  16  19
BRANCH  18  21
ATOM     21  O   UNL     1      11.148  -8.020  30.250  1.00  0.00    -0.504 OA
ATOM     22  H   UNL     1      11.095  -7.644  31.189  1.00  0.00     0.293 HD
ENDBRANCH  18  21
ENDBRANCH   3  13
BRANCH   9  23
ATOM     23  O   UNL     1      16.139 -17.110  27.561  1.00  0.00    -0.507 OA
ATOM     24  H   UNL     1      16.116 -18.111  27.410  1.00  0.00     0.293 HD
ENDBRANCH   9  23
BRANCH   7  25
ATOM     25  O   UNL     1      16.590 -17.125  32.389  1.00  0.00    -0.508 OA
ATOM     26  H   UNL     1      16.088 -17.828  32.918  1.00  0.00     0.293 HD
ENDBRANCH   7  25
TORSDOF 6
ENDMDL
MODEL 4
REMARK VINA RESULT:    -0.943      9.331     11.115
REMARK INTER + INTRA:          -1.253
REMARK INTER:                  -1.805
REMARK INTRA:                   0.552
REMARK UNBOUND:                -0.117
REMARK SMILES Oc1cc(O)c2c(c1)O[C@@H](c1ccc(O)c(O)c1)[C@@H](O)C2
REMARK SMILES IDX 21 1 19 2 10 3 9 4 7 5 8 6 2 7 3 8 4 9 6 10 20 11 11 13
REMARK SMILES IDX 18 14 12 15 16 16 13 17 14 18 17 19 15 21 5 23 1 25
REMARK H PARENT 20 12 17 20 15 22 5 24 1 26
REMARK Flexibility Score: inf
ROOT
ATOM      1  C   UNL     1      15.869  -1.053  28.716  1.00  0.00     0.079 C 
ATOM      2  C   UNL     1      16.082  -2.492  28.203  1.00  0.00     0.164 C 
ATOM      3  C   UNL     1      14.972  -2.867  27.196  1.00  0.00     0.232 C 
ATOM      4  O   UNL     1      14.914  -1.912  26.137  1.00  0.00    -0.482 OA
ATOM      5  C   UNL     1      15.095  -0.541  26.359  1.00  0.00     0.131 A 
ATOM      6  C   UNL     1      14.815   0.362  25.330  1.00  0.00     0.093 A 
ATOM      7  C   UNL     1      14.983   1.734  25.530  1.00  0.00     0.122 A 
ATOM      8  C   UNL     1      15.434   2.207  26.769  1.00  0.00     0.092 A 
ATOM      9  C   UNL     1      15.730   1.310  27.805  1.00  0.00     0.126 A 
ATOM     10  C   UNL     1      15.581  -0.075  27.598  1.00  0.00     0.039 A 
ENDROOT
BRANCH   2  11
ATOM     11  O   UNL     1      17.366  -2.643  27.645  1.00  0.00    -0.389 OA
ATOM     12  H   UNL     1      18.024  -2.241  28.269  1.00  0.00     0.211 HD
ENDBRANCH   2  11
BRANCH   3  13
ATOM     13  C   UNL     1      15.171  -4.261  26.648  1.00  0.00    -0.001 A 
ATOM     14  C   UNL     1      16.469  -4.785  26.521  1.00  0.00     0.057 A 
ATOM     15  C   UNL     1      14.079  -5.024  26.196  1.00  0.00     0.012 A 
ATOM     16  C   UNL     1      16.673  -6.059  25.974  1.00  0.00     0.157 A 
ATOM     17  C   UNL     1      14.281  -6.295  25.653  1.00  0.00     0.050 A 
ATOM     18  C   UNL     1      15.573  -6.819  25.540  1.00  0.00     0.157 A 
BRANCH  16  19
ATOM     19  O   UNL     1      17.966  -6.571  25.856  1.00  0.00    -0.504 OA
ATOM     20  H   UNL     1      18.781  -5.974  25.928  1.00  0.00     0.293 HD
ENDBRANCH  16  19
BRANCH  18  21
ATOM     21  O   UNL     1      15.745  -8.089  24.992  1.00  0.00    -0.504 OA
ATOM     22  H   UNL     1      16.413  -8.751  25.368  1.00  0.00     0.293 HD
ENDBRANCH  18  21
ENDBRANCH   3  13
BRANCH   9  23
ATOM     23  O   UNL     1      16.167   1.791  29.040  1.00  0.00    -0.507 OA
ATOM     24  H   UNL     1      15.531   2.234  29.692  1.00  0.00     0.293 HD
ENDBRANCH   9  23
BRANCH   7  25
ATOM     25  O   UNL     1      14.699   2.621  24.493  1.00  0.00    -0.508 OA
ATOM     26  H   UNL     1      14.507   2.293  23.555  1.00  0.00     0.293 HD
ENDBRANCH   7  25
TORSDOF 6
ENDMDL
MODEL 5
REMARK VINA RESULT:    -0.549     10.443     13.380
REMARK INTER + INTRA:          -0.778
REMARK INTER:                  -0.445
REMARK INTRA:                  -0.332
REMARK UNBOUND:                -0.117
REMARK SMILES Oc1cc(O)c2c(c1)O[C@@H](c1ccc(O)c(O)c1)[C@@H](O)C2
REMARK SMILES IDX 21 1 19 2 10 3 9 4 7 5 8 6 2 7 3 8 4 9 6 10 20 11 11 13
REMARK SMILES IDX 18 14 12 15 16 16 13 17 14 18 17 19 15 21 5 23 1 25
REMARK H PARENT 20 12 17 20 15 22 5 24 1 26
REMARK Flexibility Score: inf
ROOT
ATOM      1  C   UNL     1      17.882  -2.867  27.606  1.00  0.00     0.079 C 
ATOM      2  C   UNL     1      17.448  -1.664  26.745  1.00  0.00     0.164 C 
ATOM      3  C   UNL     1      15.911  -1.515  26.776  1.00  0.00     0.232 C 
ATOM      4  O   UNL     1      15.445  -1.420  28.122  1.00  0.00    -0.482 OA
ATOM      5  C   UNL     1      16.004  -2.177  29.159  1.00  0.00     0.131 A 
ATOM      6  C   UNL     1      15.371  -2.205  30.404  1.00  0.00     0.093 A 
ATOM      7  C   UNL     1      15.907  -2.958  31.453  1.00  0.00     0.122 A 
ATOM      8  C   UNL     1      17.085  -3.689  31.252  1.00  0.00     0.092 A 
ATOM      9  C   UNL     1      17.736  -3.660  30.011  1.00  0.00     0.126 A 
ATOM     10  C   UNL     1      17.208  -2.886  28.960  1.00  0.00     0.039 A 
ENDROOT
BRANCH   2  11
ATOM     11  O   UNL     1      18.096  -0.485  27.162  1.00  0.00    -0.389 OA
ATOM     12  H   UNL     1      17.429   0.088  27.622  1.00  0.00     0.211 HD
ENDBRANCH   2  11
BRANCH   3  13
ATOM     13  C   UNL     1      15.454  -0.323  25.967  1.00  0.00    -0.001 A 
ATOM     14  C   UNL     1      15.061   0.857  26.621  1.00  0.00     0.057 A 
ATOM     15  C   UNL     1      15.350  -0.396  24.566  1.00  0.00     0.012 A 
ATOM     16  C   UNL     1      14.594   1.957  25.888  1.00  0.00     0.157 A 
ATOM     17  C   UNL     1      14.886   0.700  23.834  1.00  0.00     0.050 A 
ATOM     18  C   UNL     1      14.508   1.877  24.487  1.00  0.00     0.157 A 
BRANCH  16  19
ATOM     19  O   UNL     1      14.210   3.125  26.546  1.00  0.00    -0.504 OA
ATOM     20  H   UNL     1      13.476   3.123  27.245  1.00  0.00     0.293 HD
ENDBRANCH  16  19
BRANCH  18  21
ATOM     21  O   UNL     1      14.047   2.954  23.730  1.00  0.00    -0.504 OA
ATOM     22  H   UNL     1      13.600   3.757  24.155  1.00  0.00     0.293 HD
ENDBRANCH  18  21
ENDBRANCH   3  13
BRANCH   9  23
ATOM     23  O   UNL     1      18.901  -4.402  29.818  1.00  0.00    -0.507 OA
ATOM     24  H   UNL     1      19.111  -4.839  28.927  1.00  0.00     0.293 HD
ENDBRANCH   9  23
BRANCH   7  25
ATOM     25  O   UNL     1      15.263  -2.974  32.688  1.00  0.00    -0.508 OA
ATOM     26  H   UNL     1      15.547  -3.608  33.424  1.00  0.00     0.293 HD
ENDBRANCH   7  25
TORSDOF 6
ENDMDL
MODEL 6
REMARK VINA RESULT:    -0.399      4.369      6.599
REMARK INTER + INTRA:          -0.597
REMARK INTER:                  -0.265
REMARK INTRA:                  -0.332
REMARK UNBOUND:                -0.117
REMARK SMILES Oc1cc(O)c2c(c1)O[C@@H](c1ccc(O)c(O)c1)[C@@H](O)C2
REMARK SMILES IDX 21 1 19 2 10 3 9 4 7 5 8 6 2 7 3 8 4 9 6 10 20 11 11 13
REMARK SMILES IDX 18 14 12 15 16 16 13 17 14 18 17 19 15 21 5 23 1 25
REMARK H PARENT 20 12 17 20 15 22 5 24 1 26
REMARK Flexibility Score: inf
ROOT
ATOM      1  C   UNL     1      12.958  -9.726  29.349  1.00  0.00     0.079 C 
ATOM      2  C   UNL     1      13.093  -8.927  28.037  1.00  0.00     0.164 C 
ATOM      3  C   UNL     1      14.550  -8.987  27.526  1.00  0.00     0.232 C 
ATOM      4  O   UNL     1      14.976 -10.342  27.387  1.00  0.00    -0.482 OA
ATOM      5  C   UNL     1      14.612 -11.335  28.305  1.00  0.00     0.131 A 
ATOM      6  C   UNL     1      15.230 -12.587  28.240  1.00  0.00     0.093 A 
ATOM      7  C   UNL     1      14.887 -13.592  29.149  1.00  0.00     0.122 A 
ATOM      8  C   UNL     1      13.920 -13.341  30.131  1.00  0.00     0.092 A 
ATOM      9  C   UNL     1      13.284 -12.094  30.199  1.00  0.00     0.126 A 
ATOM     10  C   UNL     1      13.614 -11.087  29.271  1.00  0.00     0.039 A 
ENDROOT
BRANCH   2  11
ATOM     11  O   UNL     1      12.181  -9.389  27.069  1.00  0.00    -0.389 OA
ATOM     12  H   UNL     1      12.355 -10.354  26.915  1.00  0.00     0.211 HD
ENDBRANCH   2  11
BRANCH   3  13
ATOM     13  C   UNL     1      14.710  -8.240  26.223  1.00  0.00    -0.001 A 
ATOM     14  C   UNL     1      14.803  -8.953  25.015  1.00  0.00     0.057 A 
ATOM     15  C   UNL     1      14.836  -6.839  26.201  1.00  0.00     0.012 A 
ATOM     16  C   UNL     1      14.996  -8.277  23.801  1.00  0.00     0.157 A 
ATOM     17  C   UNL     1      15.025  -6.165  24.992  1.00  0.00     0.050 A 
ATOM     18  C   UNL     1      15.105  -6.876  23.791  1.00  0.00     0.157 A 
BRANCH  16  19
ATOM     19  O   UNL     1      15.083  -8.994  22.608  1.00  0.00    -0.504 OA
ATOM     20  H   UNL     1      14.723  -8.621  21.738  1.00  0.00     0.293 HD
ENDBRANCH  16  19
BRANCH  18  21
ATOM     21  O   UNL     1      15.297  -6.177  22.600  1.00  0.00    -0.504 OA
ATOM     22  H   UNL     1      16.219  -5.930  22.264  1.00  0.00     0.293 HD
ENDBRANCH  18  21
ENDBRANCH   3  13
BRANCH   9  23
ATOM     23  O   UNL     1      12.331 -11.850  31.187  1.00  0.00    -0.507 OA
ATOM     24  H   UNL     1      11.689 -12.571  31.495  1.00  0.00     0.293 HD
ENDBRANCH   9  23
BRANCH   7  25
ATOM     25  O   UNL     1      15.513 -14.834  29.070  1.00  0.00    -0.508 OA
ATOM     26  H   UNL     1      16.437 -14.936  28.667  1.00  0.00     0.293 HD
ENDBRANCH   7  25
TORSDOF 6
ENDMDL
MODEL 7
REMARK VINA RESULT:     0.138      9.032     12.369
REMARK INTER + INTRA:           0.050
REMARK INTER:                  -0.185
REMARK INTRA:                   0.235
REMARK UNBOUND:                -0.117
REMARK SMILES Oc1cc(O)c2c(c1)O[C@@H](c1ccc(O)c(O)c1)[C@@H](O)C2
REMARK SMILES IDX 21 1 19 2 10 3 9 4 7 5 8 6 2 7 3 8 4 9 6 10 20 11 11 13
REMARK SMILES IDX 18 14 12 15 16 16 13 17 14 18 17 19 15 21 5 23 1 25
REMARK H PARENT 20 12 17 20 15 22 5 24 1 26
REMARK Flexibility Score: inf
ROOT
ATOM      1  C   UNL     1      17.946  -4.224  26.460  1.00  0.00     0.079 C 
ATOM      2  C   UNL     1      17.605  -2.884  27.143  1.00  0.00     0.164 C 
ATOM      3  C   UNL     1      16.361  -2.251  26.480  1.00  0.00     0.232 C 
ATOM      4  O   UNL     1      15.267  -3.167  26.495  1.00  0.00    -0.482 OA
ATOM      5  C   UNL     1      15.440  -4.540  26.277  1.00  0.00     0.131 A 
ATOM      6  C   UNL     1      14.317  -5.350  26.089  1.00  0.00     0.093 A 
ATOM      7  C   UNL     1      14.466  -6.721  25.864  1.00  0.00     0.122 A 
ATOM      8  C   UNL     1      15.748  -7.285  25.826  1.00  0.00     0.092 A 
ATOM      9  C   UNL     1      16.881  -6.485  26.025  1.00  0.00     0.126 A 
ATOM     10  C   UNL     1      16.732  -5.106  26.272  1.00  0.00     0.039 A 
ENDROOT
BRANCH   2  11
ATOM     11  O   UNL     1      17.428  -3.056  28.529  1.00  0.00    -0.389 OA
ATOM     12  H   UNL     1      17.337  -4.027  28.711  1.00  0.00     0.211 HD
ENDBRANCH   2  11
BRANCH   3  13
ATOM     13  C   UNL     1      15.980  -0.951  27.148  1.00  0.00    -0.001 A 
ATOM     14  C   UNL     1      16.017   0.249  26.418  1.00  0.00     0.057 A 
ATOM     15  C   UNL     1      15.651  -0.909  28.516  1.00  0.00     0.012 A 
ATOM     16  C   UNL     1      15.708   1.469  27.035  1.00  0.00     0.157 A 
ATOM     17  C   UNL     1      15.341   0.306  29.131  1.00  0.00     0.050 A 
ATOM     18  C   UNL     1      15.367   1.497  28.398  1.00  0.00     0.157 A 
BRANCH  16  19
ATOM     19  O   UNL     1      15.744   2.654  26.300  1.00  0.00    -0.504 OA
ATOM     20  H   UNL     1      16.236   3.472  26.637  1.00  0.00     0.293 HD
ENDBRANCH  16  19
BRANCH  18  21
ATOM     21  O   UNL     1      15.054   2.695  29.039  1.00  0.00    -0.504 OA
ATOM     22  H   UNL     1      14.396   3.357  28.649  1.00  0.00     0.293 HD
ENDBRANCH  18  21
ENDBRANCH   3  13
BRANCH   9  23
ATOM     23  O   UNL     1      18.154  -7.053  25.973  1.00  0.00    -0.507 OA
ATOM     24  H   UNL     1      18.394  -7.869  26.523  1.00  0.00     0.293 HD
ENDBRANCH   9  23
BRANCH   7  25
ATOM     25  O   UNL     1      13.336  -7.515  25.679  1.00  0.00    -0.508 OA
ATOM     26  H   UNL     1      12.411  -7.184  25.924  1.00  0.00     0.293 HD
ENDBRANCH   7  25
TORSDOF 6
ENDMDL
MODEL 8
REMARK VINA RESULT:     0.441      1.294      2.644
REMARK INTER + INTRA:           0.414
REMARK INTER:                   0.537
REMARK INTRA:                  -0.122
REMARK UNBOUND:                -0.117
REMARK SMILES Oc1cc(O)c2c(c1)O[C@@H](c1ccc(O)c(O)c1)[C@@H](O)C2
REMARK SMILES IDX 21 1 19 2 10 3 9 4 7 5 8 6 2 7 3 8 4 9 6 10 20 11 11 13
REMARK SMILES IDX 18 14 12 15 16 16 13 17 14 18 17 19 15 21 5 23 1 25
REMARK H PARENT 20 12 17 20 15 22 5 24 1 26
REMARK Flexibility Score: inf
ROOT
ATOM      1  C   UNL     1      11.614 -10.979  28.230  1.00  0.00     0.079 C 
ATOM      2  C   UNL     1      12.274 -12.319  27.845  1.00  0.00     0.164 C 
ATOM      3  C   UNL     1      13.807 -12.222  28.008  1.00  0.00     0.232 C 
ATOM      4  O   UNL     1      14.144 -11.806  29.332  1.00  0.00    -0.482 OA
ATOM      5  C   UNL     1      13.397 -10.844  30.023  1.00  0.00     0.131 A 
ATOM      6  C   UNL     1      13.895 -10.322  31.220  1.00  0.00     0.093 A 
ATOM      7  C   UNL     1      13.169  -9.357  31.925  1.00  0.00     0.122 A 
ATOM      8  C   UNL     1      11.938  -8.912  31.428  1.00  0.00     0.092 A 
ATOM      9  C   UNL     1      11.423  -9.436  30.234  1.00  0.00     0.126 A 
ATOM     10  C   UNL     1      12.143 -10.424  29.534  1.00  0.00     0.039 A 
ENDROOT
BRANCH   2  11
ATOM     11  O   UNL     1      11.735 -13.380  28.598  1.00  0.00    -0.389 OA
ATOM     12  H   UNL     1      12.345 -13.561  29.359  1.00  0.00     0.211 HD
ENDBRANCH   2  11
BRANCH   3  13
ATOM     13  C   UNL     1      14.483 -13.530  27.671  1.00  0.00    -0.001 A 
ATOM     14  C   UNL     1      14.599 -14.531  28.652  1.00  0.00     0.057 A 
ATOM     15  C   UNL     1      15.061 -13.742  26.406  1.00  0.00     0.012 A 
ATOM     16  C   UNL     1      15.262 -15.733  28.368  1.00  0.00     0.157 A 
ATOM     17  C   UNL     1      15.719 -14.941  26.122  1.00  0.00     0.050 A 
ATOM     18  C   UNL     1      15.823 -15.939  27.096  1.00  0.00     0.157 A 
BRANCH  16  19
ATOM     19  O   UNL     1      15.368 -16.721  29.347  1.00  0.00    -0.504 OA
ATOM     20  H   UNL     1      14.603 -17.354  29.547  1.00  0.00     0.293 HD
ENDBRANCH  16  19
BRANCH  18  21
ATOM     21  O   UNL     1      16.487 -17.125  26.784  1.00  0.00    -0.504 OA
ATOM     22  H   UNL     1      16.091 -18.033  26.992  1.00  0.00     0.293 HD
ENDBRANCH  18  21
ENDBRANCH   3  13
BRANCH   9  23
ATOM     23  O   UNL     1      10.201  -8.978  29.741  1.00  0.00    -0.507 OA
ATOM     24  H   UNL     1      10.126  -8.551  28.825  1.00  0.00     0.293 HD
ENDBRANCH   9  23
BRANCH   7  25
ATOM     25  O   UNL     1      13.680  -8.847  33.117  1.00  0.00    -0.508 OA
ATOM     26  H   UNL     1      13.545  -9.327  33.998  1.00  0.00     0.293 HD
ENDBRANCH   7  25
TORSDOF 6
ENDMDL
