MODEL 1
REMARK VINA RESULT:    -1.769      0.000      0.000
REMARK INTER + INTRA:          -2.249
REMARK INTER:                  -2.389
REMARK INTRA:                   0.141
REMARK UNBOUND:                 0.141
REMARK SMILES C=C1CCC=C(C)CC[C@H]2[C@@H]1CC2(C)C
REMARK SMILES IDX 11 1 12 2 13 3 10 4 14 5 15 6 9 7 8 8 6 9 7 10 5 11 2 13
REMARK SMILES IDX 1 14 3 15 4 16
REMARK H PARENT
REMARK Flexibility Score: 70.00
ROOT
ATOM      1  C   UNL     1     166.669 173.618 138.641  1.00  0.00     0.018 C 
ATOM      2  C   UNL     1     167.517 172.821 137.635  1.00  0.00     0.015 C 
ATOM      3  C   UNL     1     167.847 171.791 138.737  1.00  0.00    -0.031 C 
ATOM      4  C   UNL     1     167.227 172.751 139.792  1.00  0.00     0.002 C 
ATOM      5  C   UNL     1     169.342 171.410 138.857  1.00  0.00     0.011 C 
ATOM      6  C   UNL     1     166.992 170.514 138.586  1.00  0.00     0.011 C 
ENDROOT
BRANCH   4   7
ATOM      7  C   UNL     1     168.175 173.435 140.827  1.00  0.00     0.009 C 
BRANCH   7   8
ATOM      8  C   UNL     1     167.667 173.578 142.285  1.00  0.00     0.030 C 
BRANCH   8   9
ATOM      9  C   UNL     1     166.162 173.766 142.384  1.00  0.00    -0.077 C 
ATOM     10  C   UNL     1     165.351 172.717 143.097  1.00  0.00     0.039 C 
ATOM     11  C   UNL     1     165.518 174.847 141.878  1.00  0.00    -0.028 CG0
ATOM     12  G   UNL     1     166.188 175.989 141.141  1.00  0.00     0.000 G0
ENDBRANCH   8   9
ENDBRANCH   7   8
ENDBRANCH   4   7
BRANCH   1  13
ATOM     13  C   UNL     1     166.807 175.128 138.755  1.00  0.00    -0.074 C 
ATOM     14  C   UNL     1     167.906 175.697 138.230  1.00  0.00     0.008 C 
BRANCH  13  15
ATOM     15  C   UNL     1     165.872 175.990 139.587  1.00  0.00     0.035 C 
BRANCH  15  16
ATOM     16  C   UNL     1     166.171 175.996 141.103  1.00  0.00     0.032 CG0
ATOM     17  G   UNL     1     165.511 174.875 141.879  1.00  0.00     0.000 G0
ENDBRANCH  15  16
ENDBRANCH  13  15
ENDBRANCH   1  13
TORSDOF 0
ENDMDL
MODEL 2
REMARK VINA RESULT:    -1.545      1.881      4.389
REMARK INTER + INTRA:          -1.946
REMARK INTER:                  -2.099
REMARK INTRA:                   0.153
REMARK UNBOUND:                 0.141
REMARK SMILES C=C1CCC=C(C)CC[C@H]2[C@@H]1CC2(C)C
REMARK SMILES IDX 11 1 12 2 13 3 10 4 14 5 15 6 9 7 8 8 6 9 7 10 5 11 2 13
REMARK SMILES IDX 1 14 3 15 4 16
REMARK H PARENT
REMARK Flexibility Score: 70.00
ROOT
ATOM      1  C   UNL     1     166.775 175.344 140.933  1.00  0.00     0.018 C 
ATOM      2  C   UNL     1     165.778 175.728 142.041  1.00  0.00     0.015 C 
ATOM      3  C   UNL     1     165.837 174.284 142.586  1.00  0.00    -0.031 C 
ATOM      4  C   UNL     1     166.612 173.855 141.307  1.00  0.00     0.002 C 
ATOM      5  C   UNL     1     164.465 173.635 142.885  1.00  0.00     0.011 C 
ATOM      6  C   UNL     1     166.743 174.191 143.833  1.00  0.00     0.011 C 
ENDROOT
BRANCH   4   7
ATOM      7  C   UNL     1     165.897 172.919 140.281  1.00  0.00     0.009 C 
BRANCH   7   8
ATOM      8  C   UNL     1     166.749 171.825 139.588  1.00  0.00     0.030 C 
BRANCH   8   9
ATOM      9  C   UNL     1     166.918 172.045 138.095  1.00  0.00    -0.077 C 
ATOM     10  C   UNL     1     166.286 171.063 137.146  1.00  0.00     0.039 C 
ATOM     11  C   UNL     1     167.597 173.099 137.576  1.00  0.00    -0.028 CG0
ATOM     12  G   UNL     1     168.284 174.174 138.393  1.00  0.00     0.000 G0
ENDBRANCH   8   9
ENDBRANCH   7   8
ENDBRANCH   4   7
BRANCH   1  13
ATOM     13  C   UNL     1     166.529 175.748 139.488  1.00  0.00    -0.074 C 
ATOM     14  C   UNL     1     165.284 176.125 139.147  1.00  0.00     0.008 C 
BRANCH  13  15
ATOM     15  C   UNL     1     167.558 175.567 138.385  1.00  0.00     0.035 C 
BRANCH  15  16
ATOM     16  C   UNL     1     168.289 174.205 138.396  1.00  0.00     0.032 CG0
ATOM     17  G   UNL     1     167.609 173.118 137.588  1.00  0.00     0.000 G0
ENDBRANCH  15  16
ENDBRANCH  13  15
ENDBRANCH   1  13
TORSDOF 0
ENDMDL
MODEL 3
REMARK VINA RESULT:    -1.528     13.720     16.242
REMARK INTER + INTRA:          -1.924
REMARK INTER:                  -2.111
REMARK INTRA:                   0.187
REMARK UNBOUND:                 0.141
REMARK SMILES C=C1CCC=C(C)CC[C@H]2[C@@H]1CC2(C)C
REMARK SMILES IDX 11 1 12 2 13 3 10 4 14 5 15 6 9 7 8 8 6 9 7 10 5 11 2 13
REMARK SMILES IDX 1 14 3 15 4 16
REMARK H PARENT
REMARK Flexibility Score: 70.00
ROOT
ATOM      1  C   UNL     1     164.953 158.127 141.319  1.00  0.00     0.018 C 
ATOM      2  C   UNL     1     165.619 158.823 142.519  1.00  0.00     0.015 C 
ATOM      3  C   UNL     1     165.521 160.176 141.781  1.00  0.00    -0.031 C 
ATOM      4  C   UNL     1     165.115 159.417 140.485  1.00  0.00     0.002 C 
ATOM      5  C   UNL     1     166.817 161.022 141.779  1.00  0.00     0.011 C 
ATOM      6  C   UNL     1     164.344 161.022 142.313  1.00  0.00     0.011 C 
ENDROOT
BRANCH   4   7
ATOM      7  C   UNL     1     166.119 159.392 139.289  1.00  0.00     0.009 C 
BRANCH   7   8
ATOM      8  C   UNL     1     165.540 159.186 137.866  1.00  0.00     0.030 C 
BRANCH   8   9
ATOM      9  C   UNL     1     164.088 158.740 137.863  1.00  0.00    -0.077 C 
ATOM     10  C   UNL     1     163.020 159.764 137.587  1.00  0.00     0.039 C 
ATOM     11  C   UNL     1     163.709 157.455 138.079  1.00  0.00    -0.028 CG0
ATOM     12  G   UNL     1     164.658 156.309 138.365  1.00  0.00     0.000 G0
ENDBRANCH   8   9
ENDBRANCH   7   8
ENDBRANCH   4   7
BRANCH   1  13
ATOM     13  C   UNL     1     165.520 156.835 140.751  1.00  0.00    -0.074 C 
ATOM     14  C   UNL     1     166.839 156.614 140.898  1.00  0.00     0.008 C 
BRANCH  13  15
ATOM     15  C   UNL     1     164.720 155.887 139.875  1.00  0.00     0.035 C 
BRANCH  15  16
ATOM     16  C   UNL     1     164.651 156.284 138.383  1.00  0.00     0.032 CG0
ATOM     17  G   UNL     1     163.716 157.439 138.081  1.00  0.00     0.000 G0
ENDBRANCH  15  16
ENDBRANCH  13  15
ENDBRANCH   1  13
TORSDOF 0
ENDMDL
MODEL 4
REMARK VINA RESULT:    -1.528      1.484      3.375
REMARK INTER + INTRA:          -1.923
REMARK INTER:                  -2.074
REMARK INTRA:                   0.151
REMARK UNBOUND:                 0.141
REMARK SMILES C=C1CCC=C(C)CC[C@H]2[C@@H]1CC2(C)C
REMARK SMILES IDX 11 1 12 2 13 3 10 4 14 5 15 6 9 7 8 8 6 9 7 10 5 11 2 13
REMARK SMILES IDX 1 14 3 15 4 16
REMARK H PARENT
REMARK Flexibility Score: 70.00
ROOT
ATOM      1  C   UNL     1     169.102 172.164 140.627  1.00  0.00     0.018 C 
ATOM      2  C   UNL     1     169.872 171.249 139.659  1.00  0.00     0.015 C 
ATOM      3  C   UNL     1     170.325 172.488 138.856  1.00  0.00    -0.031 C 
ATOM      4  C   UNL     1     169.321 173.355 139.669  1.00  0.00     0.002 C 
ATOM      5  C   UNL     1     170.151 172.379 137.323  1.00  0.00     0.011 C 
ATOM      6  C   UNL     1     171.781 172.873 139.192  1.00  0.00     0.011 C 
ENDROOT
BRANCH   4   7
ATOM      7  C   UNL     1     168.074 173.939 138.933  1.00  0.00     0.009 C 
BRANCH   7   8
ATOM      8  C   UNL     1     167.620 175.373 139.310  1.00  0.00     0.030 C 
BRANCH   8   9
ATOM      9  C   UNL     1     166.275 175.415 140.015  1.00  0.00    -0.077 C 
ATOM     10  C   UNL     1     165.119 176.086 139.322  1.00  0.00     0.039 C 
ATOM     11  C   UNL     1     166.062 174.859 141.234  1.00  0.00    -0.028 CG0
ATOM     12  G   UNL     1     167.116 174.146 142.057  1.00  0.00     0.000 G0
ENDBRANCH   8   9
ENDBRANCH   7   8
ENDBRANCH   4   7
BRANCH   1  13
ATOM     13  C   UNL     1     167.676 171.837 141.044  1.00  0.00    -0.074 C 
ATOM     14  C   UNL     1     166.995 170.950 140.297  1.00  0.00     0.008 C 
BRANCH  13  15
ATOM     15  C   UNL     1     166.931 172.593 142.130  1.00  0.00     0.035 C 
BRANCH  15  16
ATOM     16  C   UNL     1     167.095 174.129 142.082  1.00  0.00     0.032 CG0
ATOM     17  G   UNL     1     166.072 174.845 141.223  1.00  0.00     0.000 G0
ENDBRANCH  15  16
ENDBRANCH  13  15
ENDBRANCH   1  13
TORSDOF 0
ENDMDL
MODEL 5
REMARK VINA RESULT:    -1.426     13.502     15.711
REMARK INTER + INTRA:          -1.786
REMARK INTER:                  -1.954
REMARK INTRA:                   0.168
REMARK UNBOUND:                 0.141
REMARK SMILES C=C1CCC=C(C)CC[C@H]2[C@@H]1CC2(C)C
REMARK SMILES IDX 11 1 12 2 13 3 10 4 14 5 15 6 9 7 8 8 6 9 7 10 5 11 2 13
REMARK SMILES IDX 1 14 3 15 4 16
REMARK H PARENT
REMARK Flexibility Score: 70.00
ROOT
ATOM      1  C   UNL     1     159.979 159.855 140.444  1.00  0.00     0.018 C 
ATOM      2  C   UNL     1     158.494 159.785 140.048  1.00  0.00     0.015 C 
ATOM      3  C   UNL     1     158.822 158.666 139.036  1.00  0.00    -0.031 C 
ATOM      4  C   UNL     1     160.337 158.949 139.246  1.00  0.00     0.002 C 
ATOM      5  C   UNL     1     158.212 158.852 137.627  1.00  0.00     0.011 C 
ATOM      6  C   UNL     1     158.440 157.277 139.593  1.00  0.00     0.011 C 
ENDROOT
BRANCH   4   7
ATOM      7  C   UNL     1     161.148 159.579 138.069  1.00  0.00     0.009 C 
BRANCH   7   8
ATOM      8  C   UNL     1     162.607 159.100 137.861  1.00  0.00     0.030 C 
BRANCH   8   9
ATOM      9  C   UNL     1     163.281 158.640 139.142  1.00  0.00    -0.077 C 
ATOM     10  C   UNL     1     163.663 157.190 139.275  1.00  0.00     0.039 C 
ATOM     11  C   UNL     1     163.573 159.481 140.166  1.00  0.00    -0.028 CG0
ATOM     12  G   UNL     1     163.259 160.964 140.186  1.00  0.00     0.000 G0
ENDBRANCH   8   9
ENDBRANCH   7   8
ENDBRANCH   4   7
BRANCH   1  13
ATOM     13  C   UNL     1     160.694 161.192 140.564  1.00  0.00    -0.074 C 
ATOM     14  C   UNL     1     160.130 162.258 139.968  1.00  0.00     0.008 C 
BRANCH  13  15
ATOM     15  C   UNL     1     162.087 161.344 141.152  1.00  0.00     0.035 C 
BRANCH  15  16
ATOM     16  C   UNL     1     163.240 160.967 140.194  1.00  0.00     0.032 CG0
ATOM     17  G   UNL     1     163.578 159.490 140.167  1.00  0.00     0.000 G0
ENDBRANCH  15  16
ENDBRANCH  13  15
ENDBRANCH   1  13
TORSDOF 0
ENDMDL
MODEL 6
REMARK VINA RESULT:    -1.416     13.644     15.300
REMARK INTER + INTRA:          -1.772
REMARK INTER:                  -1.945
REMARK INTRA:                   0.173
REMARK UNBOUND:                 0.141
REMARK SMILES C=C1CCC=C(C)CC[C@H]2[C@@H]1CC2(C)C
REMARK SMILES IDX 11 1 12 2 13 3 10 4 14 5 15 6 9 7 8 8 6 9 7 10 5 11 2 13
REMARK SMILES IDX 1 14 3 15 4 16
REMARK H PARENT
REMARK Flexibility Score: 70.00
ROOT
ATOM      1  C   UNL     1     163.325 157.646 139.621  1.00  0.00     0.018 C 
ATOM      2  C   UNL     1     164.383 156.746 138.960  1.00  0.00     0.015 C 
ATOM      3  C   UNL     1     165.409 157.173 140.033  1.00  0.00    -0.031 C 
ATOM      4  C   UNL     1     164.421 158.277 140.508  1.00  0.00     0.002 C 
ATOM      5  C   UNL     1     166.795 157.591 139.489  1.00  0.00     0.011 C 
ATOM      6  C   UNL     1     165.577 156.084 141.114  1.00  0.00     0.011 C 
ENDROOT
BRANCH   4   7
ATOM      7  C   UNL     1     164.794 159.772 140.254  1.00  0.00     0.009 C 
BRANCH   7   8
ATOM      8  C   UNL     1     164.411 160.806 141.344  1.00  0.00     0.030 C 
BRANCH   8   9
ATOM      9  C   UNL     1     163.180 160.412 142.143  1.00  0.00    -0.077 C 
ATOM     10  C   UNL     1     163.340 160.115 143.611  1.00  0.00     0.039 C 
ATOM     11  C   UNL     1     161.940 160.336 141.601  1.00  0.00    -0.028 CG0
ATOM     12  G   UNL     1     161.612 160.608 140.146  1.00  0.00     0.000 G0
ENDBRANCH   8   9
ENDBRANCH   7   8
ENDBRANCH   4   7
BRANCH   1  13
ATOM     13  C   UNL     1     162.460 158.577 138.786  1.00  0.00    -0.074 C 
ATOM     14  C   UNL     1     162.882 158.878 137.545  1.00  0.00     0.008 C 
BRANCH  13  15
ATOM     15  C   UNL     1     161.260 159.325 139.343  1.00  0.00     0.035 C 
BRANCH  15  16
ATOM     16  C   UNL     1     161.605 160.599 140.147  1.00  0.00     0.032 CG0
ATOM     17  G   UNL     1     161.926 160.353 141.608  1.00  0.00     0.000 G0
ENDBRANCH  15  16
ENDBRANCH  13  15
ENDBRANCH   1  13
TORSDOF 0
ENDMDL
MODEL 7
REMARK VINA RESULT:    -1.393     12.422     15.188
REMARK INTER + INTRA:          -1.740
REMARK INTER:                  -1.887
REMARK INTRA:                   0.147
REMARK UNBOUND:                 0.141
REMARK SMILES C=C1CCC=C(C)CC[C@H]2[C@@H]1CC2(C)C
REMARK SMILES IDX 11 1 12 2 13 3 10 4 14 5 15 6 9 7 8 8 6 9 7 10 5 11 2 13
REMARK SMILES IDX 1 14 3 15 4 16
REMARK H PARENT
REMARK Flexibility Score: 70.00
ROOT
ATOM      1  C   UNL     1     163.652 159.122 140.435  1.00  0.00     0.018 C 
ATOM      2  C   UNL     1     164.179 158.453 141.716  1.00  0.00     0.015 C 
ATOM      3  C   UNL     1     165.559 159.107 141.483  1.00  0.00    -0.031 C 
ATOM      4  C   UNL     1     165.092 159.537 140.062  1.00  0.00     0.002 C 
ATOM      5  C   UNL     1     166.771 158.155 141.619  1.00  0.00     0.011 C 
ATOM      6  C   UNL     1     165.756 160.339 142.392  1.00  0.00     0.011 C 
ENDROOT
BRANCH   4   7
ATOM      7  C   UNL     1     165.751 158.853 138.823  1.00  0.00     0.009 C 
BRANCH   7   8
ATOM      8  C   UNL     1     165.935 159.707 137.542  1.00  0.00     0.030 C 
BRANCH   8   9
ATOM      9  C   UNL     1     164.981 160.887 137.460  1.00  0.00    -0.077 C 
ATOM     10  C   UNL     1     165.541 162.276 137.607  1.00  0.00     0.039 C 
ATOM     11  C   UNL     1     163.651 160.747 137.239  1.00  0.00    -0.028 CG0
ATOM     12  G   UNL     1     162.935 159.422 137.065  1.00  0.00     0.000 G0
ENDBRANCH   8   9
ENDBRANCH   7   8
ENDBRANCH   4   7
BRANCH   1  13
ATOM     13  C   UNL     1     162.851 158.331 139.413  1.00  0.00    -0.074 C 
ATOM     14  C   UNL     1     162.984 156.993 139.415  1.00  0.00     0.008 C 
BRANCH  13  15
ATOM     15  C   UNL     1     162.068 158.979 138.283  1.00  0.00     0.035 C 
BRANCH  15  16
ATOM     16  C   UNL     1     162.920 159.417 137.071  1.00  0.00     0.032 CG0
ATOM     17  G   UNL     1     163.625 160.747 137.244  1.00  0.00     0.000 G0
ENDBRANCH  15  16
ENDBRANCH  13  15
ENDBRANCH   1  13
TORSDOF 0
ENDMDL
MODEL 8
REMARK VINA RESULT:    -1.350      1.255      3.619
REMARK INTER + INTRA:          -1.684
REMARK INTER:                  -1.832
REMARK INTRA:                   0.149
REMARK UNBOUND:                 0.141
REMARK SMILES C=C1CCC=C(C)CC[C@H]2[C@@H]1CC2(C)C
REMARK SMILES IDX 11 1 12 2 13 3 10 4 14 5 15 6 9 7 8 8 6 9 7 10 5 11 2 13
REMARK SMILES IDX 1 14 3 15 4 16
REMARK H PARENT
REMARK Flexibility Score: 70.00
ROOT
ATOM      1  C   UNL     1     168.229 173.029 142.294  1.00  0.00     0.018 C 
ATOM      2  C   UNL     1     168.903 171.670 142.552  1.00  0.00     0.015 C 
ATOM      3  C   UNL     1     169.289 171.585 141.059  1.00  0.00    -0.031 C 
ATOM      4  C   UNL     1     168.368 172.806 140.773  1.00  0.00     0.002 C 
ATOM      5  C   UNL     1     168.977 170.234 140.373  1.00  0.00     0.011 C 
ATOM      6  C   UNL     1     170.773 171.953 140.841  1.00  0.00     0.011 C 
ENDROOT
BRANCH   4   7
ATOM      7  C   UNL     1     167.064 172.579 139.946  1.00  0.00     0.009 C 
BRANCH   7   8
ATOM      8  C   UNL     1     166.543 173.757 139.083  1.00  0.00     0.030 C 
BRANCH   8   9
ATOM      9  C   UNL     1     167.113 175.104 139.492  1.00  0.00    -0.077 C 
ATOM     10  C   UNL     1     168.160 175.739 138.616  1.00  0.00     0.039 C 
ATOM     11  C   UNL     1     166.708 175.772 140.601  1.00  0.00    -0.028 CG0
ATOM     12  G   UNL     1     165.664 175.273 141.580  1.00  0.00     0.000 G0
ENDBRANCH   8   9
ENDBRANCH   7   8
ENDBRANCH   4   7
BRANCH   1  13
ATOM     13  C   UNL     1     166.845 173.332 142.847  1.00  0.00    -0.074 C 
ATOM     14  C   UNL     1     166.038 172.290 143.118  1.00  0.00     0.008 C 
BRANCH  13  15
ATOM     15  C   UNL     1     166.267 174.735 142.926  1.00  0.00     0.035 C 
BRANCH  15  16
ATOM     16  C   UNL     1     165.674 175.269 141.603  1.00  0.00     0.032 CG0
ATOM     17  G   UNL     1     166.702 175.782 140.614  1.00  0.00     0.000 G0
ENDBRANCH  15  16
ENDBRANCH  13  15
ENDBRANCH   1  13
TORSDOF 0
ENDMDL
MODEL 9
REMARK VINA RESULT:    -1.331     12.798     15.622
REMARK INTER + INTRA:          -1.657
REMARK INTER:                  -1.847
REMARK INTRA:                   0.190
REMARK UNBOUND:                 0.141
REMARK SMILES C=C1CCC=C(C)CC[C@H]2[C@@H]1CC2(C)C
REMARK SMILES IDX 11 1 12 2 13 3 10 4 14 5 15 6 9 7 8 8 6 9 7 10 5 11 2 13
REMARK SMILES IDX 1 14 3 15 4 16
REMARK H PARENT
REMARK Flexibility Score: 70.00
ROOT
ATOM      1  C   UNL     1     165.188 157.654 141.002  1.00  0.00     0.018 C 
ATOM      2  C   UNL     1     166.110 156.502 141.436  1.00  0.00     0.015 C 
ATOM      3  C   UNL     1     167.339 157.325 140.991  1.00  0.00    -0.031 C 
ATOM      4  C   UNL     1     166.382 158.345 140.308  1.00  0.00     0.002 C 
ATOM      5  C   UNL     1     168.365 156.561 140.121  1.00  0.00     0.011 C 
ATOM      6  C   UNL     1     168.053 157.967 142.201  1.00  0.00     0.011 C 
ENDROOT
BRANCH   4   7
ATOM      7  C   UNL     1     166.371 158.429 138.749  1.00  0.00     0.009 C 
BRANCH   7   8
ATOM      8  C   UNL     1     166.146 159.820 138.104  1.00  0.00     0.030 C 
BRANCH   8   9
ATOM      9  C   UNL     1     165.389 160.786 138.999  1.00  0.00    -0.077 C 
ATOM     10  C   UNL     1     166.120 161.980 139.551  1.00  0.00     0.039 C 
ATOM     11  C   UNL     1     164.077 160.633 139.308  1.00  0.00    -0.028 CG0
ATOM     12  G   UNL     1     163.201 159.492 138.830  1.00  0.00     0.000 G0
ENDBRANCH   8   9
ENDBRANCH   7   8
ENDBRANCH   4   7
BRANCH   1  13
ATOM     13  C   UNL     1     163.940 157.387 140.175  1.00  0.00    -0.074 C 
ATOM     14  C   UNL     1     163.874 156.225 139.501  1.00  0.00     0.008 C 
BRANCH  13  15
ATOM     15  C   UNL     1     162.866 158.432 139.924  1.00  0.00     0.035 C 
BRANCH  15  16
ATOM     16  C   UNL     1     163.215 159.474 138.838  1.00  0.00     0.032 CG0
ATOM     17  G   UNL     1     164.069 160.628 139.324  1.00  0.00     0.000 G0
ENDBRANCH  15  16
ENDBRANCH  13  15
ENDBRANCH   1  13
TORSDOF 0
ENDMDL
