MODEL 1
REMARK VINA RESULT:    -1.703      0.000      0.000
REMARK INTER + INTRA:          -4.239
REMARK INTER:                  -3.196
REMARK INTRA:                  -1.043
REMARK UNBOUND:                -1.043
REMARK SMILES O=C([O-])CCCCCCCCCCCCCCC(=O)[O-]
REMARK SMILES IDX 10 1 9 2 8 3 7 4 6 5 5 6 4 7 2 8 1 9 3 10 11 11 12 12 13 13
REMARK SMILES IDX 14 14 15 15 16 16 17 17 18 18 19 19 20 20
REMARK H PARENT
REMARK Flexibility Score: inf
ROOT
ATOM      1  C   UNL     1      31.704  -0.699  -1.037  1.00  0.00     0.000 C 
ENDROOT
BRANCH   1   2
ATOM      2  C   UNL     1      31.704  -1.066  -2.530  1.00  0.00     0.000 C 
BRANCH   2   3
ATOM      3  C   UNL     1      30.569  -0.380  -3.312  1.00  0.00     0.000 C 
BRANCH   3   4
ATOM      4  C   UNL     1      30.989   0.863  -4.121  1.00  0.00     0.000 C 
BRANCH   4   5
ATOM      5  C   UNL     1      32.483   1.231  -4.031  1.00  0.00     0.000 C 
BRANCH   5   6
ATOM      6  C   UNL     1      32.777   2.742  -3.945  1.00  0.00     0.006 C 
BRANCH   6   7
ATOM      7  C   UNL     1      31.752   3.543  -3.126  1.00  0.00     0.053 C 
BRANCH   7   8
ATOM      8  C   UNL     1      32.119   4.992  -3.036  1.00  0.00     0.041 C 
ATOM      9  O   UNL     1      31.440   5.776  -2.323  1.00  0.00    -0.550 OA
ATOM     10  O   UNL     1      33.192   5.484  -3.769  1.00  0.00    -0.550 OA
ENDBRANCH   7   8
ENDBRANCH   6   7
ENDBRANCH   5   6
ENDBRANCH   4   5
ENDBRANCH   3   4
ENDBRANCH   2   3
ENDBRANCH   1   2
BRANCH   1  11
ATOM     11  C   UNL     1      30.606   0.318  -0.671  1.00  0.00     0.000 C 
BRANCH  11  12
ATOM     12  C   UNL     1      30.793   1.023   0.688  1.00  0.00     0.000 C 
BRANCH  12  13
ATOM     13  C   UNL     1      29.500   1.244   1.498  1.00  0.00     0.000 C 
BRANCH  13  14
ATOM     14  C   UNL     1      29.566   2.380   2.535  1.00  0.00     0.000 C 
BRANCH  14  15
ATOM     15  C   UNL     1      31.006   2.709   2.964  1.00  0.00     0.000 C 
BRANCH  15  16
ATOM     16  C   UNL     1      31.098   4.021   3.762  1.00  0.00     0.006 C 
BRANCH  16  17
ATOM     17  C   UNL     1      30.522   5.220   2.997  1.00  0.00     0.053 C 
BRANCH  17  18
ATOM     18  C   UNL     1      30.829   6.494   3.718  1.00  0.00     0.041 C 
ATOM     19  O   UNL     1      31.957   7.039   3.591  1.00  0.00    -0.550 OA
ATOM     20  O   UNL     1      29.853   7.106   4.495  1.00  0.00    -0.550 OA
ENDBRANCH  17  18
ENDBRANCH  16  17
ENDBRANCH  15  16
ENDBRANCH  14  15
ENDBRANCH  13  14
ENDBRANCH  12  13
ENDBRANCH  11  12
ENDBRANCH   1  11
TORSDOF 15
ENDMDL
MODEL 2
REMARK VINA RESULT:    -1.236      3.960      4.863
REMARK INTER + INTRA:          -3.363
REMARK INTER:                  -2.807
REMARK INTRA:                  -0.555
REMARK UNBOUND:                -1.043
REMARK SMILES O=C([O-])CCCCCCCCCCCCCCC(=O)[O-]
REMARK SMILES IDX 10 1 9 2 8 3 7 4 6 5 5 6 4 7 2 8 1 9 3 10 11 11 12 12 13 13
REMARK SMILES IDX 14 14 15 15 16 16 17 17 18 18 19 19 20 20
REMARK H PARENT
REMARK Flexibility Score: inf
ROOT
ATOM      1  C   UNL     1      30.604   0.583  -1.142  1.00  0.00     0.000 C 
ENDROOT
BRANCH   1   2
ATOM      2  C   UNL     1      31.669  -0.485  -1.438  1.00  0.00     0.000 C 
BRANCH   2   3
ATOM      3  C   UNL     1      32.508  -0.160  -2.687  1.00  0.00     0.000 C 
BRANCH   3   4
ATOM      4  C   UNL     1      33.933  -0.747  -2.692  1.00  0.00     0.000 C 
BRANCH   4   5
ATOM      5  C   UNL     1      34.636  -0.751  -4.064  1.00  0.00     0.000 C 
BRANCH   5   6
ATOM      6  C   UNL     1      35.939  -1.572  -4.125  1.00  0.00     0.006 C 
BRANCH   6   7
ATOM      7  C   UNL     1      35.735  -3.093  -4.037  1.00  0.00     0.053 C 
BRANCH   7   8
ATOM      8  C   UNL     1      36.612  -3.715  -2.994  1.00  0.00     0.041 C 
ATOM      9  O   UNL     1      37.079  -3.016  -2.058  1.00  0.00    -0.550 OA
ATOM     10  O   UNL     1      36.942  -5.062  -3.077  1.00  0.00    -0.550 OA
ENDBRANCH   7   8
ENDBRANCH   6   7
ENDBRANCH   5   6
ENDBRANCH   4   5
ENDBRANCH   3   4
ENDBRANCH   2   3
ENDBRANCH   1   2
BRANCH   1  11
ATOM     11  C   UNL     1      30.831   1.296   0.205  1.00  0.00     0.000 C 
BRANCH  11  12
ATOM     12  C   UNL     1      29.655   1.208   1.199  1.00  0.00     0.000 C 
BRANCH  12  13
ATOM     13  C   UNL     1      29.507   2.412   2.152  1.00  0.00     0.000 C 
BRANCH  13  14
ATOM     14  C   UNL     1      30.405   2.367   3.401  1.00  0.00     0.000 C 
BRANCH  14  15
ATOM     15  C   UNL     1      31.225   3.655   3.591  1.00  0.00     0.000 C 
BRANCH  15  16
ATOM     16  C   UNL     1      30.438   4.917   3.201  1.00  0.00     0.006 C 
BRANCH  16  17
ATOM     17  C   UNL     1      31.142   6.210   3.635  1.00  0.00     0.053 C 
BRANCH  17  18
ATOM     18  C   UNL     1      30.549   6.724   4.909  1.00  0.00     0.041 C 
ATOM     19  O   UNL     1      30.627   6.043   5.965  1.00  0.00    -0.550 OA
ATOM     20  O   UNL     1      29.951   7.977   4.941  1.00  0.00    -0.550 OA
ENDBRANCH  17  18
ENDBRANCH  16  17
ENDBRANCH  15  16
ENDBRANCH  14  15
ENDBRANCH  13  14
ENDBRANCH  12  13
ENDBRANCH  11  12
ENDBRANCH   1  11
TORSDOF 15
ENDMDL
MODEL 3
REMARK VINA RESULT:    -1.146      1.863      2.893
REMARK INTER + INTRA:          -3.194
REMARK INTER:                  -2.550
REMARK INTRA:                  -0.644
REMARK UNBOUND:                -1.043
REMARK SMILES O=C([O-])CCCCCCCCCCCCCCC(=O)[O-]
REMARK SMILES IDX 10 1 9 2 8 3 7 4 6 5 5 6 4 7 2 8 1 9 3 10 11 11 12 12 13 13
REMARK SMILES IDX 14 14 15 15 16 16 17 17 18 18 19 19 20 20
REMARK H PARENT
REMARK Flexibility Score: inf
ROOT
ATOM      1  C   UNL     1      31.106   0.718  -3.051  1.00  0.00     0.000 C 
ENDROOT
BRANCH   1   2
ATOM      2  C   UNL     1      32.252   1.605  -3.565  1.00  0.00     0.000 C 
BRANCH   2   3
ATOM      3  C   UNL     1      31.774   3.003  -4.000  1.00  0.00     0.000 C 
BRANCH   3   4
ATOM      4  C   UNL     1      32.585   4.181  -3.426  1.00  0.00     0.000 C 
BRANCH   4   5
ATOM      5  C   UNL     1      31.808   5.110  -2.472  1.00  0.00     0.000 C 
BRANCH   5   6
ATOM      6  C   UNL     1      31.517   6.518  -3.029  1.00  0.00     0.006 C 
BRANCH   6   7
ATOM      7  C   UNL     1      30.467   7.310  -2.233  1.00  0.00     0.053 C 
BRANCH   7   8
ATOM      8  C   UNL     1      30.222   8.664  -2.825  1.00  0.00     0.041 C 
ATOM      9  O   UNL     1      30.853   9.032  -3.851  1.00  0.00    -0.550 OA
ATOM     10  O   UNL     1      29.322   9.533  -2.222  1.00  0.00    -0.550 OA
ENDBRANCH   7   8
ENDBRANCH   6   7
ENDBRANCH   5   6
ENDBRANCH   4   5
ENDBRANCH   3   4
ENDBRANCH   2   3
ENDBRANCH   1   2
BRANCH   1  11
ATOM     11  C   UNL     1      31.290   0.298  -1.581  1.00  0.00     0.000 C 
BRANCH  11  12
ATOM     12  C   UNL     1      30.246   0.869  -0.600  1.00  0.00     0.000 C 
BRANCH  12  13
ATOM     13  C   UNL     1      30.746   1.081   0.843  1.00  0.00     0.000 C 
BRANCH  13  14
ATOM     14  C   UNL     1      29.824   1.934   1.733  1.00  0.00     0.000 C 
BRANCH  14  15
ATOM     15  C   UNL     1      30.578   2.626   2.881  1.00  0.00     0.000 C 
BRANCH  15  16
ATOM     16  C   UNL     1      30.402   4.154   2.866  1.00  0.00     0.006 C 
BRANCH  16  17
ATOM     17  C   UNL     1      30.955   4.825   4.130  1.00  0.00     0.053 C 
BRANCH  17  18
ATOM     18  C   UNL     1      31.014   6.309   3.949  1.00  0.00     0.041 C 
ATOM     19  O   UNL     1      31.966   6.833   3.313  1.00  0.00    -0.550 OA
ATOM     20  O   UNL     1      29.993   7.111   4.443  1.00  0.00    -0.550 OA
ENDBRANCH  17  18
ENDBRANCH  16  17
ENDBRANCH  15  16
ENDBRANCH  14  15
ENDBRANCH  13  14
ENDBRANCH  12  13
ENDBRANCH  11  12
ENDBRANCH   1  11
TORSDOF 15
ENDMDL
MODEL 4
REMARK VINA RESULT:    -0.831      1.593      2.864
REMARK INTER + INTRA:          -2.602
REMARK INTER:                  -1.877
REMARK INTRA:                  -0.724
REMARK UNBOUND:                -1.043
REMARK SMILES O=C([O-])CCCCCCCCCCCCCCC(=O)[O-]
REMARK SMILES IDX 10 1 9 2 8 3 7 4 6 5 5 6 4 7 2 8 1 9 3 10 11 11 12 12 13 13
REMARK SMILES IDX 14 14 15 15 16 16 17 17 18 18 19 19 20 20
REMARK H PARENT
REMARK Flexibility Score: inf
ROOT
ATOM      1  C   UNL     1      30.878   1.520   0.841  1.00  0.00     0.000 C 
ENDROOT
BRANCH   1   2
ATOM      2  C   UNL     1      30.400   0.681  -0.355  1.00  0.00     0.000 C 
BRANCH   2   3
ATOM      3  C   UNL     1      31.552  -0.052  -1.067  1.00  0.00     0.000 C 
BRANCH   3   4
ATOM      4  C   UNL     1      31.136  -0.898  -2.287  1.00  0.00     0.000 C 
BRANCH   4   5
ATOM      5  C   UNL     1      31.499  -0.295  -3.658  1.00  0.00     0.000 C 
BRANCH   5   6
ATOM      6  C   UNL     1      32.436   0.928  -3.604  1.00  0.00     0.006 C 
BRANCH   6   7
ATOM      7  C   UNL     1      31.733   2.277  -3.828  1.00  0.00     0.053 C 
BRANCH   7   8
ATOM      8  C   UNL     1      32.705   3.416  -3.849  1.00  0.00     0.041 C 
ATOM      9  O   UNL     1      33.916   3.213  -4.124  1.00  0.00    -0.550 OA
ATOM     10  O   UNL     1      32.278   4.699  -3.528  1.00  0.00    -0.550 OA
ENDBRANCH   7   8
ENDBRANCH   6   7
ENDBRANCH   5   6
ENDBRANCH   4   5
ENDBRANCH   3   4
ENDBRANCH   2   3
ENDBRANCH   1   2
BRANCH   1  11
ATOM     11  C   UNL     1      29.744   1.856   1.828  1.00  0.00     0.000 C 
BRANCH  11  12
ATOM     12  C   UNL     1      30.196   2.127   3.277  1.00  0.00     0.000 C 
BRANCH  12  13
ATOM     13  C   UNL     1      31.088   3.372   3.465  1.00  0.00     0.000 C 
BRANCH  13  14
ATOM     14  C   UNL     1      30.464   4.698   2.994  1.00  0.00     0.000 C 
BRANCH  14  15
ATOM     15  C   UNL     1      31.072   5.924   3.695  1.00  0.00     0.000 C 
BRANCH  15  16
ATOM     16  C   UNL     1      30.010   6.791   4.393  1.00  0.00     0.006 C 
BRANCH  16  17
ATOM     17  C   UNL     1      30.058   6.668   5.921  1.00  0.00     0.053 C 
BRANCH  17  18
ATOM     18  C   UNL     1      30.147   8.023   6.551  1.00  0.00     0.041 C 
ATOM     19  O   UNL     1      30.006   9.058   5.849  1.00  0.00    -0.550 OA
ATOM     20  O   UNL     1      30.341   8.141   7.921  1.00  0.00    -0.550 OA
ENDBRANCH  17  18
ENDBRANCH  16  17
ENDBRANCH  15  16
ENDBRANCH  14  15
ENDBRANCH  13  14
ENDBRANCH  12  13
ENDBRANCH  11  12
ENDBRANCH   1  11
TORSDOF 15
ENDMDL
MODEL 5
REMARK VINA RESULT:    -0.759      1.923      6.076
REMARK INTER + INTRA:          -2.468
REMARK INTER:                  -1.722
REMARK INTRA:                  -0.745
REMARK UNBOUND:                -1.043
REMARK SMILES O=C([O-])CCCCCCCCCCCCCCC(=O)[O-]
REMARK SMILES IDX 10 1 9 2 8 3 7 4 6 5 5 6 4 7 2 8 1 9 3 10 11 11 12 12 13 13
REMARK SMILES IDX 14 14 15 15 16 16 17 17 18 18 19 19 20 20
REMARK H PARENT
REMARK Flexibility Score: inf
ROOT
ATOM      1  C   UNL     1      31.194   0.165  -2.675  1.00  0.00     0.000 C 
ENDROOT
BRANCH   1   2
ATOM      2  C   UNL     1      31.529   0.180  -1.175  1.00  0.00     0.000 C 
BRANCH   2   3
ATOM      3  C   UNL     1      30.376   0.725  -0.312  1.00  0.00     0.000 C 
BRANCH   3   4
ATOM      4  C   UNL     1      30.806   1.428   0.990  1.00  0.00     0.000 C 
BRANCH   4   5
ATOM      5  C   UNL     1      29.661   1.755   1.969  1.00  0.00     0.000 C 
BRANCH   5   6
ATOM      6  C   UNL     1      30.082   2.545   3.223  1.00  0.00     0.006 C 
BRANCH   6   7
ATOM      7  C   UNL     1      31.165   3.606   2.970  1.00  0.00     0.053 C 
BRANCH   7   8
ATOM      8  C   UNL     1      30.806   4.927   3.579  1.00  0.00     0.041 C 
ATOM      9  O   UNL     1      30.949   5.117   4.815  1.00  0.00    -0.550 OA
ATOM     10  O   UNL     1      30.278   5.938   2.785  1.00  0.00    -0.550 OA
ENDBRANCH   7   8
ENDBRANCH   6   7
ENDBRANCH   5   6
ENDBRANCH   4   5
ENDBRANCH   3   4
ENDBRANCH   2   3
ENDBRANCH   1   2
BRANCH   1  11
ATOM     11  C   UNL     1      32.448   0.231  -3.568  1.00  0.00     0.000 C 
BRANCH  11  12
ATOM     12  C   UNL     1      32.789   1.631  -4.116  1.00  0.00     0.000 C 
BRANCH  12  13
ATOM     13  C   UNL     1      31.775   2.739  -3.767  1.00  0.00     0.000 C 
BRANCH  13  14
ATOM     14  C   UNL     1      32.351   4.167  -3.750  1.00  0.00     0.000 C 
BRANCH  14  15
ATOM     15  C   UNL     1      31.859   4.993  -2.550  1.00  0.00     0.000 C 
BRANCH  15  16
ATOM     16  C   UNL     1      31.614   6.468  -2.910  1.00  0.00     0.006 C 
BRANCH  16  17
ATOM     17  C   UNL     1      30.467   7.091  -2.103  1.00  0.00     0.053 C 
BRANCH  17  18
ATOM     18  C   UNL     1      30.056   8.398  -2.705  1.00  0.00     0.041 C 
ATOM     19  O   UNL     1      28.964   8.931  -2.378  1.00  0.00    -0.550 OA
ATOM     20  O   UNL     1      30.901   9.050  -3.595  1.00  0.00    -0.550 OA
ENDBRANCH  17  18
ENDBRANCH  16  17
ENDBRANCH  15  16
ENDBRANCH  14  15
ENDBRANCH  13  14
ENDBRANCH  12  13
ENDBRANCH  11  12
ENDBRANCH   1  11
TORSDOF 15
ENDMDL
MODEL 6
REMARK VINA RESULT:    -0.691      3.829      8.643
REMARK INTER + INTRA:          -2.340
REMARK INTER:                  -1.781
REMARK INTRA:                  -0.559
REMARK UNBOUND:                -1.043
REMARK SMILES O=C([O-])CCCCCCCCCCCCCCC(=O)[O-]
REMARK SMILES IDX 10 1 9 2 8 3 7 4 6 5 5 6 4 7 2 8 1 9 3 10 11 11 12 12 13 13
REMARK SMILES IDX 14 14 15 15 16 16 17 17 18 18 19 19 20 20
REMARK H PARENT
REMARK Flexibility Score: inf
ROOT
ATOM      1  C   UNL     1      31.412   0.483  -0.328  1.00  0.00     0.000 C 
ENDROOT
BRANCH   1   2
ATOM      2  C   UNL     1      29.978   0.766   0.150  1.00  0.00     0.000 C 
BRANCH   2   3
ATOM      3  C   UNL     1      29.880   2.030   1.024  1.00  0.00     0.000 C 
BRANCH   3   4
ATOM      4  C   UNL     1      30.468   1.894   2.442  1.00  0.00     0.000 C 
BRANCH   4   5
ATOM      5  C   UNL     1      31.305   3.095   2.923  1.00  0.00     0.000 C 
BRANCH   5   6
ATOM      6  C   UNL     1      30.540   4.120   3.784  1.00  0.00     0.006 C 
BRANCH   6   7
ATOM      7  C   UNL     1      31.119   5.543   3.742  1.00  0.00     0.053 C 
BRANCH   7   8
ATOM      8  C   UNL     1      30.480   6.436   4.760  1.00  0.00     0.041 C 
ATOM      9  O   UNL     1      29.954   7.524   4.408  1.00  0.00    -0.550 OA
ATOM     10  O   UNL     1      30.496   6.082   6.103  1.00  0.00    -0.550 OA
ENDBRANCH   7   8
ENDBRANCH   6   7
ENDBRANCH   5   6
ENDBRANCH   4   5
ENDBRANCH   3   4
ENDBRANCH   2   3
ENDBRANCH   1   2
BRANCH   1  11
ATOM     11  C   UNL     1      31.473  -0.586  -1.436  1.00  0.00     0.000 C 
BRANCH  11  12
ATOM     12  C   UNL     1      31.102  -0.087  -2.847  1.00  0.00     0.000 C 
BRANCH  12  13
ATOM     13  C   UNL     1      31.374  -1.087  -3.990  1.00  0.00     0.000 C 
BRANCH  13  14
ATOM     14  C   UNL     1      32.764  -1.746  -3.962  1.00  0.00     0.000 C 
BRANCH  14  15
ATOM     15  C   UNL     1      33.906  -0.722  -3.837  1.00  0.00     0.000 C 
BRANCH  15  16
ATOM     16  C   UNL     1      35.175  -1.328  -3.214  1.00  0.00     0.006 C 
BRANCH  16  17
ATOM     17  C   UNL     1      35.841  -2.368  -4.124  1.00  0.00     0.053 C 
BRANCH  17  18
ATOM     18  C   UNL     1      36.481  -3.444  -3.304  1.00  0.00     0.041 C 
ATOM     19  O   UNL     1      37.074  -3.156  -2.232  1.00  0.00    -0.550 OA
ATOM     20  O   UNL     1      36.383  -4.772  -3.701  1.00  0.00    -0.550 OA
ENDBRANCH  17  18
ENDBRANCH  16  17
ENDBRANCH  15  16
ENDBRANCH  14  15
ENDBRANCH  13  14
ENDBRANCH  12  13
ENDBRANCH  11  12
ENDBRANCH   1  11
TORSDOF 15
ENDMDL
MODEL 7
REMARK VINA RESULT:    -0.578      2.775      8.973
REMARK INTER + INTRA:          -2.127
REMARK INTER:                  -1.879
REMARK INTRA:                  -0.248
REMARK UNBOUND:                -1.043
REMARK SMILES O=C([O-])CCCCCCCCCCCCCCC(=O)[O-]
REMARK SMILES IDX 10 1 9 2 8 3 7 4 6 5 5 6 4 7 2 8 1 9 3 10 11 11 12 12 13 13
REMARK SMILES IDX 14 14 15 15 16 16 17 17 18 18 19 19 20 20
REMARK H PARENT
REMARK Flexibility Score: inf
ROOT
ATOM      1  C   UNL     1      30.815   2.597   2.628  1.00  0.00     0.000 C 
ENDROOT
BRANCH   1   2
ATOM      2  C   UNL     1      30.443   4.087   2.655  1.00  0.00     0.000 C 
BRANCH   2   3
ATOM      3  C   UNL     1      30.977   4.813   3.903  1.00  0.00     0.000 C 
BRANCH   3   4
ATOM      4  C   UNL     1      31.081   6.346   3.777  1.00  0.00     0.000 C 
BRANCH   4   5
ATOM      5  C   UNL     1      30.248   7.146   4.798  1.00  0.00     0.000 C 
BRANCH   5   6
ATOM      6  C   UNL     1      30.314   6.621   6.246  1.00  0.00     0.006 C 
BRANCH   6   7
ATOM      7  C   UNL     1      29.525   7.463   7.262  1.00  0.00     0.053 C 
BRANCH   7   8
ATOM      8  C   UNL     1      30.172   8.790   7.510  1.00  0.00     0.041 C 
ATOM      9  O   UNL     1      31.043   8.914   8.410  1.00  0.00    -0.550 OA
ATOM     10  O   UNL     1      29.787   9.900   6.769  1.00  0.00    -0.550 OA
ENDBRANCH   7   8
ENDBRANCH   6   7
ENDBRANCH   5   6
ENDBRANCH   4   5
ENDBRANCH   3   4
ENDBRANCH   2   3
ENDBRANCH   1   2
BRANCH   1  11
ATOM     11  C   UNL     1      29.596   1.679   2.420  1.00  0.00     0.000 C 
BRANCH  11  12
ATOM     12  C   UNL     1      29.472   1.063   1.013  1.00  0.00     0.000 C 
BRANCH  12  13
ATOM     13  C   UNL     1      30.787   0.986   0.210  1.00  0.00     0.000 C 
BRANCH  13  14
ATOM     14  C   UNL     1      30.631   0.539  -1.255  1.00  0.00     0.000 C 
BRANCH  14  15
ATOM     15  C   UNL     1      31.682  -0.504  -1.673  1.00  0.00     0.000 C 
BRANCH  15  16
ATOM     16  C   UNL     1      31.209  -1.379  -2.846  1.00  0.00     0.006 C 
BRANCH  16  17
ATOM     17  C   UNL     1      32.287  -1.556  -3.923  1.00  0.00     0.053 C 
BRANCH  17  18
ATOM     18  C   UNL     1      33.344  -0.507  -3.781  1.00  0.00     0.041 C 
ATOM     19  O   UNL     1      34.528  -0.833  -3.506  1.00  0.00    -0.550 OA
ATOM     20  O   UNL     1      33.031   0.829  -3.998  1.00  0.00    -0.550 OA
ENDBRANCH  17  18
ENDBRANCH  16  17
ENDBRANCH  15  16
ENDBRANCH  14  15
ENDBRANCH  13  14
ENDBRANCH  12  13
ENDBRANCH  11  12
ENDBRANCH   1  11
TORSDOF 15
ENDMDL
