MODEL 1
REMARK VINA RESULT:    -5.861      0.000      0.000
REMARK INTER + INTRA:          -6.438
REMARK INTER:                  -6.204
REMARK INTRA:                  -0.234
REMARK UNBOUND:                -0.234
REMARK SMILES O=c1cc(-c2ccccc2)oc2ccccc12
REMARK SMILES IDX 4 1 3 2 2 3 1 4 17 5 16 6 15 7 14 8 13 9 12 10 11 11 5 12
REMARK SMILES IDX 8 13 7 14 9 15 6 16 10 17
REMARK H PARENT
REMARK Flexibility Score: inf
ROOT
ATOM      1  C   UNL     1     -44.185  28.235  -3.616  1.00  0.00     0.138 A 
ATOM      2  C   UNL     1     -45.501  27.772  -3.402  1.00  0.00     0.100 A 
ATOM      3  C   UNL     1     -45.947  27.544  -2.099  1.00  0.00     0.193 A 
ATOM      4  O   UNL     1     -47.124  27.130  -1.909  1.00  0.00    -0.289 OA
ATOM      5  C   UNL     1     -45.081  27.779  -1.022  1.00  0.00     0.065 A 
ATOM      6  C   UNL     1     -45.469  27.570   0.315  1.00  0.00     0.016 A 
ATOM      7  C   UNL     1     -44.566  27.820   1.352  1.00  0.00     0.001 A 
ATOM      8  C   UNL     1     -43.276  28.279   1.067  1.00  0.00     0.004 A 
ATOM      9  C   UNL     1     -42.884  28.490  -0.258  1.00  0.00     0.048 A 
ATOM     10  C   UNL     1     -43.780  28.242  -1.304  1.00  0.00     0.138 A 
ATOM     11  O   UNL     1     -43.396  28.445  -2.561  1.00  0.00    -0.456 OA
ENDROOT
BRANCH   1  12
ATOM     12  C   UNL     1     -43.627  28.504  -4.978  1.00  0.00     0.017 A 
ATOM     13  C   UNL     1     -42.561  29.104  -7.521  1.00  0.00     0.000 A 
ATOM     14  C   UNL     1     -42.993  27.810  -7.233  1.00  0.00     0.001 A 
ATOM     15  C   UNL     1     -42.657  30.102  -6.551  1.00  0.00     0.001 A 
ATOM     16  C   UNL     1     -43.523  27.506  -5.974  1.00  0.00     0.012 A 
ATOM     17  C   UNL     1     -43.184  29.806  -5.290  1.00  0.00     0.012 A 
ENDBRANCH   1  12
TORSDOF 1
ENDMDL
MODEL 2
REMARK VINA RESULT:    -5.417      1.009      1.315
REMARK INTER + INTRA:          -5.968
REMARK INTER:                  -5.703
REMARK INTRA:                  -0.265
REMARK UNBOUND:                -0.234
REMARK SMILES O=c1cc(-c2ccccc2)oc2ccccc12
REMARK SMILES IDX 4 1 3 2 2 3 1 4 17 5 16 6 15 7 14 8 13 9 12 10 11 11 5 12
REMARK SMILES IDX 8 13 7 14 9 15 6 16 10 17
REMARK H PARENT
REMARK Flexibility Score: inf
ROOT
ATOM      1  C   UNL     1     -44.707  27.797  -3.664  1.00  0.00     0.138 A 
ATOM      2  C   UNL     1     -45.932  27.474  -3.043  1.00  0.00     0.100 A 
ATOM      3  C   UNL     1     -46.029  27.516  -1.651  1.00  0.00     0.193 A 
ATOM      4  O   UNL     1     -47.125  27.227  -1.095  1.00  0.00    -0.289 OA
ATOM      5  C   UNL     1     -44.909  27.880  -0.891  1.00  0.00     0.065 A 
ATOM      6  C   UNL     1     -44.940  27.942   0.515  1.00  0.00     0.016 A 
ATOM      7  C   UNL     1     -43.793  28.310   1.224  1.00  0.00     0.001 A 
ATOM      8  C   UNL     1     -42.613  28.618   0.542  1.00  0.00     0.004 A 
ATOM      9  C   UNL     1     -42.573  28.559  -0.855  1.00  0.00     0.048 A 
ATOM     10  C   UNL     1     -43.715  28.191  -1.574  1.00  0.00     0.138 A 
ATOM     11  O   UNL     1     -43.667  28.137  -2.902  1.00  0.00    -0.456 OA
ENDROOT
BRANCH   1  12
ATOM     12  C   UNL     1     -44.516  27.776  -5.148  1.00  0.00     0.017 A 
ATOM     13  C   UNL     1     -44.062  27.749  -7.933  1.00  0.00     0.000 A 
ATOM     14  C   UNL     1     -45.359  27.624  -7.437  1.00  0.00     0.001 A 
ATOM     15  C   UNL     1     -42.990  27.887  -7.052  1.00  0.00     0.001 A 
ATOM     16  C   UNL     1     -45.591  27.637  -6.057  1.00  0.00     0.012 A 
ATOM     17  C   UNL     1     -43.213  27.900  -5.672  1.00  0.00     0.012 A 
ENDBRANCH   1  12
TORSDOF 1
ENDMDL
MODEL 3
REMARK VINA RESULT:    -5.164      1.573      2.735
REMARK INTER + INTRA:          -5.699
REMARK INTER:                  -5.443
REMARK INTRA:                  -0.256
REMARK UNBOUND:                -0.234
REMARK SMILES O=c1cc(-c2ccccc2)oc2ccccc12
REMARK SMILES IDX 4 1 3 2 2 3 1 4 17 5 16 6 15 7 14 8 13 9 12 10 11 11 5 12
REMARK SMILES IDX 8 13 7 14 9 15 6 16 10 17
REMARK H PARENT
REMARK Flexibility Score: inf
ROOT
ATOM      1  C   UNL     1     -44.538  28.329  -3.801  1.00  0.00     0.138 A 
ATOM      2  C   UNL     1     -43.565  29.110  -3.144  1.00  0.00     0.100 A 
ATOM      3  C   UNL     1     -43.714  29.394  -1.785  1.00  0.00     0.193 A 
ATOM      4  O   UNL     1     -42.844  30.094  -1.197  1.00  0.00    -0.289 OA
ATOM      5  C   UNL     1     -44.828  28.898  -1.094  1.00  0.00     0.065 A 
ATOM      6  C   UNL     1     -45.037  29.147   0.276  1.00  0.00     0.016 A 
ATOM      7  C   UNL     1     -46.166  28.628   0.916  1.00  0.00     0.001 A 
ATOM      8  C   UNL     1     -47.090  27.860   0.202  1.00  0.00     0.004 A 
ATOM      9  C   UNL     1     -46.889  27.607  -1.159  1.00  0.00     0.048 A 
ATOM     10  C   UNL     1     -45.763  28.122  -1.810  1.00  0.00     0.138 A 
ATOM     11  O   UNL     1     -45.582  27.877  -3.104  1.00  0.00    -0.456 OA
ENDROOT
BRANCH   1  12
ATOM     12  C   UNL     1     -44.456  27.978  -5.254  1.00  0.00     0.017 A 
ATOM     13  C   UNL     1     -44.398  27.314  -7.996  1.00  0.00     0.000 A 
ATOM     14  C   UNL     1     -43.205  27.502  -7.298  1.00  0.00     0.001 A 
ATOM     15  C   UNL     1     -45.619  27.454  -7.337  1.00  0.00     0.001 A 
ATOM     16  C   UNL     1     -43.228  27.831  -5.938  1.00  0.00     0.012 A 
ATOM     17  C   UNL     1     -45.650  27.784  -5.979  1.00  0.00     0.012 A 
ENDBRANCH   1  12
TORSDOF 1
ENDMDL
MODEL 4
REMARK VINA RESULT:    -4.955      1.675      5.911
REMARK INTER + INTRA:          -5.478
REMARK INTER:                  -5.240
REMARK INTRA:                  -0.239
REMARK UNBOUND:                -0.234
REMARK SMILES O=c1cc(-c2ccccc2)oc2ccccc12
REMARK SMILES IDX 4 1 3 2 2 3 1 4 17 5 16 6 15 7 14 8 13 9 12 10 11 11 5 12
REMARK SMILES IDX 8 13 7 14 9 15 6 16 10 17
REMARK H PARENT
REMARK Flexibility Score: inf
ROOT
ATOM      1  C   UNL     1     -44.934  28.367  -3.024  1.00  0.00     0.138 A 
ATOM      2  C   UNL     1     -45.994  29.169  -3.499  1.00  0.00     0.100 A 
ATOM      3  C   UNL     1     -46.176  29.324  -4.875  1.00  0.00     0.193 A 
ATOM      4  O   UNL     1     -47.123  30.042  -5.299  1.00  0.00    -0.289 OA
ATOM      5  C   UNL     1     -45.304  28.680  -5.764  1.00  0.00     0.065 A 
ATOM      6  C   UNL     1     -45.433  28.794  -7.161  1.00  0.00     0.016 A 
ATOM      7  C   UNL     1     -44.536  28.130  -8.002  1.00  0.00     0.001 A 
ATOM      8  C   UNL     1     -43.509  27.350  -7.461  1.00  0.00     0.004 A 
ATOM      9  C   UNL     1     -43.375  27.231  -6.075  1.00  0.00     0.048 A 
ATOM     10  C   UNL     1     -44.267  27.892  -5.223  1.00  0.00     0.138 A 
ATOM     11  O   UNL     1     -44.129  27.773  -3.906  1.00  0.00    -0.456 OA
ENDROOT
BRANCH   1  12
ATOM     12  C   UNL     1     -44.668  28.149  -1.568  1.00  0.00     0.017 A 
ATOM     13  C   UNL     1     -44.074  27.765   1.164  1.00  0.00     0.000 A 
ATOM     14  C   UNL     1     -45.354  27.489   0.682  1.00  0.00     0.001 A 
ATOM     15  C   UNL     1     -43.089  28.232   0.294  1.00  0.00     0.001 A 
ATOM     16  C   UNL     1     -45.654  27.676  -0.671  1.00  0.00     0.012 A 
ATOM     17  C   UNL     1     -43.381  28.423  -1.059  1.00  0.00     0.012 A 
ENDBRANCH   1  12
TORSDOF 1
ENDMDL
MODEL 5
REMARK VINA RESULT:    -4.482      2.411      6.430
REMARK INTER + INTRA:          -4.978
REMARK INTER:                  -4.720
REMARK INTRA:                  -0.258
REMARK UNBOUND:                -0.234
REMARK SMILES O=c1cc(-c2ccccc2)oc2ccccc12
REMARK SMILES IDX 4 1 3 2 2 3 1 4 17 5 16 6 15 7 14 8 13 9 12 10 11 11 5 12
REMARK SMILES IDX 8 13 7 14 9 15 6 16 10 17
REMARK H PARENT
REMARK Flexibility Score: inf
ROOT
ATOM      1  C   UNL     1     -44.917  28.092  -4.071  1.00  0.00     0.138 A 
ATOM      2  C   UNL     1     -43.764  27.700  -4.784  1.00  0.00     0.100 A 
ATOM      3  C   UNL     1     -43.684  27.956  -6.155  1.00  0.00     0.193 A 
ATOM      4  O   UNL     1     -42.654  27.604  -6.793  1.00  0.00    -0.289 OA
ATOM      5  C   UNL     1     -44.748  28.600  -6.800  1.00  0.00     0.065 A 
ATOM      6  C   UNL     1     -44.730  28.889  -8.178  1.00  0.00     0.016 A 
ATOM      7  C   UNL     1     -45.818  29.533  -8.772  1.00  0.00     0.001 A 
ATOM      8  C   UNL     1     -46.927  29.895  -8.002  1.00  0.00     0.004 A 
ATOM      9  C   UNL     1     -46.954  29.612  -6.633  1.00  0.00     0.048 A 
ATOM     10  C   UNL     1     -45.870  28.967  -6.028  1.00  0.00     0.138 A 
ATOM     11  O   UNL     1     -45.905  28.702  -4.726  1.00  0.00    -0.456 OA
ENDROOT
BRANCH   1  12
ATOM     12  C   UNL     1     -45.085  27.856  -2.603  1.00  0.00     0.017 A 
ATOM     13  C   UNL     1     -45.306  27.411   0.175  1.00  0.00     0.000 A 
ATOM     14  C   UNL     1     -46.455  27.498  -0.611  1.00  0.00     0.001 A 
ATOM     15  C   UNL     1     -44.049  27.544  -0.413  1.00  0.00     0.001 A 
ATOM     16  C   UNL     1     -46.351  27.718  -1.989  1.00  0.00     0.012 A 
ATOM     17  C   UNL     1     -43.937  27.765  -1.788  1.00  0.00     0.012 A 
ENDBRANCH   1  12
TORSDOF 1
ENDMDL
MODEL 6
REMARK VINA RESULT:    -3.862      1.566      2.436
REMARK INTER + INTRA:          -4.322
REMARK INTER:                  -4.079
REMARK INTRA:                  -0.243
REMARK UNBOUND:                -0.234
REMARK SMILES O=c1cc(-c2ccccc2)oc2ccccc12
REMARK SMILES IDX 4 1 3 2 2 3 1 4 17 5 16 6 15 7 14 8 13 9 12 10 11 11 5 12
REMARK SMILES IDX 8 13 7 14 9 15 6 16 10 17
REMARK H PARENT
REMARK Flexibility Score: inf
ROOT
ATOM      1  C   UNL     1     -44.083  28.448  -3.985  1.00  0.00     0.138 A 
ATOM      2  C   UNL     1     -43.656  27.389  -3.156  1.00  0.00     0.100 A 
ATOM      3  C   UNL     1     -44.208  27.247  -1.882  1.00  0.00     0.193 A 
ATOM      4  O   UNL     1     -43.825  26.300  -1.141  1.00  0.00    -0.289 OA
ATOM      5  C   UNL     1     -45.181  28.157  -1.445  1.00  0.00     0.065 A 
ATOM      6  C   UNL     1     -45.778  28.069  -0.174  1.00  0.00     0.016 A 
ATOM      7  C   UNL     1     -46.744  29.003   0.211  1.00  0.00     0.001 A 
ATOM      8  C   UNL     1     -47.120  30.027  -0.663  1.00  0.00     0.004 A 
ATOM      9  C   UNL     1     -46.533  30.121  -1.928  1.00  0.00     0.048 A 
ATOM     10  C   UNL     1     -45.565  29.191  -2.324  1.00  0.00     0.138 A 
ATOM     11  O   UNL     1     -45.011  29.290  -3.528  1.00  0.00    -0.456 OA
ENDROOT
BRANCH   1  12
ATOM     12  C   UNL     1     -43.543  28.674  -5.362  1.00  0.00     0.017 A 
ATOM     13  C   UNL     1     -42.535  29.005  -7.977  1.00  0.00     0.000 A 
ATOM     14  C   UNL     1     -42.642  30.104  -7.126  1.00  0.00     0.001 A 
ATOM     15  C   UNL     1     -42.928  27.742  -7.534  1.00  0.00     0.001 A 
ATOM     16  C   UNL     1     -43.140  29.946  -5.828  1.00  0.00     0.012 A 
ATOM     17  C   UNL     1     -43.428  27.576  -6.240  1.00  0.00     0.012 A 
ENDBRANCH   1  12
TORSDOF 1
ENDMDL
MODEL 7
REMARK VINA RESULT:    -3.662      1.961      3.000
REMARK INTER + INTRA:          -4.110
REMARK INTER:                  -3.846
REMARK INTRA:                  -0.265
REMARK UNBOUND:                -0.234
REMARK SMILES O=c1cc(-c2ccccc2)oc2ccccc12
REMARK SMILES IDX 4 1 3 2 2 3 1 4 17 5 16 6 15 7 14 8 13 9 12 10 11 11 5 12
REMARK SMILES IDX 8 13 7 14 9 15 6 16 10 17
REMARK H PARENT
REMARK Flexibility Score: inf
ROOT
ATOM      1  C   UNL     1     -44.918  28.782  -4.843  1.00  0.00     0.138 A 
ATOM      2  C   UNL     1     -43.679  28.886  -4.175  1.00  0.00     0.100 A 
ATOM      3  C   UNL     1     -43.598  28.554  -2.821  1.00  0.00     0.193 A 
ATOM      4  O   UNL     1     -42.491  28.647  -2.224  1.00  0.00    -0.289 OA
ATOM      5  C   UNL     1     -44.748  28.121  -2.146  1.00  0.00     0.065 A 
ATOM      6  C   UNL     1     -44.735  27.770  -0.783  1.00  0.00     0.016 A 
ATOM      7  C   UNL     1     -45.910  27.345  -0.159  1.00  0.00     0.001 A 
ATOM      8  C   UNL     1     -47.103  27.265  -0.884  1.00  0.00     0.004 A 
ATOM      9  C   UNL     1     -47.125  27.611  -2.238  1.00  0.00     0.048 A 
ATOM     10  C   UNL     1     -45.954  28.038  -2.873  1.00  0.00     0.138 A 
ATOM     11  O   UNL     1     -45.986  28.366  -4.161  1.00  0.00    -0.456 OA
ENDROOT
BRANCH   1  12
ATOM     12  C   UNL     1     -45.093  29.118  -6.291  1.00  0.00     0.017 A 
ATOM     13  C   UNL     1     -45.335  29.792  -9.021  1.00  0.00     0.000 A 
ATOM     14  C   UNL     1     -46.374  29.125  -8.371  1.00  0.00     0.001 A 
ATOM     15  C   UNL     1     -44.177  30.125  -8.319  1.00  0.00     0.001 A 
ATOM     16  C   UNL     1     -46.260  28.788  -7.018  1.00  0.00     0.012 A 
ATOM     17  C   UNL     1     -44.055  29.791  -6.967  1.00  0.00     0.012 A 
ENDBRANCH   1  12
TORSDOF 1
ENDMDL
