MODEL 1
REMARK VINA RESULT:    -3.956      0.000      0.000
REMARK INTER + INTRA:          -6.482
REMARK INTER:                  -6.038
REMARK INTRA:                  -0.444
REMARK UNBOUND:                -0.444
REMARK SMILES CCCCCCCCCCC(=O)[O-]
REMARK SMILES IDX 7 1 8 2 9 3 10 4 11 5 12 6 13 7 6 8 5 9 4 10 3 11 2 12 1 13
REMARK H PARENT
REMARK Flexibility Score: inf
ROOT
ATOM      1  C   UNL     1     -21.121  21.900  40.329  1.00  0.00     0.000 C 
ENDROOT
BRANCH   1   2
ATOM      2  C   UNL     1     -22.348  21.965  39.406  1.00  0.00     0.000 C 
BRANCH   2   3
ATOM      3  C   UNL     1     -21.985  21.537  37.977  1.00  0.00     0.006 C 
BRANCH   3   4
ATOM      4  C   UNL     1     -23.198  20.995  37.210  1.00  0.00     0.053 C 
BRANCH   4   5
ATOM      5  C   UNL     1     -22.984  21.043  35.727  1.00  0.00     0.041 C 
ATOM      6  O   UNL     1     -23.924  20.759  34.940  1.00  0.00    -0.550 OA
ATOM      7  O   UNL     1     -21.754  21.437  35.216  1.00  0.00    -0.550 OA
ENDBRANCH   4   5
ENDBRANCH   3   4
ENDBRANCH   2   3
ENDBRANCH   1   2
BRANCH   1   8
ATOM      8  C   UNL     1     -21.494  21.542  41.783  1.00  0.00     0.000 C 
BRANCH   8   9
ATOM      9  C   UNL     1     -20.604  20.447  42.401  1.00  0.00    -0.000 C 
BRANCH   9  10
ATOM     10  C   UNL     1     -19.480  19.925  41.486  1.00  0.00    -0.000 C 
BRANCH  10  11
ATOM     11  C   UNL     1     -18.054  20.310  41.924  1.00  0.00    -0.000 C 
BRANCH  11  12
ATOM     12  C   UNL     1     -17.708  19.810  43.333  1.00  0.00    -0.003 C 
ATOM     13  C   UNL     1     -17.441  20.977  44.279  1.00  0.00     0.004 C 
ENDBRANCH  11  12
ENDBRANCH  10  11
ENDBRANCH   9  10
ENDBRANCH   8   9
ENDBRANCH   1   8
TORSDOF 9
ENDMDL
MODEL 2
REMARK VINA RESULT:    -3.905     16.641     19.178
REMARK INTER + INTRA:          -6.405
REMARK INTER:                  -5.823
REMARK INTRA:                  -0.582
REMARK UNBOUND:                -0.444
REMARK SMILES CCCCCCCCCCC(=O)[O-]
REMARK SMILES IDX 7 1 8 2 9 3 10 4 11 5 12 6 13 7 6 8 5 9 4 10 3 11 2 12 1 13
REMARK H PARENT
REMARK Flexibility Score: inf
ROOT
ATOM      1  C   UNL     1      -7.906  30.596  46.858  1.00  0.00     0.000 C 
ENDROOT
BRANCH   1   2
ATOM      2  C   UNL     1      -8.336  29.610  45.761  1.00  0.00     0.000 C 
BRANCH   2   3
ATOM      3  C   UNL     1      -7.142  28.782  45.266  1.00  0.00     0.006 C 
BRANCH   3   4
ATOM      4  C   UNL     1      -7.371  27.274  45.440  1.00  0.00     0.053 C 
BRANCH   4   5
ATOM      5  C   UNL     1      -6.254  26.627  46.201  1.00  0.00     0.041 C 
ATOM      6  O   UNL     1      -5.133  27.192  46.285  1.00  0.00    -0.550 OA
ATOM      7  O   UNL     1      -6.465  25.416  46.848  1.00  0.00    -0.550 OA
ENDBRANCH   4   5
ENDBRANCH   3   4
ENDBRANCH   2   3
ENDBRANCH   1   2
BRANCH   1   8
ATOM      8  C   UNL     1      -6.469  30.335  47.356  1.00  0.00     0.000 C 
BRANCH   8   9
ATOM      9  C   UNL     1      -5.548  31.567  47.269  1.00  0.00    -0.000 C 
BRANCH   9  10
ATOM     10  C   UNL     1      -6.257  32.926  47.433  1.00  0.00    -0.000 C 
BRANCH  10  11
ATOM     11  C   UNL     1      -5.526  33.934  48.340  1.00  0.00    -0.000 C 
BRANCH  11  12
ATOM     12  C   UNL     1      -5.719  33.641  49.834  1.00  0.00    -0.003 C 
ATOM     13  C   UNL     1      -6.852  34.482  50.416  1.00  0.00     0.004 C 
ENDBRANCH  11  12
ENDBRANCH  10  11
ENDBRANCH   9  10
ENDBRANCH   8   9
ENDBRANCH   1   8
TORSDOF 9
ENDMDL
MODEL 3
REMARK VINA RESULT:    -3.827     17.420     20.239
REMARK INTER + INTRA:          -6.285
REMARK INTER:                  -5.659
REMARK INTRA:                  -0.626
REMARK UNBOUND:                -0.444
REMARK SMILES CCCCCCCCCCC(=O)[O-]
REMARK SMILES IDX 7 1 8 2 9 3 10 4 11 5 12 6 13 7 6 8 5 9 4 10 3 11 2 12 1 13
REMARK H PARENT
REMARK Flexibility Score: inf
ROOT
ATOM      1  C   UNL     1      -5.867  30.749  47.347  1.00  0.00     0.000 C 
ENDROOT
BRANCH   1   2
ATOM      2  C   UNL     1      -4.887  31.923  47.207  1.00  0.00     0.000 C 
BRANCH   2   3
ATOM      3  C   UNL     1      -5.580  33.260  47.509  1.00  0.00     0.006 C 
BRANCH   3   4
ATOM      4  C   UNL     1      -4.981  33.957  48.738  1.00  0.00     0.053 C 
BRANCH   4   5
ATOM      5  C   UNL     1      -6.000  34.143  49.822  1.00  0.00     0.041 C 
ATOM      6  O   UNL     1      -5.780  33.706  50.981  1.00  0.00    -0.550 OA
ATOM      7  O   UNL     1      -7.178  34.830  49.557  1.00  0.00    -0.550 OA
ENDBRANCH   4   5
ENDBRANCH   3   4
ENDBRANCH   2   3
ENDBRANCH   1   2
BRANCH   1   8
ATOM      8  C   UNL     1      -7.329  31.166  47.080  1.00  0.00     0.000 C 
BRANCH   8   9
ATOM      9  C   UNL     1      -8.165  30.081  46.374  1.00  0.00    -0.000 C 
BRANCH   9  10
ATOM     10  C   UNL     1      -7.373  29.160  45.426  1.00  0.00    -0.000 C 
BRANCH  10  11
ATOM     11  C   UNL     1      -7.881  27.708  45.357  1.00  0.00    -0.000 C 
BRANCH  11  12
ATOM     12  C   UNL     1      -6.902  26.704  45.981  1.00  0.00    -0.003 C 
ATOM     13  C   UNL     1      -5.548  27.354  46.254  1.00  0.00     0.004 C 
ENDBRANCH  11  12
ENDBRANCH  10  11
ENDBRANCH   9  10
ENDBRANCH   8   9
ENDBRANCH   1   8
TORSDOF 9
ENDMDL
MODEL 4
REMARK VINA RESULT:    -3.809      1.354      2.111
REMARK INTER + INTRA:          -6.257
REMARK INTER:                  -5.732
REMARK INTRA:                  -0.525
REMARK UNBOUND:                -0.444
REMARK SMILES CCCCCCCCCCC(=O)[O-]
REMARK SMILES IDX 7 1 8 2 9 3 10 4 11 5 12 6 13 7 6 8 5 9 4 10 3 11 2 12 1 13
REMARK H PARENT
REMARK Flexibility Score: inf
ROOT
ATOM      1  C   UNL     1     -21.730  22.257  41.532  1.00  0.00     0.000 C 
ENDROOT
BRANCH   1   2
ATOM      2  C   UNL     1     -22.396  22.792  40.256  1.00  0.00     0.000 C 
BRANCH   2   3
ATOM      3  C   UNL     1     -22.231  21.803  39.093  1.00  0.00     0.006 C 
BRANCH   3   4
ATOM      4  C   UNL     1     -21.398  22.392  37.946  1.00  0.00     0.053 C 
BRANCH   4   5
ATOM      5  C   UNL     1     -21.712  21.733  36.637  1.00  0.00     0.041 C 
ATOM      6  O   UNL     1     -20.990  21.948  35.629  1.00  0.00    -0.550 OA
ATOM      7  O   UNL     1     -22.783  20.854  36.541  1.00  0.00    -0.550 OA
ENDBRANCH   4   5
ENDBRANCH   3   4
ENDBRANCH   2   3
ENDBRANCH   1   2
BRANCH   1   8
ATOM      8  C   UNL     1     -20.211  22.529  41.565  1.00  0.00     0.000 C 
BRANCH   8   9
ATOM      9  C   UNL     1     -19.350  21.268  41.366  1.00  0.00    -0.000 C 
BRANCH   9  10
ATOM     10  C   UNL     1     -19.291  20.319  42.578  1.00  0.00    -0.000 C 
BRANCH  10  11
ATOM     11  C   UNL     1     -17.901  19.723  42.869  1.00  0.00    -0.000 C 
BRANCH  11  12
ATOM     12  C   UNL     1     -17.089  19.453  41.595  1.00  0.00    -0.003 C 
ATOM     13  C   UNL     1     -17.243  18.003  41.142  1.00  0.00     0.004 C 
ENDBRANCH  11  12
ENDBRANCH  10  11
ENDBRANCH   9  10
ENDBRANCH   8   9
ENDBRANCH   1   8
TORSDOF 9
ENDMDL
MODEL 5
REMARK VINA RESULT:    -3.767     17.577     19.460
REMARK INTER + INTRA:          -6.193
REMARK INTER:                  -5.600
REMARK INTRA:                  -0.593
REMARK UNBOUND:                -0.444
REMARK SMILES CCCCCCCCCCC(=O)[O-]
REMARK SMILES IDX 7 1 8 2 9 3 10 4 11 5 12 6 13 7 6 8 5 9 4 10 3 11 2 12 1 13
REMARK H PARENT
REMARK Flexibility Score: inf
ROOT
ATOM      1  C   UNL     1      -7.935  30.608  46.895  1.00  0.00     0.000 C 
ENDROOT
BRANCH   1   2
ATOM      2  C   UNL     1      -6.478  30.314  47.283  1.00  0.00     0.000 C 
BRANCH   2   3
ATOM      3  C   UNL     1      -5.668  31.613  47.406  1.00  0.00     0.006 C 
BRANCH   3   4
ATOM      4  C   UNL     1      -6.522  32.781  47.919  1.00  0.00     0.053 C 
BRANCH   4   5
ATOM      5  C   UNL     1      -5.755  33.655  48.865  1.00  0.00     0.041 C 
ATOM      6  O   UNL     1      -5.109  34.644  48.432  1.00  0.00    -0.550 OA
ATOM      7  O   UNL     1      -5.784  33.395  50.229  1.00  0.00    -0.550 OA
ENDBRANCH   4   5
ENDBRANCH   3   4
ENDBRANCH   2   3
ENDBRANCH   1   2
BRANCH   1   8
ATOM      8  C   UNL     1      -8.390  29.809  45.656  1.00  0.00     0.000 C 
BRANCH   8   9
ATOM      9  C   UNL     1      -7.338  28.808  45.142  1.00  0.00    -0.000 C 
BRANCH   9  10
ATOM     10  C   UNL     1      -7.655  27.326  45.419  1.00  0.00    -0.000 C 
BRANCH  10  11
ATOM     11  C   UNL     1      -6.579  26.571  46.221  1.00  0.00    -0.000 C 
BRANCH  11  12
ATOM     12  C   UNL     1      -5.252  26.440  45.461  1.00  0.00    -0.003 C 
ATOM     13  C   UNL     1      -5.429  25.624  44.184  1.00  0.00     0.004 C 
ENDBRANCH  11  12
ENDBRANCH  10  11
ENDBRANCH   9  10
ENDBRANCH   8   9
ENDBRANCH   1   8
TORSDOF 9
ENDMDL
MODEL 6
REMARK VINA RESULT:    -3.726     17.120     19.986
REMARK INTER + INTRA:          -6.131
REMARK INTER:                  -5.330
REMARK INTRA:                  -0.800
REMARK UNBOUND:                -0.444
REMARK SMILES CCCCCCCCCCC(=O)[O-]
REMARK SMILES IDX 7 1 8 2 9 3 10 4 11 5 12 6 13 7 6 8 5 9 4 10 3 11 2 12 1 13
REMARK H PARENT
REMARK Flexibility Score: inf
ROOT
ATOM      1  C   UNL     1      -6.368  30.269  47.426  1.00  0.00     0.000 C 
ENDROOT
BRANCH   1   2
ATOM      2  C   UNL     1      -7.203  31.393  46.795  1.00  0.00     0.000 C 
BRANCH   2   3
ATOM      3  C   UNL     1      -6.472  32.740  46.886  1.00  0.00     0.006 C 
BRANCH   3   4
ATOM      4  C   UNL     1      -6.792  33.485  48.189  1.00  0.00     0.053 C 
BRANCH   4   5
ATOM      5  C   UNL     1      -5.609  33.530  49.108  1.00  0.00     0.041 C 
ATOM      6  O   UNL     1      -4.442  33.559  48.638  1.00  0.00    -0.550 OA
ATOM      7  O   UNL     1      -5.798  33.575  50.483  1.00  0.00    -0.550 OA
ENDBRANCH   4   5
ENDBRANCH   3   4
ENDBRANCH   2   3
ENDBRANCH   1   2
BRANCH   1   8
ATOM      8  C   UNL     1      -4.934  30.209  46.860  1.00  0.00     0.000 C 
BRANCH   8   9
ATOM      9  C   UNL     1      -4.516  28.809  46.371  1.00  0.00    -0.000 C 
BRANCH   9  10
ATOM     10  C   UNL     1      -5.605  27.725  46.487  1.00  0.00    -0.000 C 
BRANCH  10  11
ATOM     11  C   UNL     1      -6.365  27.427  45.181  1.00  0.00    -0.000 C 
BRANCH  11  12
ATOM     12  C   UNL     1      -7.889  27.502  45.348  1.00  0.00    -0.003 C 
ATOM     13  C   UNL     1      -8.533  28.250  44.184  1.00  0.00     0.004 C 
ENDBRANCH  11  12
ENDBRANCH  10  11
ENDBRANCH   9  10
ENDBRANCH   8   9
ENDBRANCH   1   8
TORSDOF 9
ENDMDL
MODEL 7
REMARK VINA RESULT:    -3.702     18.032     20.210
REMARK INTER + INTRA:          -6.094
REMARK INTER:                  -5.015
REMARK INTRA:                  -1.079
REMARK UNBOUND:                -0.444
REMARK SMILES CCCCCCCCCCC(=O)[O-]
REMARK SMILES IDX 7 1 8 2 9 3 10 4 11 5 12 6 13 7 6 8 5 9 4 10 3 11 2 12 1 13
REMARK H PARENT
REMARK Flexibility Score: inf
ROOT
ATOM      1  C   UNL     1      -6.086  31.772  45.226  1.00  0.00     0.000 C 
ENDROOT
BRANCH   1   2
ATOM      2  C   UNL     1      -7.330  31.666  46.120  1.00  0.00     0.000 C 
BRANCH   2   3
ATOM      3  C   UNL     1      -7.203  30.494  47.104  1.00  0.00     0.006 C 
BRANCH   3   4
ATOM      4  C   UNL     1      -5.879  29.738  46.936  1.00  0.00     0.053 C 
BRANCH   4   5
ATOM      5  C   UNL     1      -6.097  28.340  46.442  1.00  0.00     0.041 C 
ATOM      6  O   UNL     1      -5.246  27.443  46.679  1.00  0.00    -0.550 OA
ATOM      7  O   UNL     1      -7.258  28.021  45.749  1.00  0.00    -0.550 OA
ENDBRANCH   4   5
ENDBRANCH   3   4
ENDBRANCH   2   3
ENDBRANCH   1   2
BRANCH   1   8
ATOM      8  C   UNL     1      -5.336  33.107  45.413  1.00  0.00     0.000 C 
BRANCH   8   9
ATOM      9  C   UNL     1      -3.956  32.957  46.081  1.00  0.00    -0.000 C 
BRANCH   9  10
ATOM     10  C   UNL     1      -3.987  32.788  47.613  1.00  0.00    -0.000 C 
BRANCH  10  11
ATOM     11  C   UNL     1      -4.713  33.912  48.375  1.00  0.00    -0.000 C 
BRANCH  11  12
ATOM     12  C   UNL     1      -5.968  33.420  49.110  1.00  0.00    -0.003 C 
ATOM     13  C   UNL     1      -5.895  33.744  50.599  1.00  0.00     0.004 C 
ENDBRANCH  11  12
ENDBRANCH  10  11
ENDBRANCH   9  10
ENDBRANCH   8   9
ENDBRANCH   1   8
TORSDOF 9
ENDMDL
MODEL 8
REMARK VINA RESULT:    -3.689     16.506     18.544
REMARK INTER + INTRA:          -6.074
REMARK INTER:                  -4.707
REMARK INTRA:                  -1.367
REMARK UNBOUND:                -0.444
REMARK SMILES CCCCCCCCCCC(=O)[O-]
REMARK SMILES IDX 7 1 8 2 9 3 10 4 11 5 12 6 13 7 6 8 5 9 4 10 3 11 2 12 1 13
REMARK H PARENT
REMARK Flexibility Score: inf
ROOT
ATOM      1  C   UNL     1      -5.152  30.318  47.023  1.00  0.00     0.000 C 
ENDROOT
BRANCH   1   2
ATOM      2  C   UNL     1      -4.187  29.860  45.919  1.00  0.00     0.000 C 
BRANCH   2   3
ATOM      3  C   UNL     1      -4.342  28.358  45.640  1.00  0.00     0.006 C 
BRANCH   3   4
ATOM      4  C   UNL     1      -5.398  27.707  46.543  1.00  0.00     0.053 C 
BRANCH   4   5
ATOM      5  C   UNL     1      -5.868  26.396  45.991  1.00  0.00     0.041 C 
ATOM      6  O   UNL     1      -5.911  26.210  44.747  1.00  0.00    -0.550 OA
ATOM      7  O   UNL     1      -6.224  25.367  46.853  1.00  0.00    -0.550 OA
ENDBRANCH   4   5
ENDBRANCH   3   4
ENDBRANCH   2   3
ENDBRANCH   1   2
BRANCH   1   8
ATOM      8  C   UNL     1      -5.723  31.727  46.761  1.00  0.00     0.000 C 
BRANCH   8   9
ATOM      9  C   UNL     1      -7.259  31.804  46.862  1.00  0.00    -0.000 C 
BRANCH   9  10
ATOM     10  C   UNL     1      -7.984  30.444  46.846  1.00  0.00    -0.000 C 
BRANCH  10  11
ATOM     11  C   UNL     1      -8.815  30.166  45.580  1.00  0.00    -0.000 C 
BRANCH  11  12
ATOM     12  C   UNL     1      -8.197  29.081  44.687  1.00  0.00    -0.003 C 
ATOM     13  C   UNL     1      -7.234  29.689  43.671  1.00  0.00     0.004 C 
ENDBRANCH  11  12
ENDBRANCH  10  11
ENDBRANCH   9  10
ENDBRANCH   8   9
ENDBRANCH   1   8
TORSDOF 9
ENDMDL
MODEL 9
REMARK VINA RESULT:    -3.616     17.233     19.615
REMARK INTER + INTRA:          -5.964
REMARK INTER:                  -4.869
REMARK INTRA:                  -1.094
REMARK UNBOUND:                -0.444
REMARK SMILES CCCCCCCCCCC(=O)[O-]
REMARK SMILES IDX 7 1 8 2 9 3 10 4 11 5 12 6 13 7 6 8 5 9 4 10 3 11 2 12 1 13
REMARK H PARENT
REMARK Flexibility Score: inf
ROOT
ATOM      1  C   UNL     1      -5.096  30.075  46.186  1.00  0.00     0.000 C 
ENDROOT
BRANCH   1   2
ATOM      2  C   UNL     1      -6.162  30.173  47.288  1.00  0.00     0.000 C 
BRANCH   2   3
ATOM      3  C   UNL     1      -6.875  31.533  47.245  1.00  0.00     0.006 C 
BRANCH   3   4
ATOM      4  C   UNL     1      -5.897  32.692  47.014  1.00  0.00     0.053 C 
BRANCH   4   5
ATOM      5  C   UNL     1      -5.283  33.164  48.297  1.00  0.00     0.041 C 
ATOM      6  O   UNL     1      -4.044  33.373  48.369  1.00  0.00    -0.550 OA
ATOM      7  O   UNL     1      -6.087  33.407  49.404  1.00  0.00    -0.550 OA
ENDBRANCH   4   5
ENDBRANCH   3   4
ENDBRANCH   2   3
ENDBRANCH   1   2
BRANCH   1   8
ATOM      8  C   UNL     1      -4.666  28.619  45.910  1.00  0.00     0.000 C 
BRANCH   8   9
ATOM      9  C   UNL     1      -5.628  27.565  46.490  1.00  0.00    -0.000 C 
BRANCH   9  10
ATOM     10  C   UNL     1      -6.560  26.895  45.462  1.00  0.00    -0.000 C 
BRANCH  10  11
ATOM     11  C   UNL     1      -7.950  27.545  45.325  1.00  0.00    -0.000 C 
BRANCH  11  12
ATOM     12  C   UNL     1      -8.034  28.529  44.150  1.00  0.00    -0.003 C 
ATOM     13  C   UNL     1      -8.762  29.807  44.556  1.00  0.00     0.004 C 
ENDBRANCH  11  12
ENDBRANCH  10  11
ENDBRANCH   9  10
ENDBRANCH   8   9
ENDBRANCH   1   8
TORSDOF 9
ENDMDL
