MODEL 1
REMARK VINA RESULT:     3.254      0.000      0.000
REMARK INTER + INTRA:           6.263
REMARK INTER:                   7.059
REMARK INTRA:                  -0.795
REMARK UNBOUND:                -0.795
REMARK SMILES CCCCCCCCCCCCCCCCCCCCCC(=O)[O-]
REMARK SMILES IDX 12 1 11 2 10 3 9 4 8 5 7 6 6 7 5 8 4 9 3 10 2 11 1 12 13 13
REMARK SMILES IDX 14 14 15 15 16 16 17 17 18 18 19 19 20 20 21 21 22 22 23 23
REMARK SMILES IDX 24 24
REMARK H PARENT
REMARK Flexibility Score: inf
ROOT
ATOM      1  C   UNL     1      -5.171  34.489  22.320  1.00  0.00     0.000 C 
ENDROOT
BRANCH   1   2
ATOM      2  C   UNL     1      -6.125  35.238  21.370  1.00  0.00     0.000 C 
BRANCH   2   3
ATOM      3  C   UNL     1      -5.629  35.381  19.915  1.00  0.00     0.000 C 
BRANCH   3   4
ATOM      4  C   UNL     1      -4.803  34.193  19.385  1.00  0.00    -0.000 C 
BRANCH   4   5
ATOM      5  C   UNL     1      -4.723  34.161  17.851  1.00  0.00    -0.000 C 
BRANCH   5   6
ATOM      6  C   UNL     1      -4.047  35.430  17.308  1.00  0.00    -0.000 C 
BRANCH   6   7
ATOM      7  C   UNL     1      -3.344  35.201  15.958  1.00  0.00    -0.000 C 
BRANCH   7   8
ATOM      8  C   UNL     1      -3.086  36.476  15.132  1.00  0.00    -0.000 C 
BRANCH   8   9
ATOM      9  C   UNL     1      -4.325  37.048  14.418  1.00  0.00    -0.000 C 
BRANCH   9  10
ATOM     10  C   UNL     1      -4.141  38.516  13.997  1.00  0.00    -0.000 C 
BRANCH  10  11
ATOM     11  C   UNL     1      -5.481  39.261  13.875  1.00  0.00    -0.003 C 
ATOM     12  C   UNL     1      -5.311  40.781  13.882  1.00  0.00     0.004 C 
ENDBRANCH  10  11
ENDBRANCH   9  10
ENDBRANCH   8   9
ENDBRANCH   7   8
ENDBRANCH   6   7
ENDBRANCH   5   6
ENDBRANCH   4   5
ENDBRANCH   3   4
ENDBRANCH   2   3
ENDBRANCH   1   2
BRANCH   1  13
ATOM     13  C   UNL     1      -5.881  33.953  23.575  1.00  0.00     0.000 C 
BRANCH  13  14
ATOM     14  C   UNL     1      -6.072  35.026  24.661  1.00  0.00     0.000 C 
BRANCH  14  15
ATOM     15  C   UNL     1      -4.934  36.054  24.776  1.00  0.00     0.000 C 
BRANCH  15  16
ATOM     16  C   UNL     1      -5.202  37.136  25.838  1.00  0.00     0.000 C 
BRANCH  16  17
ATOM     17  C   UNL     1      -4.219  38.313  25.722  1.00  0.00     0.000 C 
BRANCH  17  18
ATOM     18  C   UNL     1      -4.853  39.535  25.035  1.00  0.00     0.000 C 
BRANCH  18  19
ATOM     19  C   UNL     1      -5.530  39.183  23.697  1.00  0.00     0.000 C 
BRANCH  19  20
ATOM     20  C   UNL     1      -5.168  40.119  22.524  1.00  0.00     0.006 C 
BRANCH  20  21
ATOM     21  C   UNL     1      -5.997  39.895  21.248  1.00  0.00     0.053 C 
BRANCH  21  22
ATOM     22  C   UNL     1      -5.418  38.808  20.393  1.00  0.00     0.041 C 
ATOM     23  O   UNL     1      -6.080  38.345  19.425  1.00  0.00    -0.550 OA
ATOM     24  O   UNL     1      -4.165  38.285  20.685  1.00  0.00    -0.550 OA
ENDBRANCH  21  22
ENDBRANCH  20  21
ENDBRANCH  19  20
ENDBRANCH  18  19
ENDBRANCH  17  18
ENDBRANCH  16  17
ENDBRANCH  15  16
ENDBRANCH  14  15
ENDBRANCH  13  14
ENDBRANCH   1  13
TORSDOF 20
ENDMDL
MODEL 2
REMARK VINA RESULT:     4.448      1.861      8.072
REMARK INTER + INTRA:           8.854
REMARK INTER:                   9.170
REMARK INTRA:                  -0.316
REMARK UNBOUND:                -0.795
REMARK SMILES CCCCCCCCCCCCCCCCCCCCCC(=O)[O-]
REMARK SMILES IDX 12 1 11 2 10 3 9 4 8 5 7 6 6 7 5 8 4 9 3 10 2 11 1 12 13 13
REMARK SMILES IDX 14 14 15 15 16 16 17 17 18 18 19 19 20 20 21 21 22 22 23 23
REMARK SMILES IDX 24 24
REMARK H PARENT
REMARK Flexibility Score: inf
ROOT
ATOM      1  C   UNL     1      -4.796  35.416  22.128  1.00  0.00     0.000 C 
ENDROOT
BRANCH   1   2
ATOM      2  C   UNL     1      -6.064  36.212  21.765  1.00  0.00     0.000 C 
BRANCH   2   3
ATOM      3  C   UNL     1      -5.948  37.099  20.506  1.00  0.00     0.000 C 
BRANCH   3   4
ATOM      4  C   UNL     1      -5.100  38.374  20.679  1.00  0.00    -0.000 C 
BRANCH   4   5
ATOM      5  C   UNL     1      -5.813  39.454  21.508  1.00  0.00    -0.000 C 
BRANCH   5   6
ATOM      6  C   UNL     1      -5.008  39.801  22.770  1.00  0.00    -0.000 C 
BRANCH   6   7
ATOM      7  C   UNL     1      -5.525  39.078  24.027  1.00  0.00    -0.000 C 
BRANCH   7   8
ATOM      8  C   UNL     1      -4.494  38.177  24.733  1.00  0.00    -0.000 C 
BRANCH   8   9
ATOM      9  C   UNL     1      -5.053  37.347  25.903  1.00  0.00    -0.000 C 
BRANCH   9  10
ATOM     10  C   UNL     1      -6.050  36.270  25.443  1.00  0.00    -0.000 C 
BRANCH  10  11
ATOM     11  C   UNL     1      -5.408  34.875  25.362  1.00  0.00    -0.003 C 
ATOM     12  C   UNL     1      -6.116  33.960  24.362  1.00  0.00     0.004 C 
ENDBRANCH  10  11
ENDBRANCH   9  10
ENDBRANCH   8   9
ENDBRANCH   7   8
ENDBRANCH   6   7
ENDBRANCH   5   6
ENDBRANCH   4   5
ENDBRANCH   3   4
ENDBRANCH   2   3
ENDBRANCH   1   2
BRANCH   1  13
ATOM     13  C   UNL     1      -4.303  34.525  20.976  1.00  0.00     0.000 C 
BRANCH  13  14
ATOM     14  C   UNL     1      -5.446  34.006  20.087  1.00  0.00     0.000 C 
BRANCH  14  15
ATOM     15  C   UNL     1      -5.215  34.147  18.572  1.00  0.00     0.000 C 
BRANCH  15  16
ATOM     16  C   UNL     1      -4.066  35.110  18.223  1.00  0.00     0.000 C 
BRANCH  16  17
ATOM     17  C   UNL     1      -3.962  35.357  16.709  1.00  0.00     0.000 C 
BRANCH  17  18
ATOM     18  C   UNL     1      -2.575  34.990  16.153  1.00  0.00     0.000 C 
BRANCH  18  19
ATOM     19  C   UNL     1      -1.959  36.113  15.296  1.00  0.00     0.000 C 
BRANCH  19  20
ATOM     20  C   UNL     1      -2.576  36.263  13.889  1.00  0.00     0.006 C 
BRANCH  20  21
ATOM     21  C   UNL     1      -4.036  36.745  13.878  1.00  0.00     0.053 C 
BRANCH  21  22
ATOM     22  C   UNL     1      -4.177  38.107  14.488  1.00  0.00     0.041 C 
ATOM     23  O   UNL     1      -5.175  38.824  14.209  1.00  0.00    -0.550 OA
ATOM     24  O   UNL     1      -3.192  38.595  15.337  1.00  0.00    -0.550 OA
ENDBRANCH  21  22
ENDBRANCH  20  21
ENDBRANCH  19  20
ENDBRANCH  18  19
ENDBRANCH  17  18
ENDBRANCH  16  17
ENDBRANCH  15  16
ENDBRANCH  14  15
ENDBRANCH  13  14
ENDBRANCH   1  13
TORSDOF 20
ENDMDL
MODEL 3
REMARK VINA RESULT:     4.874      3.717      5.029
REMARK INTER + INTRA:           9.777
REMARK INTER:                  11.045
REMARK INTRA:                  -1.268
REMARK UNBOUND:                -0.795
REMARK SMILES CCCCCCCCCCCCCCCCCCCCCC(=O)[O-]
REMARK SMILES IDX 12 1 11 2 10 3 9 4 8 5 7 6 6 7 5 8 4 9 3 10 2 11 1 12 13 13
REMARK SMILES IDX 14 14 15 15 16 16 17 17 18 18 19 19 20 20 21 21 22 22 23 23
REMARK SMILES IDX 24 24
REMARK H PARENT
REMARK Flexibility Score: inf
ROOT
ATOM      1  C   UNL     1      -4.595  34.341  23.049  1.00  0.00     0.000 C 
ENDROOT
BRANCH   1   2
ATOM      2  C   UNL     1      -4.938  34.613  21.572  1.00  0.00     0.000 C 
BRANCH   2   3
ATOM      3  C   UNL     1      -5.561  35.997  21.283  1.00  0.00     0.000 C 
BRANCH   3   4
ATOM      4  C   UNL     1      -5.972  36.237  19.817  1.00  0.00    -0.000 C 
BRANCH   4   5
ATOM      5  C   UNL     1      -5.462  35.139  18.870  1.00  0.00    -0.000 C 
BRANCH   5   6
ATOM      6  C   UNL     1      -4.096  35.515  18.276  1.00  0.00    -0.000 C 
BRANCH   6   7
ATOM      7  C   UNL     1      -3.877  34.933  16.868  1.00  0.00    -0.000 C 
BRANCH   7   8
ATOM      8  C   UNL     1      -2.935  35.751  15.963  1.00  0.00    -0.000 C 
BRANCH   8   9
ATOM      9  C   UNL     1      -3.224  35.635  14.455  1.00  0.00    -0.000 C 
BRANCH   9  10
ATOM     10  C   UNL     1      -4.234  36.685  13.963  1.00  0.00    -0.000 C 
BRANCH  10  11
ATOM     11  C   UNL     1      -3.994  38.068  14.590  1.00  0.00    -0.003 C 
ATOM     12  C   UNL     1      -4.762  39.180  13.875  1.00  0.00     0.004 C 
ENDBRANCH  10  11
ENDBRANCH   9  10
ENDBRANCH   8   9
ENDBRANCH   7   8
ENDBRANCH   6   7
ENDBRANCH   5   6
ENDBRANCH   4   5
ENDBRANCH   3   4
ENDBRANCH   2   3
ENDBRANCH   1   2
BRANCH   1  13
ATOM     13  C   UNL     1      -5.795  33.811  23.850  1.00  0.00     0.000 C 
BRANCH  13  14
ATOM     14  C   UNL     1      -6.125  34.676  25.079  1.00  0.00     0.000 C 
BRANCH  14  15
ATOM     15  C   UNL     1      -5.757  36.165  24.953  1.00  0.00     0.000 C 
BRANCH  15  16
ATOM     16  C   UNL     1      -5.498  36.841  26.311  1.00  0.00     0.000 C 
BRANCH  16  17
ATOM     17  C   UNL     1      -4.505  38.009  26.193  1.00  0.00     0.000 C 
BRANCH  17  18
ATOM     18  C   UNL     1      -3.042  37.533  26.206  1.00  0.00     0.000 C 
BRANCH  18  19
ATOM     19  C   UNL     1      -2.546  37.169  27.619  1.00  0.00     0.000 C 
BRANCH  19  20
ATOM     20  C   UNL     1      -1.716  35.870  27.698  1.00  0.00     0.006 C 
BRANCH  20  21
ATOM     21  C   UNL     1      -2.430  34.696  28.387  1.00  0.00     0.053 C 
BRANCH  21  22
ATOM     22  C   UNL     1      -1.635  34.160  29.539  1.00  0.00     0.041 C 
ATOM     23  O   UNL     1      -2.106  34.204  30.707  1.00  0.00    -0.550 OA
ATOM     24  O   UNL     1      -0.363  33.643  29.327  1.00  0.00    -0.550 OA
ENDBRANCH  21  22
ENDBRANCH  20  21
ENDBRANCH  19  20
ENDBRANCH  18  19
ENDBRANCH  17  18
ENDBRANCH  16  17
ENDBRANCH  15  16
ENDBRANCH  14  15
ENDBRANCH  13  14
ENDBRANCH   1  13
TORSDOF 20
ENDMDL
MODEL 4
REMARK VINA RESULT:     5.299      2.628      9.263
REMARK INTER + INTRA:          10.700
REMARK INTER:                   9.752
REMARK INTRA:                   0.948
REMARK UNBOUND:                -0.795
REMARK SMILES CCCCCCCCCCCCCCCCCCCCCC(=O)[O-]
REMARK SMILES IDX 12 1 11 2 10 3 9 4 8 5 7 6 6 7 5 8 4 9 3 10 2 11 1 12 13 13
REMARK SMILES IDX 14 14 15 15 16 16 17 17 18 18 19 19 20 20 21 21 22 22 23 23
REMARK SMILES IDX 24 24
REMARK H PARENT
REMARK Flexibility Score: inf
ROOT
ATOM      1  C   UNL     1      -5.447  35.248  22.524  1.00  0.00     0.000 C 
ENDROOT
BRANCH   1   2
ATOM      2  C   UNL     1      -5.906  33.843  22.957  1.00  0.00     0.000 C 
BRANCH   2   3
ATOM      3  C   UNL     1      -6.124  33.658  24.475  1.00  0.00     0.000 C 
BRANCH   3   4
ATOM      4  C   UNL     1      -5.962  34.936  25.320  1.00  0.00    -0.000 C 
BRANCH   4   5
ATOM      5  C   UNL     1      -6.122  36.221  24.491  1.00  0.00    -0.000 C 
BRANCH   5   6
ATOM      6  C   UNL     1      -5.246  37.351  25.053  1.00  0.00    -0.000 C 
BRANCH   6   7
ATOM      7  C   UNL     1      -4.359  36.893  26.225  1.00  0.00    -0.000 C 
BRANCH   7   8
ATOM      8  C   UNL     1      -2.993  37.600  26.324  1.00  0.00    -0.000 C 
BRANCH   8   9
ATOM      9  C   UNL     1      -2.163  37.233  27.568  1.00  0.00    -0.000 C 
BRANCH   9  10
ATOM     10  C   UNL     1      -2.655  35.945  28.250  1.00  0.00    -0.000 C 
BRANCH  10  11
ATOM     11  C   UNL     1      -1.581  34.845  28.265  1.00  0.00    -0.003 C 
ATOM     12  C   UNL     1      -1.526  34.095  29.597  1.00  0.00     0.004 C 
ENDBRANCH  10  11
ENDBRANCH   9  10
ENDBRANCH   8   9
ENDBRANCH   7   8
ENDBRANCH   6   7
ENDBRANCH   5   6
ENDBRANCH   4   5
ENDBRANCH   3   4
ENDBRANCH   2   3
ENDBRANCH   1   2
BRANCH   1  13
ATOM     13  C   UNL     1      -6.029  35.672  21.166  1.00  0.00     0.000 C 
BRANCH  13  14
ATOM     14  C   UNL     1      -4.986  35.657  20.035  1.00  0.00     0.000 C 
BRANCH  14  15
ATOM     15  C   UNL     1      -5.438  34.966  18.736  1.00  0.00     0.000 C 
BRANCH  15  16
ATOM     16  C   UNL     1      -4.272  34.348  17.943  1.00  0.00     0.000 C 
BRANCH  16  17
ATOM     17  C   UNL     1      -4.080  35.030  16.578  1.00  0.00     0.000 C 
BRANCH  17  18
ATOM     18  C   UNL     1      -2.645  35.552  16.385  1.00  0.00     0.000 C 
BRANCH  18  19
ATOM     19  C   UNL     1      -2.135  35.376  14.942  1.00  0.00     0.000 C 
BRANCH  19  20
ATOM     20  C   UNL     1      -2.712  36.385  13.925  1.00  0.00     0.006 C 
BRANCH  20  21
ATOM     21  C   UNL     1      -3.140  37.732  14.533  1.00  0.00     0.053 C 
BRANCH  21  22
ATOM     22  C   UNL     1      -4.538  38.100  14.139  1.00  0.00     0.041 C 
ATOM     23  O   UNL     1      -5.379  37.199  13.875  1.00  0.00    -0.550 OA
ATOM     24  O   UNL     1      -4.903  39.437  14.033  1.00  0.00    -0.550 OA
ENDBRANCH  21  22
ENDBRANCH  20  21
ENDBRANCH  19  20
ENDBRANCH  18  19
ENDBRANCH  17  18
ENDBRANCH  16  17
ENDBRANCH  15  16
ENDBRANCH  14  15
ENDBRANCH  13  14
ENDBRANCH   1  13
TORSDOF 20
ENDMDL
MODEL 5
REMARK VINA RESULT:     5.351      2.925      9.059
REMARK INTER + INTRA:          10.811
REMARK INTER:                  10.944
REMARK INTRA:                  -0.132
REMARK UNBOUND:                -0.795
REMARK SMILES CCCCCCCCCCCCCCCCCCCCCC(=O)[O-]
REMARK SMILES IDX 12 1 11 2 10 3 9 4 8 5 7 6 6 7 5 8 4 9 3 10 2 11 1 12 13 13
REMARK SMILES IDX 14 14 15 15 16 16 17 17 18 18 19 19 20 20 21 21 22 22 23 23
REMARK SMILES IDX 24 24
REMARK H PARENT
REMARK Flexibility Score: inf
ROOT
ATOM      1  C   UNL     1      -4.764  34.196  22.730  1.00  0.00     0.000 C 
ENDROOT
BRANCH   1   2
ATOM      2  C   UNL     1      -6.125  34.381  23.430  1.00  0.00     0.000 C 
BRANCH   2   3
ATOM      3  C   UNL     1      -6.101  34.242  24.967  1.00  0.00     0.000 C 
BRANCH   3   4
ATOM      4  C   UNL     1      -6.124  35.572  25.745  1.00  0.00    -0.000 C 
BRANCH   4   5
ATOM      5  C   UNL     1      -5.547  36.744  24.936  1.00  0.00    -0.000 C 
BRANCH   5   6
ATOM      6  C   UNL     1      -4.928  37.802  25.862  1.00  0.00    -0.000 C 
BRANCH   6   7
ATOM      7  C   UNL     1      -4.009  37.191  26.936  1.00  0.00    -0.000 C 
BRANCH   7   8
ATOM      8  C   UNL     1      -2.506  37.470  26.744  1.00  0.00    -0.000 C 
BRANCH   8   9
ATOM      9  C   UNL     1      -1.568  36.526  27.518  1.00  0.00    -0.000 C 
BRANCH   9  10
ATOM     10  C   UNL     1      -2.245  35.197  27.896  1.00  0.00    -0.000 C 
BRANCH  10  11
ATOM     11  C   UNL     1      -2.002  34.814  29.365  1.00  0.00    -0.003 C 
ATOM     12  C   UNL     1      -1.356  33.437  29.515  1.00  0.00     0.004 C 
ENDBRANCH  10  11
ENDBRANCH   9  10
ENDBRANCH   8   9
ENDBRANCH   7   8
ENDBRANCH   6   7
ENDBRANCH   5   6
ENDBRANCH   4   5
ENDBRANCH   3   4
ENDBRANCH   2   3
ENDBRANCH   1   2
BRANCH   1  13
ATOM     13  C   UNL     1      -4.445  35.329  21.742  1.00  0.00     0.000 C 
BRANCH  13  14
ATOM     14  C   UNL     1      -5.409  36.523  21.864  1.00  0.00     0.000 C 
BRANCH  14  15
ATOM     15  C   UNL     1      -5.197  37.646  20.834  1.00  0.00     0.000 C 
BRANCH  15  16
ATOM     16  C   UNL     1      -5.577  37.230  19.401  1.00  0.00     0.000 C 
BRANCH  16  17
ATOM     17  C   UNL     1      -5.355  35.728  19.160  1.00  0.00     0.000 C 
BRANCH  17  18
ATOM     18  C   UNL     1      -4.026  35.443  18.439  1.00  0.00     0.000 C 
BRANCH  18  19
ATOM     19  C   UNL     1      -4.213  34.636  17.140  1.00  0.00     0.000 C 
BRANCH  19  20
ATOM     20  C   UNL     1      -3.382  35.140  15.941  1.00  0.00     0.006 C 
BRANCH  20  21
ATOM     21  C   UNL     1      -4.199  35.856  14.852  1.00  0.00     0.053 C 
BRANCH  21  22
ATOM     22  C   UNL     1      -3.448  37.013  14.265  1.00  0.00     0.041 C 
ATOM     23  O   UNL     1      -2.234  36.886  13.951  1.00  0.00    -0.550 OA
ATOM     24  O   UNL     1      -4.080  38.239  14.094  1.00  0.00    -0.550 OA
ENDBRANCH  21  22
ENDBRANCH  20  21
ENDBRANCH  19  20
ENDBRANCH  18  19
ENDBRANCH  17  18
ENDBRANCH  16  17
ENDBRANCH  15  16
ENDBRANCH  14  15
ENDBRANCH  13  14
ENDBRANCH   1  13
TORSDOF 20
ENDMDL
