MODEL 1
REMARK VINA RESULT:    88.300      0.000      0.000
REMARK INTER + INTRA:         186.104
REMARK INTER:                 186.378
REMARK INTRA:                  -0.274
REMARK UNBOUND:                -0.274
REMARK SMILES CCC(=O)CCCCC[C@H]1NC(=O)[C@H]2CCCCN2C(=O)[C@@H]([C@@H](C)CC)NC(=O)[C@@H](Cc2cn(OC)c3ccccc23)NC1=O
REMARK SMILES IDX 9 1 10 2 44 3 43 4 45 6 30 7 28 8 27 9 29 11 22 12 23 14
REMARK SMILES IDX 24 15 25 16 26 17 31 18 32 19 33 20 42 21 34 22 37 23 41 24
REMARK SMILES IDX 38 25 40 26 39 27 35 28 36 29 11 30 12 31 13 33 14 34 19 35
REMARK SMILES IDX 15 36 18 37 16 38 17 39 20 40 21 41 8 43 7 44 6 45 5 46 3 47
REMARK SMILES IDX 4 48 2 49 1 50
REMARK H PARENT 43 5 27 10 11 32
REMARK Flexibility Score: 80.00
ROOT
ATOM      1  C   UNL     1      -7.782 -12.341  21.215  1.00  0.00     0.035 C 
ENDROOT
BRANCH   1   2
ATOM      2  C   UNL     1      -8.964 -13.032  20.497  1.00  0.00     0.171 C 
BRANCH   2   3
ATOM      3  C   UNL     1      -8.530 -14.294  19.786  1.00  0.00     0.243 C 
ATOM      4  N   UNL     1      -8.034 -14.248  18.443  1.00  0.00    -0.342 N 
ATOM      5  H   UNL     1      -7.378 -13.485  18.173  1.00  0.00     0.164 HD
ATOM      6  O   UNL     1      -8.679 -15.411  20.359  1.00  0.00    -0.273 OA
BRANCH   4   7
ATOM      7  C   UNL     1      -8.406 -15.242  17.431  1.00  0.00     0.175 C 
BRANCH   7   8
ATOM      8  C   UNL     1      -9.387 -14.655  16.438  1.00  0.00     0.243 C 
ATOM      9  N   UNL     1      -8.942 -13.686  15.474  1.00  0.00    -0.342 N 
ATOM     10  H   UNL     1      -7.941 -13.696  15.190  1.00  0.00     0.164 HD
ATOM     11  O   UNL     1     -10.612 -14.947  16.511  1.00  0.00    -0.273 OA
BRANCH   9  12
ATOM     12  C   UNL     1      -9.821 -12.721  14.808  1.00  0.00     0.174 CG0
ATOM     13  G   UNL     1      -9.864 -11.417  15.591  1.00  0.00     0.000 G0
BRANCH  12  14
ATOM     14  C   UNL     1      -9.416 -12.536  13.309  1.00  0.00     0.018 C 
ATOM     15  C   UNL     1      -8.335 -13.556  12.887  1.00  0.00     0.010 C 
BRANCH  14  16
ATOM     16  C   UNL     1     -10.638 -12.531  12.347  1.00  0.00     0.002 C 
ATOM     17  C   UNL     1     -11.025 -13.930  11.852  1.00  0.00     0.004 C 
ENDBRANCH  14  16
ENDBRANCH  12  14
ENDBRANCH   9  12
ENDBRANCH   7   8
BRANCH   7  18
ATOM     18  C   UNL     1      -7.143 -15.797  16.750  1.00  0.00     0.073 C 
BRANCH  18  19
ATOM     19  C   UNL     1      -7.371 -17.205  16.274  1.00  0.00    -0.016 A 
ATOM     20  C   UNL     1      -6.536 -17.965  15.457  1.00  0.00     0.134 A 
ATOM     21  C   UNL     1      -8.390 -18.057  16.670  1.00  0.00     0.006 A 
ATOM     22  N   UNL     1      -7.035 -19.224  15.340  1.00  0.00    -0.191 N 
ATOM     23  C   UNL     1      -8.158 -19.272  16.080  1.00  0.00     0.087 A 
ATOM     24  C   UNL     1      -9.476 -17.848  17.522  1.00  0.00     0.011 A 
ATOM     25  C   UNL     1      -8.994 -20.369  16.303  1.00  0.00     0.030 A 
ATOM     26  C   UNL     1     -10.338 -18.931  17.766  1.00  0.00     0.001 A 
ATOM     27  C   UNL     1     -10.097 -20.185  17.158  1.00  0.00     0.002 A 
BRANCH  22  28
ATOM     28  O   UNL     1      -6.519 -20.279  14.611  1.00  0.00    -0.417 OA
ATOM     29  C   UNL     1      -5.765 -21.335  15.197  1.00  0.00     0.313 C 
ENDBRANCH  22  28
ENDBRANCH  18  19
ENDBRANCH   7  18
ENDBRANCH   4   7
ENDBRANCH   2   3
BRANCH   2  30
ATOM     30  N   UNL     1      -9.591 -12.135  19.519  1.00  0.00    -0.343 N 
ATOM     31  C   UNL     1     -10.879 -12.442  18.966  1.00  0.00     0.243 C 
ATOM     32  H   UNL     1      -9.007 -11.407  19.062  1.00  0.00     0.164 HD
ATOM     33  O   UNL     1     -11.731 -13.029  19.687  1.00  0.00    -0.273 OA
BRANCH  31  34
ATOM     34  C   UNL     1     -11.184 -12.239  17.495  1.00  0.00     0.174 C 
ATOM     35  N   UNL     1     -10.382 -11.157  16.888  1.00  0.00    -0.329 N 
ATOM     36  C   UNL     1     -12.680 -11.948  17.257  1.00  0.00     0.035 C 
ATOM     37  C   UNL     1     -10.690  -9.774  17.284  1.00  0.00     0.120 C 
ATOM     38  C   UNL     1     -13.054 -10.537  17.738  1.00  0.00     0.004 C 
ATOM     39  C   UNL     1     -12.179  -9.476  17.063  1.00  0.00     0.022 C 
BRANCH  35  40
ATOM     40  C   UNL     1      -9.873 -11.370  15.554  1.00  0.00     0.246 CG0
ATOM     41  O   UNL     1      -9.418 -10.389  14.908  1.00  0.00    -0.272 OA
ATOM     42  G   UNL     1      -9.839 -12.751  14.916  1.00  0.00     0.000 G0
ENDBRANCH  35  40
ENDBRANCH  31  34
ENDBRANCH   2  30
ENDBRANCH   1   2
BRANCH   1  43
ATOM     43  C   UNL     1      -7.821 -12.525  22.751  1.00  0.00     0.003 C 
BRANCH  43  44
ATOM     44  C   UNL     1      -6.436 -12.419  23.417  1.00  0.00     0.001 C 
BRANCH  44  45
ATOM     45  C   UNL     1      -6.354 -11.286  24.451  1.00  0.00     0.008 C 
BRANCH  45  46
ATOM     46  C   UNL     1      -5.874  -9.955  23.850  1.00  0.00     0.075 C 
BRANCH  46  47
ATOM     47  C   UNL     1      -5.091  -9.118  24.839  1.00  0.00     0.132 C 
ATOM     48  O   UNL     1      -5.354  -9.150  26.034  1.00  0.00    -0.300 OA
BRANCH  47  49
ATOM     49  C   UNL     1      -3.987  -8.215  24.359  1.00  0.00     0.072 C 
ATOM     50  C   UNL     1      -2.627  -8.883  24.531  1.00  0.00     0.012 C 
ENDBRANCH  47  49
ENDBRANCH  46  47
ENDBRANCH  45  46
ENDBRANCH  44  45
ENDBRANCH  43  44
ENDBRANCH   1  43
TORSDOF 12
ENDMDL
MODEL 2
REMARK VINA RESULT:    90.118      0.942      1.771
REMARK INTER + INTRA:         189.943
REMARK INTER:                 190.529
REMARK INTRA:                  -0.587
REMARK UNBOUND:                -0.274
REMARK SMILES CCC(=O)CCCCC[C@H]1NC(=O)[C@H]2CCCCN2C(=O)[C@@H]([C@@H](C)CC)NC(=O)[C@@H](Cc2cn(OC)c3ccccc23)NC1=O
REMARK SMILES IDX 9 1 10 2 44 3 43 4 45 6 30 7 28 8 27 9 29 11 22 12 23 14
REMARK SMILES IDX 24 15 25 16 26 17 31 18 32 19 33 20 42 21 34 22 37 23 41 24
REMARK SMILES IDX 38 25 40 26 39 27 35 28 36 29 11 30 12 31 13 33 14 34 19 35
REMARK SMILES IDX 15 36 18 37 16 38 17 39 20 40 21 41 8 43 7 44 6 45 5 46 3 47
REMARK SMILES IDX 4 48 2 49 1 50
REMARK H PARENT 43 5 27 10 11 32
REMARK Flexibility Score: 80.00
ROOT
ATOM      1  C   UNL     1      -7.630 -12.544  21.142  1.00  0.00     0.035 C 
ENDROOT
BRANCH   1   2
ATOM      2  C   UNL     1      -8.880 -13.179  20.490  1.00  0.00     0.171 C 
BRANCH   2   3
ATOM      3  C   UNL     1      -8.556 -14.491  19.812  1.00  0.00     0.243 C 
ATOM      4  N   UNL     1      -8.128 -14.526  18.444  1.00  0.00    -0.342 N 
ATOM      5  H   UNL     1      -7.445 -13.814  18.111  1.00  0.00     0.164 HD
ATOM      6  O   UNL     1      -8.738 -15.574  20.437  1.00  0.00    -0.273 OA
BRANCH   4   7
ATOM      7  C   UNL     1      -8.608 -15.535  17.495  1.00  0.00     0.175 C 
BRANCH   7   8
ATOM      8  C   UNL     1      -9.477 -14.899  16.430  1.00  0.00     0.243 C 
ATOM      9  N   UNL     1      -8.922 -13.915  15.542  1.00  0.00    -0.342 N 
ATOM     10  H   UNL     1      -7.899 -13.940  15.354  1.00  0.00     0.164 HD
ATOM     11  O   UNL     1     -10.710 -15.165  16.379  1.00  0.00    -0.273 OA
BRANCH   9  12
ATOM     12  C   UNL     1      -9.713 -12.912  14.823  1.00  0.00     0.174 CG0
ATOM     13  G   UNL     1      -9.711 -11.594  15.582  1.00  0.00     0.000 G0
BRANCH  12  14
ATOM     14  C   UNL     1      -9.236 -12.780  13.340  1.00  0.00     0.018 C 
ATOM     15  C   UNL     1      -8.357 -13.979  12.921  1.00  0.00     0.010 C 
BRANCH  14  16
ATOM     16  C   UNL     1     -10.405 -12.523  12.347  1.00  0.00     0.002 C 
ATOM     17  C   UNL     1     -10.869 -13.789  11.617  1.00  0.00     0.004 C 
ENDBRANCH  14  16
ENDBRANCH  12  14
ENDBRANCH   9  12
ENDBRANCH   7   8
BRANCH   7  18
ATOM     18  C   UNL     1      -7.416 -16.303  16.897  1.00  0.00     0.073 C 
BRANCH  18  19
ATOM     19  C   UNL     1      -7.826 -17.693  16.498  1.00  0.00    -0.016 A 
ATOM     20  C   UNL     1      -9.049 -18.315  16.742  1.00  0.00     0.134 A 
ATOM     21  C   UNL     1      -7.111 -18.568  15.695  1.00  0.00     0.006 A 
ATOM     22  N   UNL     1      -9.074 -19.529  16.131  1.00  0.00    -0.191 N 
ATOM     23  C   UNL     1      -7.896 -19.673  15.497  1.00  0.00     0.087 A 
ATOM     24  C   UNL     1      -5.848 -18.448  15.113  1.00  0.00     0.011 A 
ATOM     25  C   UNL     1      -7.476 -20.740  14.698  1.00  0.00     0.030 A 
ATOM     26  C   UNL     1      -5.394 -19.505  14.305  1.00  0.00     0.001 A 
ATOM     27  C   UNL     1      -6.206 -20.645  14.099  1.00  0.00     0.002 A 
BRANCH  22  28
ATOM     28  O   UNL     1     -10.093 -20.464  16.137  1.00  0.00    -0.417 OA
ATOM     29  C   UNL     1     -10.608 -21.061  14.952  1.00  0.00     0.313 C 
ENDBRANCH  22  28
ENDBRANCH  18  19
ENDBRANCH   7  18
ENDBRANCH   4   7
ENDBRANCH   2   3
BRANCH   2  30
ATOM     30  N   UNL     1      -9.482 -12.276  19.502  1.00  0.00    -0.343 N 
ATOM     31  C   UNL     1     -10.776 -12.556  18.950  1.00  0.00     0.243 C 
ATOM     32  H   UNL     1      -8.878 -11.569  19.038  1.00  0.00     0.164 HD
ATOM     33  O   UNL     1     -11.645 -13.113  19.675  1.00  0.00    -0.273 OA
BRANCH  31  34
ATOM     34  C   UNL     1     -11.074 -12.360  17.475  1.00  0.00     0.174 C 
ATOM     35  N   UNL     1     -10.240 -11.309  16.858  1.00  0.00    -0.329 N 
ATOM     36  C   UNL     1     -12.561 -12.029  17.232  1.00  0.00     0.035 C 
ATOM     37  C   UNL     1     -10.509  -9.913  17.238  1.00  0.00     0.120 C 
ATOM     38  C   UNL     1     -12.894 -10.602  17.697  1.00  0.00     0.004 C 
ATOM     39  C   UNL     1     -11.989  -9.575  17.011  1.00  0.00     0.022 C 
BRANCH  35  40
ATOM     40  C   UNL     1      -9.737 -11.551  15.527  1.00  0.00     0.246 CG0
ATOM     41  O   UNL     1      -9.252 -10.591  14.871  1.00  0.00    -0.272 OA
ATOM     42  G   UNL     1      -9.742 -12.940  14.904  1.00  0.00     0.000 G0
ENDBRANCH  35  40
ENDBRANCH  31  34
ENDBRANCH   2  30
ENDBRANCH   1   2
BRANCH   1  43
ATOM     43  C   UNL     1      -7.822 -12.248  22.649  1.00  0.00     0.003 C 
BRANCH  43  44
ATOM     44  C   UNL     1      -6.502 -12.229  23.443  1.00  0.00     0.001 C 
BRANCH  44  45
ATOM     45  C   UNL     1      -6.453 -11.109  24.493  1.00  0.00     0.008 C 
BRANCH  45  46
ATOM     46  C   UNL     1      -5.836  -9.806  23.957  1.00  0.00     0.075 C 
BRANCH  46  47
ATOM     47  C   UNL     1      -4.959  -9.114  24.978  1.00  0.00     0.132 C 
ATOM     48  O   UNL     1      -5.396  -8.814  26.081  1.00  0.00    -0.300 OA
BRANCH  47  49
ATOM     49  C   UNL     1      -3.534  -8.766  24.638  1.00  0.00     0.072 C 
ATOM     50  C   UNL     1      -3.481  -7.589  23.669  1.00  0.00     0.012 C 
ENDBRANCH  47  49
ENDBRANCH  46  47
ENDBRANCH  45  46
ENDBRANCH  44  45
ENDBRANCH  43  44
ENDBRANCH   1  43
TORSDOF 12
ENDMDL
MODEL 3
REMARK VINA RESULT:    90.221      3.293      7.685
REMARK INTER + INTRA:         190.158
REMARK INTER:                 185.947
REMARK INTRA:                   4.212
REMARK UNBOUND:                -0.274
REMARK SMILES CCC(=O)CCCCC[C@H]1NC(=O)[C@H]2CCCCN2C(=O)[C@@H]([C@@H](C)CC)NC(=O)[C@@H](Cc2cn(OC)c3ccccc23)NC1=O
REMARK SMILES IDX 9 1 10 2 44 3 43 4 45 6 30 7 28 8 27 9 29 11 22 12 23 14
REMARK SMILES IDX 24 15 25 16 26 17 31 18 32 19 33 20 42 21 34 22 37 23 41 24
REMARK SMILES IDX 38 25 40 26 39 27 35 28 36 29 11 30 12 31 13 33 14 34 19 35
REMARK SMILES IDX 15 36 18 37 16 38 17 39 20 40 21 41 8 43 7 44 6 45 5 46 3 47
REMARK SMILES IDX 4 48 2 49 1 50
REMARK H PARENT 43 5 27 10 11 32
REMARK Flexibility Score: 80.00
ROOT
ATOM      1  C   UNL     1      -9.436 -16.408  17.743  1.00  0.00     0.035 C 
ENDROOT
BRANCH   1   2
ATOM      2  C   UNL     1      -8.005 -16.570  17.179  1.00  0.00     0.171 C 
BRANCH   2   3
ATOM      3  C   UNL     1      -7.531 -15.314  16.483  1.00  0.00     0.243 C 
ATOM      4  N   UNL     1      -8.166 -14.854  15.283  1.00  0.00    -0.342 N 
ATOM      5  H   UNL     1      -9.205 -14.884  15.220  1.00  0.00     0.164 HD
ATOM      6  O   UNL     1      -6.513 -14.708  16.923  1.00  0.00    -0.273 OA
BRANCH   4   7
ATOM      7  C   UNL     1      -7.409 -14.330  14.143  1.00  0.00     0.175 C 
BRANCH   7   8
ATOM      8  C   UNL     1      -7.714 -15.122  12.888  1.00  0.00     0.243 C 
ATOM      9  N   UNL     1      -8.003 -16.527  12.977  1.00  0.00    -0.342 N 
ATOM     10  H   UNL     1      -8.397 -16.895  13.866  1.00  0.00     0.164 HD
ATOM     11  O   UNL     1      -7.626 -14.571  11.756  1.00  0.00    -0.273 OA
BRANCH   9  12
ATOM     12  C   UNL     1      -7.844 -17.474  11.869  1.00  0.00     0.174 CG0
ATOM     13  G   UNL     1      -7.078 -18.705  12.332  1.00  0.00     0.000 G0
BRANCH  12  14
ATOM     14  C   UNL     1      -9.224 -17.806  11.213  1.00  0.00     0.018 C 
ATOM     15  C   UNL     1      -9.057 -18.249   9.743  1.00  0.00     0.010 C 
BRANCH  14  16
ATOM     16  C   UNL     1     -10.065 -18.813  12.047  1.00  0.00     0.002 C 
ATOM     17  C   UNL     1     -11.000 -19.677  11.191  1.00  0.00     0.004 C 
ENDBRANCH  14  16
ENDBRANCH  12  14
ENDBRANCH   9  12
ENDBRANCH   7   8
BRANCH   7  18
ATOM     18  C   UNL     1      -7.690 -12.828  13.970  1.00  0.00     0.073 C 
BRANCH  18  19
ATOM     19  C   UNL     1      -8.863 -12.608  13.056  1.00  0.00    -0.016 A 
ATOM     20  C   UNL     1      -9.497 -13.555  12.253  1.00  0.00     0.134 A 
ATOM     21  C   UNL     1      -9.618 -11.450  12.943  1.00  0.00     0.006 A 
ATOM     22  N   UNL     1     -10.583 -12.995  11.657  1.00  0.00    -0.191 N 
ATOM     23  C   UNL     1     -10.650 -11.719  12.082  1.00  0.00     0.087 A 
ATOM     24  C   UNL     1      -9.478 -10.205  13.556  1.00  0.00     0.011 A 
ATOM     25  C   UNL     1     -11.620 -10.762  11.775  1.00  0.00     0.030 A 
ATOM     26  C   UNL     1     -10.436  -9.218  13.267  1.00  0.00     0.001 A 
ATOM     27  C   UNL     1     -11.501  -9.497  12.380  1.00  0.00     0.002 A 
BRANCH  22  28
ATOM     28  O   UNL     1     -11.470 -13.586  10.778  1.00  0.00    -0.417 OA
ATOM     29  C   UNL     1     -12.880 -13.587  10.976  1.00  0.00     0.313 C 
ENDBRANCH  22  28
ENDBRANCH  18  19
ENDBRANCH   7  18
ENDBRANCH   4   7
ENDBRANCH   2   3
BRANCH   2  30
ATOM     30  N   UNL     1      -7.928 -17.689  16.234  1.00  0.00    -0.343 N 
ATOM     31  C   UNL     1      -6.717 -18.445  16.094  1.00  0.00     0.243 C 
ATOM     32  H   UNL     1      -8.668 -17.783  15.510  1.00  0.00     0.164 HD
ATOM     33  O   UNL     1      -5.989 -18.629  17.108  1.00  0.00    -0.273 OA
BRANCH  31  34
ATOM     34  C   UNL     1      -6.201 -18.881  14.736  1.00  0.00     0.174 C 
ATOM     35  N   UNL     1      -7.284 -19.095  13.754  1.00  0.00    -0.329 N 
ATOM     36  C   UNL     1      -5.352 -20.167  14.834  1.00  0.00     0.035 C 
ATOM     37  C   UNL     1      -8.162 -20.260  13.947  1.00  0.00     0.120 C 
ATOM     38  C   UNL     1      -6.234 -21.393  15.119  1.00  0.00     0.004 C 
ATOM     39  C   UNL     1      -7.327 -21.543  14.058  1.00  0.00     0.022 C 
BRANCH  35  40
ATOM     40  C   UNL     1      -7.053 -18.652  12.400  1.00  0.00     0.246 CG0
ATOM     41  O   UNL     1      -6.209 -19.262  11.691  1.00  0.00    -0.272 OA
ATOM     42  G   UNL     1      -7.825 -17.491  11.789  1.00  0.00     0.000 G0
ENDBRANCH  35  40
ENDBRANCH  31  34
ENDBRANCH   2  30
ENDBRANCH   1   2
BRANCH   1  43
ATOM     43  C   UNL     1      -9.910 -14.936  17.767  1.00  0.00     0.003 C 
BRANCH  43  44
ATOM     44  C   UNL     1      -8.966 -13.999  18.544  1.00  0.00     0.001 C 
BRANCH  44  45
ATOM     45  C   UNL     1      -8.854 -14.363  20.033  1.00  0.00     0.008 C 
BRANCH  45  46
ATOM     46  C   UNL     1      -8.846 -13.133  20.955  1.00  0.00     0.075 C 
BRANCH  46  47
ATOM     47  C   UNL     1      -7.771 -13.210  22.018  1.00  0.00     0.132 C 
ATOM     48  O   UNL     1      -7.021 -14.175  22.084  1.00  0.00    -0.300 OA
BRANCH  47  49
ATOM     49  C   UNL     1      -7.624 -12.102  23.026  1.00  0.00     0.072 C 
ATOM     50  C   UNL     1      -6.284 -12.202  23.750  1.00  0.00     0.012 C 
ENDBRANCH  47  49
ENDBRANCH  46  47
ENDBRANCH  45  46
ENDBRANCH  44  45
ENDBRANCH  43  44
ENDBRANCH   1  43
TORSDOF 12
ENDMDL
MODEL 4
REMARK VINA RESULT:    90.303      1.584      2.288
REMARK INTER + INTRA:         190.333
REMARK INTER:                 188.010
REMARK INTRA:                   2.323
REMARK UNBOUND:                -0.274
REMARK SMILES CCC(=O)CCCCC[C@H]1NC(=O)[C@H]2CCCCN2C(=O)[C@@H]([C@@H](C)CC)NC(=O)[C@@H](Cc2cn(OC)c3ccccc23)NC1=O
REMARK SMILES IDX 9 1 10 2 44 3 43 4 45 6 30 7 28 8 27 9 29 11 22 12 23 14
REMARK SMILES IDX 24 15 25 16 26 17 31 18 32 19 33 20 42 21 34 22 37 23 41 24
REMARK SMILES IDX 38 25 40 26 39 27 35 28 36 29 11 30 12 31 13 33 14 34 19 35
REMARK SMILES IDX 15 36 18 37 16 38 17 39 20 40 21 41 8 43 7 44 6 45 5 46 3 47
REMARK SMILES IDX 4 48 2 49 1 50
REMARK H PARENT 43 5 27 10 11 32
REMARK Flexibility Score: 80.00
ROOT
ATOM      1  C   UNL     1      -7.806 -12.521  21.223  1.00  0.00     0.035 C 
ENDROOT
BRANCH   1   2
ATOM      2  C   UNL     1      -9.063 -13.129  20.561  1.00  0.00     0.171 C 
BRANCH   2   3
ATOM      3  C   UNL     1      -8.735 -14.379  19.774  1.00  0.00     0.243 C 
ATOM      4  N   UNL     1      -8.114 -14.295  18.486  1.00  0.00    -0.342 N 
ATOM      5  H   UNL     1      -7.341 -13.612  18.342  1.00  0.00     0.164 HD
ATOM      6  O   UNL     1      -9.084 -15.506  20.227  1.00  0.00    -0.273 OA
BRANCH   4   7
ATOM      7  C   UNL     1      -8.519 -15.142  17.360  1.00  0.00     0.175 C 
BRANCH   7   8
ATOM      8  C   UNL     1      -9.474 -14.402  16.447  1.00  0.00     0.243 C 
ATOM      9  N   UNL     1      -8.962 -13.536  15.421  1.00  0.00    -0.342 N 
ATOM     10  H   UNL     1      -8.011 -13.724  15.045  1.00  0.00     0.164 HD
ATOM     11  O   UNL     1     -10.719 -14.474  16.643  1.00  0.00    -0.273 OA
BRANCH   9  12
ATOM     12  C   UNL     1      -9.720 -12.438  14.814  1.00  0.00     0.174 CG0
ATOM     13  G   UNL     1      -9.660 -11.201  15.699  1.00  0.00     0.000 G0
BRANCH  12  14
ATOM     14  C   UNL     1      -9.252 -12.178  13.345  1.00  0.00     0.018 C 
ATOM     15  C   UNL     1      -8.816 -13.488  12.653  1.00  0.00     0.010 C 
BRANCH  14  16
ATOM     16  C   UNL     1     -10.291 -11.379  12.509  1.00  0.00     0.002 C 
ATOM     17  C   UNL     1     -10.296  -9.878  12.823  1.00  0.00     0.004 C 
ENDBRANCH  14  16
ENDBRANCH  12  14
ENDBRANCH   9  12
ENDBRANCH   7   8
BRANCH   7  18
ATOM     18  C   UNL     1      -7.275 -15.655  16.614  1.00  0.00     0.073 C 
BRANCH  18  19
ATOM     19  C   UNL     1      -7.363 -17.139  16.390  1.00  0.00    -0.016 A 
ATOM     20  C   UNL     1      -6.376 -17.974  15.869  1.00  0.00     0.134 A 
ATOM     21  C   UNL     1      -8.395 -17.975  16.787  1.00  0.00     0.006 A 
ATOM     22  N   UNL     1      -6.796 -19.266  15.925  1.00  0.00    -0.191 N 
ATOM     23  C   UNL     1      -8.020 -19.257  16.484  1.00  0.00     0.087 A 
ATOM     24  C   UNL     1      -9.611 -17.692  17.410  1.00  0.00     0.011 A 
ATOM     25  C   UNL     1      -8.832 -20.353  16.787  1.00  0.00     0.030 A 
ATOM     26  C   UNL     1     -10.454 -18.772  17.727  1.00  0.00     0.001 A 
ATOM     27  C   UNL     1     -10.065 -20.095  17.416  1.00  0.00     0.002 A 
BRANCH  22  28
ATOM     28  O   UNL     1      -6.125 -20.397  15.498  1.00  0.00    -0.417 OA
ATOM     29  C   UNL     1      -6.105 -20.824  14.140  1.00  0.00     0.313 C 
ENDBRANCH  22  28
ENDBRANCH  18  19
ENDBRANCH   7  18
ENDBRANCH   4   7
ENDBRANCH   2   3
BRANCH   2  30
ATOM     30  N   UNL     1      -9.711 -12.166  19.663  1.00  0.00    -0.343 N 
ATOM     31  C   UNL     1     -10.896 -12.525  18.939  1.00  0.00     0.243 C 
ATOM     32  H   UNL     1      -9.186 -11.315  19.381  1.00  0.00     0.164 HD
ATOM     33  O   UNL     1     -11.727 -13.309  19.473  1.00  0.00    -0.273 OA
BRANCH  31  34
ATOM     34  C   UNL     1     -11.095 -12.129  17.488  1.00  0.00     0.174 C 
ATOM     35  N   UNL     1     -10.152 -11.081  17.047  1.00  0.00    -0.329 N 
ATOM     36  C   UNL     1     -12.537 -11.652  17.219  1.00  0.00     0.035 C 
ATOM     37  C   UNL     1     -10.338  -9.724  17.585  1.00  0.00     0.120 C 
ATOM     38  C   UNL     1     -12.790 -10.271  17.843  1.00  0.00     0.004 C 
ATOM     39  C   UNL     1     -11.774  -9.244  17.334  1.00  0.00     0.022 C 
BRANCH  35  40
ATOM     40  C   UNL     1      -9.594 -11.200  15.721  1.00  0.00     0.246 CG0
ATOM     41  O   UNL     1      -8.909 -10.250  15.257  1.00  0.00    -0.272 OA
ATOM     42  G   UNL     1      -9.778 -12.454  14.879  1.00  0.00     0.000 G0
ENDBRANCH  35  40
ENDBRANCH  31  34
ENDBRANCH   2  30
ENDBRANCH   1   2
BRANCH   1  43
ATOM     43  C   UNL     1      -7.995 -12.247  22.735  1.00  0.00     0.003 C 
BRANCH  43  44
ATOM     44  C   UNL     1      -6.667 -12.116  23.505  1.00  0.00     0.001 C 
BRANCH  44  45
ATOM     45  C   UNL     1      -6.128 -13.466  24.002  1.00  0.00     0.008 C 
BRANCH  45  46
ATOM     46  C   UNL     1      -5.945 -13.517  25.528  1.00  0.00     0.075 C 
BRANCH  46  47
ATOM     47  C   UNL     1      -4.965 -14.587  25.961  1.00  0.00     0.132 C 
ATOM     48  O   UNL     1      -3.761 -14.368  25.973  1.00  0.00    -0.300 OA
BRANCH  47  49
ATOM     49  C   UNL     1      -5.463 -15.949  26.364  1.00  0.00     0.072 C 
ATOM     50  C   UNL     1      -4.688 -17.045  25.638  1.00  0.00     0.012 C 
ENDBRANCH  47  49
ENDBRANCH  46  47
ENDBRANCH  45  46
ENDBRANCH  44  45
ENDBRANCH  43  44
ENDBRANCH   1  43
TORSDOF 12
ENDMDL
