MODEL 1
REMARK VINA RESULT:    -2.695      0.000      0.000
REMARK INTER + INTRA:          -3.016
REMARK INTER:                  -3.011
REMARK INTRA:                  -0.005
REMARK UNBOUND:                -0.005
REMARK SMILES CCCC(=O)[O-]
REMARK SMILES IDX 3 1 4 2 5 3 6 4 2 5 1 6
REMARK H PARENT
REMARK Flexibility Score: inf
ROOT
ATOM      1  C   UNL     1      19.691 -11.523 187.572  1.00  0.00     0.052 C 
ENDROOT
BRANCH   1   2
ATOM      2  C   UNL     1      19.798 -10.029 187.580  1.00  0.00     0.041 C 
ATOM      3  O   UNL     1      19.736  -9.395 188.666  1.00  0.00    -0.550 OA
ATOM      4  O   UNL     1      19.933  -9.335 186.384  1.00  0.00    -0.550 OA
ENDBRANCH   1   2
BRANCH   1   5
ATOM      5  C   UNL     1      18.420 -11.999 186.857  1.00  0.00     0.003 C 
ATOM      6  C   UNL     1      18.278 -13.520 186.873  1.00  0.00     0.004 C 
ENDBRANCH   1   5
TORSDOF 2
ENDMDL
MODEL 2
REMARK VINA RESULT:    -2.632      3.278      4.077
REMARK INTER + INTRA:          -2.944
REMARK INTER:                  -2.932
REMARK INTRA:                  -0.013
REMARK UNBOUND:                -0.005
REMARK SMILES CCCC(=O)[O-]
REMARK SMILES IDX 3 1 4 2 5 3 6 4 2 5 1 6
REMARK H PARENT
REMARK Flexibility Score: inf
ROOT
ATOM      1  C   UNL     1      18.074 -12.245 186.725  1.00  0.00     0.052 C 
ENDROOT
BRANCH   1   2
ATOM      2  C   UNL     1      17.902 -13.731 186.658  1.00  0.00     0.041 C 
ATOM      3  O   UNL     1      18.869 -14.494 186.925  1.00  0.00    -0.550 OA
ATOM      4  O   UNL     1      16.685 -14.275 186.268  1.00  0.00    -0.550 OA
ENDBRANCH   1   2
BRANCH   1   5
ATOM      5  C   UNL     1      19.378 -11.854 187.434  1.00  0.00     0.003 C 
ATOM      6  C   UNL     1      19.271 -10.507 188.146  1.00  0.00     0.004 C 
ENDBRANCH   1   5
TORSDOF 2
ENDMDL
MODEL 3
REMARK VINA RESULT:    -2.625      3.433      4.185
REMARK INTER + INTRA:          -2.937
REMARK INTER:                  -2.931
REMARK INTRA:                  -0.006
REMARK UNBOUND:                -0.005
REMARK SMILES CCCC(=O)[O-]
REMARK SMILES IDX 3 1 4 2 5 3 6 4 2 5 1 6
REMARK H PARENT
REMARK Flexibility Score: inf
ROOT
ATOM      1  C   UNL     1      18.115 -12.652 186.720  1.00  0.00     0.052 C 
ENDROOT
BRANCH   1   2
ATOM      2  C   UNL     1      17.989 -14.114 187.018  1.00  0.00     0.041 C 
ATOM      3  O   UNL     1      16.916 -14.574 187.491  1.00  0.00    -0.550 OA
ATOM      4  O   UNL     1      19.066 -14.965 186.805  1.00  0.00    -0.550 OA
ENDBRANCH   1   2
BRANCH   1   5
ATOM      5  C   UNL     1      19.281 -12.014 187.487  1.00  0.00     0.003 C 
ATOM      6  C   UNL     1      19.406 -10.516 187.214  1.00  0.00     0.004 C 
ENDBRANCH   1   5
TORSDOF 2
ENDMDL
MODEL 4
REMARK VINA RESULT:    -2.520      1.771      2.339
REMARK INTER + INTRA:          -2.819
REMARK INTER:                  -2.807
REMARK INTRA:                  -0.012
REMARK UNBOUND:                -0.005
REMARK SMILES CCCC(=O)[O-]
REMARK SMILES IDX 3 1 4 2 5 3 6 4 2 5 1 6
REMARK H PARENT
REMARK Flexibility Score: inf
ROOT
ATOM      1  C   UNL     1      17.869 -13.009 186.506  1.00  0.00     0.052 C 
ENDROOT
BRANCH   1   2
ATOM      2  C   UNL     1      18.634 -11.782 186.896  1.00  0.00     0.041 C 
ATOM      3  O   UNL     1      19.647 -11.876 187.639  1.00  0.00    -0.550 OA
ATOM      4  O   UNL     1      18.210 -10.531 186.467  1.00  0.00    -0.550 OA
ENDBRANCH   1   2
BRANCH   1   5
ATOM      5  C   UNL     1      18.610 -14.292 186.904  1.00  0.00     0.003 C 
ATOM      6  C   UNL     1      17.704 -15.522 186.867  1.00  0.00     0.004 C 
ENDBRANCH   1   5
TORSDOF 2
ENDMDL
MODEL 5
REMARK VINA RESULT:    -2.377      1.816      2.367
REMARK INTER + INTRA:          -2.660
REMARK INTER:                  -2.654
REMARK INTRA:                  -0.006
REMARK UNBOUND:                -0.005
REMARK SMILES CCCC(=O)[O-]
REMARK SMILES IDX 3 1 4 2 5 3 6 4 2 5 1 6
REMARK H PARENT
REMARK Flexibility Score: inf
ROOT
ATOM      1  C   UNL     1      18.655  -9.814 188.653  1.00  0.00     0.052 C 
ENDROOT
BRANCH   1   2
ATOM      2  C   UNL     1      19.192  -8.597 189.341  1.00  0.00     0.041 C 
ATOM      3  O   UNL     1      19.762  -8.700 190.459  1.00  0.00    -0.550 OA
ATOM      4  O   UNL     1      19.033  -7.343 188.764  1.00  0.00    -0.550 OA
ENDBRANCH   1   2
BRANCH   1   5
ATOM      5  C   UNL     1      19.707 -10.464 187.745  1.00  0.00     0.003 C 
ATOM      6  C   UNL     1      19.342 -11.899 187.367  1.00  0.00     0.004 C 
ENDBRANCH   1   5
TORSDOF 2
ENDMDL
MODEL 6
REMARK VINA RESULT:    -2.325     15.303     15.828
REMARK INTER + INTRA:          -2.602
REMARK INTER:                  -2.585
REMARK INTRA:                  -0.017
REMARK UNBOUND:                -0.005
REMARK SMILES CCCC(=O)[O-]
REMARK SMILES IDX 3 1 4 2 5 3 6 4 2 5 1 6
REMARK H PARENT
REMARK Flexibility Score: inf
ROOT
ATOM      1  C   UNL     1      17.208 -12.107 202.839  1.00  0.00     0.052 C 
ENDROOT
BRANCH   1   2
ATOM      2  C   UNL     1      18.568 -12.529 203.305  1.00  0.00     0.041 C 
ATOM      3  O   UNL     1      18.747 -13.684 203.774  1.00  0.00    -0.550 OA
ATOM      4  O   UNL     1      19.630 -11.635 203.252  1.00  0.00    -0.550 OA
ENDBRANCH   1   2
BRANCH   1   5
ATOM      5  C   UNL     1      16.280 -13.311 202.628  1.00  0.00     0.003 C 
ATOM      6  C   UNL     1      15.522 -13.237 201.304  1.00  0.00     0.004 C 
ENDBRANCH   1   5
TORSDOF 2
ENDMDL
MODEL 7
REMARK VINA RESULT:    -2.290      2.606      3.516
REMARK INTER + INTRA:          -2.563
REMARK INTER:                  -2.520
REMARK INTRA:                  -0.044
REMARK UNBOUND:                -0.005
REMARK SMILES CCCC(=O)[O-]
REMARK SMILES IDX 3 1 4 2 5 3 6 4 2 5 1 6
REMARK H PARENT
REMARK Flexibility Score: inf
ROOT
ATOM      1  C   UNL     1      17.023 -12.192 186.883  1.00  0.00     0.052 C 
ENDROOT
BRANCH   1   2
ATOM      2  C   UNL     1      16.783 -11.483 185.586  1.00  0.00     0.041 C 
ATOM      3  O   UNL     1      16.443 -12.133 184.562  1.00  0.00    -0.550 OA
ATOM      4  O   UNL     1      16.966 -10.109 185.498  1.00  0.00    -0.550 OA
ENDBRANCH   1   2
BRANCH   1   5
ATOM      5  C   UNL     1      18.448 -12.754 186.969  1.00  0.00     0.003 C 
ATOM      6  C   UNL     1      19.452 -11.720 187.475  1.00  0.00     0.004 C 
ENDBRANCH   1   5
TORSDOF 2
ENDMDL
MODEL 8
REMARK VINA RESULT:    -2.285     18.942     19.614
REMARK INTER + INTRA:          -2.558
REMARK INTER:                  -2.510
REMARK INTRA:                  -0.048
REMARK UNBOUND:                -0.005
REMARK SMILES CCCC(=O)[O-]
REMARK SMILES IDX 3 1 4 2 5 3 6 4 2 5 1 6
REMARK H PARENT
REMARK Flexibility Score: inf
ROOT
ATOM      1  C   UNL     1      12.557  -1.894 204.125  1.00  0.00     0.052 C 
ENDROOT
BRANCH   1   2
ATOM      2  C   UNL     1      13.851  -2.061 203.390  1.00  0.00     0.041 C 
ATOM      3  O   UNL     1      14.126  -3.156 202.832  1.00  0.00    -0.550 OA
ATOM      4  O   UNL     1      14.769  -1.019 203.350  1.00  0.00    -0.550 OA
ENDBRANCH   1   2
BRANCH   1   5
ATOM      5  C   UNL     1      11.357  -1.876 203.168  1.00  0.00     0.003 C 
ATOM      6  C   UNL     1      11.091  -0.484 202.596  1.00  0.00     0.004 C 
ENDBRANCH   1   5
TORSDOF 2
ENDMDL
MODEL 9
REMARK VINA RESULT:    -2.258     16.192     16.566
REMARK INTER + INTRA:          -2.528
REMARK INTER:                  -2.515
REMARK INTRA:                  -0.012
REMARK UNBOUND:                -0.005
REMARK SMILES CCCC(=O)[O-]
REMARK SMILES IDX 3 1 4 2 5 3 6 4 2 5 1 6
REMARK H PARENT
REMARK Flexibility Score: inf
ROOT
ATOM      1  C   UNL     1      17.818 -10.737 203.885  1.00  0.00     0.052 C 
ENDROOT
BRANCH   1   2
ATOM      2  C   UNL     1      18.958 -11.629 203.501  1.00  0.00     0.041 C 
ATOM      3  O   UNL     1      20.093 -11.138 203.260  1.00  0.00    -0.550 OA
ATOM      4  O   UNL     1      18.760 -12.998 203.376  1.00  0.00    -0.550 OA
ENDBRANCH   1   2
BRANCH   1   5
ATOM      5  C   UNL     1      18.184  -9.254 203.746  1.00  0.00     0.003 C 
ATOM      6  C   UNL     1      16.954  -8.365 203.570  1.00  0.00     0.004 C 
ENDBRANCH   1   5
TORSDOF 2
ENDMDL
