MODEL 1
REMARK VINA RESULT:    -7.464      0.000      0.000
REMARK INTER + INTRA:          -9.980
REMARK INTER:                  -9.427
REMARK INTRA:                  -0.553
REMARK UNBOUND:                -0.553
REMARK SMILES Oc1cc(O)cc(CCc2ccccc2O)c1
REMARK SMILES IDX 9 1 10 2 12 3 13 4 11 5 14 6 15 7 16 8 8 10 7 11 6 12 17 13
REMARK SMILES IDX 4 14 2 15 3 16 5 17 1 19
REMARK H PARENT 16 9 5 18 1 20
REMARK Flexibility Score: inf
ROOT
ATOM      1  C   UNL     1      -2.608  62.868 -12.863  1.00  0.00     0.044 C 
ENDROOT
BRANCH   1   2
ATOM      2  C   UNL     1      -2.027  63.028 -11.479  1.00  0.00    -0.006 A 
ATOM      3  C   UNL     1      -0.589  62.154  -9.720  1.00  0.00     0.001 A 
ATOM      4  C   UNL     1      -0.871  63.266  -8.927  1.00  0.00     0.004 A 
ATOM      5  C   UNL     1      -1.158  62.036 -10.989  1.00  0.00     0.007 A 
ATOM      6  C   UNL     1      -1.718  64.267  -9.404  1.00  0.00     0.046 A 
ATOM      7  C   UNL     1      -2.293  64.167 -10.677  1.00  0.00     0.118 A 
BRANCH   7   8
ATOM      8  O   UNL     1      -3.115  65.212 -11.109  1.00  0.00    -0.508 OA
ATOM      9  H   UNL     1      -3.031  66.163 -10.776  1.00  0.00     0.293 HD
ENDBRANCH   7   8
ENDBRANCH   1   2
BRANCH   1  10
ATOM     10  C   UNL     1      -2.646  61.390 -13.270  1.00  0.00     0.040 C 
BRANCH  10  11
ATOM     11  C   UNL     1      -4.068  60.903 -13.355  1.00  0.00    -0.040 A 
ATOM     12  C   UNL     1      -4.784  60.599 -12.187  1.00  0.00     0.050 A 
ATOM     13  C   UNL     1      -4.707  60.801 -14.601  1.00  0.00     0.050 A 
ATOM     14  C   UNL     1      -6.116  60.178 -12.263  1.00  0.00     0.119 A 
ATOM     15  C   UNL     1      -6.038  60.380 -14.682  1.00  0.00     0.119 A 
ATOM     16  C   UNL     1      -6.741  60.066 -13.512  1.00  0.00     0.092 A 
BRANCH  14  17
ATOM     17  O   UNL     1      -6.808  59.875 -11.093  1.00  0.00    -0.508 OA
ATOM     18  H   UNL     1      -7.714  60.284 -10.892  1.00  0.00     0.293 HD
ENDBRANCH  14  17
BRANCH  15  19
ATOM     19  O   UNL     1      -6.653  60.280 -15.928  1.00  0.00    -0.508 OA
ATOM     20  H   UNL     1      -7.164  61.057 -16.331  1.00  0.00     0.293 HD
ENDBRANCH  15  19
ENDBRANCH  10  11
ENDBRANCH   1  10
TORSDOF 6
ENDMDL
MODEL 2
REMARK VINA RESULT:    -7.425      0.788      2.252
REMARK INTER + INTRA:          -9.931
REMARK INTER:                  -9.493
REMARK INTRA:                  -0.438
REMARK UNBOUND:                -0.553
REMARK SMILES Oc1cc(O)cc(CCc2ccccc2O)c1
REMARK SMILES IDX 9 1 10 2 12 3 13 4 11 5 14 6 15 7 16 8 8 10 7 11 6 12 17 13
REMARK SMILES IDX 4 14 2 15 3 16 5 17 1 19
REMARK H PARENT 16 9 5 18 1 20
REMARK Flexibility Score: inf
ROOT
ATOM      1  C   UNL     1      -2.704  62.857 -12.303  1.00  0.00     0.044 C 
ENDROOT
BRANCH   1   2
ATOM      2  C   UNL     1      -1.906  62.445 -11.089  1.00  0.00    -0.006 A 
ATOM      3  C   UNL     1      -0.873  60.660  -9.794  1.00  0.00     0.001 A 
ATOM      4  C   UNL     1      -0.395  61.594  -8.875  1.00  0.00     0.004 A 
ATOM      5  C   UNL     1      -1.620  61.081 -10.896  1.00  0.00     0.007 A 
ATOM      6  C   UNL     1      -0.656  62.953  -9.061  1.00  0.00     0.046 A 
ATOM      7  C   UNL     1      -1.399  63.392 -10.163  1.00  0.00     0.118 A 
BRANCH   7   8
ATOM      8  O   UNL     1      -1.608  64.766 -10.307  1.00  0.00    -0.508 OA
ATOM      9  H   UNL     1      -2.489  65.221 -10.108  1.00  0.00     0.293 HD
ENDBRANCH   7   8
ENDBRANCH   1   2
BRANCH   1  10
ATOM     10  C   UNL     1      -2.758  61.720 -13.330  1.00  0.00     0.040 C 
BRANCH  10  11
ATOM     11  C   UNL     1      -4.158  61.181 -13.448  1.00  0.00    -0.040 A 
ATOM     12  C   UNL     1      -4.733  60.973 -14.712  1.00  0.00     0.050 A 
ATOM     13  C   UNL     1      -4.880  60.829 -12.296  1.00  0.00     0.050 A 
ATOM     14  C   UNL     1      -6.022  60.441 -14.824  1.00  0.00     0.119 A 
ATOM     15  C   UNL     1      -6.169  60.297 -12.404  1.00  0.00     0.119 A 
ATOM     16  C   UNL     1      -6.740  60.106 -13.668  1.00  0.00     0.092 A 
BRANCH  14  17
ATOM     17  O   UNL     1      -6.578  60.248 -16.086  1.00  0.00    -0.508 OA
ATOM     18  H   UNL     1      -6.306  59.466 -16.671  1.00  0.00     0.293 HD
ENDBRANCH  14  17
BRANCH  15  19
ATOM     19  O   UNL     1      -6.871  59.960 -11.249  1.00  0.00    -0.508 OA
ATOM     20  H   UNL     1      -7.822  60.274 -11.096  1.00  0.00     0.293 HD
ENDBRANCH  15  19
ENDBRANCH  10  11
ENDBRANCH   1  10
TORSDOF 6
ENDMDL
MODEL 3
REMARK VINA RESULT:    -7.328     12.631     14.441
REMARK INTER + INTRA:          -9.809
REMARK INTER:                  -9.268
REMARK INTRA:                  -0.541
REMARK UNBOUND:                -0.553
REMARK SMILES Oc1cc(O)cc(CCc2ccccc2O)c1
REMARK SMILES IDX 9 1 10 2 12 3 13 4 11 5 14 6 15 7 16 8 8 10 7 11 6 12 17 13
REMARK SMILES IDX 4 14 2 15 3 16 5 17 1 19
REMARK H PARENT 16 9 5 18 1 20
REMARK Flexibility Score: inf
ROOT
ATOM      1  C   UNL     1      -6.814  68.748 -24.108  1.00  0.00     0.044 C 
ENDROOT
BRANCH   1   2
ATOM      2  C   UNL     1      -6.396  68.633 -22.661  1.00  0.00    -0.006 A 
ATOM      3  C   UNL     1      -4.642  68.161 -21.041  1.00  0.00     0.001 A 
ATOM      4  C   UNL     1      -5.525  68.431 -19.996  1.00  0.00     0.004 A 
ATOM      5  C   UNL     1      -5.071  68.265 -22.365  1.00  0.00     0.007 A 
ATOM      6  C   UNL     1      -6.839  68.813 -20.273  1.00  0.00     0.046 A 
ATOM      7  C   UNL     1      -7.284  68.927 -21.595  1.00  0.00     0.118 A 
BRANCH   7   8
ATOM      8  O   UNL     1      -8.603  69.336 -21.810  1.00  0.00    -0.508 OA
ATOM      9  H   UNL     1      -8.876  69.984 -22.536  1.00  0.00     0.293 HD
ENDBRANCH   7   8
ENDBRANCH   1   2
BRANCH   1  10
ATOM     10  C   UNL     1      -5.727  69.446 -24.935  1.00  0.00     0.040 C 
BRANCH  10  11
ATOM     11  C   UNL     1      -5.189  68.517 -25.990  1.00  0.00    -0.040 A 
ATOM     12  C   UNL     1      -3.901  67.972 -25.865  1.00  0.00     0.050 A 
ATOM     13  C   UNL     1      -5.992  68.144 -27.080  1.00  0.00     0.050 A 
ATOM     14  C   UNL     1      -3.413  67.083 -26.828  1.00  0.00     0.119 A 
ATOM     15  C   UNL     1      -5.508  67.256 -28.045  1.00  0.00     0.119 A 
ATOM     16  C   UNL     1      -4.217  66.728 -27.920  1.00  0.00     0.092 A 
BRANCH  14  17
ATOM     17  O   UNL     1      -2.131  66.557 -26.690  1.00  0.00    -0.508 OA
ATOM     18  H   UNL     1      -1.778  66.251 -25.791  1.00  0.00     0.293 HD
ENDBRANCH  14  17
BRANCH  15  19
ATOM     19  O   UNL     1      -6.318  66.903 -29.122  1.00  0.00    -0.508 OA
ATOM     20  H   UNL     1      -7.119  67.465 -29.389  1.00  0.00     0.293 HD
ENDBRANCH  15  19
ENDBRANCH  10  11
ENDBRANCH   1  10
TORSDOF 6
ENDMDL
MODEL 4
REMARK VINA RESULT:    -7.274     12.643     14.524
REMARK INTER + INTRA:          -9.740
REMARK INTER:                  -9.218
REMARK INTRA:                  -0.522
REMARK UNBOUND:                -0.553
REMARK SMILES Oc1cc(O)cc(CCc2ccccc2O)c1
REMARK SMILES IDX 9 1 10 2 12 3 13 4 11 5 14 6 15 7 16 8 8 10 7 11 6 12 17 13
REMARK SMILES IDX 4 14 2 15 3 16 5 17 1 19
REMARK H PARENT 16 9 5 18 1 20
REMARK Flexibility Score: inf
ROOT
ATOM      1  C   UNL     1      -6.817  68.876 -24.123  1.00  0.00     0.044 C 
ENDROOT
BRANCH   1   2
ATOM      2  C   UNL     1      -6.421  68.682 -22.678  1.00  0.00    -0.006 A 
ATOM      3  C   UNL     1      -4.701  68.083 -21.063  1.00  0.00     0.001 A 
ATOM      4  C   UNL     1      -5.588  68.332 -20.016  1.00  0.00     0.004 A 
ATOM      5  C   UNL     1      -5.112  68.260 -22.385  1.00  0.00     0.007 A 
ATOM      6  C   UNL     1      -6.886  68.767 -20.289  1.00  0.00     0.046 A 
ATOM      7  C   UNL     1      -7.312  68.955 -21.609  1.00  0.00     0.118 A 
BRANCH   7   8
ATOM      8  O   UNL     1      -8.615  69.414 -21.818  1.00  0.00    -0.508 OA
ATOM      9  H   UNL     1      -9.151  69.213 -22.651  1.00  0.00     0.293 HD
ENDBRANCH   7   8
ENDBRANCH   1   2
BRANCH   1  10
ATOM     10  C   UNL     1      -5.663  69.484 -24.927  1.00  0.00     0.040 C 
BRANCH  10  11
ATOM     11  C   UNL     1      -5.167  68.507 -25.960  1.00  0.00    -0.040 A 
ATOM     12  C   UNL     1      -5.970  68.175 -27.063  1.00  0.00     0.050 A 
ATOM     13  C   UNL     1      -3.876  67.965 -25.859  1.00  0.00     0.050 A 
ATOM     14  C   UNL     1      -5.498  67.293 -28.041  1.00  0.00     0.119 A 
ATOM     15  C   UNL     1      -3.400  67.083 -26.834  1.00  0.00     0.119 A 
ATOM     16  C   UNL     1      -4.213  66.745 -27.924  1.00  0.00     0.092 A 
BRANCH  14  17
ATOM     17  O   UNL     1      -6.311  66.970 -29.125  1.00  0.00    -0.508 OA
ATOM     18  H   UNL     1      -7.301  66.787 -29.008  1.00  0.00     0.293 HD
ENDBRANCH  14  17
BRANCH  15  19
ATOM     19  O   UNL     1      -2.119  66.550 -26.712  1.00  0.00    -0.508 OA
ATOM     20  H   UNL     1      -1.753  65.891 -27.389  1.00  0.00     0.293 HD
ENDBRANCH  15  19
ENDBRANCH  10  11
ENDBRANCH   1  10
TORSDOF 6
ENDMDL
MODEL 5
REMARK VINA RESULT:    -7.059     12.249     14.774
REMARK INTER + INTRA:          -9.470
REMARK INTER:                  -9.049
REMARK INTRA:                  -0.420
REMARK UNBOUND:                -0.553
REMARK SMILES Oc1cc(O)cc(CCc2ccccc2O)c1
REMARK SMILES IDX 9 1 10 2 12 3 13 4 11 5 14 6 15 7 16 8 8 10 7 11 6 12 17 13
REMARK SMILES IDX 4 14 2 15 3 16 5 17 1 19
REMARK H PARENT 16 9 5 18 1 20
REMARK Flexibility Score: inf
ROOT
ATOM      1  C   UNL     1      -3.693  68.715 -24.842  1.00  0.00     0.044 C 
ENDROOT
BRANCH   1   2
ATOM      2  C   UNL     1      -4.295  68.120 -26.092  1.00  0.00    -0.006 A 
ATOM      3  C   UNL     1      -6.143  68.056 -27.676  1.00  0.00     0.001 A 
ATOM      4  C   UNL     1      -5.473  67.092 -28.429  1.00  0.00     0.004 A 
ATOM      5  C   UNL     1      -5.558  68.571 -26.518  1.00  0.00     0.007 A 
ATOM      6  C   UNL     1      -4.213  66.646 -28.030  1.00  0.00     0.046 A 
ATOM      7  C   UNL     1      -3.609  67.156 -26.874  1.00  0.00     0.118 A 
BRANCH   7   8
ATOM      8  O   UNL     1      -2.336  66.687 -26.538  1.00  0.00    -0.508 OA
ATOM      9  H   UNL     1      -2.110  65.707 -26.437  1.00  0.00     0.293 HD
ENDBRANCH   7   8
ENDBRANCH   1   2
BRANCH   1  10
ATOM     10  C   UNL     1      -4.280  68.058 -23.588  1.00  0.00     0.040 C 
BRANCH  10  11
ATOM     11  C   UNL     1      -3.287  68.094 -22.458  1.00  0.00    -0.040 A 
ATOM     12  C   UNL     1      -1.915  67.945 -22.716  1.00  0.00     0.050 A 
ATOM     13  C   UNL     1      -3.719  68.334 -21.144  1.00  0.00     0.050 A 
ATOM     14  C   UNL     1      -0.988  68.011 -21.670  1.00  0.00     0.119 A 
ATOM     15  C   UNL     1      -2.795  68.402 -20.096  1.00  0.00     0.119 A 
ATOM     16  C   UNL     1      -1.430  68.237 -20.360  1.00  0.00     0.092 A 
BRANCH  14  17
ATOM     17  O   UNL     1       0.369  67.854 -21.945  1.00  0.00    -0.508 OA
ATOM     18  H   UNL     1       0.730  67.003 -22.360  1.00  0.00     0.293 HD
ENDBRANCH  14  17
BRANCH  15  19
ATOM     19  O   UNL     1      -3.245  68.635 -18.798  1.00  0.00    -0.508 OA
ATOM     20  H   UNL     1      -4.071  69.194 -18.616  1.00  0.00     0.293 HD
ENDBRANCH  15  19
ENDBRANCH  10  11
ENDBRANCH   1  10
TORSDOF 6
ENDMDL
MODEL 6
REMARK VINA RESULT:    -7.036     12.242     14.681
REMARK INTER + INTRA:          -9.440
REMARK INTER:                  -9.025
REMARK INTRA:                  -0.415
REMARK UNBOUND:                -0.553
REMARK SMILES Oc1cc(O)cc(CCc2ccccc2O)c1
REMARK SMILES IDX 9 1 10 2 12 3 13 4 11 5 14 6 15 7 16 8 8 10 7 11 6 12 17 13
REMARK SMILES IDX 4 14 2 15 3 16 5 17 1 19
REMARK H PARENT 16 9 5 18 1 20
REMARK Flexibility Score: inf
ROOT
ATOM      1  C   UNL     1      -3.733  68.701 -24.834  1.00  0.00     0.044 C 
ENDROOT
BRANCH   1   2
ATOM      2  C   UNL     1      -4.323  68.113 -26.094  1.00  0.00    -0.006 A 
ATOM      3  C   UNL     1      -6.155  68.060 -27.696  1.00  0.00     0.001 A 
ATOM      4  C   UNL     1      -5.480  67.098 -28.447  1.00  0.00     0.004 A 
ATOM      5  C   UNL     1      -5.580  68.568 -26.530  1.00  0.00     0.007 A 
ATOM      6  C   UNL     1      -4.224  66.647 -28.037  1.00  0.00     0.046 A 
ATOM      7  C   UNL     1      -3.632  67.150 -26.872  1.00  0.00     0.118 A 
BRANCH   7   8
ATOM      8  O   UNL     1      -2.363  66.677 -26.525  1.00  0.00    -0.508 OA
ATOM      9  H   UNL     1      -1.687  66.344 -27.199  1.00  0.00     0.293 HD
ENDBRANCH   7   8
ENDBRANCH   1   2
BRANCH   1  10
ATOM     10  C   UNL     1      -4.233  67.949 -23.595  1.00  0.00     0.040 C 
BRANCH  10  11
ATOM     11  C   UNL     1      -3.247  68.078 -22.466  1.00  0.00    -0.040 A 
ATOM     12  C   UNL     1      -3.697  68.303 -21.155  1.00  0.00     0.050 A 
ATOM     13  C   UNL     1      -1.873  67.919 -22.705  1.00  0.00     0.050 A 
ATOM     14  C   UNL     1      -2.784  68.390 -20.099  1.00  0.00     0.119 A 
ATOM     15  C   UNL     1      -0.956  68.005 -21.652  1.00  0.00     0.119 A 
ATOM     16  C   UNL     1      -1.412  68.243 -20.349  1.00  0.00     0.092 A 
BRANCH  14  17
ATOM     17  O   UNL     1      -3.248  68.619 -18.806  1.00  0.00    -0.508 OA
ATOM     18  H   UNL     1      -2.710  68.342 -17.993  1.00  0.00     0.293 HD
ENDBRANCH  14  17
BRANCH  15  19
ATOM     19  O   UNL     1       0.404  67.851 -21.911  1.00  0.00    -0.508 OA
ATOM     20  H   UNL     1       0.953  67.134 -21.450  1.00  0.00     0.293 HD
ENDBRANCH  15  19
ENDBRANCH  10  11
ENDBRANCH   1  10
TORSDOF 6
ENDMDL
MODEL 7
REMARK VINA RESULT:    -7.029     11.124     12.659
REMARK INTER + INTRA:          -9.431
REMARK INTER:                  -8.765
REMARK INTRA:                  -0.666
REMARK UNBOUND:                -0.553
REMARK SMILES Oc1cc(O)cc(CCc2ccccc2O)c1
REMARK SMILES IDX 9 1 10 2 12 3 13 4 11 5 14 6 15 7 16 8 8 10 7 11 6 12 17 13
REMARK SMILES IDX 4 14 2 15 3 16 5 17 1 19
REMARK H PARENT 16 9 5 18 1 20
REMARK Flexibility Score: inf
ROOT
ATOM      1  C   UNL     1      -2.916  66.215 -21.581  1.00  0.00     0.044 C 
ENDROOT
BRANCH   1   2
ATOM      2  C   UNL     1      -2.339  67.361 -20.783  1.00  0.00    -0.006 A 
ATOM      3  C   UNL     1      -2.381  68.700 -18.751  1.00  0.00     0.001 A 
ATOM      4  C   UNL     1      -1.303  69.453 -19.217  1.00  0.00     0.004 A 
ATOM      5  C   UNL     1      -2.894  67.659 -19.526  1.00  0.00     0.007 A 
ATOM      6  C   UNL     1      -0.730  69.160 -20.455  1.00  0.00     0.046 A 
ATOM      7  C   UNL     1      -1.229  68.115 -21.242  1.00  0.00     0.118 A 
BRANCH   7   8
ATOM      8  O   UNL     1      -0.599  67.855 -22.462  1.00  0.00    -0.508 OA
ATOM      9  H   UNL     1       0.305  67.411 -22.541  1.00  0.00     0.293 HD
ENDBRANCH   7   8
ENDBRANCH   1   2
BRANCH   1  10
ATOM     10  C   UNL     1      -4.283  66.591 -22.163  1.00  0.00     0.040 C 
BRANCH  10  11
ATOM     11  C   UNL     1      -4.128  67.176 -23.541  1.00  0.00    -0.040 A 
ATOM     12  C   UNL     1      -3.205  66.626 -24.444  1.00  0.00     0.050 A 
ATOM     13  C   UNL     1      -4.946  68.240 -23.953  1.00  0.00     0.050 A 
ATOM     14  C   UNL     1      -3.083  67.148 -25.736  1.00  0.00     0.119 A 
ATOM     15  C   UNL     1      -4.828  68.764 -25.245  1.00  0.00     0.119 A 
ATOM     16  C   UNL     1      -3.894  68.219 -26.135  1.00  0.00     0.092 A 
BRANCH  14  17
ATOM     17  O   UNL     1      -2.156  66.593 -26.616  1.00  0.00    -0.508 OA
ATOM     18  H   UNL     1      -1.940  65.603 -26.603  1.00  0.00     0.293 HD
ENDBRANCH  14  17
BRANCH  15  19
ATOM     19  O   UNL     1      -5.644  69.824 -25.633  1.00  0.00    -0.508 OA
ATOM     20  H   UNL     1      -5.908  69.962 -26.602  1.00  0.00     0.293 HD
ENDBRANCH  15  19
ENDBRANCH  10  11
ENDBRANCH   1  10
TORSDOF 6
ENDMDL
MODEL 8
REMARK VINA RESULT:    -6.982     11.136     12.638
REMARK INTER + INTRA:          -9.371
REMARK INTER:                  -8.710
REMARK INTRA:                  -0.662
REMARK UNBOUND:                -0.553
REMARK SMILES Oc1cc(O)cc(CCc2ccccc2O)c1
REMARK SMILES IDX 9 1 10 2 12 3 13 4 11 5 14 6 15 7 16 8 8 10 7 11 6 12 17 13
REMARK SMILES IDX 4 14 2 15 3 16 5 17 1 19
REMARK H PARENT 16 9 5 18 1 20
REMARK Flexibility Score: inf
ROOT
ATOM      1  C   UNL     1      -2.875  66.233 -21.626  1.00  0.00     0.044 C 
ENDROOT
BRANCH   1   2
ATOM      2  C   UNL     1      -2.315  67.366 -20.799  1.00  0.00    -0.006 A 
ATOM      3  C   UNL     1      -2.388  68.663 -18.740  1.00  0.00     0.001 A 
ATOM      4  C   UNL     1      -1.311  69.433 -19.179  1.00  0.00     0.004 A 
ATOM      5  C   UNL     1      -2.886  67.634 -19.542  1.00  0.00     0.007 A 
ATOM      6  C   UNL     1      -0.723  69.169 -20.417  1.00  0.00     0.046 A 
ATOM      7  C   UNL     1      -1.206  68.138 -21.230  1.00  0.00     0.118 A 
BRANCH   7   8
ATOM      8  O   UNL     1      -0.562  67.907 -22.449  1.00  0.00    -0.508 OA
ATOM      9  H   UNL     1       0.346  67.471 -22.527  1.00  0.00     0.293 HD
ENDBRANCH   7   8
ENDBRANCH   1   2
BRANCH   1  10
ATOM     10  C   UNL     1      -4.263  66.590 -22.171  1.00  0.00     0.040 C 
BRANCH  10  11
ATOM     11  C   UNL     1      -4.154  67.164 -23.558  1.00  0.00    -0.040 A 
ATOM     12  C   UNL     1      -4.992  68.218 -23.956  1.00  0.00     0.050 A 
ATOM     13  C   UNL     1      -3.175  66.689 -24.445  1.00  0.00     0.050 A 
ATOM     14  C   UNL     1      -4.869  68.775 -25.234  1.00  0.00     0.119 A 
ATOM     15  C   UNL     1      -3.049  67.243 -25.723  1.00  0.00     0.119 A 
ATOM     16  C   UNL     1      -3.899  68.284 -26.118  1.00  0.00     0.092 A 
BRANCH  14  17
ATOM     17  O   UNL     1      -5.714  69.815 -25.613  1.00  0.00    -0.508 OA
ATOM     18  H   UNL     1      -6.036  70.507 -24.946  1.00  0.00     0.293 HD
ENDBRANCH  14  17
BRANCH  15  19
ATOM     19  O   UNL     1      -2.076  66.753 -26.591  1.00  0.00    -0.508 OA
ATOM     20  H   UNL     1      -1.662  67.339 -27.308  1.00  0.00     0.293 HD
ENDBRANCH  15  19
ENDBRANCH  10  11
ENDBRANCH   1  10
TORSDOF 6
ENDMDL
MODEL 9
REMARK VINA RESULT:    -6.782     10.014     11.325
REMARK INTER + INTRA:          -9.119
REMARK INTER:                  -8.491
REMARK INTRA:                  -0.628
REMARK UNBOUND:                -0.553
REMARK SMILES Oc1cc(O)cc(CCc2ccccc2O)c1
REMARK SMILES IDX 9 1 10 2 12 3 13 4 11 5 14 6 15 7 16 8 8 10 7 11 6 12 17 13
REMARK SMILES IDX 4 14 2 15 3 16 5 17 1 19
REMARK H PARENT 16 9 5 18 1 20
REMARK Flexibility Score: inf
ROOT
ATOM      1  C   UNL     1      -3.473  66.744 -22.259  1.00  0.00     0.044 C 
ENDROOT
BRANCH   1   2
ATOM      2  C   UNL     1      -2.795  67.647 -21.256  1.00  0.00    -0.006 A 
ATOM      3  C   UNL     1      -2.785  68.636 -19.031  1.00  0.00     0.001 A 
ATOM      4  C   UNL     1      -1.581  69.281 -19.315  1.00  0.00     0.004 A 
ATOM      5  C   UNL     1      -3.387  67.822 -19.992  1.00  0.00     0.007 A 
ATOM      6  C   UNL     1      -0.972  69.105 -20.559  1.00  0.00     0.046 A 
ATOM      7  C   UNL     1      -1.560  68.287 -21.531  1.00  0.00     0.118 A 
BRANCH   7   8
ATOM      8  O   UNL     1      -0.891  68.132 -22.748  1.00  0.00    -0.508 OA
ATOM      9  H   UNL     1      -0.788  68.873 -23.428  1.00  0.00     0.293 HD
ENDBRANCH   7   8
ENDBRANCH   1   2
BRANCH   1  10
ATOM     10  C   UNL     1      -4.486  67.529 -23.100  1.00  0.00     0.040 C 
BRANCH  10  11
ATOM     11  C   UNL     1      -5.849  67.483 -22.463  1.00  0.00    -0.040 A 
ATOM     12  C   UNL     1      -6.338  66.283 -21.923  1.00  0.00     0.050 A 
ATOM     13  C   UNL     1      -6.618  68.652 -22.352  1.00  0.00     0.050 A 
ATOM     14  C   UNL     1      -7.591  66.246 -21.301  1.00  0.00     0.119 A 
ATOM     15  C   UNL     1      -7.871  68.620 -21.731  1.00  0.00     0.119 A 
ATOM     16  C   UNL     1      -8.358  67.416 -21.208  1.00  0.00     0.092 A 
BRANCH  14  17
ATOM     17  O   UNL     1      -8.063  65.045 -20.777  1.00  0.00    -0.508 OA
ATOM     18  H   UNL     1      -8.613  64.403 -21.336  1.00  0.00     0.293 HD
ENDBRANCH  14  17
BRANCH  15  19
ATOM     19  O   UNL     1      -8.621  69.790 -21.637  1.00  0.00    -0.508 OA
ATOM     20  H   UNL     1      -8.317  70.570 -21.065  1.00  0.00     0.293 HD
ENDBRANCH  15  19
ENDBRANCH  10  11
ENDBRANCH   1  10
TORSDOF 6
ENDMDL
