MODEL 1
REMARK VINA RESULT:    -3.025      0.000      0.000
REMARK INTER + INTRA:          -4.275
REMARK INTER:                  -3.909
REMARK INTRA:                  -0.366
REMARK UNBOUND:                -0.366
REMARK SMILES CCCCCCC(=O)[O-]
REMARK SMILES IDX 5 1 6 2 7 3 8 4 9 5 4 6 3 7 2 8 1 9
REMARK H PARENT
REMARK Flexibility Score: inf
ROOT
ATOM      1  C   UNL     1      24.234  -5.442 -28.792  1.00  0.00     0.006 C 
ENDROOT
BRANCH   1   2
ATOM      2  C   UNL     1      23.860  -5.900 -30.207  1.00  0.00     0.053 C 
BRANCH   2   3
ATOM      3  C   UNL     1      24.859  -5.439 -31.223  1.00  0.00     0.041 C 
ATOM      4  O   UNL     1      26.018  -5.100 -30.865  1.00  0.00    -0.550 OA
ATOM      5  O   UNL     1      24.522  -5.414 -32.572  1.00  0.00    -0.550 OA
ENDBRANCH   2   3
ENDBRANCH   1   2
BRANCH   1   6
ATOM      6  C   UNL     1      23.988  -6.537 -27.742  1.00  0.00     0.000 C 
BRANCH   6   7
ATOM      7  C   UNL     1      24.638  -7.861 -28.167  1.00  0.00    -0.000 C 
BRANCH   7   8
ATOM      8  C   UNL     1      26.120  -7.946 -27.765  1.00  0.00    -0.003 C 
ATOM      9  C   UNL     1      27.063  -7.884 -28.966  1.00  0.00     0.004 C 
ENDBRANCH   7   8
ENDBRANCH   6   7
ENDBRANCH   1   6
TORSDOF 5
ENDMDL
MODEL 2
REMARK VINA RESULT:    -2.922     15.628     16.680
REMARK INTER + INTRA:          -4.142
REMARK INTER:                  -3.957
REMARK INTRA:                  -0.185
REMARK UNBOUND:                -0.366
REMARK SMILES CCCCCCC(=O)[O-]
REMARK SMILES IDX 5 1 6 2 7 3 8 4 9 5 4 6 3 7 2 8 1 9
REMARK H PARENT
REMARK Flexibility Score: inf
ROOT
ATOM      1  C   UNL     1      34.693   7.628 -31.579  1.00  0.00     0.006 C 
ENDROOT
BRANCH   1   2
ATOM      2  C   UNL     1      33.549   7.805 -30.572  1.00  0.00     0.053 C 
BRANCH   2   3
ATOM      3  C   UNL     1      32.873   9.133 -30.726  1.00  0.00     0.041 C 
ATOM      4  O   UNL     1      31.790   9.366 -30.127  1.00  0.00    -0.550 OA
ATOM      5  O   UNL     1      33.455  10.126 -31.506  1.00  0.00    -0.550 OA
ENDBRANCH   2   3
ENDBRANCH   1   2
BRANCH   1   6
ATOM      6  C   UNL     1      35.715   6.577 -31.120  1.00  0.00     0.000 C 
BRANCH   6   7
ATOM      7  C   UNL     1      35.244   5.161 -31.480  1.00  0.00    -0.000 C 
BRANCH   7   8
ATOM      8  C   UNL     1      34.990   4.989 -32.987  1.00  0.00    -0.003 C 
ATOM      9  C   UNL     1      34.072   3.807 -33.301  1.00  0.00     0.004 C 
ENDBRANCH   7   8
ENDBRANCH   6   7
ENDBRANCH   1   6
TORSDOF 5
ENDMDL
MODEL 3
REMARK VINA RESULT:    -2.877     15.865     16.914
REMARK INTER + INTRA:          -4.084
REMARK INTER:                  -3.933
REMARK INTRA:                  -0.151
REMARK UNBOUND:                -0.366
REMARK SMILES CCCCCCC(=O)[O-]
REMARK SMILES IDX 5 1 6 2 7 3 8 4 9 5 4 6 3 7 2 8 1 9
REMARK H PARENT
REMARK Flexibility Score: inf
ROOT
ATOM      1  C   UNL     1      33.472   7.386 -31.133  1.00  0.00     0.006 C 
ENDROOT
BRANCH   1   2
ATOM      2  C   UNL     1      33.216   8.456 -30.064  1.00  0.00     0.053 C 
BRANCH   2   3
ATOM      3  C   UNL     1      32.654   9.711 -30.657  1.00  0.00     0.041 C 
ATOM      4  O   UNL     1      33.327  10.376 -31.488  1.00  0.00    -0.550 OA
ATOM      5  O   UNL     1      31.373  10.130 -30.316  1.00  0.00    -0.550 OA
ENDBRANCH   2   3
ENDBRANCH   1   2
BRANCH   1   6
ATOM      6  C   UNL     1      34.950   7.316 -31.546  1.00  0.00     0.000 C 
BRANCH   6   7
ATOM      7  C   UNL     1      35.415   5.858 -31.675  1.00  0.00    -0.000 C 
BRANCH   7   8
ATOM      8  C   UNL     1      35.290   5.324 -33.111  1.00  0.00    -0.003 C 
ATOM      9  C   UNL     1      34.239   4.221 -33.242  1.00  0.00     0.004 C 
ENDBRANCH   7   8
ENDBRANCH   6   7
ENDBRANCH   1   6
TORSDOF 5
ENDMDL
MODEL 4
REMARK VINA RESULT:    -2.874     15.466     16.639
REMARK INTER + INTRA:          -4.081
REMARK INTER:                  -3.932
REMARK INTRA:                  -0.148
REMARK UNBOUND:                -0.366
REMARK SMILES CCCCCCC(=O)[O-]
REMARK SMILES IDX 5 1 6 2 7 3 8 4 9 5 4 6 3 7 2 8 1 9
REMARK H PARENT
REMARK Flexibility Score: inf
ROOT
ATOM      1  C   UNL     1      35.560   6.592 -31.239  1.00  0.00     0.006 C 
ENDROOT
BRANCH   1   2
ATOM      2  C   UNL     1      34.965   5.219 -31.575  1.00  0.00     0.053 C 
BRANCH   2   3
ATOM      3  C   UNL     1      35.003   4.941 -33.046  1.00  0.00     0.041 C 
ATOM      4  O   UNL     1      35.794   5.577 -33.791  1.00  0.00    -0.550 OA
ATOM      5  O   UNL     1      34.186   3.957 -33.591  1.00  0.00    -0.550 OA
ENDBRANCH   2   3
ENDBRANCH   1   2
BRANCH   1   6
ATOM      6  C   UNL     1      34.565   7.735 -31.493  1.00  0.00     0.000 C 
BRANCH   6   7
ATOM      7  C   UNL     1      33.327   7.595 -30.595  1.00  0.00    -0.000 C 
BRANCH   7   8
ATOM      8  C   UNL     1      32.733   8.954 -30.192  1.00  0.00    -0.003 C 
ATOM      9  C   UNL     1      33.139  10.082 -31.141  1.00  0.00     0.004 C 
ENDBRANCH   7   8
ENDBRANCH   6   7
ENDBRANCH   1   6
TORSDOF 5
ENDMDL
MODEL 5
REMARK VINA RESULT:    -2.793      1.526      2.095
REMARK INTER + INTRA:          -3.975
REMARK INTER:                  -3.625
REMARK INTRA:                  -0.350
REMARK UNBOUND:                -0.366
REMARK SMILES CCCCCCC(=O)[O-]
REMARK SMILES IDX 5 1 6 2 7 3 8 4 9 5 4 6 3 7 2 8 1 9
REMARK H PARENT
REMARK Flexibility Score: inf
ROOT
ATOM      1  C   UNL     1      24.091  -7.157 -28.223  1.00  0.00     0.006 C 
ENDROOT
BRANCH   1   2
ATOM      2  C   UNL     1      24.281  -5.641 -28.351  1.00  0.00     0.053 C 
BRANCH   2   3
ATOM      3  C   UNL     1      23.862  -5.140 -29.699  1.00  0.00     0.041 C 
ATOM      4  O   UNL     1      23.629  -3.915 -29.876  1.00  0.00    -0.550 OA
ATOM      5  O   UNL     1      23.759  -6.021 -30.770  1.00  0.00    -0.550 OA
ENDBRANCH   2   3
ENDBRANCH   1   2
BRANCH   1   6
ATOM      6  C   UNL     1      25.407  -7.883 -27.901  1.00  0.00     0.000 C 
BRANCH   6   7
ATOM      7  C   UNL     1      26.348  -7.877 -29.114  1.00  0.00    -0.000 C 
BRANCH   7   8
ATOM      8  C   UNL     1      27.699  -7.209 -28.810  1.00  0.00    -0.003 C 
ATOM      9  C   UNL     1      27.882  -5.881 -29.545  1.00  0.00     0.004 C 
ENDBRANCH   7   8
ENDBRANCH   6   7
ENDBRANCH   1   6
TORSDOF 5
ENDMDL
MODEL 6
REMARK VINA RESULT:    -2.793      2.742      3.609
REMARK INTER + INTRA:          -3.975
REMARK INTER:                  -3.665
REMARK INTRA:                  -0.310
REMARK UNBOUND:                -0.366
REMARK SMILES CCCCCCC(=O)[O-]
REMARK SMILES IDX 5 1 6 2 7 3 8 4 9 5 4 6 3 7 2 8 1 9
REMARK H PARENT
REMARK Flexibility Score: inf
ROOT
ATOM      1  C   UNL     1      25.632  -7.361 -29.270  1.00  0.00     0.006 C 
ENDROOT
BRANCH   1   2
ATOM      2  C   UNL     1      27.026  -7.864 -28.875  1.00  0.00     0.053 C 
BRANCH   2   3
ATOM      3  C   UNL     1      27.997  -6.736 -28.709  1.00  0.00     0.041 C 
ATOM      4  O   UNL     1      28.979  -6.624 -29.491  1.00  0.00    -0.550 OA
ATOM      5  O   UNL     1      27.802  -5.788 -27.711  1.00  0.00    -0.550 OA
ENDBRANCH   2   3
ENDBRANCH   1   2
BRANCH   1   6
ATOM      6  C   UNL     1      24.547  -7.815 -28.280  1.00  0.00     0.000 C 
BRANCH   6   7
ATOM      7  C   UNL     1      25.147  -8.073 -26.890  1.00  0.00    -0.000 C 
BRANCH   7   8
ATOM      8  C   UNL     1      24.911  -6.905 -25.919  1.00  0.00    -0.003 C 
ATOM      9  C   UNL     1      23.908  -5.884 -26.455  1.00  0.00     0.004 C 
ENDBRANCH   7   8
ENDBRANCH   6   7
ENDBRANCH   1   6
TORSDOF 5
ENDMDL
MODEL 7
REMARK VINA RESULT:    -2.775      1.457      2.560
REMARK INTER + INTRA:          -3.952
REMARK INTER:                  -3.575
REMARK INTRA:                  -0.377
REMARK UNBOUND:                -0.366
REMARK SMILES CCCCCCC(=O)[O-]
REMARK SMILES IDX 5 1 6 2 7 3 8 4 9 5 4 6 3 7 2 8 1 9
REMARK H PARENT
REMARK Flexibility Score: inf
ROOT
ATOM      1  C   UNL     1      26.202  -7.744 -29.248  1.00  0.00     0.006 C 
ENDROOT
BRANCH   1   2
ATOM      2  C   UNL     1      26.267  -6.249 -29.586  1.00  0.00     0.053 C 
BRANCH   2   3
ATOM      3  C   UNL     1      25.143  -5.833 -30.484  1.00  0.00     0.041 C 
ATOM      4  O   UNL     1      25.376  -5.149 -31.515  1.00  0.00    -0.550 OA
ATOM      5  O   UNL     1      23.841  -6.228 -30.201  1.00  0.00    -0.550 OA
ENDBRANCH   2   3
ENDBRANCH   1   2
BRANCH   1   6
ATOM      6  C   UNL     1      26.364  -8.008 -27.743  1.00  0.00     0.000 C 
BRANCH   6   7
ATOM      7  C   UNL     1      24.998  -8.039 -27.042  1.00  0.00    -0.000 C 
BRANCH   7   8
ATOM      8  C   UNL     1      24.783  -6.833 -26.114  1.00  0.00    -0.003 C 
ATOM      9  C   UNL     1      23.832  -5.793 -26.706  1.00  0.00     0.004 C 
ENDBRANCH   7   8
ENDBRANCH   6   7
ENDBRANCH   1   6
TORSDOF 5
ENDMDL
MODEL 8
REMARK VINA RESULT:    -2.770      1.334      2.204
REMARK INTER + INTRA:          -3.946
REMARK INTER:                  -3.521
REMARK INTRA:                  -0.425
REMARK UNBOUND:                -0.366
REMARK SMILES CCCCCCC(=O)[O-]
REMARK SMILES IDX 5 1 6 2 7 3 8 4 9 5 4 6 3 7 2 8 1 9
REMARK H PARENT
REMARK Flexibility Score: inf
ROOT
ATOM      1  C   UNL     1      26.774  -5.543 -30.023  1.00  0.00     0.006 C 
ENDROOT
BRANCH   1   2
ATOM      2  C   UNL     1      25.552  -4.652 -30.278  1.00  0.00     0.053 C 
BRANCH   2   3
ATOM      3  C   UNL     1      24.551  -5.323 -31.168  1.00  0.00     0.041 C 
ATOM      4  O   UNL     1      23.498  -5.814 -30.680  1.00  0.00    -0.550 OA
ATOM      5  O   UNL     1      24.763  -5.377 -32.540  1.00  0.00    -0.550 OA
ENDBRANCH   2   3
ENDBRANCH   1   2
BRANCH   1   6
ATOM      6  C   UNL     1      26.680  -6.291 -28.684  1.00  0.00     0.000 C 
BRANCH   6   7
ATOM      7  C   UNL     1      26.202  -7.735 -28.894  1.00  0.00    -0.000 C 
BRANCH   7   8
ATOM      8  C   UNL     1      24.795  -7.980 -28.324  1.00  0.00    -0.003 C 
ATOM      9  C   UNL     1      24.333  -6.863 -27.389  1.00  0.00     0.004 C 
ENDBRANCH   7   8
ENDBRANCH   6   7
ENDBRANCH   1   6
TORSDOF 5
ENDMDL
MODEL 9
REMARK VINA RESULT:    -2.761      2.007      3.453
REMARK INTER + INTRA:          -3.934
REMARK INTER:                  -3.575
REMARK INTRA:                  -0.359
REMARK UNBOUND:                -0.366
REMARK SMILES CCCCCCC(=O)[O-]
REMARK SMILES IDX 5 1 6 2 7 3 8 4 9 5 4 6 3 7 2 8 1 9
REMARK H PARENT
REMARK Flexibility Score: inf
ROOT
ATOM      1  C   UNL     1      24.952  -8.068 -27.009  1.00  0.00     0.006 C 
ENDROOT
BRANCH   1   2
ATOM      2  C   UNL     1      24.665  -7.855 -28.500  1.00  0.00     0.053 C 
BRANCH   2   3
ATOM      3  C   UNL     1      25.885  -7.405 -29.243  1.00  0.00     0.041 C 
ATOM      4  O   UNL     1      25.846  -6.369 -29.958  1.00  0.00    -0.550 OA
ATOM      5  O   UNL     1      27.076  -8.111 -29.120  1.00  0.00    -0.550 OA
ENDBRANCH   2   3
ENDBRANCH   1   2
BRANCH   1   6
ATOM      6  C   UNL     1      24.986  -6.745 -26.227  1.00  0.00     0.000 C 
BRANCH   6   7
ATOM      7  C   UNL     1      23.804  -5.846 -26.619  1.00  0.00    -0.000 C 
BRANCH   7   8
ATOM      8  C   UNL     1      24.212  -4.373 -26.784  1.00  0.00    -0.003 C 
ATOM      9  C   UNL     1      24.199  -3.915 -28.242  1.00  0.00     0.004 C 
ENDBRANCH   7   8
ENDBRANCH   6   7
ENDBRANCH   1   6
TORSDOF 5
ENDMDL
