MODEL 1
REMARK VINA RESULT:    -1.684      0.000      0.000
REMARK INTER + INTRA:          -2.087
REMARK INTER:                  -1.881
REMARK INTRA:                  -0.207
REMARK UNBOUND:                -0.207
REMARK SMILES CC(C)c1ccc(C(=O)[O-])cc1
REMARK SMILES IDX 7 1 6 2 11 3 5 4 12 5 4 6 8 7 9 8 10 9 2 10 1 11 3 12
REMARK H PARENT
REMARK Flexibility Score: inf
ROOT
ATOM      1  C   UNL     1      22.694   3.700   6.400  1.00  0.00    -0.003 A 
ATOM      2  C   UNL     1      21.684   3.900   7.356  1.00  0.00     0.010 A 
ATOM      3  C   UNL     1      23.160   4.801   5.660  1.00  0.00     0.010 A 
ATOM      4  C   UNL     1      21.151   5.174   7.568  1.00  0.00     0.004 A 
ATOM      5  C   UNL     1      22.626   6.075   5.873  1.00  0.00     0.004 A 
ATOM      6  C   UNL     1      21.616   6.277   6.829  1.00  0.00    -0.045 A 
ENDROOT
BRANCH   1   7
ATOM      7  C   UNL     1      23.255   2.349   6.177  1.00  0.00     0.071 C 
ATOM      8  O   UNL     1      23.502   1.942   5.011  1.00  0.00    -0.545 OA
ATOM      9  O   UNL     1      23.518   1.509   7.253  1.00  0.00    -0.545 OA
ENDBRANCH   1   7
BRANCH   6  10
ATOM     10  C   UNL     1      21.047   7.665   7.049  1.00  0.00     0.013 C 
ATOM     11  C   UNL     1      19.930   7.972   6.044  1.00  0.00     0.012 C 
ATOM     12  C   UNL     1      20.553   7.838   8.491  1.00  0.00     0.012 C 
ENDBRANCH   6  10
TORSDOF 2
ENDMDL
MODEL 2
REMARK VINA RESULT:    -1.681      0.152      1.405
REMARK INTER + INTRA:          -2.084
REMARK INTER:                  -1.874
REMARK INTRA:                  -0.210
REMARK UNBOUND:                -0.207
REMARK SMILES CC(C)c1ccc(C(=O)[O-])cc1
REMARK SMILES IDX 7 1 6 2 11 3 5 4 12 5 4 6 8 7 9 8 10 9 2 10 1 11 3 12
REMARK H PARENT
REMARK Flexibility Score: inf
ROOT
ATOM      1  C   UNL     1      22.730   3.578   6.458  1.00  0.00    -0.003 A 
ATOM      2  C   UNL     1      23.145   4.642   5.639  1.00  0.00     0.010 A 
ATOM      3  C   UNL     1      21.765   3.819   7.451  1.00  0.00     0.010 A 
ATOM      4  C   UNL     1      22.605   5.920   5.808  1.00  0.00     0.004 A 
ATOM      5  C   UNL     1      21.226   5.098   7.621  1.00  0.00     0.004 A 
ATOM      6  C   UNL     1      21.639   6.162   6.802  1.00  0.00    -0.045 A 
ENDROOT
BRANCH   1   7
ATOM      7  C   UNL     1      23.304   2.226   6.275  1.00  0.00     0.071 C 
ATOM      8  O   UNL     1      23.557   1.788   5.121  1.00  0.00    -0.545 OA
ATOM      9  O   UNL     1      23.572   1.421   7.375  1.00  0.00    -0.545 OA
ENDBRANCH   1   7
BRANCH   6  10
ATOM     10  C   UNL     1      21.045   7.544   6.998  1.00  0.00     0.013 C 
ATOM     11  C   UNL     1      19.935   7.819   5.976  1.00  0.00     0.012 C 
ATOM     12  C   UNL     1      20.532   7.728   8.431  1.00  0.00     0.012 C 
ENDBRANCH   6  10
TORSDOF 2
ENDMDL
MODEL 3
REMARK VINA RESULT:    -0.819      3.718      5.306
REMARK INTER + INTRA:          -1.121
REMARK INTER:                  -0.910
REMARK INTRA:                  -0.211
REMARK UNBOUND:                -0.207
REMARK SMILES CC(C)c1ccc(C(=O)[O-])cc1
REMARK SMILES IDX 7 1 6 2 11 3 5 4 12 5 4 6 8 7 9 8 10 9 2 10 1 11 3 12
REMARK H PARENT
REMARK Flexibility Score: inf
ROOT
ATOM      1  C   UNL     1      20.707   7.741   6.426  1.00  0.00    -0.003 A 
ATOM      2  C   UNL     1      20.412   6.949   7.548  1.00  0.00     0.010 A 
ATOM      3  C   UNL     1      21.590   7.242   5.453  1.00  0.00     0.010 A 
ATOM      4  C   UNL     1      20.987   5.684   7.694  1.00  0.00     0.004 A 
ATOM      5  C   UNL     1      22.166   5.977   5.600  1.00  0.00     0.004 A 
ATOM      6  C   UNL     1      21.871   5.183   6.721  1.00  0.00    -0.045 A 
ENDROOT
BRANCH   1   7
ATOM      7  C   UNL     1      20.096   9.080   6.275  1.00  0.00     0.071 C 
ATOM      8  O   UNL     1      18.957   9.210   5.751  1.00  0.00    -0.545 OA
ATOM      9  O   UNL     1      20.770  10.215   6.709  1.00  0.00    -0.545 OA
ENDBRANCH   1   7
BRANCH   6  10
ATOM     10  C   UNL     1      22.503   3.812   6.867  1.00  0.00     0.013 C 
ATOM     11  C   UNL     1      21.460   2.761   7.267  1.00  0.00     0.012 C 
ATOM     12  C   UNL     1      23.235   3.401   5.584  1.00  0.00     0.012 C 
ENDBRANCH   6  10
TORSDOF 2
ENDMDL
MODEL 4
REMARK VINA RESULT:    -0.781      3.746      5.502
REMARK INTER + INTRA:          -1.079
REMARK INTER:                  -0.869
REMARK INTRA:                  -0.211
REMARK UNBOUND:                -0.207
REMARK SMILES CC(C)c1ccc(C(=O)[O-])cc1
REMARK SMILES IDX 7 1 6 2 11 3 5 4 12 5 4 6 8 7 9 8 10 9 2 10 1 11 3 12
REMARK H PARENT
REMARK Flexibility Score: inf
ROOT
ATOM      1  C   UNL     1      20.678   7.810   6.409  1.00  0.00    -0.003 A 
ATOM      2  C   UNL     1      21.531   7.307   5.413  1.00  0.00     0.010 A 
ATOM      3  C   UNL     1      20.417   7.023   7.545  1.00  0.00     0.010 A 
ATOM      4  C   UNL     1      22.112   6.043   5.550  1.00  0.00     0.004 A 
ATOM      5  C   UNL     1      20.998   5.760   7.680  1.00  0.00     0.004 A 
ATOM      6  C   UNL     1      21.852   5.255   6.685  1.00  0.00    -0.045 A 
ENDROOT
BRANCH   1   7
ATOM      7  C   UNL     1      20.064   9.149   6.261  1.00  0.00     0.071 C 
ATOM      8  O   UNL     1      18.920   9.276   5.749  1.00  0.00    -0.545 OA
ATOM      9  O   UNL     1      20.742  10.285   6.686  1.00  0.00    -0.545 OA
ENDBRANCH   1   7
BRANCH   6  10
ATOM     10  C   UNL     1      22.476   3.881   6.846  1.00  0.00     0.013 C 
ATOM     11  C   UNL     1      21.424   2.839   7.247  1.00  0.00     0.012 C 
ATOM     12  C   UNL     1      23.214   3.457   5.571  1.00  0.00     0.012 C 
ENDBRANCH   6  10
TORSDOF 2
ENDMDL
MODEL 5
REMARK VINA RESULT:    -0.672      3.148      5.153
REMARK INTER + INTRA:          -0.957
REMARK INTER:                  -0.750
REMARK INTRA:                  -0.207
REMARK UNBOUND:                -0.207
REMARK SMILES CC(C)c1ccc(C(=O)[O-])cc1
REMARK SMILES IDX 7 1 6 2 11 3 5 4 12 5 4 6 8 7 9 8 10 9 2 10 1 11 3 12
REMARK H PARENT
REMARK Flexibility Score: inf
ROOT
ATOM      1  C   UNL     1      21.305   6.551   6.832  1.00  0.00    -0.003 A 
ATOM      2  C   UNL     1      22.275   6.212   5.874  1.00  0.00     0.010 A 
ATOM      3  C   UNL     1      20.809   5.549   7.684  1.00  0.00     0.010 A 
ATOM      4  C   UNL     1      22.740   4.898   5.771  1.00  0.00     0.004 A 
ATOM      5  C   UNL     1      21.275   4.235   7.580  1.00  0.00     0.004 A 
ATOM      6  C   UNL     1      22.245   3.894   6.624  1.00  0.00    -0.045 A 
ENDROOT
BRANCH   1   7
ATOM      7  C   UNL     1      20.813   7.943   6.938  1.00  0.00     0.071 C 
ATOM      8  O   UNL     1      20.208   8.484   5.975  1.00  0.00    -0.545 OA
ATOM      9  O   UNL     1      21.014   8.673   8.104  1.00  0.00    -0.545 OA
ENDBRANCH   1   7
BRANCH   6  10
ATOM     10  C   UNL     1      22.742   2.464   6.522  1.00  0.00     0.013 C 
ATOM     11  C   UNL     1      23.546   2.248   5.235  1.00  0.00     0.012 C 
ATOM     12  C   UNL     1      23.563   2.076   7.757  1.00  0.00     0.012 C 
ENDBRANCH   6  10
TORSDOF 2
ENDMDL
MODEL 6
REMARK VINA RESULT:     0.735      1.465      2.702
REMARK INTER + INTRA:           0.614
REMARK INTER:                   0.823
REMARK INTRA:                  -0.209
REMARK UNBOUND:                -0.207
REMARK SMILES CC(C)c1ccc(C(=O)[O-])cc1
REMARK SMILES IDX 7 1 6 2 11 3 5 4 12 5 4 6 8 7 9 8 10 9 2 10 1 11 3 12
REMARK H PARENT
REMARK Flexibility Score: inf
ROOT
ATOM      1  C   UNL     1      21.794   5.294   6.482  1.00  0.00    -0.003 A 
ATOM      2  C   UNL     1      22.029   6.207   5.440  1.00  0.00     0.010 A 
ATOM      3  C   UNL     1      20.974   5.682   7.556  1.00  0.00     0.010 A 
ATOM      4  C   UNL     1      21.454   7.481   5.470  1.00  0.00     0.004 A 
ATOM      5  C   UNL     1      20.400   6.956   7.586  1.00  0.00     0.004 A 
ATOM      6  C   UNL     1      20.633   7.870   6.544  1.00  0.00    -0.045 A 
ENDROOT
BRANCH   1   7
ATOM      7  C   UNL     1      22.404   3.946   6.447  1.00  0.00     0.071 C 
ATOM      8  O   UNL     1      22.213   3.132   7.389  1.00  0.00    -0.545 OA
ATOM      9  O   UNL     1      23.197   3.560   5.372  1.00  0.00    -0.545 OA
ENDBRANCH   1   7
BRANCH   6  10
ATOM     10  C   UNL     1      20.004   9.249   6.590  1.00  0.00     0.013 C 
ATOM     11  C   UNL     1      21.030  10.337   6.250  1.00  0.00     0.012 C 
ATOM     12  C   UNL     1      18.785   9.332   5.663  1.00  0.00     0.012 C 
ENDBRANCH   6  10
TORSDOF 2
ENDMDL
