MODEL 1
REMARK VINA RESULT:    -3.777      0.000      0.000
REMARK INTER + INTRA:          -9.656
REMARK INTER:                  -7.088
REMARK INTRA:                  -2.567
REMARK UNBOUND:                -2.567
REMARK SMILES O=C([O-])CCCCCCCCCCCCCCC(=O)[O-]
REMARK SMILES IDX 10 1 9 2 8 3 7 4 6 5 5 6 4 7 2 8 1 9 3 10 11 11 12 12 13 13
REMARK SMILES IDX 14 14 15 15 16 16 17 17 18 18 19 19 20 20
REMARK H PARENT
REMARK Flexibility Score: inf
ROOT
ATOM      1  C   UNL     1      18.172  -0.324  57.140  1.00  0.00     0.000 C 
ENDROOT
BRANCH   1   2
ATOM      2  C   UNL     1      18.569   0.619  58.287  1.00  0.00     0.000 C 
BRANCH   2   3
ATOM      3  C   UNL     1      19.247  -0.117  59.452  1.00  0.00     0.000 C 
BRANCH   3   4
ATOM      4  C   UNL     1      19.119   0.682  60.755  1.00  0.00     0.000 C 
BRANCH   4   5
ATOM      5  C   UNL     1      17.783   1.430  60.813  1.00  0.00     0.000 C 
BRANCH   5   6
ATOM      6  C   UNL     1      17.100   1.232  62.176  1.00  0.00     0.006 C 
BRANCH   6   7
ATOM      7  C   UNL     1      15.725   1.911  62.240  1.00  0.00     0.053 C 
BRANCH   7   8
ATOM      8  C   UNL     1      15.646   2.897  63.365  1.00  0.00     0.041 C 
ATOM      9  O   UNL     1      14.565   3.062  63.990  1.00  0.00    -0.550 OA
ATOM     10  O   UNL     1      16.758   3.659  63.701  1.00  0.00    -0.550 OA
ENDBRANCH   7   8
ENDBRANCH   6   7
ENDBRANCH   5   6
ENDBRANCH   4   5
ENDBRANCH   3   4
ENDBRANCH   2   3
ENDBRANCH   1   2
BRANCH   1  11
ATOM     11  C   UNL     1      16.658  -0.595  57.094  1.00  0.00     0.000 C 
BRANCH  11  12
ATOM     12  C   UNL     1      15.850   0.486  57.830  1.00  0.00     0.000 C 
BRANCH  12  13
ATOM     13  C   UNL     1      15.009  -0.090  58.983  1.00  0.00     0.000 C 
BRANCH  13  14
ATOM     14  C   UNL     1      15.666  -1.335  59.616  1.00  0.00     0.000 C 
BRANCH  14  15
ATOM     15  C   UNL     1      14.949  -1.832  60.884  1.00  0.00     0.000 C 
BRANCH  15  16
ATOM     16  C   UNL     1      15.921  -2.271  61.987  1.00  0.00     0.006 C 
BRANCH  16  17
ATOM     17  C   UNL     1      17.304  -2.582  61.409  1.00  0.00     0.053 C 
BRANCH  17  18
ATOM     18  C   UNL     1      17.550  -4.057  61.405  1.00  0.00     0.041 C 
ATOM     19  O   UNL     1      16.864  -4.812  60.668  1.00  0.00    -0.550 OA
ATOM     20  O   UNL     1      18.504  -4.605  62.254  1.00  0.00    -0.550 OA
ENDBRANCH  17  18
ENDBRANCH  16  17
ENDBRANCH  15  16
ENDBRANCH  14  15
ENDBRANCH  13  14
ENDBRANCH  12  13
ENDBRANCH  11  12
ENDBRANCH   1  11
TORSDOF 15
ENDMDL
MODEL 2
REMARK VINA RESULT:    -3.686      9.736     12.670
REMARK INTER + INTRA:          -9.486
REMARK INTER:                  -7.439
REMARK INTRA:                  -2.048
REMARK UNBOUND:                -2.567
REMARK SMILES O=C([O-])CCCCCCCCCCCCCCC(=O)[O-]
REMARK SMILES IDX 10 1 9 2 8 3 7 4 6 5 5 6 4 7 2 8 1 9 3 10 11 11 12 12 13 13
REMARK SMILES IDX 14 14 15 15 16 16 17 17 18 18 19 19 20 20
REMARK H PARENT
REMARK Flexibility Score: inf
ROOT
ATOM      1  C   UNL     1      26.258  -2.050  54.988  1.00  0.00     0.000 C 
ENDROOT
BRANCH   1   2
ATOM      2  C   UNL     1      26.786  -1.286  53.763  1.00  0.00     0.000 C 
BRANCH   2   3
ATOM      3  C   UNL     1      26.021  -1.629  52.476  1.00  0.00     0.000 C 
BRANCH   3   4
ATOM      4  C   UNL     1      26.808  -2.631  51.620  1.00  0.00     0.000 C 
BRANCH   4   5
ATOM      5  C   UNL     1      26.041  -3.949  51.472  1.00  0.00     0.000 C 
BRANCH   5   6
ATOM      6  C   UNL     1      26.943  -5.151  51.796  1.00  0.00     0.006 C 
BRANCH   6   7
ATOM      7  C   UNL     1      28.158  -4.753  52.644  1.00  0.00     0.053 C 
BRANCH   7   8
ATOM      8  C   UNL     1      29.447  -5.044  51.937  1.00  0.00     0.041 C 
ATOM      9  O   UNL     1      30.518  -4.505  52.321  1.00  0.00    -0.550 OA
ATOM     10  O   UNL     1      29.458  -5.887  50.833  1.00  0.00    -0.550 OA
ENDBRANCH   7   8
ENDBRANCH   6   7
ENDBRANCH   5   6
ENDBRANCH   4   5
ENDBRANCH   3   4
ENDBRANCH   2   3
ENDBRANCH   1   2
BRANCH   1  11
ATOM     11  C   UNL     1      24.793  -2.492  54.825  1.00  0.00     0.000 C 
BRANCH  11  12
ATOM     12  C   UNL     1      24.628  -4.015  54.943  1.00  0.00     0.000 C 
BRANCH  12  13
ATOM     13  C   UNL     1      25.918  -4.713  55.409  1.00  0.00     0.000 C 
BRANCH  13  14
ATOM     14  C   UNL     1      25.674  -5.632  56.625  1.00  0.00     0.000 C 
BRANCH  14  15
ATOM     15  C   UNL     1      25.630  -4.878  57.966  1.00  0.00     0.000 C 
BRANCH  15  16
ATOM     16  C   UNL     1      24.218  -4.800  58.562  1.00  0.00     0.006 C 
BRANCH  16  17
ATOM     17  C   UNL     1      23.742  -3.347  58.655  1.00  0.00     0.053 C 
BRANCH  17  18
ATOM     18  C   UNL     1      23.053  -3.105  59.960  1.00  0.00     0.041 C 
ATOM     19  O   UNL     1      22.225  -2.164  60.075  1.00  0.00    -0.550 OA
ATOM     20  O   UNL     1      23.362  -3.888  61.066  1.00  0.00    -0.550 OA
ENDBRANCH  17  18
ENDBRANCH  16  17
ENDBRANCH  15  16
ENDBRANCH  14  15
ENDBRANCH  13  14
ENDBRANCH  12  13
ENDBRANCH  11  12
ENDBRANCH   1  11
TORSDOF 15
ENDMDL
MODEL 3
REMARK VINA RESULT:    -3.644     10.304     12.651
REMARK INTER + INTRA:          -9.406
REMARK INTER:                  -6.772
REMARK INTRA:                  -2.634
REMARK UNBOUND:                -2.567
REMARK SMILES O=C([O-])CCCCCCCCCCCCCCC(=O)[O-]
REMARK SMILES IDX 10 1 9 2 8 3 7 4 6 5 5 6 4 7 2 8 1 9 3 10 11 11 12 12 13 13
REMARK SMILES IDX 14 14 15 15 16 16 17 17 18 18 19 19 20 20
REMARK H PARENT
REMARK Flexibility Score: inf
ROOT
ATOM      1  C   UNL     1      27.211  -1.634  53.573  1.00  0.00     0.000 C 
ENDROOT
BRANCH   1   2
ATOM      2  C   UNL     1      26.466  -2.243  54.771  1.00  0.00     0.000 C 
BRANCH   2   3
ATOM      3  C   UNL     1      24.961  -2.406  54.514  1.00  0.00     0.000 C 
BRANCH   3   4
ATOM      4  C   UNL     1      24.527  -3.865  54.699  1.00  0.00     0.000 C 
BRANCH   4   5
ATOM      5  C   UNL     1      25.529  -4.632  55.569  1.00  0.00     0.000 C 
BRANCH   5   6
ATOM      6  C   UNL     1      24.908  -5.009  56.923  1.00  0.00     0.006 C 
BRANCH   6   7
ATOM      7  C   UNL     1      25.263  -4.004  58.025  1.00  0.00     0.053 C 
BRANCH   7   8
ATOM      8  C   UNL     1      24.058  -3.247  58.495  1.00  0.00     0.041 C 
ATOM      9  O   UNL     1      23.427  -3.628  59.517  1.00  0.00    -0.550 OA
ATOM     10  O   UNL     1      23.612  -2.140  57.785  1.00  0.00    -0.550 OA
ENDBRANCH   7   8
ENDBRANCH   6   7
ENDBRANCH   5   6
ENDBRANCH   4   5
ENDBRANCH   3   4
ENDBRANCH   2   3
ENDBRANCH   1   2
BRANCH   1  11
ATOM     11  C   UNL     1      26.391  -1.697  52.272  1.00  0.00     0.000 C 
BRANCH  11  12
ATOM     12  C   UNL     1      26.855  -2.831  51.345  1.00  0.00     0.000 C 
BRANCH  12  13
ATOM     13  C   UNL     1      25.831  -3.977  51.259  1.00  0.00     0.000 C 
BRANCH  13  14
ATOM     14  C   UNL     1      26.408  -5.312  51.774  1.00  0.00     0.000 C 
BRANCH  14  15
ATOM     15  C   UNL     1      27.927  -5.273  52.019  1.00  0.00     0.000 C 
BRANCH  15  16
ATOM     16  C   UNL     1      28.328  -5.842  53.386  1.00  0.00     0.006 C 
BRANCH  16  17
ATOM     17  C   UNL     1      29.066  -4.792  54.222  1.00  0.00     0.053 C 
BRANCH  17  18
ATOM     18  C   UNL     1      30.299  -4.330  53.513  1.00  0.00     0.041 C 
ATOM     19  O   UNL     1      30.428  -3.120  53.190  1.00  0.00    -0.550 OA
ATOM     20  O   UNL     1      31.284  -5.245  53.161  1.00  0.00    -0.550 OA
ENDBRANCH  17  18
ENDBRANCH  16  17
ENDBRANCH  15  16
ENDBRANCH  14  15
ENDBRANCH  13  14
ENDBRANCH  12  13
ENDBRANCH  11  12
ENDBRANCH   1  11
TORSDOF 15
ENDMDL
MODEL 4
REMARK VINA RESULT:    -3.597     10.781     13.339
REMARK INTER + INTRA:          -9.319
REMARK INTER:                  -6.963
REMARK INTRA:                  -2.356
REMARK UNBOUND:                -2.567
REMARK SMILES O=C([O-])CCCCCCCCCCCCCCC(=O)[O-]
REMARK SMILES IDX 10 1 9 2 8 3 7 4 6 5 5 6 4 7 2 8 1 9 3 10 11 11 12 12 13 13
REMARK SMILES IDX 14 14 15 15 16 16 17 17 18 18 19 19 20 20
REMARK H PARENT
REMARK Flexibility Score: inf
ROOT
ATOM      1  C   UNL     1      26.837  -2.972  51.398  1.00  0.00     0.000 C 
ENDROOT
BRANCH   1   2
ATOM      2  C   UNL     1      25.887  -4.180  51.364  1.00  0.00     0.000 C 
BRANCH   2   3
ATOM      3  C   UNL     1      26.563  -5.480  51.826  1.00  0.00     0.000 C 
BRANCH   3   4
ATOM      4  C   UNL     1      28.091  -5.360  51.752  1.00  0.00     0.000 C 
BRANCH   4   5
ATOM      5  C   UNL     1      28.741  -5.786  53.072  1.00  0.00     0.000 C 
BRANCH   5   6
ATOM      6  C   UNL     1      29.337  -4.576  53.809  1.00  0.00     0.006 C 
BRANCH   6   7
ATOM      7  C   UNL     1      30.545  -3.985  53.072  1.00  0.00     0.053 C 
BRANCH   7   8
ATOM      8  C   UNL     1      30.299  -2.569  52.648  1.00  0.00     0.041 C 
ATOM      9  O   UNL     1      30.049  -1.684  53.508  1.00  0.00    -0.550 OA
ATOM     10  O   UNL     1      30.315  -2.234  51.300  1.00  0.00    -0.550 OA
ENDBRANCH   7   8
ENDBRANCH   6   7
ENDBRANCH   5   6
ENDBRANCH   4   5
ENDBRANCH   3   4
ENDBRANCH   2   3
ENDBRANCH   1   2
BRANCH   1  11
ATOM     11  C   UNL     1      26.382  -1.889  52.392  1.00  0.00     0.000 C 
BRANCH  11  12
ATOM     12  C   UNL     1      26.381  -2.394  53.844  1.00  0.00     0.000 C 
BRANCH  12  13
ATOM     13  C   UNL     1      24.965  -2.467  54.442  1.00  0.00     0.000 C 
BRANCH  13  14
ATOM     14  C   UNL     1      24.600  -3.896  54.897  1.00  0.00     0.000 C 
BRANCH  14  15
ATOM     15  C   UNL     1      25.825  -4.785  55.173  1.00  0.00     0.000 C 
BRANCH  15  16
ATOM     16  C   UNL     1      25.820  -5.388  56.584  1.00  0.00     0.006 C 
BRANCH  16  17
ATOM     17  C   UNL     1      24.588  -4.934  57.371  1.00  0.00     0.053 C 
BRANCH  17  18
ATOM     18  C   UNL     1      24.998  -4.172  58.592  1.00  0.00     0.041 C 
ATOM     19  O   UNL     1      24.431  -4.389  59.694  1.00  0.00    -0.550 OA
ATOM     20  O   UNL     1      25.972  -3.185  58.501  1.00  0.00    -0.550 OA
ENDBRANCH  17  18
ENDBRANCH  16  17
ENDBRANCH  15  16
ENDBRANCH  14  15
ENDBRANCH  13  14
ENDBRANCH  12  13
ENDBRANCH  11  12
ENDBRANCH   1  11
TORSDOF 15
ENDMDL
MODEL 5
REMARK VINA RESULT:    -3.586      2.969      6.006
REMARK INTER + INTRA:          -9.297
REMARK INTER:                  -6.706
REMARK INTRA:                  -2.591
REMARK UNBOUND:                -2.567
REMARK SMILES O=C([O-])CCCCCCCCCCCCCCC(=O)[O-]
REMARK SMILES IDX 10 1 9 2 8 3 7 4 6 5 5 6 4 7 2 8 1 9 3 10 11 11 12 12 13 13
REMARK SMILES IDX 14 14 15 15 16 16 17 17 18 18 19 19 20 20
REMARK H PARENT
REMARK Flexibility Score: inf
ROOT
ATOM      1  C   UNL     1      15.360   1.671  61.587  1.00  0.00     0.000 C 
ENDROOT
BRANCH   1   2
ATOM      2  C   UNL     1      14.465   0.422  61.627  1.00  0.00     0.000 C 
BRANCH   2   3
ATOM      3  C   UNL     1      14.534  -0.399  60.331  1.00  0.00     0.000 C 
BRANCH   3   4
ATOM      4  C   UNL     1      15.364  -1.674  60.531  1.00  0.00     0.000 C 
BRANCH   4   5
ATOM      5  C   UNL     1      15.414  -2.071  62.010  1.00  0.00     0.000 C 
BRANCH   5   6
ATOM      6  C   UNL     1      16.865  -2.238  62.488  1.00  0.00     0.006 C 
BRANCH   6   7
ATOM      7  C   UNL     1      17.726  -3.001  61.473  1.00  0.00     0.053 C 
BRANCH   7   8
ATOM      8  C   UNL     1      17.541  -4.483  61.592  1.00  0.00     0.041 C 
ATOM      9  O   UNL     1      17.963  -5.096  62.608  1.00  0.00    -0.550 OA
ATOM     10  O   UNL     1      16.929  -5.192  60.565  1.00  0.00    -0.550 OA
ENDBRANCH   7   8
ENDBRANCH   6   7
ENDBRANCH   5   6
ENDBRANCH   4   5
ENDBRANCH   3   4
ENDBRANCH   2   3
ENDBRANCH   1   2
BRANCH   1  11
ATOM     11  C   UNL     1      16.569   1.562  62.533  1.00  0.00     0.000 C 
BRANCH  11  12
ATOM     12  C   UNL     1      17.839   2.182  61.929  1.00  0.00     0.000 C 
BRANCH  12  13
ATOM     13  C   UNL     1      18.006   1.845  60.437  1.00  0.00     0.000 C 
BRANCH  13  14
ATOM     14  C   UNL     1      18.559   0.421  60.221  1.00  0.00     0.000 C 
BRANCH  14  15
ATOM     15  C   UNL     1      18.161  -0.196  58.868  1.00  0.00     0.000 C 
BRANCH  15  16
ATOM     16  C   UNL     1      17.232   0.710  58.048  1.00  0.00     0.006 C 
BRANCH  16  17
ATOM     17  C   UNL     1      16.379  -0.114  57.079  1.00  0.00     0.053 C 
BRANCH  17  18
ATOM     18  C   UNL     1      16.975  -0.090  55.708  1.00  0.00     0.041 C 
ATOM     19  O   UNL     1      16.870  -1.092  54.953  1.00  0.00    -0.550 OA
ATOM     20  O   UNL     1      17.691   1.022  55.280  1.00  0.00    -0.550 OA
ENDBRANCH  17  18
ENDBRANCH  16  17
ENDBRANCH  15  16
ENDBRANCH  14  15
ENDBRANCH  13  14
ENDBRANCH  12  13
ENDBRANCH  11  12
ENDBRANCH   1  11
TORSDOF 15
ENDMDL
MODEL 6
REMARK VINA RESULT:    -3.583      2.933      6.582
REMARK INTER + INTRA:          -9.293
REMARK INTER:                  -6.649
REMARK INTRA:                  -2.644
REMARK UNBOUND:                -2.567
REMARK SMILES O=C([O-])CCCCCCCCCCCCCCC(=O)[O-]
REMARK SMILES IDX 10 1 9 2 8 3 7 4 6 5 5 6 4 7 2 8 1 9 3 10 11 11 12 12 13 13
REMARK SMILES IDX 14 14 15 15 16 16 17 17 18 18 19 19 20 20
REMARK H PARENT
REMARK Flexibility Score: inf
ROOT
ATOM      1  C   UNL     1      17.111   0.924  62.215  1.00  0.00     0.000 C 
ENDROOT
BRANCH   1   2
ATOM      2  C   UNL     1      15.662   0.746  61.733  1.00  0.00     0.000 C 
BRANCH   2   3
ATOM      3  C   UNL     1      15.562  -0.094  60.451  1.00  0.00     0.000 C 
BRANCH   3   4
ATOM      4  C   UNL     1      14.884   0.698  59.326  1.00  0.00     0.000 C 
BRANCH   4   5
ATOM      5  C   UNL     1      15.348   0.209  57.951  1.00  0.00     0.000 C 
BRANCH   5   6
ATOM      6  C   UNL     1      16.454  -0.850  58.087  1.00  0.00     0.006 C 
BRANCH   6   7
ATOM      7  C   UNL     1      17.721  -0.468  57.311  1.00  0.00     0.053 C 
BRANCH   7   8
ATOM      8  C   UNL     1      17.414  -0.104  55.891  1.00  0.00     0.041 C 
ATOM      9  O   UNL     1      16.909  -0.955  55.112  1.00  0.00    -0.550 OA
ATOM     10  O   UNL     1      17.715   1.168  55.419  1.00  0.00    -0.550 OA
ENDBRANCH   7   8
ENDBRANCH   6   7
ENDBRANCH   5   6
ENDBRANCH   4   5
ENDBRANCH   3   4
ENDBRANCH   2   3
ENDBRANCH   1   2
BRANCH   1  11
ATOM     11  C   UNL     1      18.136   0.760  61.080  1.00  0.00     0.000 C 
BRANCH  11  12
ATOM     12  C   UNL     1      18.815   2.088  60.711  1.00  0.00     0.000 C 
BRANCH  12  13
ATOM     13  C   UNL     1      18.413   2.586  59.311  1.00  0.00     0.000 C 
BRANCH  13  14
ATOM     14  C   UNL     1      17.124   3.432  59.344  1.00  0.00     0.000 C 
BRANCH  14  15
ATOM     15  C   UNL     1      16.987   4.296  60.610  1.00  0.00     0.000 C 
BRANCH  15  16
ATOM     16  C   UNL     1      15.553   4.333  61.157  1.00  0.00     0.006 C 
BRANCH  16  17
ATOM     17  C   UNL     1      15.502   5.035  62.517  1.00  0.00     0.053 C 
BRANCH  17  18
ATOM     18  C   UNL     1      15.847   4.077  63.613  1.00  0.00     0.041 C 
ATOM     19  O   UNL     1      14.971   3.298  64.072  1.00  0.00    -0.550 OA
ATOM     20  O   UNL     1      17.123   4.079  64.163  1.00  0.00    -0.550 OA
ENDBRANCH  17  18
ENDBRANCH  16  17
ENDBRANCH  15  16
ENDBRANCH  14  15
ENDBRANCH  13  14
ENDBRANCH  12  13
ENDBRANCH  11  12
ENDBRANCH   1  11
TORSDOF 15
ENDMDL
MODEL 7
REMARK VINA RESULT:    -3.557     10.867     13.537
REMARK INTER + INTRA:          -9.243
REMARK INTER:                  -6.712
REMARK INTRA:                  -2.531
REMARK UNBOUND:                -2.567
REMARK SMILES O=C([O-])CCCCCCCCCCCCCCC(=O)[O-]
REMARK SMILES IDX 10 1 9 2 8 3 7 4 6 5 5 6 4 7 2 8 1 9 3 10 11 11 12 12 13 13
REMARK SMILES IDX 14 14 15 15 16 16 17 17 18 18 19 19 20 20
REMARK H PARENT
REMARK Flexibility Score: inf
ROOT
ATOM      1  C   UNL     1      25.927  -2.323  52.398  1.00  0.00     0.000 C 
ENDROOT
BRANCH   1   2
ATOM      2  C   UNL     1      24.950  -3.089  53.304  1.00  0.00     0.000 C 
BRANCH   2   3
ATOM      3  C   UNL     1      24.914  -2.539  54.737  1.00  0.00     0.000 C 
BRANCH   3   4
ATOM      4  C   UNL     1      25.641  -3.480  55.705  1.00  0.00     0.000 C 
BRANCH   4   5
ATOM      5  C   UNL     1      25.536  -4.937  55.241  1.00  0.00     0.000 C 
BRANCH   5   6
ATOM      6  C   UNL     1      26.165  -5.890  56.269  1.00  0.00     0.006 C 
BRANCH   6   7
ATOM      7  C   UNL     1      26.850  -5.136  57.416  1.00  0.00     0.053 C 
BRANCH   7   8
ATOM      8  C   UNL     1      26.299  -5.537  58.751  1.00  0.00     0.041 C 
ATOM      9  O   UNL     1      25.133  -5.199  59.083  1.00  0.00    -0.550 OA
ATOM     10  O   UNL     1      27.088  -6.256  59.640  1.00  0.00    -0.550 OA
ENDBRANCH   7   8
ENDBRANCH   6   7
ENDBRANCH   5   6
ENDBRANCH   4   5
ENDBRANCH   3   4
ENDBRANCH   2   3
ENDBRANCH   1   2
BRANCH   1  11
ATOM     11  C   UNL     1      26.594  -3.228  51.348  1.00  0.00     0.000 C 
BRANCH  11  12
ATOM     12  C   UNL     1      26.519  -4.715  51.728  1.00  0.00     0.000 C 
BRANCH  12  13
ATOM     13  C   UNL     1      27.905  -5.382  51.777  1.00  0.00     0.000 C 
BRANCH  13  14
ATOM     14  C   UNL     1      28.301  -5.793  53.211  1.00  0.00     0.000 C 
BRANCH  14  15
ATOM     15  C   UNL     1      29.435  -4.940  53.805  1.00  0.00     0.000 C 
BRANCH  15  16
ATOM     16  C   UNL     1      28.981  -3.525  54.189  1.00  0.00     0.006 C 
BRANCH  16  17
ATOM     17  C   UNL     1      30.038  -2.486  53.804  1.00  0.00     0.053 C 
BRANCH  17  18
ATOM     18  C   UNL     1      29.682  -1.834  52.506  1.00  0.00     0.041 C 
ATOM     19  O   UNL     1      29.042  -0.750  52.495  1.00  0.00    -0.550 OA
ATOM     20  O   UNL     1      30.013  -2.450  51.304  1.00  0.00    -0.550 OA
ENDBRANCH  17  18
ENDBRANCH  16  17
ENDBRANCH  15  16
ENDBRANCH  14  15
ENDBRANCH  13  14
ENDBRANCH  12  13
ENDBRANCH  11  12
ENDBRANCH   1  11
TORSDOF 15
ENDMDL
MODEL 8
REMARK VINA RESULT:    -3.524      2.906      5.507
REMARK INTER + INTRA:          -9.181
REMARK INTER:                  -6.877
REMARK INTRA:                  -2.304
REMARK UNBOUND:                -2.567
REMARK SMILES O=C([O-])CCCCCCCCCCCCCCC(=O)[O-]
REMARK SMILES IDX 10 1 9 2 8 3 7 4 6 5 5 6 4 7 2 8 1 9 3 10 11 11 12 12 13 13
REMARK SMILES IDX 14 14 15 15 16 16 17 17 18 18 19 19 20 20
REMARK H PARENT
REMARK Flexibility Score: inf
ROOT
ATOM      1  C   UNL     1      15.621   3.104  61.402  1.00  0.00     0.000 C 
ENDROOT
BRANCH   1   2
ATOM      2  C   UNL     1      15.415   1.637  61.810  1.00  0.00     0.000 C 
BRANCH   2   3
ATOM      3  C   UNL     1      16.737   0.868  61.950  1.00  0.00     0.000 C 
BRANCH   3   4
ATOM      4  C   UNL     1      16.557  -0.609  61.576  1.00  0.00     0.000 C 
BRANCH   4   5
ATOM      5  C   UNL     1      15.074  -0.995  61.561  1.00  0.00     0.000 C 
BRANCH   5   6
ATOM      6  C   UNL     1      14.863  -2.344  60.856  1.00  0.00     0.006 C 
BRANCH   6   7
ATOM      7  C   UNL     1      16.044  -3.300  61.067  1.00  0.00     0.053 C 
BRANCH   7   8
ATOM      8  C   UNL     1      15.868  -4.136  62.298  1.00  0.00     0.041 C 
ATOM      9  O   UNL     1      14.863  -4.884  62.420  1.00  0.00    -0.550 OA
ATOM     10  O   UNL     1      16.800  -4.062  63.326  1.00  0.00    -0.550 OA
ENDBRANCH   7   8
ENDBRANCH   6   7
ENDBRANCH   5   6
ENDBRANCH   4   5
ENDBRANCH   3   4
ENDBRANCH   2   3
ENDBRANCH   1   2
BRANCH   1  11
ATOM     11  C   UNL     1      16.578   3.257  60.207  1.00  0.00     0.000 C 
BRANCH  11  12
ATOM     12  C   UNL     1      15.852   3.715  58.933  1.00  0.00     0.000 C 
BRANCH  12  13
ATOM     13  C   UNL     1      15.796   2.614  57.859  1.00  0.00     0.000 C 
BRANCH  13  14
ATOM     14  C   UNL     1      14.664   1.600  58.124  1.00  0.00     0.000 C 
BRANCH  14  15
ATOM     15  C   UNL     1      15.115   0.132  58.019  1.00  0.00     0.000 C 
BRANCH  15  16
ATOM     16  C   UNL     1      16.641  -0.030  58.069  1.00  0.00     0.006 C 
BRANCH  16  17
ATOM     17  C   UNL     1      17.123  -1.015  57.001  1.00  0.00     0.053 C 
BRANCH  17  18
ATOM     18  C   UNL     1      17.201  -0.343  55.667  1.00  0.00     0.041 C 
ATOM     19  O   UNL     1      16.785  -0.932  54.635  1.00  0.00    -0.550 OA
ATOM     20  O   UNL     1      17.780   0.915  55.554  1.00  0.00    -0.550 OA
ENDBRANCH  17  18
ENDBRANCH  16  17
ENDBRANCH  15  16
ENDBRANCH  14  15
ENDBRANCH  13  14
ENDBRANCH  12  13
ENDBRANCH  11  12
ENDBRANCH   1  11
TORSDOF 15
ENDMDL
MODEL 9
REMARK VINA RESULT:    -3.523     10.795     13.520
REMARK INTER + INTRA:          -9.179
REMARK INTER:                  -6.437
REMARK INTRA:                  -2.742
REMARK UNBOUND:                -2.567
REMARK SMILES O=C([O-])CCCCCCCCCCCCCCC(=O)[O-]
REMARK SMILES IDX 10 1 9 2 8 3 7 4 6 5 5 6 4 7 2 8 1 9 3 10 11 11 12 12 13 13
REMARK SMILES IDX 14 14 15 15 16 16 17 17 18 18 19 19 20 20
REMARK H PARENT
REMARK Flexibility Score: inf
ROOT
ATOM      1  C   UNL     1      26.494  -1.437  52.141  1.00  0.00     0.000 C 
ENDROOT
BRANCH   1   2
ATOM      2  C   UNL     1      27.566  -0.916  53.112  1.00  0.00     0.000 C 
BRANCH   2   3
ATOM      3  C   UNL     1      27.151  -1.058  54.584  1.00  0.00     0.000 C 
BRANCH   3   4
ATOM      4  C   UNL     1      28.038  -2.079  55.309  1.00  0.00     0.000 C 
BRANCH   4   5
ATOM      5  C   UNL     1      29.209  -2.517  54.423  1.00  0.00     0.000 C 
BRANCH   5   6
ATOM      6  C   UNL     1      29.241  -4.045  54.268  1.00  0.00     0.006 C 
BRANCH   6   7
ATOM      7  C   UNL     1      30.030  -4.486  53.028  1.00  0.00     0.053 C 
BRANCH   7   8
ATOM      8  C   UNL     1      29.291  -5.526  52.242  1.00  0.00     0.041 C 
ATOM      9  O   UNL     1      29.504  -5.660  51.008  1.00  0.00    -0.550 OA
ATOM     10  O   UNL     1      28.343  -6.326  52.868  1.00  0.00    -0.550 OA
ENDBRANCH   7   8
ENDBRANCH   6   7
ENDBRANCH   5   6
ENDBRANCH   4   5
ENDBRANCH   3   4
ENDBRANCH   2   3
ENDBRANCH   1   2
BRANCH   1  11
ATOM     11  C   UNL     1      26.944  -2.699  51.385  1.00  0.00     0.000 C 
BRANCH  11  12
ATOM     12  C   UNL     1      26.072  -3.920  51.718  1.00  0.00     0.000 C 
BRANCH  12  13
ATOM     13  C   UNL     1      25.061  -3.632  52.843  1.00  0.00     0.000 C 
BRANCH  13  14
ATOM     14  C   UNL     1      25.412  -4.381  54.145  1.00  0.00     0.000 C 
BRANCH  14  15
ATOM     15  C   UNL     1      24.689  -3.829  55.386  1.00  0.00     0.000 C 
BRANCH  15  16
ATOM     16  C   UNL     1      25.278  -4.351  56.704  1.00  0.00     0.006 C 
BRANCH  16  17
ATOM     17  C   UNL     1      26.342  -5.421  56.443  1.00  0.00     0.053 C 
BRANCH  17  18
ATOM     18  C   UNL     1      27.241  -5.565  57.630  1.00  0.00     0.041 C 
ATOM     19  O   UNL     1      26.752  -5.730  58.778  1.00  0.00    -0.550 OA
ATOM     20  O   UNL     1      28.619  -5.467  57.476  1.00  0.00    -0.550 OA
ENDBRANCH  17  18
ENDBRANCH  16  17
ENDBRANCH  15  16
ENDBRANCH  14  15
ENDBRANCH  13  14
ENDBRANCH  12  13
ENDBRANCH  11  12
ENDBRANCH   1  11
TORSDOF 15
ENDMDL
