MODEL 1
REMARK VINA RESULT:    -0.205      0.000      0.000
REMARK INTER + INTRA:          -0.365
REMARK INTER:                  -0.278
REMARK INTRA:                  -0.088
REMARK UNBOUND:                -0.088
REMARK SMILES [NH3+]CCCC[C@H]([NH3+])C(=O)[O-]
REMARK SMILES IDX 4 1 3 2 2 3 1 4 5 8 6 9 7 10 8 14 9 15 10 16
REMARK H PARENT 1 5 1 6 1 7 7 11 7 12 7 13
REMARK Flexibility Score: inf
ROOT
ATOM      1  C   UNL     1     -21.853   5.581 -14.555  1.00  0.00     0.012 C 
ENDROOT
BRANCH   1   2
ATOM      2  C   UNL     1     -20.342   5.852 -14.607  1.00  0.00     0.061 C 
BRANCH   2   3
ATOM      3  C   UNL     1     -19.976   7.256 -14.096  1.00  0.00     0.258 C 
BRANCH   3   4
ATOM      4  N   UNL     1     -19.574   7.244 -12.689  1.00  0.00    -0.358 N 
ATOM      5  H   UNL     1     -19.568   8.226 -12.330  1.00  0.00     0.344 HD
ATOM      6  H   UNL     1     -20.250   6.683 -12.120  1.00  0.00     0.344 HD
ATOM      7  H   UNL     1     -18.610   6.852 -12.589  1.00  0.00     0.344 HD
ENDBRANCH   3   4
ENDBRANCH   2   3
ENDBRANCH   1   2
BRANCH   1   8
ATOM      8  C   UNL     1     -22.168   4.147 -15.009  1.00  0.00     0.072 C 
BRANCH   8   9
ATOM      9  C   UNL     1     -23.310   3.501 -14.193  1.00  0.00     0.227 C 
BRANCH   9  10
ATOM     10  N   UNL     1     -23.527   4.196 -12.916  1.00  0.00    -0.350 N 
ATOM     11  H   UNL     1     -22.708   4.042 -12.283  1.00  0.00     0.345 HD
ATOM     12  H   UNL     1     -24.371   3.812 -12.436  1.00  0.00     0.345 HD
ATOM     13  H   UNL     1     -23.651   5.225 -13.068  1.00  0.00     0.345 HD
ENDBRANCH   9  10
BRANCH   9  14
ATOM     14  C   UNL     1     -22.990   2.052 -13.943  1.00  0.00     0.099 C 
ATOM     15  O   UNL     1     -23.280   1.181 -14.805  1.00  0.00    -0.544 OA
ATOM     16  O   UNL     1     -22.354   1.667 -12.767  1.00  0.00    -0.544 OA
ENDBRANCH   9  14
ENDBRANCH   8   9
ENDBRANCH   1   8
TORSDOF 7
ENDMDL
MODEL 2
REMARK VINA RESULT:     0.028      7.266      8.175
REMARK INTER + INTRA:          -0.051
REMARK INTER:                   0.035
REMARK INTRA:                  -0.086
REMARK UNBOUND:                -0.088
REMARK SMILES [NH3+]CCCC[C@H]([NH3+])C(=O)[O-]
REMARK SMILES IDX 4 1 3 2 2 3 1 4 5 8 6 9 7 10 8 14 9 15 10 16
REMARK H PARENT 1 5 1 6 1 7 7 11 7 12 7 13
REMARK Flexibility Score: inf
ROOT
ATOM      1  C   UNL     1     -19.350   5.606 -19.194  1.00  0.00     0.012 C 
ENDROOT
BRANCH   1   2
ATOM      2  C   UNL     1     -18.707   5.345 -17.825  1.00  0.00     0.061 C 
BRANCH   2   3
ATOM      3  C   UNL     1     -17.801   4.102 -17.826  1.00  0.00     0.258 C 
BRANCH   3   4
ATOM      4  N   UNL     1     -16.534   4.343 -18.518  1.00  0.00    -0.358 N 
ATOM      5  H   UNL     1     -16.732   4.811 -19.432  1.00  0.00     0.344 HD
ATOM      6  H   UNL     1     -15.918   4.968 -17.948  1.00  0.00     0.344 HD
ATOM      7  H   UNL     1     -16.047   3.439 -18.712  1.00  0.00     0.344 HD
ENDBRANCH   3   4
ENDBRANCH   2   3
ENDBRANCH   1   2
BRANCH   1   8
ATOM      8  C   UNL     1     -20.122   6.935 -19.192  1.00  0.00     0.072 C 
BRANCH   8   9
ATOM      9  C   UNL     1     -20.282   7.534 -20.608  1.00  0.00     0.227 C 
BRANCH   9  10
ATOM     10  N   UNL     1     -19.381   6.892 -21.575  1.00  0.00    -0.350 N 
ATOM     11  H   UNL     1     -19.771   6.983 -22.541  1.00  0.00     0.345 HD
ATOM     12  H   UNL     1     -19.295   5.872 -21.366  1.00  0.00     0.345 HD
ATOM     13  H   UNL     1     -18.431   7.333 -21.549  1.00  0.00     0.345 HD
ENDBRANCH   9  10
BRANCH   9  14
ATOM     14  C   UNL     1     -20.015   9.015 -20.559  1.00  0.00     0.099 C 
ATOM     15  O   UNL     1     -18.843   9.452 -20.707  1.00  0.00    -0.544 OA
ATOM     16  O   UNL     1     -21.062   9.910 -20.372  1.00  0.00    -0.544 OA
ENDBRANCH   9  14
ENDBRANCH   8   9
ENDBRANCH   1   8
TORSDOF 7
ENDMDL
MODEL 3
REMARK VINA RESULT:     0.475      1.392      1.630
REMARK INTER + INTRA:           0.554
REMARK INTER:                   0.623
REMARK INTRA:                  -0.069
REMARK UNBOUND:                -0.088
REMARK SMILES [NH3+]CCCC[C@H]([NH3+])C(=O)[O-]
REMARK SMILES IDX 4 1 3 2 2 3 1 4 5 8 6 9 7 10 8 14 9 15 10 16
REMARK H PARENT 1 5 1 6 1 7 7 11 7 12 7 13
REMARK Flexibility Score: inf
ROOT
ATOM      1  C   UNL     1     -22.268   4.636 -14.988  1.00  0.00     0.012 C 
ENDROOT
BRANCH   1   2
ATOM      2  C   UNL     1     -21.743   5.892 -14.277  1.00  0.00     0.061 C 
BRANCH   2   3
ATOM      3  C   UNL     1     -20.271   6.190 -14.615  1.00  0.00     0.258 C 
BRANCH   3   4
ATOM      4  N   UNL     1     -19.653   7.092 -13.642  1.00  0.00    -0.358 N 
ATOM      5  H   UNL     1     -18.892   6.578 -13.141  1.00  0.00     0.344 HD
ATOM      6  H   UNL     1     -19.236   7.922 -14.125  1.00  0.00     0.344 HD
ATOM      7  H   UNL     1     -20.358   7.404 -12.936  1.00  0.00     0.344 HD
ENDBRANCH   3   4
ENDBRANCH   2   3
ENDBRANCH   1   2
BRANCH   1   8
ATOM      8  C   UNL     1     -22.977   3.702 -13.996  1.00  0.00     0.072 C 
BRANCH   8   9
ATOM      9  C   UNL     1     -22.864   2.213 -14.395  1.00  0.00     0.227 C 
BRANCH   9  10
ATOM     10  N   UNL     1     -23.897   1.830 -15.367  1.00  0.00    -0.350 N 
ATOM     11  H   UNL     1     -24.718   1.414 -14.869  1.00  0.00     0.345 HD
ATOM     12  H   UNL     1     -23.526   1.104 -16.021  1.00  0.00     0.345 HD
ATOM     13  H   UNL     1     -24.219   2.661 -15.916  1.00  0.00     0.345 HD
ENDBRANCH   9  10
BRANCH   9  14
ATOM     14  C   UNL     1     -22.972   1.354 -13.163  1.00  0.00     0.099 C 
ATOM     15  O   UNL     1     -23.772   0.383 -13.136  1.00  0.00    -0.544 OA
ATOM     16  O   UNL     1     -22.174   1.615 -12.055  1.00  0.00    -0.544 OA
ENDBRANCH   9  14
ENDBRANCH   8   9
ENDBRANCH   1   8
TORSDOF 7
ENDMDL
MODEL 4
REMARK VINA RESULT:     0.617      7.692      8.636
REMARK INTER + INTRA:           0.745
REMARK INTER:                   0.822
REMARK INTRA:                  -0.077
REMARK UNBOUND:                -0.088
REMARK SMILES [NH3+]CCCC[C@H]([NH3+])C(=O)[O-]
REMARK SMILES IDX 4 1 3 2 2 3 1 4 5 8 6 9 7 10 8 14 9 15 10 16
REMARK H PARENT 1 5 1 6 1 7 7 11 7 12 7 13
REMARK Flexibility Score: inf
ROOT
ATOM      1  C   UNL     1     -20.048   6.509 -19.174  1.00  0.00     0.012 C 
ENDROOT
BRANCH   1   2
ATOM      2  C   UNL     1     -19.172   5.248 -19.228  1.00  0.00     0.061 C 
BRANCH   2   3
ATOM      3  C   UNL     1     -18.438   4.982 -17.902  1.00  0.00     0.258 C 
BRANCH   3   4
ATOM      4  N   UNL     1     -17.178   4.264 -18.104  1.00  0.00    -0.358 N 
ATOM      5  H   UNL     1     -17.039   4.106 -19.128  1.00  0.00     0.344 HD
ATOM      6  H   UNL     1     -16.374   4.827 -17.739  1.00  0.00     0.344 HD
ATOM      7  H   UNL     1     -17.210   3.334 -17.629  1.00  0.00     0.344 HD
ENDBRANCH   3   4
ENDBRANCH   2   3
ENDBRANCH   1   2
BRANCH   1   8
ATOM      8  C   UNL     1     -19.812   7.394 -20.408  1.00  0.00     0.072 C 
BRANCH   8   9
ATOM      9  C   UNL     1     -20.308   8.843 -20.205  1.00  0.00     0.227 C 
BRANCH   9  10
ATOM     10  N   UNL     1     -21.698   9.010 -20.650  1.00  0.00    -0.350 N 
ATOM     11  H   UNL     1     -22.338   9.029 -19.823  1.00  0.00     0.345 HD
ATOM     12  H   UNL     1     -21.984   8.203 -21.249  1.00  0.00     0.345 HD
ATOM     13  H   UNL     1     -21.813   9.900 -21.189  1.00  0.00     0.345 HD
ENDBRANCH   9  10
BRANCH   9  14
ATOM     14  C   UNL     1     -19.410   9.790 -20.956  1.00  0.00     0.099 C 
ATOM     15  O   UNL     1     -18.174   9.564 -21.033  1.00  0.00    -0.544 OA
ATOM     16  O   UNL     1     -19.942  10.909 -21.587  1.00  0.00    -0.544 OA
ENDBRANCH   9  14
ENDBRANCH   8   9
ENDBRANCH   1   8
TORSDOF 7
ENDMDL
MODEL 5
REMARK VINA RESULT:     0.657      3.100      5.105
REMARK INTER + INTRA:           0.800
REMARK INTER:                   0.898
REMARK INTRA:                  -0.098
REMARK UNBOUND:                -0.088
REMARK SMILES [NH3+]CCCC[C@H]([NH3+])C(=O)[O-]
REMARK SMILES IDX 4 1 3 2 2 3 1 4 5 8 6 9 7 10 8 14 9 15 10 16
REMARK H PARENT 1 5 1 6 1 7 7 11 7 12 7 13
REMARK Flexibility Score: inf
ROOT
ATOM      1  C   UNL     1     -23.028   3.467 -13.875  1.00  0.00     0.012 C 
ENDROOT
BRANCH   1   2
ATOM      2  C   UNL     1     -22.511   2.108 -13.379  1.00  0.00     0.061 C 
BRANCH   2   3
ATOM      3  C   UNL     1     -23.413   0.939 -13.813  1.00  0.00     0.258 C 
BRANCH   3   4
ATOM      4  N   UNL     1     -23.535   0.848 -15.269  1.00  0.00    -0.358 N 
ATOM      5  H   UNL     1     -24.494   0.504 -15.507  1.00  0.00     0.344 HD
ATOM      6  H   UNL     1     -23.398   1.788 -15.707  1.00  0.00     0.344 HD
ATOM      7  H   UNL     1     -22.839   0.169 -15.651  1.00  0.00     0.344 HD
ENDBRANCH   3   4
ENDBRANCH   2   3
ENDBRANCH   1   2
BRANCH   1   8
ATOM      8  C   UNL     1     -21.944   4.207 -14.674  1.00  0.00     0.072 C 
BRANCH   8   9
ATOM      9  C   UNL     1     -21.786   5.682 -14.240  1.00  0.00     0.227 C 
BRANCH   9  10
ATOM     10  N   UNL     1     -22.751   6.555 -14.924  1.00  0.00    -0.350 N 
ATOM     11  H   UNL     1     -22.569   7.554 -14.672  1.00  0.00     0.345 HD
ATOM     12  H   UNL     1     -23.723   6.327 -14.617  1.00  0.00     0.345 HD
ATOM     13  H   UNL     1     -22.680   6.448 -15.963  1.00  0.00     0.345 HD
ENDBRANCH   9  10
BRANCH   9  14
ATOM     14  C   UNL     1     -20.382   6.142 -14.528  1.00  0.00     0.099 C 
ATOM     15  O   UNL     1     -19.811   6.953 -13.754  1.00  0.00    -0.544 OA
ATOM     16  O   UNL     1     -19.700   5.658 -15.639  1.00  0.00    -0.544 OA
ENDBRANCH   9  14
ENDBRANCH   8   9
ENDBRANCH   1   8
TORSDOF 7
ENDMDL
MODEL 6
REMARK VINA RESULT:     0.868      6.537      7.072
REMARK INTER + INTRA:           1.084
REMARK INTER:                   1.187
REMARK INTRA:                  -0.103
REMARK UNBOUND:                -0.088
REMARK SMILES [NH3+]CCCC[C@H]([NH3+])C(=O)[O-]
REMARK SMILES IDX 4 1 3 2 2 3 1 4 5 8 6 9 7 10 8 14 9 15 10 16
REMARK H PARENT 1 5 1 6 1 7 7 11 7 12 7 13
REMARK Flexibility Score: inf
ROOT
ATOM      1  C   UNL     1     -19.992   7.657 -20.639  1.00  0.00     0.012 C 
ENDROOT
BRANCH   1   2
ATOM      2  C   UNL     1     -19.331   9.038 -20.514  1.00  0.00     0.061 C 
BRANCH   2   3
ATOM      3  C   UNL     1     -20.238  10.174 -21.019  1.00  0.00     0.258 C 
BRANCH   3   4
ATOM      4  N   UNL     1     -21.474  10.281 -20.242  1.00  0.00    -0.358 N 
ATOM      5  H   UNL     1     -21.897  11.223 -20.406  1.00  0.00     0.344 HD
ATOM      6  H   UNL     1     -22.159   9.548 -20.542  1.00  0.00     0.344 HD
ATOM      7  H   UNL     1     -21.272  10.185 -19.221  1.00  0.00     0.344 HD
ENDBRANCH   3   4
ENDBRANCH   2   3
ENDBRANCH   1   2
BRANCH   1   8
ATOM      8  C   UNL     1     -19.984   6.922 -19.290  1.00  0.00     0.072 C 
BRANCH   8   9
ATOM      9  C   UNL     1     -19.288   5.544 -19.365  1.00  0.00     0.227 C 
BRANCH   9  10
ATOM     10  N   UNL     1     -20.239   4.473 -19.693  1.00  0.00    -0.350 N 
ATOM     11  H   UNL     1     -20.781   4.203 -18.840  1.00  0.00     0.345 HD
ATOM     12  H   UNL     1     -19.726   3.623 -20.020  1.00  0.00     0.345 HD
ATOM     13  H   UNL     1     -20.908   4.783 -20.437  1.00  0.00     0.345 HD
ENDBRANCH   9  10
BRANCH   9  14
ATOM     14  C   UNL     1     -18.614   5.250 -18.052  1.00  0.00     0.099 C 
ATOM     15  O   UNL     1     -18.994   5.829 -17.001  1.00  0.00    -0.544 OA
ATOM     16  O   UNL     1     -17.580   4.323 -17.988  1.00  0.00    -0.544 OA
ENDBRANCH   9  14
ENDBRANCH   8   9
ENDBRANCH   1   8
TORSDOF 7
ENDMDL
MODEL 7
REMARK VINA RESULT:     1.394      5.853      6.631
REMARK INTER + INTRA:           1.794
REMARK INTER:                   1.876
REMARK INTRA:                  -0.082
REMARK UNBOUND:                -0.088
REMARK SMILES [NH3+]CCCC[C@H]([NH3+])C(=O)[O-]
REMARK SMILES IDX 4 1 3 2 2 3 1 4 5 8 6 9 7 10 8 14 9 15 10 16
REMARK H PARENT 1 5 1 6 1 7 7 11 7 12 7 13
REMARK Flexibility Score: inf
ROOT
ATOM      1  C   UNL     1     -19.319   6.219 -19.789  1.00  0.00     0.012 C 
ENDROOT
BRANCH   1   2
ATOM      2  C   UNL     1     -20.410   7.299 -19.788  1.00  0.00     0.061 C 
BRANCH   2   3
ATOM      3  C   UNL     1     -19.996   8.559 -20.568  1.00  0.00     0.258 C 
BRANCH   3   4
ATOM      4  N   UNL     1     -20.980   9.635 -20.442  1.00  0.00    -0.358 N 
ATOM      5  H   UNL     1     -20.475  10.547 -20.354  1.00  0.00     0.344 HD
ATOM      6  H   UNL     1     -21.593   9.672 -21.289  1.00  0.00     0.344 HD
ATOM      7  H   UNL     1     -21.561   9.498 -19.584  1.00  0.00     0.344 HD
ENDBRANCH   3   4
ENDBRANCH   2   3
ENDBRANCH   1   2
BRANCH   1   8
ATOM      8  C   UNL     1     -19.339   5.418 -18.478  1.00  0.00     0.072 C 
BRANCH   8   9
ATOM      9  C   UNL     1     -17.934   5.259 -17.855  1.00  0.00     0.227 C 
BRANCH   9  10
ATOM     10  N   UNL     1     -17.354   3.941 -18.148  1.00  0.00    -0.350 N 
ATOM     11  H   UNL     1     -16.941   3.938 -19.109  1.00  0.00     0.345 HD
ATOM     12  H   UNL     1     -18.098   3.207 -18.124  1.00  0.00     0.345 HD
ATOM     13  H   UNL     1     -16.606   3.700 -17.456  1.00  0.00     0.345 HD
ENDBRANCH   9  10
BRANCH   9  14
ATOM     14  C   UNL     1     -18.019   5.465 -16.366  1.00  0.00     0.099 C 
ATOM     15  O   UNL     1     -19.134   5.668 -15.818  1.00  0.00    -0.544 OA
ATOM     16  O   UNL     1     -16.871   5.411 -15.584  1.00  0.00    -0.544 OA
ENDBRANCH   9  14
ENDBRANCH   8   9
ENDBRANCH   1   8
TORSDOF 7
ENDMDL
MODEL 8
REMARK VINA RESULT:     1.788      3.228      5.146
REMARK INTER + INTRA:           2.327
REMARK INTER:                   2.403
REMARK INTRA:                  -0.076
REMARK UNBOUND:                -0.088
REMARK SMILES [NH3+]CCCC[C@H]([NH3+])C(=O)[O-]
REMARK SMILES IDX 4 1 3 2 2 3 1 4 5 8 6 9 7 10 8 14 9 15 10 16
REMARK H PARENT 1 5 1 6 1 7 7 11 7 12 7 13
REMARK Flexibility Score: inf
ROOT
ATOM      1  C   UNL     1     -22.225   4.933 -14.074  1.00  0.00     0.012 C 
ENDROOT
BRANCH   1   2
ATOM      2  C   UNL     1     -22.782   3.717 -14.829  1.00  0.00     0.061 C 
BRANCH   2   3
ATOM      3  C   UNL     1     -22.878   2.464 -13.940  1.00  0.00     0.258 C 
BRANCH   3   4
ATOM      4  N   UNL     1     -23.757   1.445 -14.517  1.00  0.00    -0.358 N 
ATOM      5  H   UNL     1     -23.577   1.385 -15.545  1.00  0.00     0.344 HD
ATOM      6  H   UNL     1     -23.563   0.510 -14.087  1.00  0.00     0.344 HD
ATOM      7  H   UNL     1     -24.759   1.705 -14.373  1.00  0.00     0.344 HD
ENDBRANCH   3   4
ENDBRANCH   2   3
ENDBRANCH   1   2
BRANCH   1   8
ATOM      8  C   UNL     1     -21.229   5.711 -14.949  1.00  0.00     0.072 C 
BRANCH   8   9
ATOM      9  C   UNL     1     -19.915   6.041 -14.205  1.00  0.00     0.227 C 
BRANCH   9  10
ATOM     10  N   UNL     1     -19.942   7.392 -13.627  1.00  0.00    -0.350 N 
ATOM     11  H   UNL     1     -19.111   7.937 -13.955  1.00  0.00     0.345 HD
ATOM     12  H   UNL     1     -19.892   7.340 -12.585  1.00  0.00     0.345 HD
ATOM     13  H   UNL     1     -20.813   7.901 -13.909  1.00  0.00     0.345 HD
ENDBRANCH   9  10
BRANCH   9  14
ATOM     14  C   UNL     1     -18.755   5.911 -15.155  1.00  0.00     0.099 C 
ATOM     15  O   UNL     1     -18.958   5.814 -16.394  1.00  0.00    -0.544 OA
ATOM     16  O   UNL     1     -17.450   5.917 -14.673  1.00  0.00    -0.544 OA
ENDBRANCH   9  14
ENDBRANCH   8   9
ENDBRANCH   1   8
TORSDOF 7
ENDMDL
MODEL 9
REMARK VINA RESULT:     2.350      3.991      5.453
REMARK INTER + INTRA:           3.087
REMARK INTER:                   3.199
REMARK INTRA:                  -0.112
REMARK UNBOUND:                -0.088
REMARK SMILES [NH3+]CCCC[C@H]([NH3+])C(=O)[O-]
REMARK SMILES IDX 4 1 3 2 2 3 1 4 5 8 6 9 7 10 8 14 9 15 10 16
REMARK H PARENT 1 5 1 6 1 7 7 11 7 12 7 13
REMARK Flexibility Score: inf
ROOT
ATOM      1  C   UNL     1     -19.331   6.449 -14.325  1.00  0.00     0.012 C 
ENDROOT
BRANCH   1   2
ATOM      2  C   UNL     1     -20.860   6.481 -14.184  1.00  0.00     0.061 C 
BRANCH   2   3
ATOM      3  C   UNL     1     -21.542   5.290 -14.879  1.00  0.00     0.258 C 
BRANCH   3   4
ATOM      4  N   UNL     1     -22.692   4.794 -14.122  1.00  0.00    -0.358 N 
ATOM      5  H   UNL     1     -23.515   5.409 -14.314  1.00  0.00     0.344 HD
ATOM      6  H   UNL     1     -22.929   3.817 -14.414  1.00  0.00     0.344 HD
ATOM      7  H   UNL     1     -22.493   4.823 -13.096  1.00  0.00     0.344 HD
ENDBRANCH   3   4
ENDBRANCH   2   3
ENDBRANCH   1   2
BRANCH   1   8
ATOM      8  C   UNL     1     -18.919   6.393 -15.804  1.00  0.00     0.072 C 
BRANCH   8   9
ATOM      9  C   UNL     1     -18.011   5.184 -16.125  1.00  0.00     0.227 C 
BRANCH   9  10
ATOM     10  N   UNL     1     -16.619   5.427 -15.722  1.00  0.00    -0.350 N 
ATOM     11  H   UNL     1     -16.596   5.946 -14.814  1.00  0.00     0.345 HD
ATOM     12  H   UNL     1     -16.135   6.019 -16.434  1.00  0.00     0.345 HD
ATOM     13  H   UNL     1     -16.100   4.524 -15.610  1.00  0.00     0.345 HD
ENDBRANCH   9  10
BRANCH   9  14
ATOM     14  C   UNL     1     -18.075   4.887 -17.599  1.00  0.00     0.099 C 
ATOM     15  O   UNL     1     -19.034   5.318 -18.292  1.00  0.00    -0.544 OA
ATOM     16  O   UNL     1     -17.066   4.150 -18.210  1.00  0.00    -0.544 OA
ENDBRANCH   9  14
ENDBRANCH   8   9
ENDBRANCH   1   8
TORSDOF 7
ENDMDL
