MODEL 1
REMARK VINA RESULT:    -3.409      0.000      0.000
REMARK INTER + INTRA:          -4.231
REMARK INTER:                  -4.007
REMARK INTRA:                  -0.224
REMARK UNBOUND:                -0.224
REMARK SMILES [NH3+][C@H](CO)C(=O)[O-]
REMARK SMILES IDX 3 1 2 2 1 3 5 7 6 8 7 9 4 10
REMARK H PARENT 1 4 1 5 1 6 4 11
REMARK Flexibility Score: inf
ROOT
ATOM      1  C   UNL     1     135.902 143.661 156.830  1.00  0.00     0.227 C 
ENDROOT
BRANCH   1   2
ATOM      2  C   UNL     1     134.521 144.194 157.242  1.00  0.00     0.253 C 
BRANCH   2   3
ATOM      3  N   UNL     1     134.242 143.905 158.654  1.00  0.00    -0.348 N 
ATOM      4  H   UNL     1     134.356 144.766 159.239  1.00  0.00     0.345 HD
ATOM      5  H   UNL     1     133.265 143.548 158.756  1.00  0.00     0.345 HD
ATOM      6  H   UNL     1     134.895 143.166 159.004  1.00  0.00     0.345 HD
ENDBRANCH   2   3
BRANCH   2   7
ATOM      7  C   UNL     1     134.446 145.676 156.988  1.00  0.00     0.102 C 
ATOM      8  O   UNL     1     135.132 146.472 157.682  1.00  0.00    -0.544 OA
ATOM      9  O   UNL     1     133.609 146.175 155.998  1.00  0.00    -0.544 OA
ENDBRANCH   2   7
ENDBRANCH   1   2
BRANCH   1  10
ATOM     10  O   UNL     1     136.896 144.229 157.637  1.00  0.00    -0.390 OA
ATOM     11  H   UNL     1     136.825 145.212 157.510  1.00  0.00     0.210 HD
ENDBRANCH   1  10
TORSDOF 4
ENDMDL
MODEL 2
REMARK VINA RESULT:    -3.389      1.541      1.776
REMARK INTER + INTRA:          -4.208
REMARK INTER:                  -4.184
REMARK INTRA:                  -0.023
REMARK UNBOUND:                -0.224
REMARK SMILES [NH3+][C@H](CO)C(=O)[O-]
REMARK SMILES IDX 3 1 2 2 1 3 5 7 6 8 7 9 4 10
REMARK H PARENT 1 4 1 5 1 6 4 11
REMARK Flexibility Score: inf
ROOT
ATOM      1  C   UNL     1     135.754 143.848 157.154  1.00  0.00     0.227 C 
ENDROOT
BRANCH   1   2
ATOM      2  C   UNL     1     134.816 145.059 157.271  1.00  0.00     0.253 C 
BRANCH   2   3
ATOM      3  N   UNL     1     135.541 146.246 157.740  1.00  0.00    -0.348 N 
ATOM      4  H   UNL     1     136.527 146.241 157.388  1.00  0.00     0.345 HD
ATOM      5  H   UNL     1     135.060 147.111 157.400  1.00  0.00     0.345 HD
ATOM      6  H   UNL     1     135.550 146.269 158.785  1.00  0.00     0.345 HD
ENDBRANCH   2   3
BRANCH   2   7
ATOM      7  C   UNL     1     134.165 145.336 155.941  1.00  0.00     0.102 C 
ATOM      8  O   UNL     1     134.375 144.571 154.964  1.00  0.00    -0.544 OA
ATOM      9  O   UNL     1     133.342 146.444 155.782  1.00  0.00    -0.544 OA
ENDBRANCH   2   7
ENDBRANCH   1   2
BRANCH   1  10
ATOM     10  O   UNL     1     137.027 144.180 157.634  1.00  0.00    -0.390 OA
ATOM     11  H   UNL     1     137.242 145.071 157.253  1.00  0.00     0.210 HD
ENDBRANCH   1  10
TORSDOF 4
ENDMDL
MODEL 3
REMARK VINA RESULT:    -3.275      2.003      2.811
REMARK INTER + INTRA:          -4.073
REMARK INTER:                  -4.065
REMARK INTRA:                  -0.008
REMARK UNBOUND:                -0.224
REMARK SMILES [NH3+][C@H](CO)C(=O)[O-]
REMARK SMILES IDX 3 1 2 2 1 3 5 7 6 8 7 9 4 10
REMARK H PARENT 1 4 1 5 1 6 4 11
REMARK Flexibility Score: inf
ROOT
ATOM      1  C   UNL     1     134.617 145.681 157.321  1.00  0.00     0.227 C 
ENDROOT
BRANCH   1   2
ATOM      2  C   UNL     1     135.208 144.366 156.792  1.00  0.00     0.253 C 
BRANCH   2   3
ATOM      3  N   UNL     1     136.473 144.046 157.466  1.00  0.00    -0.348 N 
ATOM      4  H   UNL     1     136.586 143.010 157.570  1.00  0.00     0.345 HD
ATOM      5  H   UNL     1     137.275 144.423 156.911  1.00  0.00     0.345 HD
ATOM      6  H   UNL     1     136.496 144.490 158.412  1.00  0.00     0.345 HD
ENDBRANCH   2   3
BRANCH   2   7
ATOM      7  C   UNL     1     134.220 143.245 156.977  1.00  0.00     0.102 C 
ATOM      8  O   UNL     1     134.605 142.048 156.924  1.00  0.00    -0.544 OA
ATOM      9  O   UNL     1     132.877 143.525 157.195  1.00  0.00    -0.544 OA
ENDBRANCH   2   7
ENDBRANCH   1   2
BRANCH   1  10
ATOM     10  O   UNL     1     135.643 146.526 157.761  1.00  0.00    -0.390 OA
ATOM     11  H   UNL     1     135.200 147.259 158.264  1.00  0.00     0.210 HD
ENDBRANCH   1  10
TORSDOF 4
ENDMDL
MODEL 4
REMARK VINA RESULT:    -3.267      1.756      2.193
REMARK INTER + INTRA:          -4.063
REMARK INTER:                  -3.646
REMARK INTRA:                  -0.418
REMARK UNBOUND:                -0.224
REMARK SMILES [NH3+][C@H](CO)C(=O)[O-]
REMARK SMILES IDX 3 1 2 2 1 3 5 7 6 8 7 9 4 10
REMARK H PARENT 1 4 1 5 1 6 4 11
REMARK Flexibility Score: inf
ROOT
ATOM      1  C   UNL     1     135.337 143.741 155.644  1.00  0.00     0.227 C 
ENDROOT
BRANCH   1   2
ATOM      2  C   UNL     1     135.410 143.971 157.161  1.00  0.00     0.253 C 
BRANCH   2   3
ATOM      3  N   UNL     1     136.795 144.190 157.597  1.00  0.00    -0.348 N 
ATOM      4  H   UNL     1     136.992 145.212 157.707  1.00  0.00     0.345 HD
ATOM      5  H   UNL     1     136.959 143.709 158.511  1.00  0.00     0.345 HD
ATOM      6  H   UNL     1     137.458 143.787 156.895  1.00  0.00     0.345 HD
ENDBRANCH   2   3
BRANCH   2   7
ATOM      7  C   UNL     1     134.551 145.146 157.546  1.00  0.00     0.102 C 
ATOM      8  O   UNL     1     133.337 144.974 157.834  1.00  0.00    -0.544 OA
ATOM      9  O   UNL     1     135.088 146.427 157.573  1.00  0.00    -0.544 OA
ENDBRANCH   2   7
ENDBRANCH   1   2
BRANCH   1  10
ATOM     10  O   UNL     1     134.529 144.720 155.050  1.00  0.00    -0.390 OA
ATOM     11  H   UNL     1     134.609 145.528 155.622  1.00  0.00     0.210 HD
ENDBRANCH   1  10
TORSDOF 4
ENDMDL
MODEL 5
REMARK VINA RESULT:    -3.200      2.039      2.869
REMARK INTER + INTRA:          -3.985
REMARK INTER:                  -3.599
REMARK INTRA:                  -0.386
REMARK UNBOUND:                -0.224
REMARK SMILES [NH3+][C@H](CO)C(=O)[O-]
REMARK SMILES IDX 3 1 2 2 1 3 5 7 6 8 7 9 4 10
REMARK H PARENT 1 4 1 5 1 6 4 11
REMARK Flexibility Score: inf
ROOT
ATOM      1  C   UNL     1     134.387 146.550 157.246  1.00  0.00     0.227 C 
ENDROOT
BRANCH   1   2
ATOM      2  C   UNL     1     133.942 145.286 156.496  1.00  0.00     0.253 C 
BRANCH   2   3
ATOM      3  N   UNL     1     134.060 145.464 155.043  1.00  0.00    -0.348 N 
ATOM      4  H   UNL     1     133.679 144.632 154.535  1.00  0.00     0.345 HD
ATOM      5  H   UNL     1     133.532 146.317 154.747  1.00  0.00     0.345 HD
ATOM      6  H   UNL     1     135.063 145.596 154.780  1.00  0.00     0.345 HD
ENDBRANCH   2   3
BRANCH   2   7
ATOM      7  C   UNL     1     134.762 144.106 156.945  1.00  0.00     0.102 C 
ATOM      8  O   UNL     1     134.486 143.518 158.023  1.00  0.00    -0.544 OA
ATOM      9  O   UNL     1     135.835 143.667 156.180  1.00  0.00    -0.544 OA
ENDBRANCH   2   7
ENDBRANCH   1   2
BRANCH   1  10
ATOM     10  O   UNL     1     135.688 146.382 157.739  1.00  0.00    -0.390 OA
ATOM     11  H   UNL     1     135.788 147.035 158.481  1.00  0.00     0.210 HD
ENDBRANCH   1  10
TORSDOF 4
ENDMDL
MODEL 6
REMARK VINA RESULT:    -3.179      2.233      3.353
REMARK INTER + INTRA:          -3.960
REMARK INTER:                  -3.541
REMARK INTRA:                  -0.419
REMARK UNBOUND:                -0.224
REMARK SMILES [NH3+][C@H](CO)C(=O)[O-]
REMARK SMILES IDX 3 1 2 2 1 3 5 7 6 8 7 9 4 10
REMARK H PARENT 1 4 1 5 1 6 4 11
REMARK Flexibility Score: inf
ROOT
ATOM      1  C   UNL     1     133.351 146.829 157.084  1.00  0.00     0.227 C 
ENDROOT
BRANCH   1   2
ATOM      2  C   UNL     1     134.458 145.781 156.895  1.00  0.00     0.253 C 
BRANCH   2   3
ATOM      3  N   UNL     1     135.595 146.046 157.787  1.00  0.00    -0.348 N 
ATOM      4  H   UNL     1     135.363 146.807 158.467  1.00  0.00     0.345 HD
ATOM      5  H   UNL     1     135.840 145.178 158.315  1.00  0.00     0.345 HD
ATOM      6  H   UNL     1     136.430 146.331 157.226  1.00  0.00     0.345 HD
ENDBRANCH   2   3
BRANCH   2   7
ATOM      7  C   UNL     1     133.909 144.402 157.146  1.00  0.00     0.102 C 
ATOM      8  O   UNL     1     133.424 143.732 156.197  1.00  0.00    -0.544 OA
ATOM      9  O   UNL     1     133.923 143.865 158.428  1.00  0.00    -0.544 OA
ENDBRANCH   2   7
ENDBRANCH   1   2
BRANCH   1  10
ATOM     10  O   UNL     1     132.158 146.202 157.468  1.00  0.00    -0.390 OA
ATOM     11  H   UNL     1     132.151 145.320 157.011  1.00  0.00     0.210 HD
ENDBRANCH   1  10
TORSDOF 4
ENDMDL
MODEL 7
REMARK VINA RESULT:    -3.162      2.042      2.123
REMARK INTER + INTRA:          -3.940
REMARK INTER:                  -3.728
REMARK INTRA:                  -0.211
REMARK UNBOUND:                -0.224
REMARK SMILES [NH3+][C@H](CO)C(=O)[O-]
REMARK SMILES IDX 3 1 2 2 1 3 5 7 6 8 7 9 4 10
REMARK H PARENT 1 4 1 5 1 6 4 11
REMARK Flexibility Score: inf
ROOT
ATOM      1  C   UNL     1     133.836 144.249 158.086  1.00  0.00     0.227 C 
ENDROOT
BRANCH   1   2
ATOM      2  C   UNL     1     134.139 145.592 157.405  1.00  0.00     0.253 C 
BRANCH   2   3
ATOM      3  N   UNL     1     135.479 146.075 157.761  1.00  0.00    -0.348 N 
ATOM      4  H   UNL     1     136.194 145.322 157.623  1.00  0.00     0.345 HD
ATOM      5  H   UNL     1     135.729 146.897 157.165  1.00  0.00     0.345 HD
ATOM      6  H   UNL     1     135.495 146.382 158.760  1.00  0.00     0.345 HD
ENDBRANCH   2   3
BRANCH   2   7
ATOM      7  C   UNL     1     134.015 145.451 155.911  1.00  0.00     0.102 C 
ATOM      8  O   UNL     1     134.664 144.559 155.305  1.00  0.00    -0.544 OA
ATOM      9  O   UNL     1     133.197 146.313 155.192  1.00  0.00    -0.544 OA
ENDBRANCH   2   7
ENDBRANCH   1   2
BRANCH   1  10
ATOM     10  O   UNL     1     135.000 143.473 158.155  1.00  0.00    -0.390 OA
ATOM     11  H   UNL     1     135.659 143.911 157.555  1.00  0.00     0.210 HD
ENDBRANCH   1  10
TORSDOF 4
ENDMDL
MODEL 8
REMARK VINA RESULT:    -3.058      1.899      2.628
REMARK INTER + INTRA:          -3.819
REMARK INTER:                  -3.808
REMARK INTRA:                  -0.010
REMARK UNBOUND:                -0.224
REMARK SMILES [NH3+][C@H](CO)C(=O)[O-]
REMARK SMILES IDX 3 1 2 2 1 3 5 7 6 8 7 9 4 10
REMARK H PARENT 1 4 1 5 1 6 4 11
REMARK Flexibility Score: inf
ROOT
ATOM      1  C   UNL     1     134.369 145.894 157.245  1.00  0.00     0.227 C 
ENDROOT
BRANCH   1   2
ATOM      2  C   UNL     1     133.991 144.407 157.312  1.00  0.00     0.253 C 
BRANCH   2   3
ATOM      3  N   UNL     1     134.573 143.767 158.499  1.00  0.00    -0.348 N 
ATOM      4  H   UNL     1     134.320 142.751 158.535  1.00  0.00     0.345 HD
ATOM      5  H   UNL     1     135.614 143.859 158.476  1.00  0.00     0.345 HD
ATOM      6  H   UNL     1     134.225 144.237 159.365  1.00  0.00     0.345 HD
ENDBRANCH   2   3
BRANCH   2   7
ATOM      7  C   UNL     1     132.493 144.256 157.320  1.00  0.00     0.102 C 
ATOM      8  O   UNL     1     131.956 143.249 156.790  1.00  0.00    -0.544 OA
ATOM      9  O   UNL     1     131.694 145.234 157.901  1.00  0.00    -0.544 OA
ENDBRANCH   2   7
ENDBRANCH   1   2
BRANCH   1  10
ATOM     10  O   UNL     1     135.660 146.084 157.755  1.00  0.00    -0.390 OA
ATOM     11  H   UNL     1     135.820 145.335 158.387  1.00  0.00     0.210 HD
ENDBRANCH   1  10
TORSDOF 4
ENDMDL
MODEL 9
REMARK VINA RESULT:    -2.956      1.775      2.785
REMARK INTER + INTRA:          -3.698
REMARK INTER:                  -3.501
REMARK INTRA:                  -0.198
REMARK UNBOUND:                -0.224
REMARK SMILES [NH3+][C@H](CO)C(=O)[O-]
REMARK SMILES IDX 3 1 2 2 1 3 5 7 6 8 7 9 4 10
REMARK H PARENT 1 4 1 5 1 6 4 11
REMARK Flexibility Score: inf
ROOT
ATOM      1  C   UNL     1     132.750 143.468 156.836  1.00  0.00     0.227 C 
ENDROOT
BRANCH   1   2
ATOM      2  C   UNL     1     133.564 144.211 157.905  1.00  0.00     0.253 C 
BRANCH   2   3
ATOM      3  N   UNL     1     134.868 143.570 158.117  1.00  0.00    -0.348 N 
ATOM      4  H   UNL     1     135.127 142.975 157.295  1.00  0.00     0.345 HD
ATOM      5  H   UNL     1     135.604 144.301 158.255  1.00  0.00     0.345 HD
ATOM      6  H   UNL     1     134.838 142.973 158.975  1.00  0.00     0.345 HD
ENDBRANCH   2   3
BRANCH   2   7
ATOM      7  C   UNL     1     133.750 145.650 157.503  1.00  0.00     0.102 C 
ATOM      8  O   UNL     1     132.763 146.330 157.117  1.00  0.00    -0.544 OA
ATOM      9  O   UNL     1     135.011 146.231 157.543  1.00  0.00    -0.544 OA
ENDBRANCH   2   7
ENDBRANCH   1   2
BRANCH   1  10
ATOM     10  O   UNL     1     131.384 143.533 157.141  1.00  0.00    -0.390 OA
ATOM     11  H   UNL     1     131.000 142.656 156.877  1.00  0.00     0.210 HD
ENDBRANCH   1  10
TORSDOF 4
ENDMDL
