MODEL 1
REMARK VINA RESULT:    -6.288      0.000      0.000
REMARK INTER + INTRA:          -7.883
REMARK INTER:                  -7.575
REMARK INTRA:                  -0.308
REMARK UNBOUND:                -0.308
REMARK SMILES O=c1c(O)c(-c2ccc(O)c(O)c2)oc2cc(O)cc(O)c12
REMARK SMILES IDX 5 1 3 2 2 3 1 4 22 5 20 6 19 7 17 8 16 9 15 10 14 11 6 12
REMARK SMILES IDX 7 13 8 14 9 15 13 16 11 17 10 18 12 20 4 22 21 24 18 26
REMARK H PARENT 10 19 12 21 4 23 21 25 18 27
REMARK Flexibility Score: inf
ROOT
ATOM      1  C   UNL     1      -5.493  -8.050   5.843  1.00  0.00     0.180 A 
ATOM      2  C   UNL     1      -4.285  -8.754   5.987  1.00  0.00     0.208 A 
ATOM      3  C   UNL     1      -3.421  -8.860   4.886  1.00  0.00     0.238 A 
ATOM      4  O   UNL     1      -2.317  -9.444   5.037  1.00  0.00    -0.285 OA
ATOM      5  C   UNL     1      -3.782  -8.274   3.649  1.00  0.00     0.111 A 
ATOM      6  C   UNL     1      -3.003  -8.354   2.456  1.00  0.00     0.134 A 
ATOM      7  C   UNL     1      -3.394  -7.626   1.325  1.00  0.00     0.093 A 
ATOM      8  C   UNL     1      -4.569  -6.876   1.323  1.00  0.00     0.123 A 
ATOM      9  C   UNL     1      -5.371  -6.840   2.465  1.00  0.00     0.094 A 
ATOM     10  C   UNL     1      -4.988  -7.526   3.621  1.00  0.00     0.146 A 
ATOM     11  O   UNL     1      -5.773  -7.457   4.688  1.00  0.00    -0.452 OA
ENDROOT
BRANCH   1  12
ATOM     12  C   UNL     1      -6.466  -7.918   6.950  1.00  0.00     0.025 A 
ATOM     13  C   UNL     1      -7.360  -8.969   7.213  1.00  0.00     0.016 A 
ATOM     14  C   UNL     1      -8.272  -8.875   8.267  1.00  0.00     0.051 A 
ATOM     15  C   UNL     1      -8.297  -7.739   9.082  1.00  0.00     0.157 A 
ATOM     16  C   UNL     1      -6.479  -6.786   7.784  1.00  0.00     0.062 A 
ATOM     17  C   UNL     1      -7.393  -6.690   8.843  1.00  0.00     0.158 A 
BRANCH  15  18
ATOM     18  O   UNL     1      -9.221  -7.672  10.125  1.00  0.00    -0.504 OA
ATOM     19  H   UNL     1      -9.255  -6.888  10.765  1.00  0.00     0.293 HD
ENDBRANCH  15  18
BRANCH  17  20
ATOM     20  O   UNL     1      -7.403  -5.561   9.661  1.00  0.00    -0.504 OA
ATOM     21  H   UNL     1      -8.166  -5.375  10.301  1.00  0.00     0.293 HD
ENDBRANCH  17  20
ENDBRANCH   1  12
BRANCH   2  22
ATOM     22  O   UNL     1      -3.937  -9.307   7.224  1.00  0.00    -0.502 OA
ATOM     23  H   UNL     1      -4.017 -10.298   7.419  1.00  0.00     0.293 HD
ENDBRANCH   2  22
BRANCH   6  24
ATOM     24  O   UNL     1      -1.859  -9.147   2.322  1.00  0.00    -0.507 OA
ATOM     25  H   UNL     1      -0.955  -8.807   2.035  1.00  0.00     0.293 HD
ENDBRANCH   6  24
BRANCH   8  26
ATOM     26  O   UNL     1      -4.936  -6.177   0.175  1.00  0.00    -0.508 OA
ATOM     27  H   UNL     1      -5.875  -6.232  -0.202  1.00  0.00     0.293 HD
ENDBRANCH   8  26
TORSDOF 6
ENDMDL
MODEL 2
REMARK VINA RESULT:    -6.282     16.295     18.614
REMARK INTER + INTRA:          -7.875
REMARK INTER:                  -8.106
REMARK INTRA:                   0.231
REMARK UNBOUND:                -0.308
REMARK SMILES O=c1c(O)c(-c2ccc(O)c(O)c2)oc2cc(O)cc(O)c12
REMARK SMILES IDX 5 1 3 2 2 3 1 4 22 5 20 6 19 7 17 8 16 9 15 10 14 11 6 12
REMARK SMILES IDX 7 13 8 14 9 15 13 16 11 17 10 18 12 20 4 22 21 24 18 26
REMARK H PARENT 10 19 12 21 4 23 21 25 18 27
REMARK Flexibility Score: inf
ROOT
ATOM      1  C   UNL     1      -2.772   2.211  -8.775  1.00  0.00     0.180 A 
ATOM      2  C   UNL     1      -2.641   3.445  -9.435  1.00  0.00     0.208 A 
ATOM      3  C   UNL     1      -3.690   4.374  -9.360  1.00  0.00     0.238 A 
ATOM      4  O   UNL     1      -3.544   5.497  -9.908  1.00  0.00    -0.285 OA
ATOM      5  C   UNL     1      -4.865   4.053  -8.638  1.00  0.00     0.111 A 
ATOM      6  C   UNL     1      -6.007   4.901  -8.529  1.00  0.00     0.134 A 
ATOM      7  C   UNL     1      -7.060   4.536  -7.681  1.00  0.00     0.093 A 
ATOM      8  C   UNL     1      -7.042   3.324  -6.991  1.00  0.00     0.123 A 
ATOM      9  C   UNL     1      -5.957   2.459  -7.138  1.00  0.00     0.094 A 
ATOM     10  C   UNL     1      -4.875   2.812  -7.948  1.00  0.00     0.146 A 
ATOM     11  O   UNL     1      -3.859   1.965  -8.052  1.00  0.00    -0.452 OA
ENDROOT
BRANCH   1  12
ATOM     12  C   UNL     1      -1.719   1.172  -8.830  1.00  0.00     0.025 A 
ATOM     13  C   UNL     1      -2.088  -0.182  -8.891  1.00  0.00     0.016 A 
ATOM     14  C   UNL     1      -1.111  -1.178  -8.965  1.00  0.00     0.051 A 
ATOM     15  C   UNL     1       0.244  -0.839  -8.995  1.00  0.00     0.157 A 
ATOM     16  C   UNL     1      -0.355   1.512  -8.880  1.00  0.00     0.062 A 
ATOM     17  C   UNL     1       0.626   0.512  -8.956  1.00  0.00     0.158 A 
BRANCH  15  18
ATOM     18  O   UNL     1       1.197  -1.856  -9.066  1.00  0.00    -0.504 OA
ATOM     19  H   UNL     1       1.333  -2.520  -8.314  1.00  0.00     0.293 HD
ENDBRANCH  15  18
BRANCH  17  20
ATOM     20  O   UNL     1       1.976   0.858  -8.999  1.00  0.00    -0.504 OA
ATOM     21  H   UNL     1       2.372   1.352  -9.790  1.00  0.00     0.293 HD
ENDBRANCH  17  20
ENDBRANCH   1  12
BRANCH   2  22
ATOM     22  O   UNL     1      -1.463   3.751 -10.125  1.00  0.00    -0.502 OA
ATOM     23  H   UNL     1      -0.546   3.500  -9.773  1.00  0.00     0.293 HD
ENDBRANCH   2  22
BRANCH   6  24
ATOM     24  O   UNL     1      -6.167   6.091  -9.245  1.00  0.00    -0.507 OA
ATOM     25  H   UNL     1      -6.829   6.815  -9.015  1.00  0.00     0.293 HD
ENDBRANCH   6  24
BRANCH   8  26
ATOM     26  O   UNL     1      -8.115   2.986  -6.168  1.00  0.00    -0.508 OA
ATOM     27  H   UNL     1      -8.227   3.396  -5.249  1.00  0.00     0.293 HD
ENDBRANCH   8  26
TORSDOF 6
ENDMDL
MODEL 3
REMARK VINA RESULT:    -6.245      1.762      6.666
REMARK INTER + INTRA:          -7.830
REMARK INTER:                  -7.499
REMARK INTRA:                  -0.331
REMARK UNBOUND:                -0.308
REMARK SMILES O=c1c(O)c(-c2ccc(O)c(O)c2)oc2cc(O)cc(O)c12
REMARK SMILES IDX 5 1 3 2 2 3 1 4 22 5 20 6 19 7 17 8 16 9 15 10 14 11 6 12
REMARK SMILES IDX 7 13 8 14 9 15 13 16 11 17 10 18 12 20 4 22 21 24 18 26
REMARK H PARENT 10 19 12 21 4 23 21 25 18 27
REMARK Flexibility Score: inf
ROOT
ATOM      1  C   UNL     1      -4.723  -8.468   4.633  1.00  0.00     0.180 A 
ATOM      2  C   UNL     1      -4.140  -8.804   5.868  1.00  0.00     0.208 A 
ATOM      3  C   UNL     1      -4.870  -8.591   7.047  1.00  0.00     0.238 A 
ATOM      4  O   UNL     1      -4.364  -8.944   8.144  1.00  0.00    -0.285 OA
ATOM      5  C   UNL     1      -6.169  -8.030   6.980  1.00  0.00     0.111 A 
ATOM      6  C   UNL     1      -6.983  -7.733   8.114  1.00  0.00     0.134 A 
ATOM      7  C   UNL     1      -8.301  -7.302   7.924  1.00  0.00     0.093 A 
ATOM      8  C   UNL     1      -8.813  -7.093   6.643  1.00  0.00     0.123 A 
ATOM      9  C   UNL     1      -8.005  -7.323   5.528  1.00  0.00     0.094 A 
ATOM     10  C   UNL     1      -6.698  -7.789   5.685  1.00  0.00     0.146 A 
ATOM     11  O   UNL     1      -5.967  -8.005   4.599  1.00  0.00    -0.452 OA
ENDROOT
BRANCH   1  12
ATOM     12  C   UNL     1      -4.005  -8.640   3.350  1.00  0.00     0.025 A 
ATOM     13  C   UNL     1      -4.222  -9.799   2.587  1.00  0.00     0.016 A 
ATOM     14  C   UNL     1      -3.571  -9.972   1.363  1.00  0.00     0.051 A 
ATOM     15  C   UNL     1      -2.707  -8.987   0.876  1.00  0.00     0.157 A 
ATOM     16  C   UNL     1      -3.151  -7.642   2.849  1.00  0.00     0.062 A 
ATOM     17  C   UNL     1      -2.497  -7.814   1.620  1.00  0.00     0.158 A 
BRANCH  15  18
ATOM     18  O   UNL     1      -2.069  -9.190  -0.348  1.00  0.00    -0.504 OA
ATOM     19  H   UNL     1      -1.062  -9.137  -0.446  1.00  0.00     0.293 HD
ENDBRANCH  15  18
BRANCH  17  20
ATOM     20  O   UNL     1      -1.647  -6.822   1.133  1.00  0.00    -0.504 OA
ATOM     21  H   UNL     1      -1.760  -5.850   1.396  1.00  0.00     0.293 HD
ENDBRANCH  17  20
ENDBRANCH   1  12
BRANCH   2  22
ATOM     22  O   UNL     1      -2.865  -9.377   5.910  1.00  0.00    -0.502 OA
ATOM     23  H   UNL     1      -2.027  -8.828   6.058  1.00  0.00     0.293 HD
ENDBRANCH   2  22
BRANCH   6  24
ATOM     24  O   UNL     1      -6.540  -7.819   9.437  1.00  0.00    -0.507 OA
ATOM     25  H   UNL     1      -6.202  -8.662   9.876  1.00  0.00     0.293 HD
ENDBRANCH   6  24
BRANCH   8  26
ATOM     26  O   UNL     1     -10.125  -6.648   6.491  1.00  0.00    -0.508 OA
ATOM     27  H   UNL     1     -10.803  -7.173   5.951  1.00  0.00     0.293 HD
ENDBRANCH   8  26
TORSDOF 6
ENDMDL
MODEL 4
REMARK VINA RESULT:    -6.243     13.145     15.410
REMARK INTER + INTRA:          -7.828
REMARK INTER:                  -7.512
REMARK INTRA:                  -0.316
REMARK UNBOUND:                -0.308
REMARK SMILES O=c1c(O)c(-c2ccc(O)c(O)c2)oc2cc(O)cc(O)c12
REMARK SMILES IDX 5 1 3 2 2 3 1 4 22 5 20 6 19 7 17 8 16 9 15 10 14 11 6 12
REMARK SMILES IDX 7 13 8 14 9 15 13 16 11 17 10 18 12 20 4 22 21 24 18 26
REMARK H PARENT 10 19 12 21 4 23 21 25 18 27
REMARK Flexibility Score: inf
ROOT
ATOM      1  C   UNL     1      -5.510   6.585   4.832  1.00  0.00     0.180 A 
ATOM      2  C   UNL     1      -4.192   6.876   5.225  1.00  0.00     0.208 A 
ATOM      3  C   UNL     1      -3.680   6.283   6.390  1.00  0.00     0.238 A 
ATOM      4  O   UNL     1      -2.483   6.506   6.706  1.00  0.00    -0.285 OA
ATOM      5  C   UNL     1      -4.498   5.419   7.158  1.00  0.00     0.111 A 
ATOM      6  C   UNL     1      -4.097   4.796   8.377  1.00  0.00     0.134 A 
ATOM      7  C   UNL     1      -4.942   3.857   8.983  1.00  0.00     0.093 A 
ATOM      8  C   UNL     1      -6.198   3.569   8.451  1.00  0.00     0.123 A 
ATOM      9  C   UNL     1      -6.624   4.218   7.291  1.00  0.00     0.094 A 
ATOM     10  C   UNL     1      -5.789   5.132   6.644  1.00  0.00     0.146 A 
ATOM     11  O   UNL     1      -6.229   5.719   5.538  1.00  0.00    -0.452 OA
ENDROOT
BRANCH   1  12
ATOM     12  C   UNL     1      -6.127   7.191   3.631  1.00  0.00     0.025 A 
ATOM     13  C   UNL     1      -6.860   8.382   3.758  1.00  0.00     0.016 A 
ATOM     14  C   UNL     1      -7.433   8.983   2.633  1.00  0.00     0.051 A 
ATOM     15  C   UNL     1      -7.271   8.413   1.368  1.00  0.00     0.157 A 
ATOM     16  C   UNL     1      -5.948   6.631   2.354  1.00  0.00     0.062 A 
ATOM     17  C   UNL     1      -6.522   7.233   1.224  1.00  0.00     0.158 A 
BRANCH  15  18
ATOM     18  O   UNL     1      -7.857   9.034   0.264  1.00  0.00    -0.504 OA
ATOM     19  H   UNL     1      -8.099   8.523  -0.576  1.00  0.00     0.293 HD
ENDBRANCH  15  18
BRANCH  17  20
ATOM     20  O   UNL     1      -6.345   6.668  -0.037  1.00  0.00    -0.504 OA
ATOM     21  H   UNL     1      -5.428   6.594  -0.462  1.00  0.00     0.293 HD
ENDBRANCH  17  20
ENDBRANCH   1  12
BRANCH   2  22
ATOM     22  O   UNL     1      -3.395   7.715   4.441  1.00  0.00    -0.502 OA
ATOM     23  H   UNL     1      -3.044   7.438   3.531  1.00  0.00     0.293 HD
ENDBRANCH   2  22
BRANCH   6  24
ATOM     24  O   UNL     1      -2.901   5.080   9.043  1.00  0.00    -0.507 OA
ATOM     25  H   UNL     1      -2.213   5.746   8.728  1.00  0.00     0.293 HD
ENDBRANCH   6  24
BRANCH   8  26
ATOM     26  O   UNL     1      -7.019   2.641   9.089  1.00  0.00    -0.508 OA
ATOM     27  H   UNL     1      -7.290   2.752  10.058  1.00  0.00     0.293 HD
ENDBRANCH   8  26
TORSDOF 6
ENDMDL
MODEL 5
REMARK VINA RESULT:    -6.189     11.744     12.982
REMARK INTER + INTRA:          -7.763
REMARK INTER:                  -7.525
REMARK INTRA:                  -0.238
REMARK UNBOUND:                -0.308
REMARK SMILES O=c1c(O)c(-c2ccc(O)c(O)c2)oc2cc(O)cc(O)c12
REMARK SMILES IDX 5 1 3 2 2 3 1 4 22 5 20 6 19 7 17 8 16 9 15 10 14 11 6 12
REMARK SMILES IDX 7 13 8 14 9 15 13 16 11 17 10 18 12 20 4 22 21 24 18 26
REMARK H PARENT 10 19 12 21 4 23 21 25 18 27
REMARK Flexibility Score: inf
ROOT
ATOM      1  C   UNL     1      -6.121   4.551   5.833  1.00  0.00     0.180 A 
ATOM      2  C   UNL     1      -4.929   5.229   6.141  1.00  0.00     0.208 A 
ATOM      3  C   UNL     1      -4.395   6.130   5.207  1.00  0.00     0.238 A 
ATOM      4  O   UNL     1      -3.358   6.773   5.512  1.00  0.00    -0.285 OA
ATOM      5  C   UNL     1      -5.050   6.331   3.968  1.00  0.00     0.111 A 
ATOM      6  C   UNL     1      -4.577   7.189   2.931  1.00  0.00     0.134 A 
ATOM      7  C   UNL     1      -5.374   7.412   1.801  1.00  0.00     0.093 A 
ATOM      8  C   UNL     1      -6.595   6.757   1.641  1.00  0.00     0.123 A 
ATOM      9  C   UNL     1      -7.039   5.869   2.622  1.00  0.00     0.094 A 
ATOM     10  C   UNL     1      -6.283   5.655   3.777  1.00  0.00     0.146 A 
ATOM     11  O   UNL     1      -6.747   4.810   4.690  1.00  0.00    -0.452 OA
ENDROOT
BRANCH   1  12
ATOM     12  C   UNL     1      -6.731   3.568   6.756  1.00  0.00     0.025 A 
ATOM     13  C   UNL     1      -6.623   2.196   6.473  1.00  0.00     0.016 A 
ATOM     14  C   UNL     1      -7.172   1.250   7.342  1.00  0.00     0.051 A 
ATOM     15  C   UNL     1      -7.823   1.655   8.510  1.00  0.00     0.157 A 
ATOM     16  C   UNL     1      -7.368   3.973   7.942  1.00  0.00     0.062 A 
ATOM     17  C   UNL     1      -7.920   3.023   8.815  1.00  0.00     0.158 A 
BRANCH  15  18
ATOM     18  O   UNL     1      -8.364   0.687   9.356  1.00  0.00    -0.504 OA
ATOM     19  H   UNL     1      -8.823   0.929  10.226  1.00  0.00     0.293 HD
ENDBRANCH  15  18
BRANCH  17  20
ATOM     20  O   UNL     1      -8.555   3.434   9.986  1.00  0.00    -0.504 OA
ATOM     21  H   UNL     1      -9.183   4.229   9.998  1.00  0.00     0.293 HD
ENDBRANCH  17  20
ENDBRANCH   1  12
BRANCH   2  22
ATOM     22  O   UNL     1      -4.310   5.032   7.380  1.00  0.00    -0.502 OA
ATOM     23  H   UNL     1      -4.288   4.129   7.840  1.00  0.00     0.293 HD
ENDBRANCH   2  22
BRANCH   6  24
ATOM     24  O   UNL     1      -3.330   7.822   2.949  1.00  0.00    -0.507 OA
ATOM     25  H   UNL     1      -3.134   8.690   3.423  1.00  0.00     0.293 HD
ENDBRANCH   6  24
BRANCH   8  26
ATOM     26  O   UNL     1      -7.355   6.990   0.497  1.00  0.00    -0.508 OA
ATOM     27  H   UNL     1      -8.255   6.547   0.359  1.00  0.00     0.293 HD
ENDBRANCH   8  26
TORSDOF 6
ENDMDL
MODEL 6
REMARK VINA RESULT:    -6.146     12.734     14.583
REMARK INTER + INTRA:          -7.711
REMARK INTER:                  -7.483
REMARK INTRA:                  -0.228
REMARK UNBOUND:                -0.308
REMARK SMILES O=c1c(O)c(-c2ccc(O)c(O)c2)oc2cc(O)cc(O)c12
REMARK SMILES IDX 5 1 3 2 2 3 1 4 22 5 20 6 19 7 17 8 16 9 15 10 14 11 6 12
REMARK SMILES IDX 7 13 8 14 9 15 13 16 11 17 10 18 12 20 4 22 21 24 18 26
REMARK H PARENT 10 19 12 21 4 23 21 25 18 27
REMARK Flexibility Score: inf
ROOT
ATOM      1  C   UNL     1      -4.775   5.980   6.580  1.00  0.00     0.180 A 
ATOM      2  C   UNL     1      -5.209   5.979   5.243  1.00  0.00     0.208 A 
ATOM      3  C   UNL     1      -6.043   4.942   4.797  1.00  0.00     0.238 A 
ATOM      4  O   UNL     1      -6.471   4.976   3.614  1.00  0.00    -0.285 OA
ATOM      5  C   UNL     1      -6.422   3.909   5.689  1.00  0.00     0.111 A 
ATOM      6  C   UNL     1      -7.230   2.788   5.334  1.00  0.00     0.134 A 
ATOM      7  C   UNL     1      -7.650   1.897   6.330  1.00  0.00     0.093 A 
ATOM      8  C   UNL     1      -7.236   2.049   7.653  1.00  0.00     0.123 A 
ATOM      9  C   UNL     1      -6.396   3.108   7.999  1.00  0.00     0.094 A 
ATOM     10  C   UNL     1      -5.991   4.034   7.035  1.00  0.00     0.146 A 
ATOM     11  O   UNL     1      -5.200   5.032   7.409  1.00  0.00    -0.452 OA
ENDROOT
BRANCH   1  12
ATOM     12  C   UNL     1      -3.874   7.024   7.115  1.00  0.00     0.025 A 
ATOM     13  C   UNL     1      -4.376   8.315   7.350  1.00  0.00     0.016 A 
ATOM     14  C   UNL     1      -3.548   9.311   7.875  1.00  0.00     0.051 A 
ATOM     15  C   UNL     1      -2.215   9.031   8.186  1.00  0.00     0.157 A 
ATOM     16  C   UNL     1      -2.538   6.740   7.448  1.00  0.00     0.062 A 
ATOM     17  C   UNL     1      -1.706   7.739   7.976  1.00  0.00     0.158 A 
BRANCH  15  18
ATOM     18  O   UNL     1      -1.412  10.047   8.707  1.00  0.00    -0.504 OA
ATOM     19  H   UNL     1      -1.206  10.890   8.185  1.00  0.00     0.293 HD
ENDBRANCH  15  18
BRANCH  17  20
ATOM     20  O   UNL     1      -0.381   7.449   8.298  1.00  0.00    -0.504 OA
ATOM     21  H   UNL     1      -0.101   7.228   9.246  1.00  0.00     0.293 HD
ENDBRANCH  17  20
ENDBRANCH   1  12
BRANCH   2  22
ATOM     22  O   UNL     1      -4.841   7.020   4.384  1.00  0.00    -0.502 OA
ATOM     23  H   UNL     1      -5.260   7.144   3.470  1.00  0.00     0.293 HD
ENDBRANCH   2  22
BRANCH   6  24
ATOM     24  O   UNL     1      -7.623   2.492   4.026  1.00  0.00    -0.507 OA
ATOM     25  H   UNL     1      -8.056   3.148   3.394  1.00  0.00     0.293 HD
ENDBRANCH   6  24
BRANCH   8  26
ATOM     26  O   UNL     1      -7.660   1.134   8.615  1.00  0.00    -0.508 OA
ATOM     27  H   UNL     1      -7.575   0.135   8.470  1.00  0.00     0.293 HD
ENDBRANCH   8  26
TORSDOF 6
ENDMDL
MODEL 7
REMARK VINA RESULT:    -6.017     13.544     15.673
REMARK INTER + INTRA:          -7.556
REMARK INTER:                  -7.248
REMARK INTRA:                  -0.308
REMARK UNBOUND:                -0.308
REMARK SMILES O=c1c(O)c(-c2ccc(O)c(O)c2)oc2cc(O)cc(O)c12
REMARK SMILES IDX 5 1 3 2 2 3 1 4 22 5 20 6 19 7 17 8 16 9 15 10 14 11 6 12
REMARK SMILES IDX 7 13 8 14 9 15 13 16 11 17 10 18 12 20 4 22 21 24 18 26
REMARK H PARENT 10 19 12 21 4 23 21 25 18 27
REMARK Flexibility Score: inf
ROOT
ATOM      1  C   UNL     1      -6.641   6.635   4.025  1.00  0.00     0.180 A 
ATOM      2  C   UNL     1      -7.362   5.587   4.623  1.00  0.00     0.208 A 
ATOM      3  C   UNL     1      -6.788   4.891   5.699  1.00  0.00     0.238 A 
ATOM      4  O   UNL     1      -7.461   3.991   6.264  1.00  0.00    -0.285 OA
ATOM      5  C   UNL     1      -5.494   5.240   6.154  1.00  0.00     0.111 A 
ATOM      6  C   UNL     1      -4.798   4.577   7.208  1.00  0.00     0.134 A 
ATOM      7  C   UNL     1      -3.577   5.091   7.662  1.00  0.00     0.093 A 
ATOM      8  C   UNL     1      -2.995   6.203   7.055  1.00  0.00     0.123 A 
ATOM      9  C   UNL     1      -3.637   6.823   5.982  1.00  0.00     0.094 A 
ATOM     10  C   UNL     1      -4.874   6.356   5.532  1.00  0.00     0.146 A 
ATOM     11  O   UNL     1      -5.456   6.981   4.517  1.00  0.00    -0.452 OA
ENDROOT
BRANCH   1  12
ATOM     12  C   UNL     1      -7.169   7.397   2.872  1.00  0.00     0.025 A 
ATOM     13  C   UNL     1      -7.695   8.683   3.076  1.00  0.00     0.016 A 
ATOM     14  C   UNL     1      -8.180   9.429   1.997  1.00  0.00     0.051 A 
ATOM     15  C   UNL     1      -8.134   8.909   0.701  1.00  0.00     0.157 A 
ATOM     16  C   UNL     1      -7.105   6.885   1.563  1.00  0.00     0.062 A 
ATOM     17  C   UNL     1      -7.591   7.632   0.480  1.00  0.00     0.158 A 
BRANCH  15  18
ATOM     18  O   UNL     1      -8.628   9.675  -0.355  1.00  0.00    -0.504 OA
ATOM     19  H   UNL     1      -9.610   9.907  -0.438  1.00  0.00     0.293 HD
ENDBRANCH  15  18
BRANCH  17  20
ATOM     20  O   UNL     1      -7.529   7.114  -0.812  1.00  0.00    -0.504 OA
ATOM     21  H   UNL     1      -7.389   7.712  -1.618  1.00  0.00     0.293 HD
ENDBRANCH  17  20
ENDBRANCH   1  12
BRANCH   2  22
ATOM     22  O   UNL     1      -8.648   5.273   4.173  1.00  0.00    -0.502 OA
ATOM     23  H   UNL     1      -9.164   4.472   4.517  1.00  0.00     0.293 HD
ENDBRANCH   2  22
BRANCH   6  24
ATOM     24  O   UNL     1      -5.248   3.404   7.823  1.00  0.00    -0.507 OA
ATOM     25  H   UNL     1      -4.683   2.583   7.975  1.00  0.00     0.293 HD
ENDBRANCH   6  24
BRANCH   8  26
ATOM     26  O   UNL     1      -1.770   6.678   7.521  1.00  0.00    -0.508 OA
ATOM     27  H   UNL     1      -1.395   7.567   7.213  1.00  0.00     0.293 HD
ENDBRANCH   8  26
TORSDOF 6
ENDMDL
MODEL 8
REMARK VINA RESULT:    -6.008      1.830      7.086
REMARK INTER + INTRA:          -7.546
REMARK INTER:                  -7.222
REMARK INTRA:                  -0.323
REMARK UNBOUND:                -0.308
REMARK SMILES O=c1c(O)c(-c2ccc(O)c(O)c2)oc2cc(O)cc(O)c12
REMARK SMILES IDX 5 1 3 2 2 3 1 4 22 5 20 6 19 7 17 8 16 9 15 10 14 11 6 12
REMARK SMILES IDX 7 13 8 14 9 15 13 16 11 17 10 18 12 20 4 22 21 24 18 26
REMARK H PARENT 10 19 12 21 4 23 21 25 18 27
REMARK Flexibility Score: inf
ROOT
ATOM      1  C   UNL     1      -5.327  -8.047   4.406  1.00  0.00     0.180 A 
ATOM      2  C   UNL     1      -6.642  -8.172   3.926  1.00  0.00     0.208 A 
ATOM      3  C   UNL     1      -7.713  -7.893   4.790  1.00  0.00     0.238 A 
ATOM      4  O   UNL     1      -8.885  -7.955   4.339  1.00  0.00    -0.285 OA
ATOM      5  C   UNL     1      -7.456  -7.507   6.128  1.00  0.00     0.111 A 
ATOM      6  C   UNL     1      -8.464  -7.240   7.102  1.00  0.00     0.134 A 
ATOM      7  C   UNL     1      -8.097  -6.739   8.357  1.00  0.00     0.093 A 
ATOM      8  C   UNL     1      -6.756  -6.559   8.696  1.00  0.00     0.123 A 
ATOM      9  C   UNL     1      -5.759  -6.875   7.772  1.00  0.00     0.094 A 
ATOM     10  C   UNL     1      -6.096  -7.342   6.499  1.00  0.00     0.146 A 
ATOM     11  O   UNL     1      -5.118  -7.620   5.647  1.00  0.00    -0.452 OA
ENDROOT
BRANCH   1  12
ATOM     12  C   UNL     1      -4.148  -8.348   3.563  1.00  0.00     0.025 A 
ATOM     13  C   UNL     1      -3.653  -9.661   3.513  1.00  0.00     0.016 A 
ATOM     14  C   UNL     1      -2.554  -9.973   2.707  1.00  0.00     0.051 A 
ATOM     15  C   UNL     1      -1.944  -8.984   1.931  1.00  0.00     0.157 A 
ATOM     16  C   UNL     1      -3.545  -7.359   2.765  1.00  0.00     0.062 A 
ATOM     17  C   UNL     1      -2.443  -7.671   1.955  1.00  0.00     0.158 A 
BRANCH  15  18
ATOM     18  O   UNL     1      -0.847  -9.324   1.138  1.00  0.00    -0.504 OA
ATOM     19  H   UNL     1       0.106  -9.228   1.468  1.00  0.00     0.293 HD
ENDBRANCH  15  18
BRANCH  17  20
ATOM     20  O   UNL     1      -1.848  -6.683   1.172  1.00  0.00    -0.504 OA
ATOM     21  H   UNL     1      -0.987  -6.853   0.666  1.00  0.00     0.293 HD
ENDBRANCH  17  20
ENDBRANCH   1  12
BRANCH   2  22
ATOM     22  O   UNL     1      -6.873  -8.533   2.595  1.00  0.00    -0.502 OA
ATOM     23  H   UNL     1      -7.739  -8.960   2.290  1.00  0.00     0.293 HD
ENDBRANCH   2  22
BRANCH   6  24
ATOM     24  O   UNL     1      -9.828  -7.472   6.897  1.00  0.00    -0.507 OA
ATOM     25  H   UNL     1     -10.218  -7.924   6.085  1.00  0.00     0.293 HD
ENDBRANCH   6  24
BRANCH   8  26
ATOM     26  O   UNL     1      -6.426  -6.074   9.960  1.00  0.00    -0.508 OA
ATOM     27  H   UNL     1      -6.551  -5.098  10.202  1.00  0.00     0.293 HD
ENDBRANCH   8  26
TORSDOF 6
ENDMDL
MODEL 9
REMARK VINA RESULT:    -4.407     16.354     18.042
REMARK INTER + INTRA:          -5.617
REMARK INTER:                  -5.394
REMARK INTRA:                  -0.223
REMARK UNBOUND:                -0.308
REMARK SMILES O=c1c(O)c(-c2ccc(O)c(O)c2)oc2cc(O)cc(O)c12
REMARK SMILES IDX 5 1 3 2 2 3 1 4 22 5 20 6 19 7 17 8 16 9 15 10 14 11 6 12
REMARK SMILES IDX 7 13 8 14 9 15 13 16 11 17 10 18 12 20 4 22 21 24 18 26
REMARK H PARENT 10 19 12 21 4 23 21 25 18 27
REMARK Flexibility Score: inf
ROOT
ATOM      1  C   UNL     1      -4.344   1.794  -8.482  1.00  0.00     0.180 A 
ATOM      2  C   UNL     1      -5.383   1.110  -9.137  1.00  0.00     0.208 A 
ATOM      3  C   UNL     1      -6.713   1.418  -8.811  1.00  0.00     0.238 A 
ATOM      4  O   UNL     1      -7.638   0.842  -9.440  1.00  0.00    -0.285 OA
ATOM      5  C   UNL     1      -6.989   2.395  -7.823  1.00  0.00     0.111 A 
ATOM      6  C   UNL     1      -8.297   2.757  -7.385  1.00  0.00     0.134 A 
ATOM      7  C   UNL     1      -8.456   3.828  -6.497  1.00  0.00     0.093 A 
ATOM      8  C   UNL     1      -7.352   4.505  -5.980  1.00  0.00     0.123 A 
ATOM      9  C   UNL     1      -6.064   4.119  -6.356  1.00  0.00     0.094 A 
ATOM     10  C   UNL     1      -5.875   3.078  -7.269  1.00  0.00     0.146 A 
ATOM     11  O   UNL     1      -4.635   2.750  -7.607  1.00  0.00    -0.452 OA
ENDROOT
BRANCH   1  12
ATOM     12  C   UNL     1      -2.917   1.506  -8.753  1.00  0.00     0.025 A 
ATOM     13  C   UNL     1      -2.111   2.497  -9.336  1.00  0.00     0.016 A 
ATOM     14  C   UNL     1      -0.757   2.253  -9.582  1.00  0.00     0.051 A 
ATOM     15  C   UNL     1      -0.186   1.026  -9.237  1.00  0.00     0.157 A 
ATOM     16  C   UNL     1      -2.335   0.278  -8.388  1.00  0.00     0.062 A 
ATOM     17  C   UNL     1      -0.976   0.033  -8.633  1.00  0.00     0.158 A 
BRANCH  15  18
ATOM     18  O   UNL     1       1.168   0.811  -9.497  1.00  0.00    -0.504 OA
ATOM     19  H   UNL     1       1.739   1.494  -9.980  1.00  0.00     0.293 HD
ENDBRANCH  15  18
BRANCH  17  20
ATOM     20  O   UNL     1      -0.408  -1.188  -8.274  1.00  0.00    -0.504 OA
ATOM     21  H   UNL     1      -0.976  -2.013  -8.122  1.00  0.00     0.293 HD
ENDBRANCH  17  20
ENDBRANCH   1  12
BRANCH   2  22
ATOM     22  O   UNL     1      -5.089   0.165 -10.125  1.00  0.00    -0.502 OA
ATOM     23  H   UNL     1      -5.763  -0.524 -10.435  1.00  0.00     0.293 HD
ENDBRANCH   2  22
BRANCH   6  24
ATOM     24  O   UNL     1      -9.463   2.087  -7.769  1.00  0.00    -0.507 OA
ATOM     25  H   UNL     1      -9.799   2.016  -8.717  1.00  0.00     0.293 HD
ENDBRANCH   6  24
BRANCH   8  26
ATOM     26  O   UNL     1      -7.546   5.556  -5.086  1.00  0.00    -0.508 OA
ATOM     27  H   UNL     1      -7.161   5.532  -4.149  1.00  0.00     0.293 HD
ENDBRANCH   8  26
TORSDOF 6
ENDMDL
