MODEL 1
REMARK VINA RESULT:    -3.624      0.000      0.000
REMARK INTER + INTRA:          -5.626
REMARK INTER:                  -5.531
REMARK INTRA:                  -0.094
REMARK UNBOUND:                -0.094
REMARK SMILES CC1=CCC[C@@H](C)C(=O)C[C@H](C(C)C)C(=O)C1
REMARK SMILES IDX 8 1 9 2 6 3 7 4 5 5 4 6 3 7 2 8 1 9 10 11 11 12 15 13 16 14
REMARK SMILES IDX 17 15 12 17 13 18 14 19
REMARK H PARENT
REMARK Flexibility Score: 70.00
ROOT
ATOM      1  C   UNL     1      21.164  25.712  28.952  1.00  0.00     0.136 C 
ATOM      2  O   UNL     1      22.304  25.269  28.909  1.00  0.00    -0.299 OA
ENDROOT
BRANCH   1   3
ATOM      3  C   UNL     1      20.023  24.945  28.307  1.00  0.00     0.053 C 
ATOM      4  C   UNL     1      20.078  25.000  26.773  1.00  0.00     0.016 C 
BRANCH   3   5
ATOM      5  C   UNL     1      18.655  25.409  28.847  1.00  0.00     0.015 C 
BRANCH   5   6
ATOM      6  C   UNL     1      17.918  26.397  27.919  1.00  0.00     0.028 C 
BRANCH   6   7
ATOM      7  C   UNL     1      17.131  27.408  28.715  1.00  0.00    -0.028 C 
ATOM      8  C   UNL     1      17.476  28.709  28.864  1.00  0.00    -0.070 CG0
ATOM      9  C   UNL     1      16.599  29.579  29.729  1.00  0.00     0.039 C 
ATOM     10  G   UNL     1      18.693  29.330  28.193  1.00  0.00     0.000 G0
ENDBRANCH   6   7
ENDBRANCH   5   6
ENDBRANCH   3   5
ENDBRANCH   1   3
BRANCH   1  11
ATOM     11  C   UNL     1      20.917  27.026  29.653  1.00  0.00     0.087 C 
BRANCH  11  12
ATOM     12  C   UNL     1      21.041  28.235  28.689  1.00  0.00     0.066 C 
BRANCH  12  13
ATOM     13  C   UNL     1      19.959  29.253  29.011  1.00  0.00     0.140 C 
ATOM     14  O   UNL     1      20.150  30.076  29.897  1.00  0.00    -0.299 OA
BRANCH  13  15
ATOM     15  C   UNL     1      18.702  29.329  28.180  1.00  0.00     0.106 CG0
ATOM     16  G   UNL     1      17.498  28.725  28.887  1.00  0.00     0.000 G0
ENDBRANCH  13  15
ENDBRANCH  12  13
BRANCH  12  17
ATOM     17  C   UNL     1      22.454  28.903  28.736  1.00  0.00    -0.006 C 
ATOM     18  C   UNL     1      23.097  28.818  30.134  1.00  0.00     0.008 C 
ATOM     19  C   UNL     1      23.410  28.259  27.714  1.00  0.00     0.008 C 
ENDBRANCH  12  17
ENDBRANCH  11  12
ENDBRANCH   1  11
TORSDOF 1
ENDMDL
MODEL 2
REMARK VINA RESULT:    -3.610      2.014      4.547
REMARK INTER + INTRA:          -5.603
REMARK INTER:                  -5.425
REMARK INTRA:                  -0.179
REMARK UNBOUND:                -0.094
REMARK SMILES CC1=CCC[C@@H](C)C(=O)C[C@H](C(C)C)C(=O)C1
REMARK SMILES IDX 8 1 9 2 6 3 7 4 5 5 4 6 3 7 2 8 1 9 10 11 11 12 15 13 16 14
REMARK SMILES IDX 17 15 12 17 13 18 14 19
REMARK H PARENT
REMARK Flexibility Score: 70.00
ROOT
ATOM      1  C   UNL     1      17.182  25.976  28.662  1.00  0.00     0.136 C 
ATOM      2  O   UNL     1      16.338  25.716  27.814  1.00  0.00    -0.299 OA
ENDROOT
BRANCH   1   3
ATOM      3  C   UNL     1      17.064  27.243  29.492  1.00  0.00     0.053 C 
ATOM      4  C   UNL     1      15.755  27.293  30.295  1.00  0.00     0.016 C 
BRANCH   3   5
ATOM      5  C   UNL     1      17.252  28.505  28.625  1.00  0.00     0.015 C 
BRANCH   5   6
ATOM      6  C   UNL     1      18.661  28.639  28.011  1.00  0.00     0.028 C 
BRANCH   6   7
ATOM      7  C   UNL     1      19.696  28.903  29.075  1.00  0.00    -0.028 C 
ATOM      8  C   UNL     1      20.865  28.230  29.197  1.00  0.00    -0.070 CG0
ATOM      9  C   UNL     1      21.774  28.591  30.345  1.00  0.00     0.039 C 
ATOM     10  G   UNL     1      21.304  27.141  28.228  1.00  0.00     0.000 G0
ENDBRANCH   6   7
ENDBRANCH   5   6
ENDBRANCH   3   5
ENDBRANCH   1   3
BRANCH   1  11
ATOM     11  C   UNL     1      18.332  25.020  28.864  1.00  0.00     0.087 C 
BRANCH  11  12
ATOM     12  C   UNL     1      19.477  25.261  27.846  1.00  0.00     0.066 C 
BRANCH  12  13
ATOM     13  C   UNL     1      20.707  25.775  28.578  1.00  0.00     0.140 C 
ATOM     14  O   UNL     1      21.270  25.053  29.391  1.00  0.00    -0.299 OA
BRANCH  13  15
ATOM     15  C   UNL     1      21.302  27.117  28.234  1.00  0.00     0.106 CG0
ATOM     16  G   UNL     1      20.855  28.215  29.189  1.00  0.00     0.000 G0
ENDBRANCH  13  15
ENDBRANCH  12  13
BRANCH  12  17
ATOM     17  C   UNL     1      19.828  23.982  27.017  1.00  0.00    -0.006 C 
ATOM     18  C   UNL     1      18.583  23.338  26.376  1.00  0.00     0.008 C 
ATOM     19  C   UNL     1      20.846  24.300  25.905  1.00  0.00     0.008 C 
ENDBRANCH  12  17
ENDBRANCH  11  12
ENDBRANCH   1  11
TORSDOF 1
ENDMDL
MODEL 3
REMARK VINA RESULT:    -3.591      1.949      4.363
REMARK INTER + INTRA:          -5.575
REMARK INTER:                  -5.277
REMARK INTRA:                  -0.297
REMARK UNBOUND:                -0.094
REMARK SMILES CC1=CCC[C@@H](C)C(=O)C[C@H](C(C)C)C(=O)C1
REMARK SMILES IDX 8 1 9 2 6 3 7 4 5 5 4 6 3 7 2 8 1 9 10 11 11 12 15 13 16 14
REMARK SMILES IDX 17 15 12 17 13 18 14 19
REMARK H PARENT
REMARK Flexibility Score: 70.00
ROOT
ATOM      1  C   UNL     1      18.800  25.058  27.247  1.00  0.00     0.136 C 
ATOM      2  O   UNL     1      18.188  23.999  27.297  1.00  0.00    -0.299 OA
ENDROOT
BRANCH   1   3
ATOM      3  C   UNL     1      20.312  25.059  27.098  1.00  0.00     0.053 C 
ATOM      4  C   UNL     1      20.771  24.346  25.817  1.00  0.00     0.016 C 
BRANCH   3   5
ATOM      5  C   UNL     1      21.003  24.484  28.351  1.00  0.00     0.015 C 
BRANCH   5   6
ATOM      6  C   UNL     1      20.983  25.432  29.568  1.00  0.00     0.028 C 
BRANCH   6   7
ATOM      7  C   UNL     1      21.470  26.809  29.194  1.00  0.00    -0.028 C 
ATOM      8  C   UNL     1      20.790  27.957  29.428  1.00  0.00    -0.070 CG0
ATOM      9  C   UNL     1      21.402  29.251  28.953  1.00  0.00     0.039 C 
ATOM     10  G   UNL     1      19.452  27.999  30.152  1.00  0.00     0.000 G0
ENDBRANCH   6   7
ENDBRANCH   5   6
ENDBRANCH   3   5
ENDBRANCH   1   3
BRANCH   1  11
ATOM     11  C   UNL     1      18.028  26.352  27.336  1.00  0.00     0.087 C 
BRANCH  11  12
ATOM     12  C   UNL     1      17.611  26.685  28.792  1.00  0.00     0.066 C 
BRANCH  12  13
ATOM     13  C   UNL     1      18.252  27.997  29.216  1.00  0.00     0.140 C 
ATOM     14  O   UNL     1      17.754  29.055  28.856  1.00  0.00    -0.299 OA
BRANCH  13  15
ATOM     15  C   UNL     1      19.427  28.008  30.163  1.00  0.00     0.106 CG0
ATOM     16  G   UNL     1      20.762  27.949  29.436  1.00  0.00     0.000 G0
ENDBRANCH  13  15
ENDBRANCH  12  13
BRANCH  12  17
ATOM     17  C   UNL     1      16.059  26.749  28.976  1.00  0.00    -0.006 C 
ATOM     18  C   UNL     1      15.348  25.511  28.397  1.00  0.00     0.008 C 
ATOM     19  C   UNL     1      15.680  26.884  30.463  1.00  0.00     0.008 C 
ENDBRANCH  12  17
ENDBRANCH  11  12
ENDBRANCH   1  11
TORSDOF 1
ENDMDL
MODEL 4
REMARK VINA RESULT:    -3.505      3.312      4.686
REMARK INTER + INTRA:          -5.443
REMARK INTER:                  -5.085
REMARK INTRA:                  -0.358
REMARK UNBOUND:                -0.094
REMARK SMILES CC1=CCC[C@@H](C)C(=O)C[C@H](C(C)C)C(=O)C1
REMARK SMILES IDX 8 1 9 2 6 3 7 4 5 5 4 6 3 7 2 8 1 9 10 11 11 12 15 13 16 14
REMARK SMILES IDX 17 15 12 17 13 18 14 19
REMARK H PARENT
REMARK Flexibility Score: 70.00
ROOT
ATOM      1  C   UNL     1      17.985  26.925  28.154  1.00  0.00     0.136 C 
ATOM      2  O   UNL     1      17.988  27.575  27.117  1.00  0.00    -0.299 OA
ENDROOT
BRANCH   1   3
ATOM      3  C   UNL     1      18.046  25.408  28.104  1.00  0.00     0.053 C 
ATOM      4  C   UNL     1      19.391  24.897  27.563  1.00  0.00     0.016 C 
BRANCH   3   5
ATOM      5  C   UNL     1      16.855  24.820  27.319  1.00  0.00     0.015 C 
BRANCH   5   6
ATOM      6  C   UNL     1      15.478  25.157  27.926  1.00  0.00     0.028 C 
BRANCH   6   7
ATOM      7  C   UNL     1      15.334  24.574  29.309  1.00  0.00    -0.028 C 
ATOM      8  C   UNL     1      14.970  25.277  30.409  1.00  0.00    -0.070 CG0
ATOM      9  C   UNL     1      14.914  24.548  31.728  1.00  0.00     0.039 C 
ATOM     10  G   UNL     1      14.609  26.755  30.370  1.00  0.00     0.000 G0
ENDBRANCH   6   7
ENDBRANCH   5   6
ENDBRANCH   3   5
ENDBRANCH   1   3
BRANCH   1  11
ATOM     11  C   UNL     1      17.919  27.655  29.473  1.00  0.00     0.087 C 
BRANCH  11  12
ATOM     12  C   UNL     1      16.558  28.371  29.677  1.00  0.00     0.066 C 
BRANCH  12  13
ATOM     13  C   UNL     1      15.766  27.655  30.760  1.00  0.00     0.140 C 
ATOM     14  O   UNL     1      16.022  27.873  31.937  1.00  0.00    -0.299 OA
BRANCH  13  15
ATOM     15  C   UNL     1      14.600  26.768  30.401  1.00  0.00     0.106 CG0
ATOM     16  G   UNL     1      14.967  25.291  30.405  1.00  0.00     0.000 G0
ENDBRANCH  13  15
ENDBRANCH  12  13
BRANCH  12  17
ATOM     17  C   UNL     1      16.719  29.886  30.027  1.00  0.00    -0.006 C 
ATOM     18  C   UNL     1      17.945  30.520  29.342  1.00  0.00     0.008 C 
ATOM     19  C   UNL     1      15.464  30.687  29.628  1.00  0.00     0.008 C 
ENDBRANCH  12  17
ENDBRANCH  11  12
ENDBRANCH   1  11
TORSDOF 1
ENDMDL
MODEL 5
REMARK VINA RESULT:    -3.460      2.493      5.135
REMARK INTER + INTRA:          -5.375
REMARK INTER:                  -5.236
REMARK INTRA:                  -0.139
REMARK UNBOUND:                -0.094
REMARK SMILES CC1=CCC[C@@H](C)C(=O)C[C@H](C(C)C)C(=O)C1
REMARK SMILES IDX 8 1 9 2 6 3 7 4 5 5 4 6 3 7 2 8 1 9 10 11 11 12 15 13 16 14
REMARK SMILES IDX 17 15 12 17 13 18 14 19
REMARK H PARENT
REMARK Flexibility Score: 70.00
ROOT
ATOM      1  C   UNL     1      24.178  28.482  29.067  1.00  0.00     0.136 C 
ATOM      2  O   UNL     1      24.714  27.398  29.260  1.00  0.00    -0.299 OA
ENDROOT
BRANCH   1   3
ATOM      3  C   UNL     1      24.827  29.755  29.582  1.00  0.00     0.053 C 
ATOM      4  C   UNL     1      26.121  30.096  28.827  1.00  0.00     0.016 C 
BRANCH   3   5
ATOM      5  C   UNL     1      25.054  29.696  31.106  1.00  0.00     0.015 C 
BRANCH   5   6
ATOM      6  C   UNL     1      23.819  30.098  31.940  1.00  0.00     0.028 C 
BRANCH   6   7
ATOM      7  C   UNL     1      23.147  31.319  31.364  1.00  0.00    -0.028 C 
ATOM      8  C   UNL     1      21.889  31.343  30.863  1.00  0.00    -0.070 CG0
ATOM      9  C   UNL     1      21.381  32.640  30.286  1.00  0.00     0.039 C 
ATOM     10  G   UNL     1      20.970  30.130  30.864  1.00  0.00     0.000 G0
ENDBRANCH   6   7
ENDBRANCH   5   6
ENDBRANCH   3   5
ENDBRANCH   1   3
BRANCH   1  11
ATOM     11  C   UNL     1      22.872  28.527  28.312  1.00  0.00     0.087 C 
BRANCH  11  12
ATOM     12  C   UNL     1      21.661  28.192  29.222  1.00  0.00     0.066 C 
BRANCH  12  13
ATOM     13  C   UNL     1      20.872  29.461  29.504  1.00  0.00     0.140 C 
ATOM     14  O   UNL     1      20.102  29.892  28.657  1.00  0.00    -0.299 OA
BRANCH  13  15
ATOM     15  C   UNL     1      20.948  30.129  30.855  1.00  0.00     0.106 CG0
ATOM     16  G   UNL     1      21.883  31.330  30.860  1.00  0.00     0.000 G0
ENDBRANCH  13  15
ENDBRANCH  12  13
BRANCH  12  17
ATOM     17  C   UNL     1      20.731  27.094  28.609  1.00  0.00    -0.006 C 
ATOM     18  C   UNL     1      21.445  25.737  28.458  1.00  0.00     0.008 C 
ATOM     19  C   UNL     1      19.466  26.892  29.466  1.00  0.00     0.008 C 
ENDBRANCH  12  17
ENDBRANCH  11  12
ENDBRANCH   1  11
TORSDOF 1
ENDMDL
MODEL 6
REMARK VINA RESULT:    -3.383      1.990      4.341
REMARK INTER + INTRA:          -5.258
REMARK INTER:                  -4.965
REMARK INTRA:                  -0.292
REMARK UNBOUND:                -0.094
REMARK SMILES CC1=CCC[C@@H](C)C(=O)C[C@H](C(C)C)C(=O)C1
REMARK SMILES IDX 8 1 9 2 6 3 7 4 5 5 4 6 3 7 2 8 1 9 10 11 11 12 15 13 16 14
REMARK SMILES IDX 17 15 12 17 13 18 14 19
REMARK H PARENT
REMARK Flexibility Score: 70.00
ROOT
ATOM      1  C   UNL     1      19.088  25.054  27.628  1.00  0.00     0.136 C 
ATOM      2  O   UNL     1      18.713  23.992  27.147  1.00  0.00    -0.299 OA
ENDROOT
BRANCH   1   3
ATOM      3  C   UNL     1      20.485  25.176  28.210  1.00  0.00     0.053 C 
ATOM      4  C   UNL     1      20.518  24.869  29.715  1.00  0.00     0.016 C 
BRANCH   3   5
ATOM      5  C   UNL     1      21.111  26.550  27.894  1.00  0.00     0.015 C 
BRANCH   5   6
ATOM      6  C   UNL     1      21.316  27.445  29.133  1.00  0.00     0.028 C 
BRANCH   6   7
ATOM      7  C   UNL     1      20.728  28.817  28.918  1.00  0.00    -0.028 C 
ATOM      8  C   UNL     1      19.520  29.219  29.379  1.00  0.00    -0.070 CG0
ATOM      9  C   UNL     1      19.062  30.615  29.040  1.00  0.00     0.039 C 
ATOM     10  G   UNL     1      18.616  28.335  30.227  1.00  0.00     0.000 G0
ENDBRANCH   6   7
ENDBRANCH   5   6
ENDBRANCH   3   5
ENDBRANCH   1   3
BRANCH   1  11
ATOM     11  C   UNL     1      18.140  26.229  27.631  1.00  0.00     0.087 C 
BRANCH  11  12
ATOM     12  C   UNL     1      17.381  26.363  28.976  1.00  0.00     0.066 C 
BRANCH  12  13
ATOM     13  C   UNL     1      17.420  27.811  29.439  1.00  0.00     0.140 C 
ATOM     14  O   UNL     1      16.446  28.529  29.256  1.00  0.00    -0.299 OA
BRANCH  13  15
ATOM     15  C   UNL     1      18.602  28.339  30.214  1.00  0.00     0.106 CG0
ATOM     16  G   UNL     1      19.504  29.227  29.369  1.00  0.00     0.000 G0
ENDBRANCH  13  15
ENDBRANCH  12  13
BRANCH  12  17
ATOM     17  C   UNL     1      15.904  25.856  28.889  1.00  0.00    -0.006 C 
ATOM     18  C   UNL     1      15.516  25.422  27.463  1.00  0.00     0.008 C 
ATOM     19  C   UNL     1      15.663  24.673  29.846  1.00  0.00     0.008 C 
ENDBRANCH  12  17
ENDBRANCH  11  12
ENDBRANCH   1  11
TORSDOF 1
ENDMDL
MODEL 7
REMARK VINA RESULT:    -3.357      2.402      4.348
REMARK INTER + INTRA:          -5.218
REMARK INTER:                  -4.882
REMARK INTRA:                  -0.336
REMARK UNBOUND:                -0.094
REMARK SMILES CC1=CCC[C@@H](C)C(=O)C[C@H](C(C)C)C(=O)C1
REMARK SMILES IDX 8 1 9 2 6 3 7 4 5 5 4 6 3 7 2 8 1 9 10 11 11 12 15 13 16 14
REMARK SMILES IDX 17 15 12 17 13 18 14 19
REMARK H PARENT
REMARK Flexibility Score: 70.00
ROOT
ATOM      1  C   UNL     1      19.724  29.680  29.813  1.00  0.00     0.136 C 
ATOM      2  O   UNL     1      20.549  30.349  29.204  1.00  0.00    -0.299 OA
ENDROOT
BRANCH   1   3
ATOM      3  C   UNL     1      19.695  28.170  29.648  1.00  0.00     0.053 C 
ATOM      4  C   UNL     1      21.028  27.516  30.041  1.00  0.00     0.016 C 
BRANCH   3   5
ATOM      5  C   UNL     1      19.258  27.766  28.226  1.00  0.00     0.015 C 
BRANCH   5   6
ATOM      6  C   UNL     1      17.728  27.714  28.031  1.00  0.00     0.028 C 
BRANCH   6   7
ATOM      7  C   UNL     1      17.051  27.064  29.212  1.00  0.00    -0.028 C 
ATOM      8  C   UNL     1      16.107  27.658  29.982  1.00  0.00    -0.070 CG0
ATOM      9  C   UNL     1      15.559  26.882  31.152  1.00  0.00     0.039 C 
ATOM     10  G   UNL     1      15.573  29.057  29.713  1.00  0.00     0.000 G0
ENDBRANCH   6   7
ENDBRANCH   5   6
ENDBRANCH   3   5
ENDBRANCH   1   3
BRANCH   1  11
ATOM     11  C   UNL     1      18.744  30.381  30.723  1.00  0.00     0.087 C 
BRANCH  11  12
ATOM     12  C   UNL     1      17.474  30.846  29.965  1.00  0.00     0.066 C 
BRANCH  12  13
ATOM     13  C   UNL     1      16.257  30.125  30.523  1.00  0.00     0.140 C 
ATOM     14  O   UNL     1      15.794  30.470  31.602  1.00  0.00    -0.299 OA
BRANCH  13  15
ATOM     15  C   UNL     1      15.552  29.066  29.712  1.00  0.00     0.106 CG0
ATOM     16  G   UNL     1      16.093  27.669  29.982  1.00  0.00     0.000 G0
ENDBRANCH  13  15
ENDBRANCH  12  13
BRANCH  12  17
ATOM     17  C   UNL     1      17.268  32.395  30.026  1.00  0.00    -0.006 C 
ATOM     18  C   UNL     1      18.599  33.168  29.949  1.00  0.00     0.008 C 
ATOM     19  C   UNL     1      16.349  32.881  28.888  1.00  0.00     0.008 C 
ENDBRANCH  12  17
ENDBRANCH  11  12
ENDBRANCH   1  11
TORSDOF 1
ENDMDL
MODEL 8
REMARK VINA RESULT:    -3.319      1.798      3.888
REMARK INTER + INTRA:          -5.160
REMARK INTER:                  -5.003
REMARK INTRA:                  -0.157
REMARK UNBOUND:                -0.094
REMARK SMILES CC1=CCC[C@@H](C)C(=O)C[C@H](C(C)C)C(=O)C1
REMARK SMILES IDX 8 1 9 2 6 3 7 4 5 5 4 6 3 7 2 8 1 9 10 11 11 12 15 13 16 14
REMARK SMILES IDX 17 15 12 17 13 18 14 19
REMARK H PARENT
REMARK Flexibility Score: 70.00
ROOT
ATOM      1  C   UNL     1      20.746  28.955  30.107  1.00  0.00     0.136 C 
ATOM      2  O   UNL     1      21.222  30.082  30.089  1.00  0.00    -0.299 OA
ENDROOT
BRANCH   1   3
ATOM      3  C   UNL     1      21.608  27.757  29.744  1.00  0.00     0.053 C 
ATOM      4  C   UNL     1      22.327  27.944  28.399  1.00  0.00     0.016 C 
BRANCH   3   5
ATOM      5  C   UNL     1      20.797  26.446  29.781  1.00  0.00     0.015 C 
BRANCH   5   6
ATOM      6  C   UNL     1      20.401  25.914  28.387  1.00  0.00     0.028 C 
BRANCH   6   7
ATOM      7  C   UNL     1      19.033  25.282  28.414  1.00  0.00    -0.028 C 
ATOM      8  C   UNL     1      17.874  25.941  28.171  1.00  0.00    -0.070 CG0
ATOM      9  C   UNL     1      16.584  25.168  28.279  1.00  0.00     0.039 C 
ATOM     10  G   UNL     1      17.818  27.413  27.787  1.00  0.00     0.000 G0
ENDBRANCH   6   7
ENDBRANCH   5   6
ENDBRANCH   3   5
ENDBRANCH   1   3
BRANCH   1  11
ATOM     11  C   UNL     1      19.298  28.779  30.494  1.00  0.00     0.087 C 
BRANCH  11  12
ATOM     12  C   UNL     1      18.335  29.387  29.441  1.00  0.00     0.066 C 
BRANCH  12  13
ATOM     13  C   UNL     1      17.394  28.306  28.932  1.00  0.00     0.140 C 
ATOM     14  O   UNL     1      16.267  28.218  29.402  1.00  0.00    -0.299 OA
BRANCH  13  15
ATOM     15  C   UNL     1      17.795  27.417  27.782  1.00  0.00     0.106 CG0
ATOM     16  G   UNL     1      17.873  25.949  28.179  1.00  0.00     0.000 G0
ENDBRANCH  13  15
ENDBRANCH  12  13
BRANCH  12  17
ATOM     17  C   UNL     1      17.523  30.603  29.996  1.00  0.00    -0.006 C 
ATOM     18  C   UNL     1      17.585  30.698  31.533  1.00  0.00     0.008 C 
ATOM     19  C   UNL     1      18.030  31.930  29.400  1.00  0.00     0.008 C 
ENDBRANCH  12  17
ENDBRANCH  11  12
ENDBRANCH   1  11
TORSDOF 1
ENDMDL
MODEL 9
REMARK VINA RESULT:    -3.305      3.243      5.710
REMARK INTER + INTRA:          -5.139
REMARK INTER:                  -4.862
REMARK INTRA:                  -0.277
REMARK UNBOUND:                -0.094
REMARK SMILES CC1=CCC[C@@H](C)C(=O)C[C@H](C(C)C)C(=O)C1
REMARK SMILES IDX 8 1 9 2 6 3 7 4 5 5 4 6 3 7 2 8 1 9 10 11 11 12 15 13 16 14
REMARK SMILES IDX 17 15 12 17 13 18 14 19
REMARK H PARENT
REMARK Flexibility Score: 70.00
ROOT
ATOM      1  C   UNL     1      19.523  29.389  29.606  1.00  0.00     0.136 C 
ATOM      2  O   UNL     1      18.910  28.562  30.267  1.00  0.00    -0.299 OA
ENDROOT
BRANCH   1   3
ATOM      3  C   UNL     1      21.027  29.265  29.434  1.00  0.00     0.053 C 
ATOM      4  C   UNL     1      21.422  28.003  28.653  1.00  0.00     0.016 C 
BRANCH   3   5
ATOM      5  C   UNL     1      21.759  29.351  30.789  1.00  0.00     0.015 C 
BRANCH   5   6
ATOM      6  C   UNL     1      21.484  30.653  31.569  1.00  0.00     0.028 C 
BRANCH   6   7
ATOM      7  C   UNL     1      22.066  31.848  30.857  1.00  0.00    -0.028 C 
ATOM      8  C   UNL     1      21.386  32.985  30.576  1.00  0.00    -0.070 CG0
ATOM      9  C   UNL     1      22.107  34.072  29.819  1.00  0.00     0.039 C 
ATOM     10  G   UNL     1      19.942  33.217  30.996  1.00  0.00     0.000 G0
ENDBRANCH   6   7
ENDBRANCH   5   6
ENDBRANCH   3   5
ENDBRANCH   1   3
BRANCH   1  11
ATOM     11  C   UNL     1      18.760  30.526  28.969  1.00  0.00     0.087 C 
BRANCH  11  12
ATOM     12  C   UNL     1      18.193  31.511  30.024  1.00  0.00     0.066 C 
BRANCH  12  13
ATOM     13  C   UNL     1      18.944  32.831  29.940  1.00  0.00     0.140 C 
ATOM     14  O   UNL     1      18.675  33.621  29.045  1.00  0.00    -0.299 OA
BRANCH  13  15
ATOM     15  C   UNL     1      19.936  33.220  31.007  1.00  0.00     0.106 CG0
ATOM     16  G   UNL     1      21.378  32.993  30.575  1.00  0.00     0.000 G0
ENDBRANCH  13  15
ENDBRANCH  12  13
BRANCH  12  17
ATOM     17  C   UNL     1      16.655  31.746  29.866  1.00  0.00    -0.006 C 
ATOM     18  C   UNL     1      15.866  30.425  29.783  1.00  0.00     0.008 C 
ATOM     19  C   UNL     1      16.096  32.581  31.033  1.00  0.00     0.008 C 
ENDBRANCH  12  17
ENDBRANCH  11  12
ENDBRANCH   1  11
TORSDOF 1
ENDMDL
