MODEL 1
REMARK VINA RESULT:    -4.613      0.000      0.000
REMARK INTER + INTRA:          -9.198
REMARK INTER:                  -7.848
REMARK INTRA:                  -1.349
REMARK UNBOUND:                -1.349
REMARK SMILES CCCCCCCCCCCCCC(=O)[O-]
REMARK SMILES IDX 8 1 9 2 10 3 11 4 12 5 13 6 14 7 15 8 16 9 7 10 6 11 5 12
REMARK SMILES IDX 4 13 3 14 2 15 1 16
REMARK H PARENT
REMARK Flexibility Score: inf
ROOT
ATOM      1  C   UNL     1     -19.243 -23.563  13.012  1.00  0.00     0.000 C 
ENDROOT
BRANCH   1   2
ATOM      2  C   UNL     1     -18.396 -24.547  12.182  1.00  0.00     0.000 C 
BRANCH   2   3
ATOM      3  C   UNL     1     -19.165 -25.330  11.100  1.00  0.00     0.000 C 
BRANCH   3   4
ATOM      4  C   UNL     1     -18.520 -25.225   9.709  1.00  0.00     0.000 C 
BRANCH   4   5
ATOM      5  C   UNL     1     -17.668 -26.455   9.360  1.00  0.00     0.006 C 
BRANCH   5   6
ATOM      6  C   UNL     1     -16.163 -26.153   9.361  1.00  0.00     0.053 C 
BRANCH   6   7
ATOM      7  C   UNL     1     -15.593 -26.342   7.991  1.00  0.00     0.041 C 
ATOM      8  O   UNL     1     -15.754 -27.433   7.382  1.00  0.00    -0.550 OA
ATOM      9  O   UNL     1     -14.925 -25.297   7.366  1.00  0.00    -0.550 OA
ENDBRANCH   6   7
ENDBRANCH   5   6
ENDBRANCH   4   5
ENDBRANCH   3   4
ENDBRANCH   2   3
ENDBRANCH   1   2
BRANCH   1  10
ATOM     10  C   UNL     1     -20.043 -22.578  12.143  1.00  0.00     0.000 C 
BRANCH  10  11
ATOM     11  C   UNL     1     -19.219 -21.350  11.714  1.00  0.00    -0.000 C 
BRANCH  11  12
ATOM     12  C   UNL     1     -19.424 -20.897  10.257  1.00  0.00    -0.000 C 
BRANCH  12  13
ATOM     13  C   UNL     1     -20.042 -21.987   9.368  1.00  0.00    -0.000 C 
BRANCH  13  14
ATOM     14  C   UNL     1     -21.229 -21.435   8.566  1.00  0.00    -0.000 C 
BRANCH  14  15
ATOM     15  C   UNL     1     -22.459 -22.354   8.622  1.00  0.00    -0.003 C 
ATOM     16  C   UNL     1     -22.194 -23.651   9.385  1.00  0.00     0.004 C 
ENDBRANCH  14  15
ENDBRANCH  13  14
ENDBRANCH  12  13
ENDBRANCH  11  12
ENDBRANCH  10  11
ENDBRANCH   1  10
TORSDOF 12
ENDMDL
MODEL 2
REMARK VINA RESULT:    -4.579      5.850      8.124
REMARK INTER + INTRA:          -9.140
REMARK INTER:                  -7.765
REMARK INTRA:                  -1.375
REMARK UNBOUND:                -1.349
REMARK SMILES CCCCCCCCCCCCCC(=O)[O-]
REMARK SMILES IDX 8 1 9 2 10 3 11 4 12 5 13 6 14 7 15 8 16 9 7 10 6 11 5 12
REMARK SMILES IDX 4 13 3 14 2 15 1 16
REMARK H PARENT
REMARK Flexibility Score: inf
ROOT
ATOM      1  C   UNL     1     -20.601 -24.170  13.544  1.00  0.00     0.000 C 
ENDROOT
BRANCH   1   2
ATOM      2  C   UNL     1     -20.230 -24.668  14.954  1.00  0.00     0.000 C 
BRANCH   2   3
ATOM      3  C   UNL     1     -20.315 -26.192  15.159  1.00  0.00     0.000 C 
BRANCH   3   4
ATOM      4  C   UNL     1     -20.578 -26.588  16.621  1.00  0.00     0.000 C 
BRANCH   4   5
ATOM      5  C   UNL     1     -21.948 -26.107  17.124  1.00  0.00     0.006 C 
BRANCH   5   6
ATOM      6  C   UNL     1     -23.085 -27.069  16.755  1.00  0.00     0.053 C 
BRANCH   6   7
ATOM      7  C   UNL     1     -22.970 -28.338  17.539  1.00  0.00     0.041 C 
ATOM      8  O   UNL     1     -23.249 -28.352  18.767  1.00  0.00    -0.550 OA
ATOM      9  O   UNL     1     -22.600 -29.516  16.903  1.00  0.00    -0.550 OA
ENDBRANCH   6   7
ENDBRANCH   5   6
ENDBRANCH   4   5
ENDBRANCH   3   4
ENDBRANCH   2   3
ENDBRANCH   1   2
BRANCH   1  10
ATOM     10  C   UNL     1     -19.742 -22.982  13.080  1.00  0.00     0.000 C 
BRANCH  10  11
ATOM     11  C   UNL     1     -18.872 -23.312  11.853  1.00  0.00    -0.000 C 
BRANCH  11  12
ATOM     12  C   UNL     1     -18.413 -24.778  11.748  1.00  0.00    -0.000 C 
BRANCH  12  13
ATOM     13  C   UNL     1     -17.057 -25.033  12.423  1.00  0.00    -0.000 C 
BRANCH  13  14
ATOM     14  C   UNL     1     -17.134 -26.237  13.374  1.00  0.00    -0.000 C 
BRANCH  14  15
ATOM     15  C   UNL     1     -16.488 -25.955  14.739  1.00  0.00    -0.003 C 
ATOM     16  C   UNL     1     -16.523 -27.166  15.670  1.00  0.00     0.004 C 
ENDBRANCH  14  15
ENDBRANCH  13  14
ENDBRANCH  12  13
ENDBRANCH  11  12
ENDBRANCH  10  11
ENDBRANCH   1  10
TORSDOF 12
ENDMDL
MODEL 3
REMARK VINA RESULT:    -4.545      1.757      2.658
REMARK INTER + INTRA:          -9.083
REMARK INTER:                  -7.655
REMARK INTRA:                  -1.428
REMARK UNBOUND:                -1.349
REMARK SMILES CCCCCCCCCCCCCC(=O)[O-]
REMARK SMILES IDX 8 1 9 2 10 3 11 4 12 5 13 6 14 7 15 8 16 9 7 10 6 11 5 12
REMARK SMILES IDX 4 13 3 14 2 15 1 16
REMARK H PARENT
REMARK Flexibility Score: inf
ROOT
ATOM      1  C   UNL     1     -19.209 -24.327  14.674  1.00  0.00     0.000 C 
ENDROOT
BRANCH   1   2
ATOM      2  C   UNL     1     -18.280 -25.509  15.012  1.00  0.00     0.000 C 
BRANCH   2   3
ATOM      3  C   UNL     1     -17.735 -26.287  13.800  1.00  0.00     0.000 C 
BRANCH   3   4
ATOM      4  C   UNL     1     -16.810 -25.441  12.909  1.00  0.00     0.000 C 
BRANCH   4   5
ATOM      5  C   UNL     1     -17.024 -25.713  11.412  1.00  0.00     0.006 C 
BRANCH   5   6
ATOM      6  C   UNL     1     -15.715 -26.020  10.672  1.00  0.00     0.053 C 
BRANCH   6   7
ATOM      7  C   UNL     1     -15.900 -27.180   9.745  1.00  0.00     0.041 C 
ATOM      8  O   UNL     1     -16.583 -28.175  10.105  1.00  0.00    -0.550 OA
ATOM      9  O   UNL     1     -15.358 -27.142   8.467  1.00  0.00    -0.550 OA
ENDBRANCH   6   7
ENDBRANCH   5   6
ENDBRANCH   4   5
ENDBRANCH   3   4
ENDBRANCH   2   3
ENDBRANCH   1   2
BRANCH   1  10
ATOM     10  C   UNL     1     -20.426 -24.743  13.830  1.00  0.00     0.000 C 
BRANCH  10  11
ATOM     11  C   UNL     1     -20.802 -23.698  12.764  1.00  0.00    -0.000 C 
BRANCH  11  12
ATOM     12  C   UNL     1     -19.918 -22.438  12.736  1.00  0.00    -0.000 C 
BRANCH  12  13
ATOM     13  C   UNL     1     -18.996 -22.376  11.510  1.00  0.00    -0.000 C 
BRANCH  13  14
ATOM     14  C   UNL     1     -19.584 -23.176  10.339  1.00  0.00    -0.000 C 
BRANCH  14  15
ATOM     15  C   UNL     1     -19.742 -22.332   9.065  1.00  0.00    -0.003 C 
ATOM     16  C   UNL     1     -21.141 -21.734   8.922  1.00  0.00     0.004 C 
ENDBRANCH  14  15
ENDBRANCH  13  14
ENDBRANCH  12  13
ENDBRANCH  11  12
ENDBRANCH  10  11
ENDBRANCH   1  10
TORSDOF 12
ENDMDL
MODEL 4
REMARK VINA RESULT:    -4.528      8.388      9.571
REMARK INTER + INTRA:          -9.054
REMARK INTER:                  -7.818
REMARK INTRA:                  -1.235
REMARK UNBOUND:                -1.349
REMARK SMILES CCCCCCCCCCCCCC(=O)[O-]
REMARK SMILES IDX 8 1 9 2 10 3 11 4 12 5 13 6 14 7 15 8 16 9 7 10 6 11 5 12
REMARK SMILES IDX 4 13 3 14 2 15 1 16
REMARK H PARENT
REMARK Flexibility Score: inf
ROOT
ATOM      1  C   UNL     1     -23.640 -29.324   3.339  1.00  0.00     0.000 C 
ENDROOT
BRANCH   1   2
ATOM      2  C   UNL     1     -22.857 -30.640   3.511  1.00  0.00     0.000 C 
BRANCH   2   3
ATOM      3  C   UNL     1     -22.133 -30.805   4.861  1.00  0.00     0.000 C 
BRANCH   3   4
ATOM      4  C   UNL     1     -22.905 -31.691   5.852  1.00  0.00     0.000 C 
BRANCH   4   5
ATOM      5  C   UNL     1     -22.434 -31.501   7.302  1.00  0.00     0.006 C 
BRANCH   5   6
ATOM      6  C   UNL     1     -22.524 -32.791   8.128  1.00  0.00     0.053 C 
BRANCH   6   7
ATOM      7  C   UNL     1     -21.883 -32.598   9.467  1.00  0.00     0.041 C 
ATOM      8  O   UNL     1     -22.126 -33.401  10.406  1.00  0.00    -0.550 OA
ATOM      9  O   UNL     1     -20.980 -31.562   9.662  1.00  0.00    -0.550 OA
ENDBRANCH   6   7
ENDBRANCH   5   6
ENDBRANCH   4   5
ENDBRANCH   3   4
ENDBRANCH   2   3
ENDBRANCH   1   2
BRANCH   1  10
ATOM     10  C   UNL     1     -23.286 -28.271   4.403  1.00  0.00     0.000 C 
BRANCH  10  11
ATOM     11  C   UNL     1     -24.513 -27.780   5.194  1.00  0.00    -0.000 C 
BRANCH  11  12
ATOM     12  C   UNL     1     -25.732 -28.720   5.167  1.00  0.00    -0.000 C 
BRANCH  12  13
ATOM     13  C   UNL     1     -25.909 -29.514   6.469  1.00  0.00    -0.000 C 
BRANCH  13  14
ATOM     14  C   UNL     1     -27.366 -29.458   6.953  1.00  0.00    -0.000 C 
BRANCH  14  15
ATOM     15  C   UNL     1     -27.555 -28.522   8.156  1.00  0.00    -0.003 C 
ATOM     16  C   UNL     1     -26.255 -28.270   8.918  1.00  0.00     0.004 C 
ENDBRANCH  14  15
ENDBRANCH  13  14
ENDBRANCH  12  13
ENDBRANCH  11  12
ENDBRANCH  10  11
ENDBRANCH   1  10
TORSDOF 12
ENDMDL
MODEL 5
REMARK VINA RESULT:    -4.514      9.727     11.434
REMARK INTER + INTRA:          -9.030
REMARK INTER:                  -7.839
REMARK INTRA:                  -1.191
REMARK UNBOUND:                -1.349
REMARK SMILES CCCCCCCCCCCCCC(=O)[O-]
REMARK SMILES IDX 8 1 9 2 10 3 11 4 12 5 13 6 14 7 15 8 16 9 7 10 6 11 5 12
REMARK SMILES IDX 4 13 3 14 2 15 1 16
REMARK H PARENT
REMARK Flexibility Score: inf
ROOT
ATOM      1  C   UNL     1     -28.428 -24.562  13.463  1.00  0.00     0.000 C 
ENDROOT
BRANCH   1   2
ATOM      2  C   UNL     1     -27.208 -24.920  14.334  1.00  0.00     0.000 C 
BRANCH   2   3
ATOM      3  C   UNL     1     -27.517 -25.764  15.585  1.00  0.00     0.000 C 
BRANCH   3   4
ATOM      4  C   UNL     1     -26.326 -25.862  16.553  1.00  0.00     0.000 C 
BRANCH   4   5
ATOM      5  C   UNL     1     -25.115 -25.042  16.081  1.00  0.00     0.006 C 
BRANCH   5   6
ATOM      6  C   UNL     1     -23.828 -25.875  16.005  1.00  0.00     0.053 C 
BRANCH   6   7
ATOM      7  C   UNL     1     -23.502 -26.453  17.346  1.00  0.00     0.041 C 
ATOM      8  O   UNL     1     -23.217 -25.695  18.310  1.00  0.00    -0.550 OA
ATOM      9  O   UNL     1     -23.561 -27.827  17.544  1.00  0.00    -0.550 OA
ENDBRANCH   6   7
ENDBRANCH   5   6
ENDBRANCH   4   5
ENDBRANCH   3   4
ENDBRANCH   2   3
ENDBRANCH   1   2
BRANCH   1  10
ATOM     10  C   UNL     1     -29.767 -24.773  14.188  1.00  0.00     0.000 C 
BRANCH  10  11
ATOM     11  C   UNL     1     -30.339 -23.474  14.784  1.00  0.00    -0.000 C 
BRANCH  11  12
ATOM     12  C   UNL     1     -30.878 -23.590  16.221  1.00  0.00    -0.000 C 
BRANCH  12  13
ATOM     13  C   UNL     1     -29.765 -23.666  17.277  1.00  0.00    -0.000 C 
BRANCH  13  14
ATOM     14  C   UNL     1     -29.034 -22.321  17.403  1.00  0.00    -0.000 C 
BRANCH  14  15
ATOM     15  C   UNL     1     -29.740 -21.352  18.362  1.00  0.00    -0.003 C 
ATOM     16  C   UNL     1     -29.917 -19.956  17.767  1.00  0.00     0.004 C 
ENDBRANCH  14  15
ENDBRANCH  13  14
ENDBRANCH  12  13
ENDBRANCH  11  12
ENDBRANCH  10  11
ENDBRANCH   1  10
TORSDOF 12
ENDMDL
MODEL 6
REMARK VINA RESULT:    -4.465      8.062      9.508
REMARK INTER + INTRA:          -8.946
REMARK INTER:                  -7.700
REMARK INTRA:                  -1.246
REMARK UNBOUND:                -1.349
REMARK SMILES CCCCCCCCCCCCCC(=O)[O-]
REMARK SMILES IDX 8 1 9 2 10 3 11 4 12 5 13 6 14 7 15 8 16 9 7 10 6 11 5 12
REMARK SMILES IDX 4 13 3 14 2 15 1 16
REMARK H PARENT
REMARK Flexibility Score: inf
ROOT
ATOM      1  C   UNL     1     -24.355 -27.652   4.929  1.00  0.00     0.000 C 
ENDROOT
BRANCH   1   2
ATOM      2  C   UNL     1     -23.057 -28.398   4.563  1.00  0.00     0.000 C 
BRANCH   2   3
ATOM      3  C   UNL     1     -23.133 -29.272   3.298  1.00  0.00     0.000 C 
BRANCH   3   4
ATOM      4  C   UNL     1     -22.857 -30.759   3.576  1.00  0.00     0.000 C 
BRANCH   4   5
ATOM      5  C   UNL     1     -22.279 -30.997   4.980  1.00  0.00     0.006 C 
BRANCH   5   6
ATOM      6  C   UNL     1     -23.183 -31.883   5.850  1.00  0.00     0.053 C 
BRANCH   6   7
ATOM      7  C   UNL     1     -22.814 -31.745   7.293  1.00  0.00     0.041 C 
ATOM      8  O   UNL     1     -23.014 -30.658   7.897  1.00  0.00    -0.550 OA
ATOM      9  O   UNL     1     -22.295 -32.831   7.985  1.00  0.00    -0.550 OA
ENDBRANCH   6   7
ENDBRANCH   5   6
ENDBRANCH   4   5
ENDBRANCH   3   4
ENDBRANCH   2   3
ENDBRANCH   1   2
BRANCH   1  10
ATOM     10  C   UNL     1     -25.596 -28.560   4.907  1.00  0.00     0.000 C 
BRANCH  10  11
ATOM     11  C   UNL     1     -25.811 -29.316   6.231  1.00  0.00    -0.000 C 
BRANCH  11  12
ATOM     12  C   UNL     1     -27.279 -29.498   6.654  1.00  0.00    -0.000 C 
BRANCH  12  13
ATOM     13  C   UNL     1     -27.627 -28.759   7.955  1.00  0.00    -0.000 C 
BRANCH  13  14
ATOM     14  C   UNL     1     -26.357 -28.417   8.748  1.00  0.00    -0.000 C 
BRANCH  14  15
ATOM     15  C   UNL     1     -26.158 -26.904   8.923  1.00  0.00    -0.003 C 
ATOM     16  C   UNL     1     -27.265 -26.254   9.751  1.00  0.00     0.004 C 
ENDBRANCH  14  15
ENDBRANCH  13  14
ENDBRANCH  12  13
ENDBRANCH  11  12
ENDBRANCH  10  11
ENDBRANCH   1  10
TORSDOF 12
ENDMDL
MODEL 7
REMARK VINA RESULT:    -4.457      4.533      6.430
REMARK INTER + INTRA:          -8.932
REMARK INTER:                  -7.381
REMARK INTRA:                  -1.551
REMARK UNBOUND:                -1.349
REMARK SMILES CCCCCCCCCCCCCC(=O)[O-]
REMARK SMILES IDX 8 1 9 2 10 3 11 4 12 5 13 6 14 7 15 8 16 9 7 10 6 11 5 12
REMARK SMILES IDX 4 13 3 14 2 15 1 16
REMARK H PARENT
REMARK Flexibility Score: inf
ROOT
ATOM      1  C   UNL     1     -19.003 -23.166  11.773  1.00  0.00     0.000 C 
ENDROOT
BRANCH   1   2
ATOM      2  C   UNL     1     -18.515 -24.621  11.631  1.00  0.00     0.000 C 
BRANCH   2   3
ATOM      3  C   UNL     1     -17.383 -25.033  12.591  1.00  0.00     0.000 C 
BRANCH   3   4
ATOM      4  C   UNL     1     -17.334 -26.549  12.847  1.00  0.00     0.000 C 
BRANCH   4   5
ATOM      5  C   UNL     1     -17.376 -26.895  14.344  1.00  0.00     0.006 C 
BRANCH   5   6
ATOM      6  C   UNL     1     -16.853 -25.757  15.230  1.00  0.00     0.053 C 
BRANCH   6   7
ATOM      7  C   UNL     1     -15.713 -26.235  16.074  1.00  0.00     0.041 C 
ATOM      8  O   UNL     1     -14.838 -25.423  16.475  1.00  0.00    -0.550 OA
ATOM      9  O   UNL     1     -15.644 -27.568  16.457  1.00  0.00    -0.550 OA
ENDBRANCH   6   7
ENDBRANCH   5   6
ENDBRANCH   4   5
ENDBRANCH   3   4
ENDBRANCH   2   3
ENDBRANCH   1   2
BRANCH   1  10
ATOM     10  C   UNL     1     -19.722 -22.901  13.106  1.00  0.00     0.000 C 
BRANCH  10  11
ATOM     11  C   UNL     1     -20.602 -24.081  13.559  1.00  0.00    -0.000 C 
BRANCH  11  12
ATOM     12  C   UNL     1     -20.298 -24.627  14.965  1.00  0.00    -0.000 C 
BRANCH  12  13
ATOM     13  C   UNL     1     -21.225 -25.780  15.377  1.00  0.00    -0.000 C 
BRANCH  13  14
ATOM     14  C   UNL     1     -20.600 -26.609  16.510  1.00  0.00    -0.000 C 
BRANCH  14  15
ATOM     15  C   UNL     1     -20.470 -28.097  16.152  1.00  0.00    -0.003 C 
ATOM     16  C   UNL     1     -20.978 -28.413  14.746  1.00  0.00     0.004 C 
ENDBRANCH  14  15
ENDBRANCH  13  14
ENDBRANCH  12  13
ENDBRANCH  11  12
ENDBRANCH  10  11
ENDBRANCH   1  10
TORSDOF 12
ENDMDL
MODEL 8
REMARK VINA RESULT:    -4.453      8.054     10.414
REMARK INTER + INTRA:          -8.927
REMARK INTER:                  -7.157
REMARK INTRA:                  -1.770
REMARK UNBOUND:                -1.349
REMARK SMILES CCCCCCCCCCCCCC(=O)[O-]
REMARK SMILES IDX 8 1 9 2 10 3 11 4 12 5 13 6 14 7 15 8 16 9 7 10 6 11 5 12
REMARK SMILES IDX 4 13 3 14 2 15 1 16
REMARK H PARENT
REMARK Flexibility Score: inf
ROOT
ATOM      1  C   UNL     1     -23.998 -28.315   3.954  1.00  0.00     0.000 C 
ENDROOT
BRANCH   1   2
ATOM      2  C   UNL     1     -24.704 -28.051   5.297  1.00  0.00     0.000 C 
BRANCH   2   3
ATOM      3  C   UNL     1     -26.062 -28.756   5.479  1.00  0.00     0.000 C 
BRANCH   3   4
ATOM      4  C   UNL     1     -26.097 -29.685   6.704  1.00  0.00     0.000 C 
BRANCH   4   5
ATOM      5  C   UNL     1     -27.049 -29.179   7.799  1.00  0.00     0.006 C 
BRANCH   5   6
ATOM      6  C   UNL     1     -26.306 -28.578   8.999  1.00  0.00     0.053 C 
BRANCH   6   7
ATOM      7  C   UNL     1     -26.502 -27.096   9.045  1.00  0.00     0.041 C 
ATOM      8  O   UNL     1     -25.577 -26.323   8.680  1.00  0.00    -0.550 OA
ATOM      9  O   UNL     1     -27.722 -26.568   9.445  1.00  0.00    -0.550 OA
ENDBRANCH   6   7
ENDBRANCH   5   6
ENDBRANCH   4   5
ENDBRANCH   3   4
ENDBRANCH   2   3
ENDBRANCH   1   2
BRANCH   1  10
ATOM     10  C   UNL     1     -23.689 -29.804   3.721  1.00  0.00     0.000 C 
BRANCH  10  11
ATOM     11  C   UNL     1     -22.749 -30.396   4.787  1.00  0.00    -0.000 C 
BRANCH  11  12
ATOM     12  C   UNL     1     -23.243 -31.693   5.452  1.00  0.00    -0.000 C 
BRANCH  12  13
ATOM     13  C   UNL     1     -22.873 -31.785   6.940  1.00  0.00    -0.000 C 
BRANCH  13  14
ATOM     14  C   UNL     1     -22.118 -30.529   7.397  1.00  0.00    -0.000 C 
BRANCH  14  15
ATOM     15  C   UNL     1     -22.823 -29.803   8.553  1.00  0.00    -0.003 C 
ATOM     16  C   UNL     1     -23.172 -30.736   9.712  1.00  0.00     0.004 C 
ENDBRANCH  14  15
ENDBRANCH  13  14
ENDBRANCH  12  13
ENDBRANCH  11  12
ENDBRANCH  10  11
ENDBRANCH   1  10
TORSDOF 12
ENDMDL
MODEL 9
REMARK VINA RESULT:    -4.450      7.329      9.149
REMARK INTER + INTRA:          -8.920
REMARK INTER:                  -8.181
REMARK INTRA:                  -0.740
REMARK UNBOUND:                -1.349
REMARK SMILES CCCCCCCCCCCCCC(=O)[O-]
REMARK SMILES IDX 8 1 9 2 10 3 11 4 12 5 13 6 14 7 15 8 16 9 7 10 6 11 5 12
REMARK SMILES IDX 4 13 3 14 2 15 1 16
REMARK H PARENT
REMARK Flexibility Score: inf
ROOT
ATOM      1  C   UNL     1     -23.750 -27.798   4.171  1.00  0.00     0.000 C 
ENDROOT
BRANCH   1   2
ATOM      2  C   UNL     1     -23.502 -29.197   3.575  1.00  0.00     0.000 C 
BRANCH   2   3
ATOM      3  C   UNL     1     -22.252 -29.322   2.683  1.00  0.00     0.000 C 
BRANCH   3   4
ATOM      4  C   UNL     1     -21.773 -27.970   2.129  1.00  0.00     0.000 C 
BRANCH   4   5
ATOM      5  C   UNL     1     -20.292 -27.698   2.439  1.00  0.00     0.006 C 
BRANCH   5   6
ATOM      6  C   UNL     1     -19.526 -27.143   1.230  1.00  0.00     0.053 C 
BRANCH   6   7
ATOM      7  C   UNL     1     -18.097 -27.583   1.273  1.00  0.00     0.041 C 
ATOM      8  O   UNL     1     -17.627 -28.301   0.351  1.00  0.00    -0.550 OA
ATOM      9  O   UNL     1     -17.270 -27.160   2.306  1.00  0.00    -0.550 OA
ENDBRANCH   6   7
ENDBRANCH   5   6
ENDBRANCH   4   5
ENDBRANCH   3   4
ENDBRANCH   2   3
ENDBRANCH   1   2
BRANCH   1  10
ATOM     10  C   UNL     1     -25.083 -27.697   4.932  1.00  0.00     0.000 C 
BRANCH  10  11
ATOM     11  C   UNL     1     -25.487 -29.017   5.613  1.00  0.00    -0.000 C 
BRANCH  11  12
ATOM     12  C   UNL     1     -26.976 -29.137   5.984  1.00  0.00    -0.000 C 
BRANCH  12  13
ATOM     13  C   UNL     1     -27.202 -29.517   7.455  1.00  0.00    -0.000 C 
BRANCH  13  14
ATOM     14  C   UNL     1     -27.688 -28.307   8.267  1.00  0.00    -0.000 C 
BRANCH  14  15
ATOM     15  C   UNL     1     -26.651 -27.829   9.294  1.00  0.00    -0.003 C 
ATOM     16  C   UNL     1     -25.660 -26.824   8.710  1.00  0.00     0.004 C 
ENDBRANCH  14  15
ENDBRANCH  13  14
ENDBRANCH  12  13
ENDBRANCH  11  12
ENDBRANCH  10  11
ENDBRANCH   1  10
TORSDOF 12
ENDMDL
