MODEL 1
REMARK VINA RESULT:    -5.609      0.000      0.000
REMARK INTER + INTRA:          -5.609
REMARK INTER:                  -5.609
REMARK INTRA:                   0.000
REMARK UNBOUND:                 0.000
REMARK SMILES O=c1ccc2ccccc2o1
REMARK SMILES IDX 7 1 8 2 9 3 10 4 5 5 6 6 4 7 3 8 2 9 1 10 11 11
REMARK H PARENT
REMARK Flexibility Score: inf
ROOT
ATOM      1  C   UNL     1      27.387 -34.424  21.151  1.00  0.00     0.001 A 
ATOM      2  C   UNL     1      27.038 -34.149  22.477  1.00  0.00     0.004 A 
ATOM      3  C   UNL     1      27.463 -32.964  23.085  1.00  0.00     0.048 A 
ATOM      4  C   UNL     1      28.241 -32.048  22.368  1.00  0.00     0.138 A 
ATOM      5  C   UNL     1      28.593 -32.324  21.028  1.00  0.00     0.018 A 
ATOM      6  C   UNL     1      28.164 -33.516  20.424  1.00  0.00     0.012 A 
ATOM      7  C   UNL     1      29.371 -31.391  20.337  1.00  0.00     0.019 A 
ATOM      8  C   UNL     1      29.773 -30.223  20.983  1.00  0.00     0.094 A 
ATOM      9  C   UNL     1      29.386 -30.015  22.311  1.00  0.00     0.336 A 
ATOM     10  O   UNL     1      29.737 -28.966  22.912  1.00  0.00    -0.246 OA
ATOM     11  O   UNL     1      28.645 -30.919  22.947  1.00  0.00    -0.423 OA
ENDROOT
TORSDOF 0
ENDMDL
MODEL 2
REMARK VINA RESULT:    -5.413      1.358      2.203
REMARK INTER + INTRA:          -5.413
REMARK INTER:                  -5.413
REMARK INTRA:                   0.000
REMARK UNBOUND:                 0.000
REMARK SMILES O=c1ccc2ccccc2o1
REMARK SMILES IDX 7 1 8 2 9 3 10 4 5 5 6 6 4 7 3 8 2 9 1 10 11 11
REMARK H PARENT
REMARK Flexibility Score: inf
ROOT
ATOM      1  C   UNL     1      26.764 -33.874  22.510  1.00  0.00     0.001 A 
ATOM      2  C   UNL     1      27.014 -34.194  21.171  1.00  0.00     0.004 A 
ATOM      3  C   UNL     1      27.885 -33.407  20.411  1.00  0.00     0.048 A 
ATOM      4  C   UNL     1      28.509 -32.295  20.987  1.00  0.00     0.138 A 
ATOM      5  C   UNL     1      28.258 -31.972  22.340  1.00  0.00     0.018 A 
ATOM      6  C   UNL     1      27.383 -32.766  23.097  1.00  0.00     0.012 A 
ATOM      7  C   UNL     1      28.896 -30.856  22.889  1.00  0.00     0.019 A 
ATOM      8  C   UNL     1      29.756 -30.100  22.094  1.00  0.00     0.094 A 
ATOM      9  C   UNL     1      29.958 -30.479  20.762  1.00  0.00     0.336 A 
ATOM     10  O   UNL     1      30.732 -29.810  20.028  1.00  0.00    -0.246 OA
ATOM     11  O   UNL     1      29.338 -31.546  20.264  1.00  0.00    -0.423 OA
ENDROOT
TORSDOF 0
ENDMDL
MODEL 3
REMARK VINA RESULT:    -5.364      1.973      4.373
REMARK INTER + INTRA:          -5.364
REMARK INTER:                  -5.364
REMARK INTRA:                   0.000
REMARK UNBOUND:                 0.000
REMARK SMILES O=c1ccc2ccccc2o1
REMARK SMILES IDX 7 1 8 2 9 3 10 4 5 5 6 6 4 7 3 8 2 9 1 10 11 11
REMARK H PARENT
REMARK Flexibility Score: inf
ROOT
ATOM      1  C   UNL     1      29.629 -29.961  22.641  1.00  0.00     0.001 A 
ATOM      2  C   UNL     1      29.981 -30.064  21.292  1.00  0.00     0.004 A 
ATOM      3  C   UNL     1      29.615 -31.195  20.554  1.00  0.00     0.048 A 
ATOM      4  C   UNL     1      28.894 -32.227  21.164  1.00  0.00     0.138 A 
ATOM      5  C   UNL     1      28.537 -32.122  22.528  1.00  0.00     0.018 A 
ATOM      6  C   UNL     1      28.908 -30.986  23.262  1.00  0.00     0.012 A 
ATOM      7  C   UNL     1      27.817 -33.169  23.111  1.00  0.00     0.019 A 
ATOM      8  C   UNL     1      27.473 -34.277  22.337  1.00  0.00     0.094 A 
ATOM      9  C   UNL     1      27.860 -34.312  20.993  1.00  0.00     0.336 A 
ATOM     10  O   UNL     1      27.558 -35.303  20.278  1.00  0.00    -0.246 OA
ATOM     11  O   UNL     1      28.545 -33.302  20.462  1.00  0.00    -0.423 OA
ENDROOT
TORSDOF 0
ENDMDL
MODEL 4
REMARK VINA RESULT:    -5.077      8.939     10.060
REMARK INTER + INTRA:          -5.077
REMARK INTER:                  -5.077
REMARK INTRA:                   0.000
REMARK UNBOUND:                 0.000
REMARK SMILES O=c1ccc2ccccc2o1
REMARK SMILES IDX 7 1 8 2 9 3 10 4 5 5 6 6 4 7 3 8 2 9 1 10 11 11
REMARK H PARENT
REMARK Flexibility Score: inf
ROOT
ATOM      1  C   UNL     1      21.210 -25.270  25.039  1.00  0.00     0.001 A 
ATOM      2  C   UNL     1      20.973 -23.966  25.484  1.00  0.00     0.004 A 
ATOM      3  C   UNL     1      21.967 -22.989  25.362  1.00  0.00     0.048 A 
ATOM      4  C   UNL     1      23.203 -23.315  24.795  1.00  0.00     0.138 A 
ATOM      5  C   UNL     1      23.443 -24.633  24.344  1.00  0.00     0.018 A 
ATOM      6  C   UNL     1      22.441 -25.608  24.470  1.00  0.00     0.012 A 
ATOM      7  C   UNL     1      24.688 -24.930  23.782  1.00  0.00     0.019 A 
ATOM      8  C   UNL     1      25.649 -23.925  23.680  1.00  0.00     0.094 A 
ATOM      9  C   UNL     1      25.342 -22.642  24.147  1.00  0.00     0.336 A 
ATOM     10  O   UNL     1      26.197 -21.722  24.063  1.00  0.00    -0.246 OA
ATOM     11  O   UNL     1      24.149 -22.386  24.679  1.00  0.00    -0.423 OA
ENDROOT
TORSDOF 0
ENDMDL
MODEL 5
REMARK VINA RESULT:    -5.045      8.794     10.019
REMARK INTER + INTRA:          -5.045
REMARK INTER:                  -5.045
REMARK INTRA:                   0.000
REMARK UNBOUND:                 0.000
REMARK SMILES O=c1ccc2ccccc2o1
REMARK SMILES IDX 7 1 8 2 9 3 10 4 5 5 6 6 4 7 3 8 2 9 1 10 11 11
REMARK H PARENT
REMARK Flexibility Score: inf
ROOT
ATOM      1  C   UNL     1      20.977 -24.020  25.377  1.00  0.00     0.001 A 
ATOM      2  C   UNL     1      21.379 -25.337  25.131  1.00  0.00     0.004 A 
ATOM      3  C   UNL     1      22.701 -25.613  24.766  1.00  0.00     0.048 A 
ATOM      4  C   UNL     1      23.627 -24.570  24.645  1.00  0.00     0.138 A 
ATOM      5  C   UNL     1      23.221 -23.239  24.894  1.00  0.00     0.018 A 
ATOM      6  C   UNL     1      21.894 -22.970  25.260  1.00  0.00     0.012 A 
ATOM      7  C   UNL     1      24.168 -22.219  24.765  1.00  0.00     0.019 A 
ATOM      8  C   UNL     1      25.474 -22.540  24.399  1.00  0.00     0.094 A 
ATOM      9  C   UNL     1      25.805 -23.880  24.169  1.00  0.00     0.336 A 
ATOM     10  O   UNL     1      26.979 -24.190  23.838  1.00  0.00    -0.246 OA
ATOM     11  O   UNL     1      24.884 -24.833  24.298  1.00  0.00    -0.423 OA
ENDROOT
TORSDOF 0
ENDMDL
MODEL 6
REMARK VINA RESULT:    -5.015      1.456      3.767
REMARK INTER + INTRA:          -5.015
REMARK INTER:                  -5.015
REMARK INTRA:                   0.000
REMARK UNBOUND:                 0.000
REMARK SMILES O=c1ccc2ccccc2o1
REMARK SMILES IDX 7 1 8 2 9 3 10 4 5 5 6 6 4 7 3 8 2 9 1 10 11 11
REMARK H PARENT
REMARK Flexibility Score: inf
ROOT
ATOM      1  C   UNL     1      30.527 -30.170  20.789  1.00  0.00     0.001 A 
ATOM      2  C   UNL     1      30.099 -29.776  22.060  1.00  0.00     0.004 A 
ATOM      3  C   UNL     1      29.114 -30.510  22.730  1.00  0.00     0.048 A 
ATOM      4  C   UNL     1      28.554 -31.642  22.129  1.00  0.00     0.138 A 
ATOM      5  C   UNL     1      28.987 -32.042  20.844  1.00  0.00     0.018 A 
ATOM      6  C   UNL     1      29.975 -31.301  20.178  1.00  0.00     0.012 A 
ATOM      7  C   UNL     1      28.409 -33.177  20.269  1.00  0.00     0.019 A 
ATOM      8  C   UNL     1      27.431 -33.878  20.973  1.00  0.00     0.094 A 
ATOM      9  C   UNL     1      27.052 -33.425  22.241  1.00  0.00     0.336 A 
ATOM     10  O   UNL     1      26.171 -34.045  22.893  1.00  0.00    -0.246 OA
ATOM     11  O   UNL     1      27.617 -32.341  22.767  1.00  0.00    -0.423 OA
ENDROOT
TORSDOF 0
ENDMDL
MODEL 7
REMARK VINA RESULT:    -4.885     12.197     13.660
REMARK INTER + INTRA:          -4.885
REMARK INTER:                  -4.885
REMARK INTRA:                   0.000
REMARK UNBOUND:                 0.000
REMARK SMILES O=c1ccc2ccccc2o1
REMARK SMILES IDX 7 1 8 2 9 3 10 4 5 5 6 6 4 7 3 8 2 9 1 10 11 11
REMARK H PARENT
REMARK Flexibility Score: inf
ROOT
ATOM      1  C   UNL     1      27.588 -26.342  36.272  1.00  0.00     0.001 A 
ATOM      2  C   UNL     1      27.460 -25.328  35.318  1.00  0.00     0.004 A 
ATOM      3  C   UNL     1      26.915 -25.611  34.060  1.00  0.00     0.048 A 
ATOM      4  C   UNL     1      26.498 -26.910  33.754  1.00  0.00     0.138 A 
ATOM      5  C   UNL     1      26.627 -27.935  34.719  1.00  0.00     0.018 A 
ATOM      6  C   UNL     1      27.174 -27.644  35.978  1.00  0.00     0.012 A 
ATOM      7  C   UNL     1      26.201 -29.224  34.384  1.00  0.00     0.019 A 
ATOM      8  C   UNL     1      25.665 -29.460  33.119  1.00  0.00     0.094 A 
ATOM      9  C   UNL     1      25.567 -28.397  32.214  1.00  0.00     0.336 A 
ATOM     10  O   UNL     1      25.084 -28.590  31.068  1.00  0.00    -0.246 OA
ATOM     11  O   UNL     1      25.979 -27.179  32.558  1.00  0.00    -0.423 OA
ENDROOT
TORSDOF 0
ENDMDL
MODEL 8
REMARK VINA RESULT:    -4.871      8.503      9.879
REMARK INTER + INTRA:          -4.871
REMARK INTER:                  -4.871
REMARK INTRA:                   0.000
REMARK UNBOUND:                 0.000
REMARK SMILES O=c1ccc2ccccc2o1
REMARK SMILES IDX 7 1 8 2 9 3 10 4 5 5 6 6 4 7 3 8 2 9 1 10 11 11
REMARK H PARENT
REMARK Flexibility Score: inf
ROOT
ATOM      1  C   UNL     1      24.841 -23.905  28.118  1.00  0.00     0.001 A 
ATOM      2  C   UNL     1      25.865 -23.360  27.338  1.00  0.00     0.004 A 
ATOM      3  C   UNL     1      25.882 -23.566  25.955  1.00  0.00     0.048 A 
ATOM      4  C   UNL     1      24.871 -24.319  25.346  1.00  0.00     0.138 A 
ATOM      5  C   UNL     1      23.835 -24.869  26.134  1.00  0.00     0.018 A 
ATOM      6  C   UNL     1      23.825 -24.659  27.521  1.00  0.00     0.012 A 
ATOM      7  C   UNL     1      22.840 -25.617  25.499  1.00  0.00     0.019 A 
ATOM      8  C   UNL     1      22.896 -25.797  24.117  1.00  0.00     0.094 A 
ATOM      9  C   UNL     1      23.951 -25.222  23.401  1.00  0.00     0.336 A 
ATOM     10  O   UNL     1      24.019 -25.372  22.152  1.00  0.00    -0.246 OA
ATOM     11  O   UNL     1      24.887 -24.514  24.030  1.00  0.00    -0.423 OA
ENDROOT
TORSDOF 0
ENDMDL
MODEL 9
REMARK VINA RESULT:    -4.816     10.273     10.667
REMARK INTER + INTRA:          -4.816
REMARK INTER:                  -4.816
REMARK INTRA:                   0.000
REMARK UNBOUND:                 0.000
REMARK SMILES O=c1ccc2ccccc2o1
REMARK SMILES IDX 7 1 8 2 9 3 10 4 5 5 6 6 4 7 3 8 2 9 1 10 11 11
REMARK H PARENT
REMARK Flexibility Score: inf
ROOT
ATOM      1  C   UNL     1      25.954 -23.395  27.116  1.00  0.00     0.001 A 
ATOM      2  C   UNL     1      25.379 -24.352  27.959  1.00  0.00     0.004 A 
ATOM      3  C   UNL     1      24.151 -24.935  27.627  1.00  0.00     0.048 A 
ATOM      4  C   UNL     1      23.494 -24.561  26.450  1.00  0.00     0.138 A 
ATOM      5  C   UNL     1      24.075 -23.595  25.597  1.00  0.00     0.018 A 
ATOM      6  C   UNL     1      25.306 -23.015  25.937  1.00  0.00     0.012 A 
ATOM      7  C   UNL     1      23.395 -23.242  24.429  1.00  0.00     0.019 A 
ATOM      8  C   UNL     1      22.173 -23.848  24.138  1.00  0.00     0.094 A 
ATOM      9  C   UNL     1      21.658 -24.798  25.027  1.00  0.00     0.336 A 
ATOM     10  O   UNL     1      20.558 -25.357  24.782  1.00  0.00    -0.246 OA
ATOM     11  O   UNL     1      22.326 -25.116  26.134  1.00  0.00    -0.423 OA
ENDROOT
TORSDOF 0
ENDMDL
