MODEL 1
REMARK VINA RESULT:    -3.487      0.000      0.000
REMARK INTER + INTRA:          -3.538
REMARK INTER:                  -4.302
REMARK INTRA:                   0.764
REMARK UNBOUND:                 0.764
REMARK SMILES CC1=CC=CC(C)(C)CC1=O
REMARK SMILES IDX 1 1 2 2 3 3 10 4 11 5 9 6 4 8 5 9 6 10 7 11 8 12
REMARK H PARENT
REMARK Flexibility Score: 80.00
ROOT
ATOM      1  C   UNL     1     -30.725 -26.839  21.933  1.00  0.00     0.048 C 
ATOM      2  C   UNL     1     -31.522 -25.613  22.311  1.00  0.00    -0.008 C 
ATOM      3  C   UNL     1     -32.802 -25.544  21.887  1.00  0.00     0.007 C 
ENDROOT
BRANCH   2   4
ATOM      4  C   UNL     1     -30.809 -24.545  23.056  1.00  0.00     0.159 C 
ATOM      5  O   UNL     1     -29.556 -24.623  23.178  1.00  0.00    -0.295 OA
BRANCH   4   6
ATOM      6  C   UNL     1     -31.500 -23.377  23.689  1.00  0.00     0.091 CG0
ATOM      7  G   UNL     1     -32.311 -22.530  22.683  1.00  0.00     0.000 G0
ENDBRANCH   4   6
ENDBRANCH   2   4
BRANCH   3   8
ATOM      8  C   UNL     1     -33.810 -24.474  22.074  1.00  0.00    -0.003 C 
ATOM      9  C   UNL     1     -33.627 -23.190  22.405  1.00  0.00    -0.020 C 
BRANCH   9  10
ATOM     10  C   UNL     1     -32.306 -22.519  22.702  1.00  0.00    -0.010 CG0
ATOM     11  C   UNL     1     -32.593 -21.158  23.375  1.00  0.00     0.016 C 
ATOM     12  C   UNL     1     -31.543 -22.250  21.386  1.00  0.00     0.016 C 
ATOM     13  G   UNL     1     -31.496 -23.384  23.694  1.00  0.00     0.000 G0
ENDBRANCH   9  10
ENDBRANCH   3   8
TORSDOF 0
ENDMDL
MODEL 2
REMARK VINA RESULT:    -3.152      4.129      5.556
REMARK INTER + INTRA:          -3.125
REMARK INTER:                  -3.880
REMARK INTRA:                   0.756
REMARK UNBOUND:                 0.764
REMARK SMILES CC1=CC=CC(C)(C)CC1=O
REMARK SMILES IDX 1 1 2 2 3 3 10 4 11 5 9 6 4 8 5 9 6 10 7 11 8 12
REMARK H PARENT
REMARK Flexibility Score: 80.00
ROOT
ATOM      1  C   UNL     1     -32.262 -21.494  22.999  1.00  0.00     0.048 C 
ATOM      2  C   UNL     1     -32.243 -20.346  22.018  1.00  0.00    -0.008 C 
ATOM      3  C   UNL     1     -32.612 -20.604  20.745  1.00  0.00     0.007 C 
ENDROOT
BRANCH   2   4
ATOM      4  C   UNL     1     -31.746 -19.039  22.516  1.00  0.00     0.159 C 
ATOM      5  O   UNL     1     -31.185 -18.992  23.645  1.00  0.00    -0.295 OA
BRANCH   4   6
ATOM      6  C   UNL     1     -31.886 -17.757  21.754  1.00  0.00     0.091 CG0
ATOM      7  G   UNL     1     -31.202 -17.793  20.369  1.00  0.00     0.000 G0
ENDBRANCH   4   6
ENDBRANCH   2   4
BRANCH   3   8
ATOM      8  C   UNL     1     -32.669 -19.703  19.569  1.00  0.00    -0.003 C 
ATOM      9  C   UNL     1     -32.074 -18.518  19.384  1.00  0.00    -0.020 C 
BRANCH   9  10
ATOM     10  C   UNL     1     -31.200 -17.788  20.376  1.00  0.00    -0.010 CG0
ATOM     11  C   UNL     1     -31.039 -16.328  19.898  1.00  0.00     0.016 C 
ATOM     12  C   UNL     1     -29.796 -18.434  20.417  1.00  0.00     0.016 C 
ATOM     13  G   UNL     1     -31.888 -17.768  21.759  1.00  0.00     0.000 G0
ENDBRANCH   9  10
ENDBRANCH   3   8
TORSDOF 0
ENDMDL
MODEL 3
REMARK VINA RESULT:    -2.978      4.491      6.107
REMARK INTER + INTRA:          -2.910
REMARK INTER:                  -3.668
REMARK INTRA:                   0.758
REMARK UNBOUND:                 0.764
REMARK SMILES CC1=CC=CC(C)(C)CC1=O
REMARK SMILES IDX 1 1 2 2 3 3 10 4 11 5 9 6 4 8 5 9 6 10 7 11 8 12
REMARK H PARENT
REMARK Flexibility Score: 80.00
ROOT
ATOM      1  C   UNL     1     -32.984 -21.618  21.125  1.00  0.00     0.048 C 
ATOM      2  C   UNL     1     -32.340 -20.259  21.259  1.00  0.00    -0.008 C 
ATOM      3  C   UNL     1     -31.961 -19.866  22.494  1.00  0.00     0.007 C 
ENDROOT
BRANCH   2   4
ATOM      4  C   UNL     1     -32.244 -19.432  20.030  1.00  0.00     0.159 C 
ATOM      5  O   UNL     1     -32.886 -19.789  19.005  1.00  0.00    -0.295 OA
BRANCH   4   6
ATOM      6  C   UNL     1     -31.408 -18.193  19.932  1.00  0.00     0.091 CG0
ATOM      7  G   UNL     1     -31.829 -17.093  20.932  1.00  0.00     0.000 G0
ENDBRANCH   4   6
ENDBRANCH   2   4
BRANCH   3   8
ATOM      8  C   UNL     1     -31.337 -18.597  22.938  1.00  0.00    -0.003 C 
ATOM      9  C   UNL     1     -31.282 -17.416  22.308  1.00  0.00    -0.020 C 
BRANCH   9  10
ATOM     10  C   UNL     1     -31.841 -17.102  20.941  1.00  0.00    -0.010 CG0
ATOM     11  C   UNL     1     -31.241 -15.759  20.468  1.00  0.00     0.016 C 
ATOM     12  C   UNL     1     -33.375 -16.937  21.022  1.00  0.00     0.016 C 
ATOM     13  G   UNL     1     -31.412 -18.199  19.940  1.00  0.00     0.000 G0
ENDBRANCH   9  10
ENDBRANCH   3   8
TORSDOF 0
ENDMDL
MODEL 4
REMARK VINA RESULT:    -2.571      7.845      8.960
REMARK INTER + INTRA:          -2.408
REMARK INTER:                  -3.167
REMARK INTRA:                   0.759
REMARK UNBOUND:                 0.764
REMARK SMILES CC1=CC=CC(C)(C)CC1=O
REMARK SMILES IDX 1 1 2 2 3 3 10 4 11 5 9 6 4 8 5 9 6 10 7 11 8 12
REMARK H PARENT
REMARK Flexibility Score: 80.00
ROOT
ATOM      1  C   UNL     1     -30.722 -18.524  27.783  1.00  0.00     0.048 C 
ATOM      2  C   UNL     1     -31.190 -17.171  27.304  1.00  0.00    -0.008 C 
ATOM      3  C   UNL     1     -31.775 -16.356  28.208  1.00  0.00     0.007 C 
ENDROOT
BRANCH   2   4
ATOM      4  C   UNL     1     -31.037 -16.876  25.857  1.00  0.00     0.159 C 
ATOM      5  O   UNL     1     -30.698 -17.809  25.079  1.00  0.00    -0.295 OA
BRANCH   4   6
ATOM      6  C   UNL     1     -31.250 -15.516  25.265  1.00  0.00     0.091 CG0
ATOM      7  G   UNL     1     -32.670 -14.960  25.512  1.00  0.00     0.000 G0
ENDBRANCH   4   6
ENDBRANCH   2   4
BRANCH   3   8
ATOM      8  C   UNL     1     -32.350 -15.001  28.034  1.00  0.00    -0.003 C 
ATOM      9  C   UNL     1     -32.745 -14.388  26.911  1.00  0.00    -0.020 C 
BRANCH   9  10
ATOM     10  C   UNL     1     -32.666 -14.946  25.510  1.00  0.00    -0.010 CG0
ATOM     11  C   UNL     1     -32.894 -13.787  24.513  1.00  0.00     0.016 C 
ATOM     12  C   UNL     1     -33.785 -15.989  25.293  1.00  0.00     0.016 C 
ATOM     13  G   UNL     1     -31.255 -15.525  25.259  1.00  0.00     0.000 G0
ENDBRANCH   9  10
ENDBRANCH   3   8
TORSDOF 0
ENDMDL
MODEL 5
REMARK VINA RESULT:    -2.491      5.005      6.654
REMARK INTER + INTRA:          -2.309
REMARK INTER:                  -3.061
REMARK INTRA:                   0.752
REMARK UNBOUND:                 0.764
REMARK SMILES CC1=CC=CC(C)(C)CC1=O
REMARK SMILES IDX 1 1 2 2 3 3 10 4 11 5 9 6 4 8 5 9 6 10 7 11 8 12
REMARK H PARENT
REMARK Flexibility Score: 80.00
ROOT
ATOM      1  C   UNL     1     -32.587 -20.729  21.732  1.00  0.00     0.048 C 
ATOM      2  C   UNL     1     -31.852 -19.488  21.285  1.00  0.00    -0.008 C 
ATOM      3  C   UNL     1     -30.869 -19.638  20.373  1.00  0.00     0.007 C 
ENDROOT
BRANCH   2   4
ATOM      4  C   UNL     1     -32.221 -18.210  21.944  1.00  0.00     0.159 C 
ATOM      5  O   UNL     1     -32.971 -18.242  22.958  1.00  0.00    -0.295 OA
BRANCH   4   6
ATOM      6  C   UNL     1     -31.762 -16.869  21.460  1.00  0.00     0.091 CG0
ATOM      7  G   UNL     1     -30.224 -16.721  21.444  1.00  0.00     0.000 G0
ENDBRANCH   4   6
ENDBRANCH   2   4
BRANCH   3   8
ATOM      8  C   UNL     1     -29.968 -18.627  19.770  1.00  0.00    -0.003 C 
ATOM      9  C   UNL     1     -29.671 -17.395  20.204  1.00  0.00    -0.020 C 
BRANCH   9  10
ATOM     10  C   UNL     1     -30.226 -16.719  21.435  1.00  0.00    -0.010 CG0
ATOM     11  C   UNL     1     -29.905 -15.210  21.346  1.00  0.00     0.016 C 
ATOM     12  C   UNL     1     -29.540 -17.280  22.701  1.00  0.00     0.016 C 
ATOM     13  G   UNL     1     -31.762 -16.882  21.468  1.00  0.00     0.000 G0
ENDBRANCH   9  10
ENDBRANCH   3   8
TORSDOF 0
ENDMDL
MODEL 6
REMARK VINA RESULT:    -2.423      7.892      9.495
REMARK INTER + INTRA:          -2.225
REMARK INTER:                  -2.985
REMARK INTRA:                   0.759
REMARK UNBOUND:                 0.764
REMARK SMILES CC1=CC=CC(C)(C)CC1=O
REMARK SMILES IDX 1 1 2 2 3 3 10 4 11 5 9 6 4 8 5 9 6 10 7 11 8 12
REMARK H PARENT
REMARK Flexibility Score: 80.00
ROOT
ATOM      1  C   UNL     1     -32.835 -14.079  28.220  1.00  0.00     0.048 C 
ATOM      2  C   UNL     1     -32.025 -15.239  27.690  1.00  0.00    -0.008 C 
ATOM      3  C   UNL     1     -31.609 -16.167  28.577  1.00  0.00     0.007 C 
ENDROOT
BRANCH   2   4
ATOM      4  C   UNL     1     -31.688 -15.224  26.245  1.00  0.00     0.159 C 
ATOM      5  O   UNL     1     -31.920 -14.179  25.577  1.00  0.00    -0.295 OA
BRANCH   4   6
ATOM      6  C   UNL     1     -31.096 -16.395  25.523  1.00  0.00     0.091 CG0
ATOM      7  G   UNL     1     -29.744 -16.854  26.113  1.00  0.00     0.000 G0
ENDBRANCH   4   6
ENDBRANCH   2   4
BRANCH   3   8
ATOM      8  C   UNL     1     -30.790 -17.384  28.367  1.00  0.00    -0.003 C 
ATOM      9  C   UNL     1     -29.985 -17.693  27.343  1.00  0.00    -0.020 C 
BRANCH   9  10
ATOM     10  C   UNL     1     -29.738 -16.856  26.111  1.00  0.00    -0.010 CG0
ATOM     11  C   UNL     1     -29.038 -17.740  25.054  1.00  0.00     0.016 C 
ATOM     12  C   UNL     1     -28.793 -15.681  26.451  1.00  0.00     0.016 C 
ATOM     13  G   UNL     1     -31.088 -16.384  25.524  1.00  0.00     0.000 G0
ENDBRANCH   9  10
ENDBRANCH   3   8
TORSDOF 0
ENDMDL
MODEL 7
REMARK VINA RESULT:    -2.421      8.025      9.673
REMARK INTER + INTRA:          -2.223
REMARK INTER:                  -2.974
REMARK INTRA:                   0.751
REMARK UNBOUND:                 0.764
REMARK SMILES CC1=CC=CC(C)(C)CC1=O
REMARK SMILES IDX 1 1 2 2 3 3 10 4 11 5 9 6 4 8 5 9 6 10 7 11 8 12
REMARK H PARENT
REMARK Flexibility Score: 80.00
ROOT
ATOM      1  C   UNL     1     -24.694 -13.829  23.066  1.00  0.00     0.048 C 
ATOM      2  C   UNL     1     -25.644 -15.002  23.043  1.00  0.00    -0.008 C 
ATOM      3  C   UNL     1     -25.803 -15.654  21.872  1.00  0.00     0.007 C 
ENDROOT
BRANCH   2   4
ATOM      4  C   UNL     1     -26.386 -15.296  24.295  1.00  0.00     0.159 C 
ATOM      5  O   UNL     1     -26.330 -14.467  25.244  1.00  0.00    -0.295 OA
BRANCH   4   6
ATOM      6  C   UNL     1     -27.192 -16.541  24.503  1.00  0.00     0.091 CG0
ATOM      7  G   UNL     1     -28.326 -16.713  23.467  1.00  0.00     0.000 G0
ENDBRANCH   4   6
ENDBRANCH   2   4
BRANCH   3   8
ATOM      8  C   UNL     1     -26.672 -16.808  21.535  1.00  0.00    -0.003 C 
ATOM      9  C   UNL     1     -27.746 -17.273  22.184  1.00  0.00    -0.020 C 
BRANCH   9  10
ATOM     10  C   UNL     1     -28.326 -16.727  23.468  1.00  0.00    -0.010 CG0
ATOM     11  C   UNL     1     -29.314 -17.769  24.036  1.00  0.00     0.016 C 
ATOM     12  C   UNL     1     -29.113 -15.428  23.181  1.00  0.00     0.016 C 
ATOM     13  G   UNL     1     -27.196 -16.523  24.502  1.00  0.00     0.000 G0
ENDBRANCH   9  10
ENDBRANCH   3   8
TORSDOF 0
ENDMDL
MODEL 8
REMARK VINA RESULT:    -2.401      7.835      9.576
REMARK INTER + INTRA:          -2.198
REMARK INTER:                  -2.949
REMARK INTRA:                   0.751
REMARK UNBOUND:                 0.764
REMARK SMILES CC1=CC=CC(C)(C)CC1=O
REMARK SMILES IDX 1 1 2 2 3 3 10 4 11 5 9 6 4 8 5 9 6 10 7 11 8 12
REMARK H PARENT
REMARK Flexibility Score: 80.00
ROOT
ATOM      1  C   UNL     1     -28.034 -14.902  29.511  1.00  0.00     0.048 C 
ATOM      2  C   UNL     1     -29.009 -15.635  28.621  1.00  0.00    -0.008 C 
ATOM      3  C   UNL     1     -29.406 -16.865  29.008  1.00  0.00     0.007 C 
ENDROOT
BRANCH   2   4
ATOM      4  C   UNL     1     -29.395 -14.971  27.351  1.00  0.00     0.159 C 
ATOM      5  O   UNL     1     -28.759 -13.945  26.982  1.00  0.00    -0.295 OA
BRANCH   4   6
ATOM      6  C   UNL     1     -30.518 -15.444  26.479  1.00  0.00     0.091 CG0
ATOM      7  G   UNL     1     -30.332 -16.896  25.982  1.00  0.00     0.000 G0
ENDBRANCH   4   6
ENDBRANCH   2   4
BRANCH   3   8
ATOM      8  C   UNL     1     -30.320 -17.824  28.342  1.00  0.00    -0.003 C 
ATOM      9  C   UNL     1     -30.718 -17.862  27.064  1.00  0.00    -0.020 C 
BRANCH   9  10
ATOM     10  C   UNL     1     -30.335 -16.888  25.976  1.00  0.00    -0.010 CG0
ATOM     11  C   UNL     1     -31.296 -17.091  24.783  1.00  0.00     0.016 C 
ATOM     12  C   UNL     1     -28.899 -17.180  25.486  1.00  0.00     0.016 C 
ATOM     13  G   UNL     1     -30.507 -15.440  26.490  1.00  0.00     0.000 G0
ENDBRANCH   9  10
ENDBRANCH   3   8
TORSDOF 0
ENDMDL
MODEL 9
REMARK VINA RESULT:    -2.336      8.552     10.426
REMARK INTER + INTRA:          -2.118
REMARK INTER:                  -2.881
REMARK INTRA:                   0.762
REMARK UNBOUND:                 0.764
REMARK SMILES CC1=CC=CC(C)(C)CC1=O
REMARK SMILES IDX 1 1 2 2 3 3 10 4 11 5 9 6 4 8 5 9 6 10 7 11 8 12
REMARK H PARENT
REMARK Flexibility Score: 80.00
ROOT
ATOM      1  C   UNL     1     -30.619 -18.367  27.584  1.00  0.00     0.048 C 
ATOM      2  C   UNL     1     -29.739 -17.156  27.782  1.00  0.00    -0.008 C 
ATOM      3  C   UNL     1     -29.297 -16.902  29.031  1.00  0.00     0.007 C 
ENDROOT
BRANCH   2   4
ATOM      4  C   UNL     1     -29.493 -16.298  26.595  1.00  0.00     0.159 C 
ATOM      5  O   UNL     1     -30.164 -16.502  25.547  1.00  0.00    -0.295 OA
BRANCH   4   6
ATOM      6  C   UNL     1     -28.473 -15.202  26.566  1.00  0.00     0.091 CG0
ATOM      7  G   UNL     1     -28.711 -14.119  27.643  1.00  0.00     0.000 G0
ENDBRANCH   4   6
ENDBRANCH   2   4
BRANCH   3   8
ATOM      8  C   UNL     1     -28.453 -15.792  29.535  1.00  0.00    -0.003 C 
ATOM      9  C   UNL     1     -28.199 -14.603  28.974  1.00  0.00    -0.020 C 
BRANCH   9  10
ATOM     10  C   UNL     1     -28.709 -14.113  27.640  1.00  0.00    -0.010 CG0
ATOM     11  C   UNL     1     -27.897 -12.861  27.239  1.00  0.00     0.016 C 
ATOM     12  C   UNL     1     -30.193 -13.699  27.762  1.00  0.00     0.016 C 
ATOM     13  G   UNL     1     -28.480 -15.199  26.565  1.00  0.00     0.000 G0
ENDBRANCH   9  10
ENDBRANCH   3   8
TORSDOF 0
ENDMDL
