MODEL 1
REMARK VINA RESULT:    -1.119      0.000      0.000
REMARK INTER + INTRA:          -1.119
REMARK INTER:                  -1.119
REMARK INTRA:                   0.000
REMARK UNBOUND:                 0.000
REMARK SMILES CC(=O)[O-]
REMARK SMILES IDX 1 1 2 2 3 3 4 4
REMARK H PARENT
REMARK Flexibility Score: inf
ROOT
ATOM      1  C   UNL     1     -13.384 -21.722  84.199  1.00  0.00     0.063 C 
ATOM      2  C   UNL     1     -14.016 -22.520  85.288  1.00  0.00     0.038 C 
ATOM      3  O   UNL     1     -15.180 -22.244  85.680  1.00  0.00    -0.550 OA
ATOM      4  O   UNL     1     -13.302 -23.536  85.911  1.00  0.00    -0.550 OA
ENDROOT
TORSDOF 0
ENDMDL
MODEL 2
REMARK VINA RESULT:    -1.094      1.281      1.706
REMARK INTER + INTRA:          -1.094
REMARK INTER:                  -1.094
REMARK INTRA:                   0.000
REMARK UNBOUND:                 0.000
REMARK SMILES CC(=O)[O-]
REMARK SMILES IDX 1 1 2 2 3 3 4 4
REMARK H PARENT
REMARK Flexibility Score: inf
ROOT
ATOM      1  C   UNL     1     -15.340 -22.437  85.913  1.00  0.00     0.063 C 
ATOM      2  C   UNL     1     -13.977 -22.500  85.314  1.00  0.00     0.038 C 
ATOM      3  O   UNL     1     -13.653 -21.700  84.397  1.00  0.00    -0.550 OA
ATOM      4  O   UNL     1     -13.079 -23.476  85.727  1.00  0.00    -0.550 OA
ENDROOT
TORSDOF 0
ENDMDL
MODEL 3
REMARK VINA RESULT:    -1.092      0.119      1.620
REMARK INTER + INTRA:          -1.092
REMARK INTER:                  -1.092
REMARK INTRA:                   0.000
REMARK UNBOUND:                 0.000
REMARK SMILES CC(=O)[O-]
REMARK SMILES IDX 1 1 2 2 3 3 4 4
REMARK H PARENT
REMARK Flexibility Score: inf
ROOT
ATOM      1  C   UNL     1     -13.331 -21.718  84.173  1.00  0.00     0.063 C 
ATOM      2  C   UNL     1     -13.887 -22.535  85.289  1.00  0.00     0.038 C 
ATOM      3  O   UNL     1     -13.205 -23.466  85.791  1.00  0.00    -0.550 OA
ATOM      4  O   UNL     1     -15.181 -22.309  85.741  1.00  0.00    -0.550 OA
ENDROOT
TORSDOF 0
ENDMDL
MODEL 4
REMARK VINA RESULT:    -1.014      1.500      1.794
REMARK INTER + INTRA:          -1.014
REMARK INTER:                  -1.014
REMARK INTRA:                   0.000
REMARK UNBOUND:                 0.000
REMARK SMILES CC(=O)[O-]
REMARK SMILES IDX 1 1 2 2 3 3 4 4
REMARK H PARENT
REMARK Flexibility Score: inf
ROOT
ATOM      1  C   UNL     1     -12.949 -23.545  85.171  1.00  0.00     0.063 C 
ATOM      2  C   UNL     1     -13.781 -22.320  84.999  1.00  0.00     0.038 C 
ATOM      3  O   UNL     1     -14.865 -22.199  85.629  1.00  0.00    -0.550 OA
ATOM      4  O   UNL     1     -13.392 -21.334  84.102  1.00  0.00    -0.550 OA
ENDROOT
TORSDOF 0
ENDMDL
MODEL 5
REMARK VINA RESULT:    -0.933      2.400      2.846
REMARK INTER + INTRA:          -0.933
REMARK INTER:                  -0.933
REMARK INTRA:                   0.000
REMARK UNBOUND:                 0.000
REMARK SMILES CC(=O)[O-]
REMARK SMILES IDX 1 1 2 2 3 3 4 4
REMARK H PARENT
REMARK Flexibility Score: inf
ROOT
ATOM      1  C   UNL     1     -14.059 -22.251  84.950  1.00  0.00     0.063 C 
ATOM      2  C   UNL     1     -13.267 -21.776  83.780  1.00  0.00     0.038 C 
ATOM      3  O   UNL     1     -12.907 -22.589  82.888  1.00  0.00    -0.550 OA
ATOM      4  O   UNL     1     -12.875 -20.446  83.698  1.00  0.00    -0.550 OA
ENDROOT
TORSDOF 0
ENDMDL
MODEL 6
REMARK VINA RESULT:    -0.923      1.623      2.073
REMARK INTER + INTRA:          -0.923
REMARK INTER:                  -0.923
REMARK INTRA:                   0.000
REMARK UNBOUND:                 0.000
REMARK SMILES CC(=O)[O-]
REMARK SMILES IDX 1 1 2 2 3 3 4 4
REMARK H PARENT
REMARK Flexibility Score: inf
ROOT
ATOM      1  C   UNL     1     -14.855 -22.362  85.581  1.00  0.00     0.063 C 
ATOM      2  C   UNL     1     -13.598 -23.016  85.117  1.00  0.00     0.038 C 
ATOM      3  O   UNL     1     -12.891 -23.671  85.926  1.00  0.00    -0.550 OA
ATOM      4  O   UNL     1     -13.175 -22.857  83.804  1.00  0.00    -0.550 OA
ENDROOT
TORSDOF 0
ENDMDL
MODEL 7
REMARK VINA RESULT:    -0.875      1.546      1.944
REMARK INTER + INTRA:          -0.875
REMARK INTER:                  -0.875
REMARK INTRA:                   0.000
REMARK UNBOUND:                 0.000
REMARK SMILES CC(=O)[O-]
REMARK SMILES IDX 1 1 2 2 3 3 4 4
REMARK H PARENT
REMARK Flexibility Score: inf
ROOT
ATOM      1  C   UNL     1     -13.841 -23.685  84.035  1.00  0.00     0.063 C 
ATOM      2  C   UNL     1     -14.018 -22.350  84.674  1.00  0.00     0.038 C 
ATOM      3  O   UNL     1     -13.309 -21.375  84.309  1.00  0.00    -0.550 OA
ATOM      4  O   UNL     1     -14.927 -22.189  85.712  1.00  0.00    -0.550 OA
ENDROOT
TORSDOF 0
ENDMDL
MODEL 8
REMARK VINA RESULT:    -0.781      8.041      8.229
REMARK INTER + INTRA:          -0.781
REMARK INTER:                  -0.781
REMARK INTRA:                   0.000
REMARK UNBOUND:                 0.000
REMARK SMILES CC(=O)[O-]
REMARK SMILES IDX 1 1 2 2 3 3 4 4
REMARK H PARENT
REMARK Flexibility Score: inf
ROOT
ATOM      1  C   UNL     1     -13.390 -14.017  86.000  1.00  0.00     0.063 C 
ATOM      2  C   UNL     1     -13.808 -14.435  84.632  1.00  0.00     0.038 C 
ATOM      3  O   UNL     1     -15.012 -14.330  84.279  1.00  0.00    -0.550 OA
ATOM      4  O   UNL     1     -12.881 -14.994  83.761  1.00  0.00    -0.550 OA
ENDROOT
TORSDOF 0
ENDMDL
MODEL 9
REMARK VINA RESULT:    -0.770      7.921      8.240
REMARK INTER + INTRA:          -0.770
REMARK INTER:                  -0.770
REMARK INTRA:                   0.000
REMARK UNBOUND:                 0.000
REMARK SMILES CC(=O)[O-]
REMARK SMILES IDX 1 1 2 2 3 3 4 4
REMARK H PARENT
REMARK Flexibility Score: inf
ROOT
ATOM      1  C   UNL     1     -15.068 -14.204  84.038  1.00  0.00     0.063 C 
ATOM      2  C   UNL     1     -13.663 -14.524  84.418  1.00  0.00     0.038 C 
ATOM      3  O   UNL     1     -12.930 -15.182  83.633  1.00  0.00    -0.550 OA
ATOM      4  O   UNL     1     -13.174 -14.147  85.662  1.00  0.00    -0.550 OA
ENDROOT
TORSDOF 0
ENDMDL
