MODEL 1
REMARK VINA RESULT:    -5.254      0.000      0.000
REMARK INTER + INTRA:          -5.698
REMARK INTER:                  -6.175
REMARK INTRA:                   0.477
REMARK UNBOUND:                 0.477
REMARK SMILES O=c1c(O)c(-c2ccc(O)c(O)c2)oc2cc(O)ccc12
REMARK SMILES IDX 5 1 3 2 2 3 1 4 21 5 15 6 14 7 16 8 17 9 19 10 20 11 6 12
REMARK SMILES IDX 7 13 8 14 9 15 13 16 11 17 10 18 12 20 4 22 18 24
REMARK H PARENT 10 19 12 21 4 23 18 25
REMARK Flexibility Score: inf
ROOT
ATOM      1  C   UNL     1      12.166 -31.629 -33.964  1.00  0.00     0.180 A 
ATOM      2  C   UNL     1      13.510 -31.635 -33.537  1.00  0.00     0.208 A 
ATOM      3  C   UNL     1      13.888 -32.511 -32.509  1.00  0.00     0.235 A 
ATOM      4  O   UNL     1      15.083 -32.528 -32.101  1.00  0.00    -0.285 OA
ATOM      5  C   UNL     1      12.931 -33.368 -31.944  1.00  0.00     0.069 A 
ATOM      6  C   UNL     1      11.611 -33.318 -32.443  1.00  0.00     0.142 A 
ATOM      7  O   UNL     1      11.291 -32.468 -33.413  1.00  0.00    -0.452 OA
ATOM      8  C   UNL     1      10.630 -34.164 -31.914  1.00  0.00     0.094 A 
ATOM      9  C   UNL     1      10.952 -35.062 -30.888  1.00  0.00     0.119 A 
ATOM     10  C   UNL     1      12.258 -35.114 -30.391  1.00  0.00     0.047 A 
ATOM     11  C   UNL     1      13.246 -34.273 -30.914  1.00  0.00     0.020 A 
ENDROOT
BRANCH   1  12
ATOM     12  C   UNL     1      11.684 -30.721 -35.030  1.00  0.00     0.025 A 
ATOM     13  C   UNL     1      10.312 -30.501 -35.240  1.00  0.00     0.016 A 
ATOM     14  C   UNL     1       9.880 -29.660 -36.269  1.00  0.00     0.051 A 
ATOM     15  C   UNL     1      10.807 -29.037 -37.110  1.00  0.00     0.157 A 
ATOM     16  C   UNL     1      12.612 -30.111 -35.890  1.00  0.00     0.062 A 
ATOM     17  C   UNL     1      12.181 -29.265 -36.922  1.00  0.00     0.158 A 
BRANCH  15  18
ATOM     18  O   UNL     1      10.346 -28.200 -38.125  1.00  0.00    -0.504 OA
ATOM     19  H   UNL     1      10.163 -27.216 -37.970  1.00  0.00     0.293 HD
ENDBRANCH  15  18
BRANCH  17  20
ATOM     20  O   UNL     1      13.111 -28.653 -37.761  1.00  0.00    -0.504 OA
ATOM     21  H   UNL     1      13.761 -27.957 -37.415  1.00  0.00     0.293 HD
ENDBRANCH  17  20
ENDBRANCH   1  12
BRANCH   2  22
ATOM     22  O   UNL     1      14.452 -30.805 -34.150  1.00  0.00    -0.502 OA
ATOM     23  H   UNL     1      14.184 -30.047 -34.767  1.00  0.00     0.293 HD
ENDBRANCH   2  22
BRANCH   9  24
ATOM     24  O   UNL     1       9.981 -35.908 -30.356  1.00  0.00    -0.508 OA
ATOM     25  H   UNL     1       9.362 -36.446 -30.951  1.00  0.00     0.293 HD
ENDBRANCH   9  24
TORSDOF 5
ENDMDL
MODEL 2
REMARK VINA RESULT:    -4.698      2.271      3.642
REMARK INTER + INTRA:          -5.045
REMARK INTER:                  -5.051
REMARK INTRA:                   0.006
REMARK UNBOUND:                 0.477
REMARK SMILES O=c1c(O)c(-c2ccc(O)c(O)c2)oc2cc(O)ccc12
REMARK SMILES IDX 5 1 3 2 2 3 1 4 21 5 15 6 14 7 16 8 17 9 19 10 20 11 6 12
REMARK SMILES IDX 7 13 8 14 9 15 13 16 11 17 10 18 12 20 4 22 18 24
REMARK H PARENT 10 19 12 21 4 23 18 25
REMARK Flexibility Score: inf
ROOT
ATOM      1  C   UNL     1      11.652 -33.179 -31.967  1.00  0.00     0.180 A 
ATOM      2  C   UNL     1      11.327 -34.549 -31.886  1.00  0.00     0.208 A 
ATOM      3  C   UNL     1      11.635 -35.248 -30.709  1.00  0.00     0.235 A 
ATOM      4  O   UNL     1      11.364 -36.477 -30.617  1.00  0.00    -0.285 OA
ATOM      5  C   UNL     1      12.239 -34.568 -29.640  1.00  0.00     0.069 A 
ATOM      6  C   UNL     1      12.511 -33.191 -29.791  1.00  0.00     0.142 A 
ATOM      7  O   UNL     1      12.211 -32.567 -30.924  1.00  0.00    -0.452 OA
ATOM      8  C   UNL     1      13.103 -32.476 -28.743  1.00  0.00     0.094 A 
ATOM      9  C   UNL     1      13.428 -33.123 -27.544  1.00  0.00     0.119 A 
ATOM     10  C   UNL     1      13.161 -34.487 -27.392  1.00  0.00     0.047 A 
ATOM     11  C   UNL     1      12.569 -35.211 -28.433  1.00  0.00     0.020 A 
ENDROOT
BRANCH   1  12
ATOM     12  C   UNL     1      11.376 -32.375 -33.179  1.00  0.00     0.025 A 
ATOM     13  C   UNL     1      10.105 -32.371 -33.782  1.00  0.00     0.016 A 
ATOM     14  C   UNL     1       9.875 -31.624 -34.940  1.00  0.00     0.051 A 
ATOM     15  C   UNL     1      10.908 -30.882 -35.521  1.00  0.00     0.157 A 
ATOM     16  C   UNL     1      12.416 -31.646 -33.778  1.00  0.00     0.062 A 
ATOM     17  C   UNL     1      12.187 -30.895 -34.940  1.00  0.00     0.158 A 
BRANCH  15  18
ATOM     18  O   UNL     1      10.646 -30.145 -36.675  1.00  0.00    -0.504 OA
ATOM     19  H   UNL     1       9.954 -30.436 -37.355  1.00  0.00     0.293 HD
ENDBRANCH  15  18
BRANCH  17  20
ATOM     20  O   UNL     1      13.224 -30.164 -35.517  1.00  0.00    -0.504 OA
ATOM     21  H   UNL     1      13.163 -29.815 -36.467  1.00  0.00     0.293 HD
ENDBRANCH  17  20
ENDBRANCH   1  12
BRANCH   2  22
ATOM     22  O   UNL     1      10.682 -35.187 -32.949  1.00  0.00    -0.502 OA
ATOM     23  H   UNL     1       9.689 -35.387 -32.937  1.00  0.00     0.293 HD
ENDBRANCH   2  22
BRANCH   9  24
ATOM     24  O   UNL     1      14.018 -32.419 -26.496  1.00  0.00    -0.508 OA
ATOM     25  H   UNL     1      13.643 -32.457 -25.554  1.00  0.00     0.293 HD
ENDBRANCH   9  24
TORSDOF 5
ENDMDL
MODEL 3
REMARK VINA RESULT:    -4.015      2.278      3.865
REMARK INTER + INTRA:          -4.242
REMARK INTER:                  -4.395
REMARK INTRA:                   0.152
REMARK UNBOUND:                 0.477
REMARK SMILES O=c1c(O)c(-c2ccc(O)c(O)c2)oc2cc(O)ccc12
REMARK SMILES IDX 5 1 3 2 2 3 1 4 21 5 15 6 14 7 16 8 17 9 19 10 20 11 6 12
REMARK SMILES IDX 7 13 8 14 9 15 13 16 11 17 10 18 12 20 4 22 18 24
REMARK H PARENT 10 19 12 21 4 23 18 25
REMARK Flexibility Score: inf
ROOT
ATOM      1  C   UNL     1      11.808 -32.847 -32.009  1.00  0.00     0.180 A 
ATOM      2  C   UNL     1      10.932 -33.948 -31.915  1.00  0.00     0.208 A 
ATOM      3  C   UNL     1      10.830 -34.628 -30.693  1.00  0.00     0.235 A 
ATOM      4  O   UNL     1      10.060 -35.623 -30.586  1.00  0.00    -0.285 OA
ATOM      5  C   UNL     1      11.583 -34.189 -29.593  1.00  0.00     0.069 A 
ATOM      6  C   UNL     1      12.420 -33.064 -29.761  1.00  0.00     0.142 A 
ATOM      7  O   UNL     1      12.495 -32.453 -30.938  1.00  0.00    -0.452 OA
ATOM      8  C   UNL     1      13.179 -32.589 -28.685  1.00  0.00     0.094 A 
ATOM      9  C   UNL     1      13.113 -33.227 -27.440  1.00  0.00     0.119 A 
ATOM     10  C   UNL     1      12.286 -34.342 -27.270  1.00  0.00     0.047 A 
ATOM     11  C   UNL     1      11.522 -34.824 -28.339  1.00  0.00     0.020 A 
ENDROOT
BRANCH   1  12
ATOM     12  C   UNL     1      11.986 -32.088 -33.268  1.00  0.00     0.025 A 
ATOM     13  C   UNL     1      13.255 -31.648 -33.685  1.00  0.00     0.016 A 
ATOM     14  C   UNL     1      13.395 -30.912 -34.865  1.00  0.00     0.051 A 
ATOM     15  C   UNL     1      12.274 -30.594 -35.638  1.00  0.00     0.157 A 
ATOM     16  C   UNL     1      10.860 -31.749 -34.036  1.00  0.00     0.062 A 
ATOM     17  C   UNL     1      10.999 -31.012 -35.221  1.00  0.00     0.158 A 
BRANCH  15  18
ATOM     18  O   UNL     1      12.446 -29.862 -36.812  1.00  0.00    -0.504 OA
ATOM     19  H   UNL     1      12.662 -30.307 -37.697  1.00  0.00     0.293 HD
ENDBRANCH  15  18
BRANCH  17  20
ATOM     20  O   UNL     1       9.876 -30.693 -35.983  1.00  0.00    -0.504 OA
ATOM     21  H   UNL     1       9.077 -31.314 -36.038  1.00  0.00     0.293 HD
ENDBRANCH  17  20
ENDBRANCH   1  12
BRANCH   2  22
ATOM     22  O   UNL     1      10.158 -34.332 -33.014  1.00  0.00    -0.502 OA
ATOM     23  H   UNL     1      10.320 -35.199 -33.512  1.00  0.00     0.293 HD
ENDBRANCH   2  22
BRANCH   9  24
ATOM     24  O   UNL     1      13.865 -32.761 -26.364  1.00  0.00    -0.508 OA
ATOM     25  H   UNL     1      14.816 -32.431 -26.485  1.00  0.00     0.293 HD
ENDBRANCH   9  24
TORSDOF 5
ENDMDL
MODEL 4
REMARK VINA RESULT:    -3.071      1.714      6.860
REMARK INTER + INTRA:          -3.132
REMARK INTER:                  -2.910
REMARK INTRA:                  -0.223
REMARK UNBOUND:                 0.477
REMARK SMILES O=c1c(O)c(-c2ccc(O)c(O)c2)oc2cc(O)ccc12
REMARK SMILES IDX 5 1 3 2 2 3 1 4 21 5 15 6 14 7 16 8 17 9 19 10 20 11 6 12
REMARK SMILES IDX 7 13 8 14 9 15 13 16 11 17 10 18 12 20 4 22 18 24
REMARK H PARENT 10 19 12 21 4 23 18 25
REMARK Flexibility Score: inf
ROOT
ATOM      1  C   UNL     1      13.145 -33.135 -32.349  1.00  0.00     0.180 A 
ATOM      2  C   UNL     1      14.381 -32.478 -32.519  1.00  0.00     0.208 A 
ATOM      3  C   UNL     1      14.478 -31.457 -33.476  1.00  0.00     0.235 A 
ATOM      4  O   UNL     1      15.576 -30.861 -33.655  1.00  0.00    -0.285 OA
ATOM      5  C   UNL     1      13.344 -31.102 -34.224  1.00  0.00     0.069 A 
ATOM      6  C   UNL     1      12.137 -31.792 -33.978  1.00  0.00     0.142 A 
ATOM      7  O   UNL     1      12.089 -32.759 -33.068  1.00  0.00    -0.452 OA
ATOM      8  C   UNL     1      10.983 -31.459 -34.696  1.00  0.00     0.094 A 
ATOM      9  C   UNL     1      11.020 -30.445 -35.661  1.00  0.00     0.119 A 
ATOM     10  C   UNL     1      12.215 -29.761 -35.908  1.00  0.00     0.047 A 
ATOM     11  C   UNL     1      13.374 -30.084 -35.196  1.00  0.00     0.020 A 
ENDROOT
BRANCH   1  12
ATOM     12  C   UNL     1      12.966 -34.234 -31.373  1.00  0.00     0.025 A 
ATOM     13  C   UNL     1      12.966 -33.991 -29.988  1.00  0.00     0.016 A 
ATOM     14  C   UNL     1      12.820 -35.048 -29.086  1.00  0.00     0.051 A 
ATOM     15  C   UNL     1      12.686 -36.361 -29.548  1.00  0.00     0.157 A 
ATOM     16  C   UNL     1      12.853 -35.556 -31.834  1.00  0.00     0.062 A 
ATOM     17  C   UNL     1      12.706 -36.618 -30.929  1.00  0.00     0.158 A 
BRANCH  15  18
ATOM     18  O   UNL     1      12.539 -37.393 -28.623  1.00  0.00    -0.504 OA
ATOM     19  H   UNL     1      11.833 -37.369 -27.897  1.00  0.00     0.293 HD
ENDBRANCH  15  18
BRANCH  17  20
ATOM     20  O   UNL     1      12.580 -37.925 -31.398  1.00  0.00    -0.504 OA
ATOM     21  H   UNL     1      12.254 -38.674 -30.799  1.00  0.00     0.293 HD
ENDBRANCH  17  20
ENDBRANCH   1  12
BRANCH   2  22
ATOM     22  O   UNL     1      15.480 -32.820 -31.726  1.00  0.00    -0.502 OA
ATOM     23  H   UNL     1      16.433 -32.740 -32.059  1.00  0.00     0.293 HD
ENDBRANCH   2  22
BRANCH   9  24
ATOM     24  O   UNL     1       9.875 -30.108 -36.381  1.00  0.00    -0.508 OA
ATOM     25  H   UNL     1       9.829 -30.223 -37.387  1.00  0.00     0.293 HD
ENDBRANCH   9  24
TORSDOF 5
ENDMDL
MODEL 5
REMARK VINA RESULT:    -3.018      2.200      3.025
REMARK INTER + INTRA:          -3.071
REMARK INTER:                  -2.794
REMARK INTRA:                  -0.277
REMARK UNBOUND:                 0.477
REMARK SMILES O=c1c(O)c(-c2ccc(O)c(O)c2)oc2cc(O)ccc12
REMARK SMILES IDX 5 1 3 2 2 3 1 4 21 5 15 6 14 7 16 8 17 9 19 10 20 11 6 12
REMARK SMILES IDX 7 13 8 14 9 15 13 16 11 17 10 18 12 20 4 22 18 24
REMARK H PARENT 10 19 12 21 4 23 18 25
REMARK Flexibility Score: inf
ROOT
ATOM      1  C   UNL     1      11.923 -33.401 -32.072  1.00  0.00     0.180 A 
ATOM      2  C   UNL     1      12.294 -32.986 -30.776  1.00  0.00     0.208 A 
ATOM      3  C   UNL     1      12.620 -33.961 -29.822  1.00  0.00     0.235 A 
ATOM      4  O   UNL     1      12.946 -33.616 -28.652  1.00  0.00    -0.285 OA
ATOM      5  C   UNL     1      12.586 -35.318 -30.181  1.00  0.00     0.069 A 
ATOM      6  C   UNL     1      12.227 -35.650 -31.505  1.00  0.00     0.142 A 
ATOM      7  O   UNL     1      11.917 -34.697 -32.377  1.00  0.00    -0.452 OA
ATOM      8  C   UNL     1      12.192 -36.991 -31.905  1.00  0.00     0.094 A 
ATOM      9  C   UNL     1      12.511 -38.007 -30.995  1.00  0.00     0.119 A 
ATOM     10  C   UNL     1      12.867 -37.681 -29.682  1.00  0.00     0.047 A 
ATOM     11  C   UNL     1      12.906 -36.344 -29.273  1.00  0.00     0.020 A 
ENDROOT
BRANCH   1  12
ATOM     12  C   UNL     1      11.548 -32.435 -33.129  1.00  0.00     0.025 A 
ATOM     13  C   UNL     1      10.205 -32.229 -33.491  1.00  0.00     0.016 A 
ATOM     14  C   UNL     1       9.877 -31.330 -34.509  1.00  0.00     0.051 A 
ATOM     15  C   UNL     1      10.880 -30.633 -35.189  1.00  0.00     0.157 A 
ATOM     16  C   UNL     1      12.555 -31.749 -33.828  1.00  0.00     0.062 A 
ATOM     17  C   UNL     1      12.227 -30.846 -34.849  1.00  0.00     0.158 A 
BRANCH  15  18
ATOM     18  O   UNL     1      10.522 -29.741 -36.197  1.00  0.00    -0.504 OA
ATOM     19  H   UNL     1       9.610 -29.765 -36.639  1.00  0.00     0.293 HD
ENDBRANCH  15  18
BRANCH  17  20
ATOM     20  O   UNL     1      13.234 -30.160 -35.527  1.00  0.00    -0.504 OA
ATOM     21  H   UNL     1      13.689 -30.553 -36.343  1.00  0.00     0.293 HD
ENDBRANCH  17  20
ENDBRANCH   1  12
BRANCH   2  22
ATOM     22  O   UNL     1      12.366 -31.627 -30.461  1.00  0.00    -0.502 OA
ATOM     23  H   UNL     1      11.776 -31.203 -29.755  1.00  0.00     0.293 HD
ENDBRANCH   2  22
BRANCH   9  24
ATOM     24  O   UNL     1      12.479 -39.344 -31.385  1.00  0.00    -0.508 OA
ATOM     25  H   UNL     1      12.461 -39.611 -32.363  1.00  0.00     0.293 HD
ENDBRANCH   9  24
TORSDOF 5
ENDMDL
MODEL 6
REMARK VINA RESULT:    -2.920      1.943      2.918
REMARK INTER + INTRA:          -2.955
REMARK INTER:                  -2.664
REMARK INTRA:                  -0.291
REMARK UNBOUND:                 0.477
REMARK SMILES O=c1c(O)c(-c2ccc(O)c(O)c2)oc2cc(O)ccc12
REMARK SMILES IDX 5 1 3 2 2 3 1 4 21 5 15 6 14 7 16 8 17 9 19 10 20 11 6 12
REMARK SMILES IDX 7 13 8 14 9 15 13 16 11 17 10 18 12 20 4 22 18 24
REMARK H PARENT 10 19 12 21 4 23 18 25
REMARK Flexibility Score: inf
ROOT
ATOM      1  C   UNL     1      11.257 -32.726 -32.534  1.00  0.00     0.180 A 
ATOM      2  C   UNL     1      10.622 -32.282 -31.355  1.00  0.00     0.208 A 
ATOM      3  C   UNL     1      10.782 -33.030 -30.179  1.00  0.00     0.235 A 
ATOM      4  O   UNL     1      10.216 -32.660 -29.113  1.00  0.00    -0.285 OA
ATOM      5  C   UNL     1      11.579 -34.186 -30.198  1.00  0.00     0.069 A 
ATOM      6  C   UNL     1      12.199 -34.550 -31.413  1.00  0.00     0.142 A 
ATOM      7  O   UNL     1      12.016 -33.819 -32.507  1.00  0.00    -0.452 OA
ATOM      8  C   UNL     1      13.010 -35.690 -31.470  1.00  0.00     0.094 A 
ATOM      9  C   UNL     1      13.208 -36.473 -30.326  1.00  0.00     0.119 A 
ATOM     10  C   UNL     1      12.593 -36.115 -29.121  1.00  0.00     0.047 A 
ATOM     11  C   UNL     1      11.782 -34.977 -29.053  1.00  0.00     0.020 A 
ENDROOT
BRANCH   1  12
ATOM     12  C   UNL     1      11.123 -32.002 -33.819  1.00  0.00     0.025 A 
ATOM     13  C   UNL     1       9.968 -32.125 -34.612  1.00  0.00     0.016 A 
ATOM     14  C   UNL     1       9.875 -31.452 -35.832  1.00  0.00     0.051 A 
ATOM     15  C   UNL     1      10.933 -30.658 -36.287  1.00  0.00     0.157 A 
ATOM     16  C   UNL     1      12.192 -31.221 -34.287  1.00  0.00     0.062 A 
ATOM     17  C   UNL     1      12.100 -30.544 -35.512  1.00  0.00     0.158 A 
BRANCH  15  18
ATOM     18  O   UNL     1      10.808 -29.996 -37.507  1.00  0.00    -0.504 OA
ATOM     19  H   UNL     1       9.905 -29.786 -37.916  1.00  0.00     0.293 HD
ENDBRANCH  15  18
BRANCH  17  20
ATOM     20  O   UNL     1      13.161 -29.760 -35.961  1.00  0.00    -0.504 OA
ATOM     21  H   UNL     1      13.623 -29.946 -36.844  1.00  0.00     0.293 HD
ENDBRANCH  17  20
ENDBRANCH   1  12
BRANCH   2  22
ATOM     22  O   UNL     1       9.875 -31.101 -31.355  1.00  0.00    -0.502 OA
ATOM     23  H   UNL     1       9.628 -30.618 -30.500  1.00  0.00     0.293 HD
ENDBRANCH   2  22
BRANCH   9  24
ATOM     24  O   UNL     1      14.012 -37.609 -30.374  1.00  0.00    -0.508 OA
ATOM     25  H   UNL     1      13.935 -38.343 -29.679  1.00  0.00     0.293 HD
ENDBRANCH   9  24
TORSDOF 5
ENDMDL
