MODEL 1
REMARK VINA RESULT:    -4.077      0.000      0.000
REMARK INTER + INTRA:          -4.673
REMARK INTER:                  -4.435
REMARK INTRA:                  -0.238
REMARK UNBOUND:                -0.238
REMARK SMILES O=C([O-])c1ccccc1O
REMARK SMILES IDX 4 1 9 2 5 3 8 4 6 5 7 6 2 7 1 8 3 9 10 10
REMARK H PARENT 10 11
REMARK Flexibility Score: inf
ROOT
ATOM      1  C   UNL     1     -45.076 -13.092  -1.548  1.00  0.00     0.039 A 
ATOM      2  C   UNL     1     -45.830 -14.009  -2.325  1.00  0.00     0.124 A 
ATOM      3  C   UNL     1     -43.849 -12.620  -2.052  1.00  0.00     0.014 A 
ATOM      4  C   UNL     1     -45.375 -14.374  -3.598  1.00  0.00     0.047 A 
ATOM      5  C   UNL     1     -43.400 -13.012  -3.315  1.00  0.00     0.001 A 
ATOM      6  C   UNL     1     -44.167 -13.880  -4.091  1.00  0.00     0.004 A 
ENDROOT
BRANCH   1   7
ATOM      7  C   UNL     1     -45.547 -12.585  -0.240  1.00  0.00     0.075 C 
ATOM      8  O   UNL     1     -45.695 -11.347  -0.058  1.00  0.00    -0.545 OA
ATOM      9  O   UNL     1     -45.900 -13.461   0.778  1.00  0.00    -0.545 OA
ENDBRANCH   1   7
BRANCH   2  10
ATOM     10  O   UNL     1     -47.005 -14.600  -1.858  1.00  0.00    -0.507 OA
ATOM     11  H   UNL     1     -47.260 -15.558  -2.051  1.00  0.00     0.293 HD
ENDBRANCH   2  10
TORSDOF 2
ENDMDL
MODEL 2
REMARK VINA RESULT:    -3.710      2.763      3.666
REMARK INTER + INTRA:          -4.273
REMARK INTER:                  -4.021
REMARK INTRA:                  -0.253
REMARK UNBOUND:                -0.238
REMARK SMILES O=C([O-])c1ccccc1O
REMARK SMILES IDX 4 1 9 2 5 3 8 4 6 5 7 6 2 7 1 8 3 9 10 10
REMARK H PARENT 10 11
REMARK Flexibility Score: inf
ROOT
ATOM      1  C   UNL     1     -43.677 -14.584  -2.265  1.00  0.00     0.039 A 
ATOM      2  C   UNL     1     -45.061 -14.807  -2.486  1.00  0.00     0.124 A 
ATOM      3  C   UNL     1     -43.282 -13.501  -1.459  1.00  0.00     0.014 A 
ATOM      4  C   UNL     1     -46.003 -13.989  -1.849  1.00  0.00     0.047 A 
ATOM      5  C   UNL     1     -44.235 -12.682  -0.849  1.00  0.00     0.001 A 
ATOM      6  C   UNL     1     -45.593 -12.931  -1.035  1.00  0.00     0.004 A 
ENDROOT
BRANCH   1   7
ATOM      7  C   UNL     1     -42.632 -15.472  -2.823  1.00  0.00     0.075 C 
ATOM      8  O   UNL     1     -41.513 -14.999  -3.157  1.00  0.00    -0.545 OA
ATOM      9  O   UNL     1     -42.841 -16.842  -2.922  1.00  0.00    -0.545 OA
ENDBRANCH   1   7
BRANCH   2  10
ATOM     10  O   UNL     1     -45.535 -15.796  -3.349  1.00  0.00    -0.507 OA
ATOM     11  H   UNL     1     -45.230 -15.891  -4.307  1.00  0.00     0.293 HD
ENDBRANCH   2  10
TORSDOF 2
ENDMDL
MODEL 3
REMARK VINA RESULT:    -3.661      8.315      9.580
REMARK INTER + INTRA:          -4.221
REMARK INTER:                  -3.971
REMARK INTRA:                  -0.250
REMARK UNBOUND:                -0.238
REMARK SMILES O=C([O-])c1ccccc1O
REMARK SMILES IDX 4 1 9 2 5 3 8 4 6 5 7 6 2 7 1 8 3 9 10 10
REMARK H PARENT 10 11
REMARK Flexibility Score: inf
ROOT
ATOM      1  C   UNL     1     -44.714 -15.784   6.995  1.00  0.00     0.039 A 
ATOM      2  C   UNL     1     -44.165 -14.683   7.701  1.00  0.00     0.124 A 
ATOM      3  C   UNL     1     -44.183 -16.118   5.736  1.00  0.00     0.014 A 
ATOM      4  C   UNL     1     -43.070 -13.994   7.164  1.00  0.00     0.047 A 
ATOM      5  C   UNL     1     -43.105 -15.407   5.205  1.00  0.00     0.001 A 
ATOM      6  C   UNL     1     -42.542 -14.353   5.923  1.00  0.00     0.004 A 
ENDROOT
BRANCH   1   7
ATOM      7  C   UNL     1     -45.803 -16.618   7.551  1.00  0.00     0.075 C 
ATOM      8  O   UNL     1     -46.606 -17.206   6.779  1.00  0.00    -0.545 OA
ATOM      9  O   UNL     1     -45.915 -16.822   8.920  1.00  0.00    -0.545 OA
ENDBRANCH   1   7
BRANCH   2  10
ATOM     10  O   UNL     1     -44.694 -14.223   8.908  1.00  0.00    -0.507 OA
ATOM     11  H   UNL     1     -44.712 -13.249   9.172  1.00  0.00     0.293 HD
ENDBRANCH   2  10
TORSDOF 2
ENDMDL
MODEL 4
REMARK VINA RESULT:    -3.641      1.723      3.334
REMARK INTER + INTRA:          -4.199
REMARK INTER:                  -3.959
REMARK INTRA:                  -0.240
REMARK UNBOUND:                -0.238
REMARK SMILES O=C([O-])c1ccccc1O
REMARK SMILES IDX 4 1 9 2 5 3 8 4 6 5 7 6 2 7 1 8 3 9 10 10
REMARK H PARENT 10 11
REMARK Flexibility Score: inf
ROOT
ATOM      1  C   UNL     1     -44.608 -13.606  -2.154  1.00  0.00     0.039 A 
ATOM      2  C   UNL     1     -45.677 -13.356  -1.256  1.00  0.00     0.124 A 
ATOM      3  C   UNL     1     -43.576 -12.655  -2.264  1.00  0.00     0.014 A 
ATOM      4  C   UNL     1     -45.654 -12.208  -0.455  1.00  0.00     0.047 A 
ATOM      5  C   UNL     1     -43.579 -11.505  -1.472  1.00  0.00     0.001 A 
ATOM      6  C   UNL     1     -44.612 -11.286  -0.561  1.00  0.00     0.004 A 
ENDROOT
BRANCH   1   7
ATOM      7  C   UNL     1     -44.517 -14.848  -2.954  1.00  0.00     0.075 C 
ATOM      8  O   UNL     1     -45.563 -15.391  -3.399  1.00  0.00    -0.545 OA
ATOM      9  O   UNL     1     -43.283 -15.392  -3.285  1.00  0.00    -0.545 OA
ENDBRANCH   1   7
BRANCH   2  10
ATOM     10  O   UNL     1     -46.788 -14.197  -1.158  1.00  0.00    -0.507 OA
ATOM     11  H   UNL     1     -47.580 -14.004  -0.562  1.00  0.00     0.293 HD
ENDBRANCH   2  10
TORSDOF 2
ENDMDL
MODEL 5
REMARK VINA RESULT:    -3.594      1.590      1.857
REMARK INTER + INTRA:          -4.147
REMARK INTER:                  -3.899
REMARK INTRA:                  -0.248
REMARK UNBOUND:                -0.238
REMARK SMILES O=C([O-])c1ccccc1O
REMARK SMILES IDX 4 1 9 2 5 3 8 4 6 5 7 6 2 7 1 8 3 9 10 10
REMARK H PARENT 10 11
REMARK Flexibility Score: inf
ROOT
ATOM      1  C   UNL     1     -44.250 -13.385  -1.726  1.00  0.00     0.039 A 
ATOM      2  C   UNL     1     -45.578 -13.876  -1.635  1.00  0.00     0.124 A 
ATOM      3  C   UNL     1     -43.611 -13.380  -2.981  1.00  0.00     0.014 A 
ATOM      4  C   UNL     1     -46.246 -14.284  -2.795  1.00  0.00     0.047 A 
ATOM      5  C   UNL     1     -44.286 -13.811  -4.125  1.00  0.00     0.001 A 
ATOM      6  C   UNL     1     -45.605 -14.252  -4.035  1.00  0.00     0.004 A 
ENDROOT
BRANCH   1   7
ATOM      7  C   UNL     1     -43.522 -12.843  -0.557  1.00  0.00     0.075 C 
ATOM      8  O   UNL     1     -44.140 -12.188   0.324  1.00  0.00    -0.545 OA
ATOM      9  O   UNL     1     -42.170 -13.104  -0.378  1.00  0.00    -0.545 OA
ENDBRANCH   1   7
BRANCH   2  10
ATOM     10  O   UNL     1     -46.248 -14.007  -0.417  1.00  0.00    -0.507 OA
ATOM     11  H   UNL     1     -46.055 -13.430   0.389  1.00  0.00     0.293 HD
ENDBRANCH   2  10
TORSDOF 2
ENDMDL
MODEL 6
REMARK VINA RESULT:    -3.590      2.991      3.612
REMARK INTER + INTRA:          -4.143
REMARK INTER:                  -3.892
REMARK INTRA:                  -0.252
REMARK UNBOUND:                -0.238
REMARK SMILES O=C([O-])c1ccccc1O
REMARK SMILES IDX 4 1 9 2 5 3 8 4 6 5 7 6 2 7 1 8 3 9 10 10
REMARK H PARENT 10 11
REMARK Flexibility Score: inf
ROOT
ATOM      1  C   UNL     1     -43.507 -14.378  -1.776  1.00  0.00     0.039 A 
ATOM      2  C   UNL     1     -43.954 -14.678  -3.088  1.00  0.00     0.124 A 
ATOM      3  C   UNL     1     -44.447 -13.961  -0.816  1.00  0.00     0.014 A 
ATOM      4  C   UNL     1     -45.321 -14.617  -3.384  1.00  0.00     0.047 A 
ATOM      5  C   UNL     1     -45.804 -13.884  -1.134  1.00  0.00     0.001 A 
ATOM      6  C   UNL     1     -46.242 -14.222  -2.413  1.00  0.00     0.004 A 
ENDROOT
BRANCH   1   7
ATOM      7  C   UNL     1     -42.091 -14.521  -1.368  1.00  0.00     0.075 C 
ATOM      8  O   UNL     1     -41.804 -15.032  -0.253  1.00  0.00    -0.545 OA
ATOM      9  O   UNL     1     -41.062 -14.163  -2.229  1.00  0.00    -0.545 OA
ENDBRANCH   1   7
BRANCH   2  10
ATOM     10  O   UNL     1     -43.077 -15.003  -4.125  1.00  0.00    -0.507 OA
ATOM     11  H   UNL     1     -43.351 -15.032  -5.097  1.00  0.00     0.293 HD
ENDBRANCH   2  10
TORSDOF 2
ENDMDL
MODEL 7
REMARK VINA RESULT:    -3.570      2.419      3.838
REMARK INTER + INTRA:          -4.121
REMARK INTER:                  -3.911
REMARK INTRA:                  -0.211
REMARK UNBOUND:                -0.238
REMARK SMILES O=C([O-])c1ccccc1O
REMARK SMILES IDX 4 1 9 2 5 3 8 4 6 5 7 6 2 7 1 8 3 9 10 10
REMARK H PARENT 10 11
REMARK Flexibility Score: inf
ROOT
ATOM      1  C   UNL     1     -44.417 -14.579  -1.524  1.00  0.00     0.039 A 
ATOM      2  C   UNL     1     -45.660 -14.241  -0.929  1.00  0.00     0.124 A 
ATOM      3  C   UNL     1     -43.309 -14.827  -0.692  1.00  0.00     0.014 A 
ATOM      4  C   UNL     1     -45.776 -14.224   0.467  1.00  0.00     0.047 A 
ATOM      5  C   UNL     1     -43.438 -14.784   0.698  1.00  0.00     0.001 A 
ATOM      6  C   UNL     1     -44.672 -14.493   1.277  1.00  0.00     0.004 A 
ENDROOT
BRANCH   1   7
ATOM      7  C   UNL     1     -44.250 -14.717  -2.988  1.00  0.00     0.075 C 
ATOM      8  O   UNL     1     -43.239 -15.304  -3.456  1.00  0.00    -0.545 OA
ATOM      9  O   UNL     1     -45.232 -14.267  -3.861  1.00  0.00    -0.545 OA
ENDBRANCH   1   7
BRANCH   2  10
ATOM     10  O   UNL     1     -46.781 -13.885  -1.681  1.00  0.00    -0.507 OA
ATOM     11  H   UNL     1     -46.828 -13.051  -2.248  1.00  0.00     0.293 HD
ENDBRANCH   2  10
TORSDOF 2
ENDMDL
MODEL 8
REMARK VINA RESULT:    -3.521      3.419      4.538
REMARK INTER + INTRA:          -4.068
REMARK INTER:                  -3.817
REMARK INTRA:                  -0.251
REMARK UNBOUND:                -0.238
REMARK SMILES O=C([O-])c1ccccc1O
REMARK SMILES IDX 4 1 9 2 5 3 8 4 6 5 7 6 2 7 1 8 3 9 10 10
REMARK H PARENT 10 11
REMARK Flexibility Score: inf
ROOT
ATOM      1  C   UNL     1     -43.120 -14.653  -1.920  1.00  0.00     0.039 A 
ATOM      2  C   UNL     1     -41.753 -14.326  -2.115  1.00  0.00     0.124 A 
ATOM      3  C   UNL     1     -43.559 -15.003  -0.630  1.00  0.00     0.014 A 
ATOM      4  C   UNL     1     -40.886 -14.295  -1.015  1.00  0.00     0.047 A 
ATOM      5  C   UNL     1     -42.676 -14.988   0.452  1.00  0.00     0.001 A 
ATOM      6  C   UNL     1     -41.343 -14.624   0.261  1.00  0.00     0.004 A 
ENDROOT
BRANCH   1   7
ATOM      7  C   UNL     1     -44.111 -14.604  -3.018  1.00  0.00     0.075 C 
ATOM      8  O   UNL     1     -45.113 -15.368  -3.000  1.00  0.00    -0.545 OA
ATOM      9  O   UNL     1     -43.991 -13.676  -4.044  1.00  0.00    -0.545 OA
ENDBRANCH   1   7
BRANCH   2  10
ATOM     10  O   UNL     1     -41.215 -14.063  -3.376  1.00  0.00    -0.507 OA
ATOM     11  H   UNL     1     -40.811 -13.175  -3.634  1.00  0.00     0.293 HD
ENDBRANCH   2  10
TORSDOF 2
ENDMDL
MODEL 9
REMARK VINA RESULT:    -1.374     10.017     11.647
REMARK INTER + INTRA:          -1.732
REMARK INTER:                  -1.489
REMARK INTRA:                  -0.243
REMARK UNBOUND:                -0.238
REMARK SMILES O=C([O-])c1ccccc1O
REMARK SMILES IDX 4 1 9 2 5 3 8 4 6 5 7 6 2 7 1 8 3 9 10 10
REMARK H PARENT 10 11
REMARK Flexibility Score: inf
ROOT
ATOM      1  C   UNL     1     -53.156  -6.695   1.146  1.00  0.00     0.039 A 
ATOM      2  C   UNL     1     -53.306  -5.414   0.557  1.00  0.00     0.124 A 
ATOM      3  C   UNL     1     -54.063  -7.097   2.145  1.00  0.00     0.014 A 
ATOM      4  C   UNL     1     -54.386  -4.603   0.931  1.00  0.00     0.047 A 
ATOM      5  C   UNL     1     -55.121  -6.267   2.521  1.00  0.00     0.001 A 
ATOM      6  C   UNL     1     -55.289  -5.026   1.908  1.00  0.00     0.004 A 
ENDROOT
BRANCH   1   7
ATOM      7  C   UNL     1     -52.100  -7.643   0.725  1.00  0.00     0.075 C 
ATOM      8  O   UNL     1     -51.694  -7.648  -0.468  1.00  0.00    -0.545 OA
ATOM      9  O   UNL     1     -51.494  -8.488   1.645  1.00  0.00    -0.545 OA
ENDBRANCH   1   7
BRANCH   2  10
ATOM     10  O   UNL     1     -52.395  -4.899  -0.367  1.00  0.00    -0.507 OA
ATOM     11  H   UNL     1     -52.660  -4.298  -1.134  1.00  0.00     0.293 HD
ENDBRANCH   2  10
TORSDOF 2
ENDMDL
