MODEL 1
REMARK VINA RESULT:    -4.977      0.000      0.000
REMARK INTER + INTRA:          -8.419
REMARK INTER:                  -7.595
REMARK INTRA:                  -0.823
REMARK UNBOUND:                -0.823
REMARK SMILES CCCCCCCCCCC(=O)[O-]
REMARK SMILES IDX 7 1 8 2 9 3 10 4 11 5 12 6 13 7 6 8 5 9 4 10 3 11 2 12 1 13
REMARK H PARENT
REMARK Flexibility Score: inf
ROOT
ATOM      1  C   UNL     1      10.752 -12.840  24.391  1.00  0.00     0.000 C 
ENDROOT
BRANCH   1   2
ATOM      2  C   UNL     1      12.253 -12.637  24.629  1.00  0.00     0.000 C 
BRANCH   2   3
ATOM      3  C   UNL     1      12.608 -12.847  26.109  1.00  0.00     0.006 C 
BRANCH   3   4
ATOM      4  C   UNL     1      14.125 -12.888  26.342  1.00  0.00     0.053 C 
BRANCH   4   5
ATOM      5  C   UNL     1      14.492 -13.820  27.456  1.00  0.00     0.041 C 
ATOM      6  O   UNL     1      14.332 -13.467  28.654  1.00  0.00    -0.550 OA
ATOM      7  O   UNL     1      15.041 -15.064  27.171  1.00  0.00    -0.550 OA
ENDBRANCH   4   5
ENDBRANCH   3   4
ENDBRANCH   2   3
ENDBRANCH   1   2
BRANCH   1   8
ATOM      8  C   UNL     1       9.982 -11.525  24.579  1.00  0.00     0.000 C 
BRANCH   8   9
ATOM      9  C   UNL     1       8.980 -11.581  25.745  1.00  0.00    -0.000 C 
BRANCH   9  10
ATOM     10  C   UNL     1       8.373 -12.972  26.016  1.00  0.00    -0.000 C 
BRANCH  10  11
ATOM     11  C   UNL     1       8.286 -13.372  27.503  1.00  0.00    -0.000 C 
BRANCH  11  12
ATOM     12  C   UNL     1       9.029 -12.431  28.469  1.00  0.00    -0.003 C 
ATOM     13  C   UNL     1      10.265 -13.077  29.092  1.00  0.00     0.004 C 
ENDBRANCH  11  12
ENDBRANCH  10  11
ENDBRANCH   9  10
ENDBRANCH   8   9
ENDBRANCH   1   8
TORSDOF 9
ENDMDL
MODEL 2
REMARK VINA RESULT:    -4.860      0.921      1.333
REMARK INTER + INTRA:          -8.240
REMARK INTER:                  -7.441
REMARK INTRA:                  -0.800
REMARK UNBOUND:                -0.823
REMARK SMILES CCCCCCCCCCC(=O)[O-]
REMARK SMILES IDX 7 1 8 2 9 3 10 4 11 5 12 6 13 7 6 8 5 9 4 10 3 11 2 12 1 13
REMARK H PARENT
REMARK Flexibility Score: inf
ROOT
ATOM      1  C   UNL     1      10.520 -12.566  23.908  1.00  0.00     0.000 C 
ENDROOT
BRANCH   1   2
ATOM      2  C   UNL     1      11.770 -13.390  24.236  1.00  0.00     0.000 C 
BRANCH   2   3
ATOM      3  C   UNL     1      12.459 -12.864  25.504  1.00  0.00     0.006 C 
BRANCH   3   4
ATOM      4  C   UNL     1      13.980 -13.065  25.465  1.00  0.00     0.053 C 
BRANCH   4   5
ATOM      5  C   UNL     1      14.369 -14.451  25.881  1.00  0.00     0.041 C 
ATOM      6  O   UNL     1      14.624 -15.324  25.011  1.00  0.00    -0.550 OA
ATOM      7  O   UNL     1      14.417 -14.786  27.228  1.00  0.00    -0.550 OA
ENDBRANCH   4   5
ENDBRANCH   3   4
ENDBRANCH   2   3
ENDBRANCH   1   2
BRANCH   1   8
ATOM      8  C   UNL     1      10.296 -11.465  24.956  1.00  0.00     0.000 C 
BRANCH   8   9
ATOM      9  C   UNL     1       8.962 -11.615  25.706  1.00  0.00    -0.000 C 
BRANCH   9  10
ATOM     10  C   UNL     1       8.565 -13.067  26.044  1.00  0.00    -0.000 C 
BRANCH  10  11
ATOM     11  C   UNL     1       8.110 -13.301  27.499  1.00  0.00    -0.000 C 
BRANCH  11  12
ATOM     12  C   UNL     1       8.828 -12.433  28.547  1.00  0.00    -0.003 C 
ATOM     13  C   UNL     1      10.203 -12.979  28.930  1.00  0.00     0.004 C 
ENDBRANCH  11  12
ENDBRANCH  10  11
ENDBRANCH   9  10
ENDBRANCH   8   9
ENDBRANCH   1   8
TORSDOF 9
ENDMDL
MODEL 3
REMARK VINA RESULT:    -4.800      5.125      6.120
REMARK INTER + INTRA:          -8.149
REMARK INTER:                  -7.852
REMARK INTRA:                  -0.297
REMARK UNBOUND:                -0.823
REMARK SMILES CCCCCCCCCCC(=O)[O-]
REMARK SMILES IDX 7 1 8 2 9 3 10 4 11 5 12 6 13 7 6 8 5 9 4 10 3 11 2 12 1 13
REMARK H PARENT
REMARK Flexibility Score: inf
ROOT
ATOM      1  C   UNL     1       9.758 -12.164  23.564  1.00  0.00     0.000 C 
ENDROOT
BRANCH   1   2
ATOM      2  C   UNL     1       9.393 -11.710  22.146  1.00  0.00     0.000 C 
BRANCH   2   3
ATOM      3  C   UNL     1       9.813 -12.762  21.107  1.00  0.00     0.006 C 
BRANCH   3   4
ATOM      4  C   UNL     1      10.448 -12.126  19.862  1.00  0.00     0.053 C 
BRANCH   4   5
ATOM      5  C   UNL     1       9.425 -11.818  18.812  1.00  0.00     0.041 C 
ATOM      6  O   UNL     1       8.360 -12.486  18.752  1.00  0.00    -0.550 OA
ATOM      7  O   UNL     1       9.664 -10.817  17.879  1.00  0.00    -0.550 OA
ENDBRANCH   4   5
ENDBRANCH   3   4
ENDBRANCH   2   3
ENDBRANCH   1   2
BRANCH   1   8
ATOM      8  C   UNL     1       9.008 -11.335  24.617  1.00  0.00     0.000 C 
BRANCH   8   9
ATOM      9  C   UNL     1       9.233 -11.846  26.051  1.00  0.00    -0.000 C 
BRANCH   9  10
ATOM     10  C   UNL     1       8.541 -13.184  26.381  1.00  0.00    -0.000 C 
BRANCH  10  11
ATOM     11  C   UNL     1       8.073 -13.338  27.842  1.00  0.00    -0.000 C 
BRANCH  11  12
ATOM     12  C   UNL     1       8.946 -12.610  28.879  1.00  0.00    -0.003 C 
ATOM     13  C   UNL     1       8.139 -12.058  30.053  1.00  0.00     0.004 C 
ENDBRANCH  11  12
ENDBRANCH  10  11
ENDBRANCH   9  10
ENDBRANCH   8   9
ENDBRANCH   1   8
TORSDOF 9
ENDMDL
MODEL 4
REMARK VINA RESULT:    -4.712      1.404      1.893
REMARK INTER + INTRA:          -8.014
REMARK INTER:                  -7.330
REMARK INTRA:                  -0.684
REMARK UNBOUND:                -0.823
REMARK SMILES CCCCCCCCCCC(=O)[O-]
REMARK SMILES IDX 7 1 8 2 9 3 10 4 11 5 12 6 13 7 6 8 5 9 4 10 3 11 2 12 1 13
REMARK H PARENT
REMARK Flexibility Score: inf
ROOT
ATOM      1  C   UNL     1      11.903 -12.359  25.324  1.00  0.00     0.000 C 
ENDROOT
BRANCH   1   2
ATOM      2  C   UNL     1      13.292 -12.090  24.736  1.00  0.00     0.000 C 
BRANCH   2   3
ATOM      3  C   UNL     1      14.375 -12.176  25.823  1.00  0.00     0.006 C 
BRANCH   3   4
ATOM      4  C   UNL     1      14.398 -13.547  26.513  1.00  0.00     0.053 C 
BRANCH   4   5
ATOM      5  C   UNL     1      14.861 -14.629  25.586  1.00  0.00     0.041 C 
ATOM      6  O   UNL     1      15.903 -14.469  24.898  1.00  0.00    -0.550 OA
ATOM      7  O   UNL     1      14.125 -15.800  25.457  1.00  0.00    -0.550 OA
ENDBRANCH   4   5
ENDBRANCH   3   4
ENDBRANCH   2   3
ENDBRANCH   1   2
BRANCH   1   8
ATOM      8  C   UNL     1      10.868 -12.581  24.211  1.00  0.00     0.000 C 
BRANCH   8   9
ATOM      9  C   UNL     1       9.670 -11.621  24.308  1.00  0.00    -0.000 C 
BRANCH   9  10
ATOM     10  C   UNL     1       8.940 -11.624  25.666  1.00  0.00    -0.000 C 
BRANCH  10  11
ATOM     11  C   UNL     1       8.312 -12.973  26.071  1.00  0.00    -0.000 C 
BRANCH  11  12
ATOM     12  C   UNL     1       8.363 -13.283  27.577  1.00  0.00    -0.003 C 
ATOM     13  C   UNL     1       9.550 -12.625  28.279  1.00  0.00     0.004 C 
ENDBRANCH  11  12
ENDBRANCH  10  11
ENDBRANCH   9  10
ENDBRANCH   8   9
ENDBRANCH   1   8
TORSDOF 9
ENDMDL
MODEL 5
REMARK VINA RESULT:    -4.598      2.374      5.166
REMARK INTER + INTRA:          -7.841
REMARK INTER:                  -7.362
REMARK INTRA:                  -0.479
REMARK UNBOUND:                -0.823
REMARK SMILES CCCCCCCCCCC(=O)[O-]
REMARK SMILES IDX 7 1 8 2 9 3 10 4 11 5 12 6 13 7 6 8 5 9 4 10 3 11 2 12 1 13
REMARK H PARENT
REMARK Flexibility Score: inf
ROOT
ATOM      1  C   UNL     1       9.719 -11.547  24.447  1.00  0.00     0.000 C 
ENDROOT
BRANCH   1   2
ATOM      2  C   UNL     1       8.895 -11.677  25.733  1.00  0.00     0.000 C 
BRANCH   2   3
ATOM      3  C   UNL     1       8.822 -13.141  26.193  1.00  0.00     0.006 C 
BRANCH   3   4
ATOM      4  C   UNL     1       8.129 -13.287  27.555  1.00  0.00     0.053 C 
BRANCH   4   5
ATOM      5  C   UNL     1       8.869 -12.561  28.637  1.00  0.00     0.041 C 
ATOM      6  O   UNL     1      10.106 -12.742  28.788  1.00  0.00    -0.550 OA
ATOM      7  O   UNL     1       8.187 -11.711  29.498  1.00  0.00    -0.550 OA
ENDBRANCH   4   5
ENDBRANCH   3   4
ENDBRANCH   2   3
ENDBRANCH   1   2
BRANCH   1   8
ATOM      8  C   UNL     1      10.888 -12.544  24.439  1.00  0.00     0.000 C 
BRANCH   8   9
ATOM      9  C   UNL     1      12.183 -11.951  25.019  1.00  0.00    -0.000 C 
BRANCH   9  10
ATOM     10  C   UNL     1      13.469 -12.316  24.251  1.00  0.00    -0.000 C 
BRANCH  10  11
ATOM     11  C   UNL     1      14.488 -13.162  25.041  1.00  0.00    -0.000 C 
BRANCH  11  12
ATOM     12  C   UNL     1      14.207 -14.675  25.043  1.00  0.00    -0.003 C 
ATOM     13  C   UNL     1      14.618 -15.354  26.349  1.00  0.00     0.004 C 
ENDBRANCH  11  12
ENDBRANCH  10  11
ENDBRANCH   9  10
ENDBRANCH   8   9
ENDBRANCH   1   8
TORSDOF 9
ENDMDL
MODEL 6
REMARK VINA RESULT:    -4.595      1.348      1.566
REMARK INTER + INTRA:          -7.836
REMARK INTER:                  -7.323
REMARK INTRA:                  -0.513
REMARK UNBOUND:                -0.823
REMARK SMILES CCCCCCCCCCC(=O)[O-]
REMARK SMILES IDX 7 1 8 2 9 3 10 4 11 5 12 6 13 7 6 8 5 9 4 10 3 11 2 12 1 13
REMARK H PARENT
REMARK Flexibility Score: inf
ROOT
ATOM      1  C   UNL     1      10.333 -12.353  23.399  1.00  0.00     0.000 C 
ENDROOT
BRANCH   1   2
ATOM      2  C   UNL     1      11.592 -13.042  23.938  1.00  0.00     0.000 C 
BRANCH   2   3
ATOM      3  C   UNL     1      12.299 -12.161  24.979  1.00  0.00     0.006 C 
BRANCH   3   4
ATOM      4  C   UNL     1      13.825 -12.178  24.815  1.00  0.00     0.053 C 
BRANCH   4   5
ATOM      5  C   UNL     1      14.415 -13.487  25.241  1.00  0.00     0.041 C 
ATOM      6  O   UNL     1      14.016 -14.047  26.295  1.00  0.00    -0.550 OA
ATOM      7  O   UNL     1      15.429 -14.071  24.492  1.00  0.00    -0.550 OA
ENDBRANCH   4   5
ENDBRANCH   3   4
ENDBRANCH   2   3
ENDBRANCH   1   2
BRANCH   1   8
ATOM      8  C   UNL     1       9.674 -11.486  24.481  1.00  0.00     0.000 C 
BRANCH   8   9
ATOM      9  C   UNL     1       8.651 -12.262  25.328  1.00  0.00    -0.000 C 
BRANCH   9  10
ATOM     10  C   UNL     1       8.994 -12.368  26.828  1.00  0.00    -0.000 C 
BRANCH  10  11
ATOM     11  C   UNL     1       8.141 -13.374  27.626  1.00  0.00    -0.000 C 
BRANCH  11  12
ATOM     12  C   UNL     1       8.087 -13.114  29.142  1.00  0.00    -0.003 C 
ATOM     13  C   UNL     1       9.446 -12.733  29.729  1.00  0.00     0.004 C 
ENDBRANCH  11  12
ENDBRANCH  10  11
ENDBRANCH   9  10
ENDBRANCH   8   9
ENDBRANCH   1   8
TORSDOF 9
ENDMDL
MODEL 7
REMARK VINA RESULT:    -4.363      8.565     10.273
REMARK INTER + INTRA:          -7.481
REMARK INTER:                  -6.981
REMARK INTRA:                  -0.500
REMARK UNBOUND:                -0.823
REMARK SMILES CCCCCCCCCCC(=O)[O-]
REMARK SMILES IDX 7 1 8 2 9 3 10 4 11 5 12 6 13 7 6 8 5 9 4 10 3 11 2 12 1 13
REMARK H PARENT
REMARK Flexibility Score: inf
ROOT
ATOM      1  C   UNL     1      18.269 -15.619  24.421  1.00  0.00     0.000 C 
ENDROOT
BRANCH   1   2
ATOM      2  C   UNL     1      18.801 -14.191  24.255  1.00  0.00     0.000 C 
BRANCH   2   3
ATOM      3  C   UNL     1      20.333 -14.157  24.375  1.00  0.00     0.006 C 
BRANCH   3   4
ATOM      4  C   UNL     1      20.916 -12.792  23.986  1.00  0.00     0.053 C 
BRANCH   4   5
ATOM      5  C   UNL     1      22.208 -12.517  24.693  1.00  0.00     0.041 C 
ATOM      6  O   UNL     1      23.302 -12.652  24.085  1.00  0.00    -0.550 OA
ATOM      7  O   UNL     1      22.205 -12.143  26.031  1.00  0.00    -0.550 OA
ENDBRANCH   4   5
ENDBRANCH   3   4
ENDBRANCH   2   3
ENDBRANCH   1   2
BRANCH   1   8
ATOM      8  C   UNL     1      19.398 -16.649  24.263  1.00  0.00     0.000 C 
BRANCH   8   9
ATOM      9  C   UNL     1      19.171 -17.606  23.080  1.00  0.00    -0.000 C 
BRANCH   9  10
ATOM     10  C   UNL     1      19.203 -16.941  21.689  1.00  0.00    -0.000 C 
BRANCH  10  11
ATOM     11  C   UNL     1      18.617 -17.789  20.542  1.00  0.00    -0.000 C 
BRANCH  11  12
ATOM     12  C   UNL     1      17.119 -17.560  20.271  1.00  0.00    -0.003 C 
ATOM     13  C   UNL     1      16.819 -17.276  18.800  1.00  0.00     0.004 C 
ENDBRANCH  11  12
ENDBRANCH  10  11
ENDBRANCH   9  10
ENDBRANCH   8   9
ENDBRANCH   1   8
TORSDOF 9
ENDMDL
MODEL 8
REMARK VINA RESULT:    -4.332      2.214      4.683
REMARK INTER + INTRA:          -7.434
REMARK INTER:                  -6.816
REMARK INTRA:                  -0.619
REMARK UNBOUND:                -0.823
REMARK SMILES CCCCCCCCCCC(=O)[O-]
REMARK SMILES IDX 7 1 8 2 9 3 10 4 11 5 12 6 13 7 6 8 5 9 4 10 3 11 2 12 1 13
REMARK H PARENT
REMARK Flexibility Score: inf
ROOT
ATOM      1  C   UNL     1      10.877 -12.466  24.699  1.00  0.00     0.000 C 
ENDROOT
BRANCH   1   2
ATOM      2  C   UNL     1       9.802 -11.383  24.850  1.00  0.00     0.000 C 
BRANCH   2   3
ATOM      3  C   UNL     1       9.008 -11.574  26.152  1.00  0.00     0.006 C 
BRANCH   3   4
ATOM      4  C   UNL     1       9.439 -12.833  26.916  1.00  0.00     0.053 C 
BRANCH   4   5
ATOM      5  C   UNL     1       9.407 -12.623  28.399  1.00  0.00     0.041 C 
ATOM      6  O   UNL     1       8.506 -11.912  28.917  1.00  0.00    -0.550 OA
ATOM      7  O   UNL     1      10.389 -13.184  29.205  1.00  0.00    -0.550 OA
ENDBRANCH   4   5
ENDBRANCH   3   4
ENDBRANCH   2   3
ENDBRANCH   1   2
BRANCH   1   8
ATOM      8  C   UNL     1      12.273 -11.901  25.000  1.00  0.00     0.000 C 
BRANCH   8   9
ATOM      9  C   UNL     1      13.404 -12.876  24.629  1.00  0.00    -0.000 C 
BRANCH   9  10
ATOM     10  C   UNL     1      13.955 -13.712  25.802  1.00  0.00    -0.000 C 
BRANCH  10  11
ATOM     11  C   UNL     1      13.374 -13.363  27.187  1.00  0.00    -0.000 C 
BRANCH  11  12
ATOM     12  C   UNL     1      14.395 -13.384  28.338  1.00  0.00    -0.003 C 
ATOM     13  C   UNL     1      15.692 -12.651  27.996  1.00  0.00     0.004 C 
ENDBRANCH  11  12
ENDBRANCH  10  11
ENDBRANCH   9  10
ENDBRANCH   8   9
ENDBRANCH   1   8
TORSDOF 9
ENDMDL
MODEL 9
REMARK VINA RESULT:    -4.226      1.570      2.988
REMARK INTER + INTRA:          -7.272
REMARK INTER:                  -6.539
REMARK INTRA:                  -0.733
REMARK UNBOUND:                -0.823
REMARK SMILES CCCCCCCCCCC(=O)[O-]
REMARK SMILES IDX 7 1 8 2 9 3 10 4 11 5 12 6 13 7 6 8 5 9 4 10 3 11 2 12 1 13
REMARK H PARENT
REMARK Flexibility Score: inf
ROOT
ATOM      1  C   UNL     1      14.047 -12.535  23.789  1.00  0.00     0.000 C 
ENDROOT
BRANCH   1   2
ATOM      2  C   UNL     1      15.291 -13.095  24.486  1.00  0.00     0.000 C 
BRANCH   2   3
ATOM      3  C   UNL     1      15.308 -14.631  24.432  1.00  0.00     0.006 C 
BRANCH   3   4
ATOM      4  C   UNL     1      14.550 -15.262  25.608  1.00  0.00     0.053 C 
BRANCH   4   5
ATOM      5  C   UNL     1      14.979 -14.682  26.922  1.00  0.00     0.041 C 
ATOM      6  O   UNL     1      16.163 -14.830  27.322  1.00  0.00    -0.550 OA
ATOM      7  O   UNL     1      14.063 -14.008  27.718  1.00  0.00    -0.550 OA
ENDBRANCH   4   5
ENDBRANCH   3   4
ENDBRANCH   2   3
ENDBRANCH   1   2
BRANCH   1   8
ATOM      8  C   UNL     1      13.131 -11.816  24.791  1.00  0.00     0.000 C 
BRANCH   8   9
ATOM      9  C   UNL     1      11.917 -12.665  25.206  1.00  0.00    -0.000 C 
BRANCH   9  10
ATOM     10  C   UNL     1      10.731 -12.630  24.222  1.00  0.00    -0.000 C 
BRANCH  10  11
ATOM     11  C   UNL     1       9.724 -11.484  24.446  1.00  0.00    -0.000 C 
BRANCH  11  12
ATOM     12  C   UNL     1       8.955 -11.552  25.777  1.00  0.00    -0.003 C 
ATOM     13  C   UNL     1       8.344 -12.928  26.041  1.00  0.00     0.004 C 
ENDBRANCH  11  12
ENDBRANCH  10  11
ENDBRANCH   9  10
ENDBRANCH   8   9
ENDBRANCH   1   8
TORSDOF 9
ENDMDL
