MODEL 1
REMARK VINA RESULT:    -5.543      0.000      0.000
REMARK INTER + INTRA:          -6.061
REMARK INTER:                  -6.029
REMARK INTRA:                  -0.032
REMARK UNBOUND:                -0.032
REMARK SMILES O=C([O-])c1ccc(O)cc1
REMARK SMILES IDX 4 1 5 2 10 3 6 4 9 5 7 6 2 7 1 8 3 9 8 10
REMARK H PARENT 8 11
REMARK Flexibility Score: inf
ROOT
ATOM      1  C   UNL     1       8.757 -55.160 -29.441  1.00  0.00    -0.003 A 
ATOM      2  C   UNL     1       7.587 -55.931 -29.320  1.00  0.00     0.014 A 
ATOM      3  C   UNL     1       8.912 -54.330 -30.566  1.00  0.00     0.014 A 
ATOM      4  C   UNL     1       6.595 -55.873 -30.303  1.00  0.00     0.047 A 
ATOM      5  C   UNL     1       7.918 -54.275 -31.548  1.00  0.00     0.047 A 
ATOM      6  C   UNL     1       6.758 -55.045 -31.420  1.00  0.00     0.115 A 
ENDROOT
BRANCH   1   7
ATOM      7  C   UNL     1       9.811 -55.216 -28.404  1.00  0.00     0.071 C 
ATOM      8  O   UNL     1      10.422 -54.171 -28.055  1.00  0.00    -0.545 OA
ATOM      9  O   UNL     1      10.142 -56.423 -27.801  1.00  0.00    -0.545 OA
ENDBRANCH   1   7
BRANCH   6  10
ATOM     10  O   UNL     1       5.776 -54.979 -32.406  1.00  0.00    -0.508 OA
ATOM     11  H   UNL     1       4.799 -55.134 -32.191  1.00  0.00     0.293 HD
ENDBRANCH   6  10
TORSDOF 2
ENDMDL
MODEL 2
REMARK VINA RESULT:    -5.536      0.099      1.534
REMARK INTER + INTRA:          -6.054
REMARK INTER:                  -6.023
REMARK INTRA:                  -0.031
REMARK UNBOUND:                -0.032
REMARK SMILES O=C([O-])c1ccc(O)cc1
REMARK SMILES IDX 4 1 5 2 10 3 6 4 9 5 7 6 2 7 1 8 3 9 8 10
REMARK H PARENT 8 11
REMARK Flexibility Score: inf
ROOT
ATOM      1  C   UNL     1       8.796 -55.138 -29.433  1.00  0.00    -0.003 A 
ATOM      2  C   UNL     1       8.906 -54.327 -30.578  1.00  0.00     0.014 A 
ATOM      3  C   UNL     1       7.645 -55.927 -29.266  1.00  0.00     0.014 A 
ATOM      4  C   UNL     1       7.885 -54.307 -31.532  1.00  0.00     0.047 A 
ATOM      5  C   UNL     1       6.625 -55.905 -30.222  1.00  0.00     0.047 A 
ATOM      6  C   UNL     1       6.741 -55.096 -31.357  1.00  0.00     0.115 A 
ENDROOT
BRANCH   1   7
ATOM      7  C   UNL     1       9.874 -55.164 -28.420  1.00  0.00     0.071 C 
ATOM      8  O   UNL     1      10.420 -54.094 -28.038  1.00  0.00    -0.545 OA
ATOM      9  O   UNL     1      10.299 -56.369 -27.874  1.00  0.00    -0.545 OA
ENDBRANCH   1   7
BRANCH   6  10
ATOM     10  O   UNL     1       5.717 -55.084 -32.301  1.00  0.00    -0.508 OA
ATOM     11  H   UNL     1       5.583 -55.854 -32.946  1.00  0.00     0.293 HD
ENDBRANCH   6  10
TORSDOF 2
ENDMDL
MODEL 3
REMARK VINA RESULT:    -5.477      0.999      4.208
REMARK INTER + INTRA:          -5.989
REMARK INTER:                  -5.958
REMARK INTRA:                  -0.031
REMARK UNBOUND:                -0.032
REMARK SMILES O=C([O-])c1ccc(O)cc1
REMARK SMILES IDX 4 1 5 2 10 3 6 4 9 5 7 6 2 7 1 8 3 9 8 10
REMARK H PARENT 8 11
REMARK Flexibility Score: inf
ROOT
ATOM      1  C   UNL     1       7.895 -55.039 -31.095  1.00  0.00    -0.003 A 
ATOM      2  C   UNL     1       7.627 -55.904 -30.017  1.00  0.00     0.014 A 
ATOM      3  C   UNL     1       9.038 -54.221 -31.043  1.00  0.00     0.014 A 
ATOM      4  C   UNL     1       8.484 -55.947 -28.914  1.00  0.00     0.047 A 
ATOM      5  C   UNL     1       9.892 -54.266 -29.938  1.00  0.00     0.047 A 
ATOM      6  C   UNL     1       9.619 -55.128 -28.871  1.00  0.00     0.115 A 
ENDROOT
BRANCH   1   7
ATOM      7  C   UNL     1       6.992 -54.989 -32.265  1.00  0.00     0.071 C 
ATOM      8  O   UNL     1       7.459 -55.017 -33.436  1.00  0.00    -0.545 OA
ATOM      9  O   UNL     1       5.615 -54.909 -32.091  1.00  0.00    -0.545 OA
ENDBRANCH   1   7
BRANCH   6  10
ATOM     10  O   UNL     1      10.481 -55.163 -27.777  1.00  0.00    -0.508 OA
ATOM     11  H   UNL     1      10.703 -56.031 -27.306  1.00  0.00     0.293 HD
ENDBRANCH   6  10
TORSDOF 2
ENDMDL
MODEL 4
REMARK VINA RESULT:    -5.473      1.018      4.472
REMARK INTER + INTRA:          -5.985
REMARK INTER:                  -5.954
REMARK INTRA:                  -0.031
REMARK UNBOUND:                -0.032
REMARK SMILES O=C([O-])c1ccc(O)cc1
REMARK SMILES IDX 4 1 5 2 10 3 6 4 9 5 7 6 2 7 1 8 3 9 8 10
REMARK H PARENT 8 11
REMARK Flexibility Score: inf
ROOT
ATOM      1  C   UNL     1       7.924 -55.059 -31.064  1.00  0.00    -0.003 A 
ATOM      2  C   UNL     1       9.083 -54.262 -31.006  1.00  0.00     0.014 A 
ATOM      3  C   UNL     1       7.641 -55.926 -29.993  1.00  0.00     0.014 A 
ATOM      4  C   UNL     1       9.938 -54.334 -29.902  1.00  0.00     0.047 A 
ATOM      5  C   UNL     1       8.498 -55.995 -28.891  1.00  0.00     0.047 A 
ATOM      6  C   UNL     1       9.648 -55.200 -28.842  1.00  0.00     0.115 A 
ENDROOT
BRANCH   1   7
ATOM      7  C   UNL     1       7.016 -54.989 -32.229  1.00  0.00     0.071 C 
ATOM      8  O   UNL     1       7.476 -55.004 -33.402  1.00  0.00    -0.545 OA
ATOM      9  O   UNL     1       5.641 -54.904 -32.046  1.00  0.00    -0.545 OA
ENDBRANCH   1   7
BRANCH   6  10
ATOM     10  O   UNL     1      10.492 -55.279 -27.737  1.00  0.00    -0.508 OA
ATOM     11  H   UNL     1      10.224 -54.896 -26.838  1.00  0.00     0.293 HD
ENDBRANCH   6  10
TORSDOF 2
ENDMDL
MODEL 5
REMARK VINA RESULT:    -5.416      2.439      3.421
REMARK INTER + INTRA:          -5.923
REMARK INTER:                  -5.890
REMARK INTRA:                  -0.034
REMARK UNBOUND:                -0.032
REMARK SMILES O=C([O-])c1ccc(O)cc1
REMARK SMILES IDX 4 1 5 2 10 3 6 4 9 5 7 6 2 7 1 8 3 9 8 10
REMARK H PARENT 8 11
REMARK Flexibility Score: inf
ROOT
ATOM      1  C   UNL     1       6.509 -55.727 -29.654  1.00  0.00    -0.003 A 
ATOM      2  C   UNL     1       7.814 -55.388 -29.249  1.00  0.00     0.014 A 
ATOM      3  C   UNL     1       6.092 -55.393 -30.955  1.00  0.00     0.014 A 
ATOM      4  C   UNL     1       8.679 -54.729 -30.127  1.00  0.00     0.047 A 
ATOM      5  C   UNL     1       6.960 -54.734 -31.830  1.00  0.00     0.047 A 
ATOM      6  C   UNL     1       8.255 -54.400 -31.420  1.00  0.00     0.115 A 
ENDROOT
BRANCH   1   7
ATOM      7  C   UNL     1       5.589 -56.424 -28.729  1.00  0.00     0.071 C 
ATOM      8  O   UNL     1       5.676 -56.247 -27.485  1.00  0.00    -0.545 OA
ATOM      9  O   UNL     1       4.614 -57.284 -29.221  1.00  0.00    -0.545 OA
ENDBRANCH   1   7
BRANCH   6  10
ATOM     10  O   UNL     1       9.109 -53.745 -32.304  1.00  0.00    -0.508 OA
ATOM     11  H   UNL     1      10.099 -53.955 -32.337  1.00  0.00     0.293 HD
ENDBRANCH   6  10
TORSDOF 2
ENDMDL
MODEL 6
REMARK VINA RESULT:    -5.395      2.427      3.449
REMARK INTER + INTRA:          -5.901
REMARK INTER:                  -5.867
REMARK INTRA:                  -0.034
REMARK UNBOUND:                -0.032
REMARK SMILES O=C([O-])c1ccc(O)cc1
REMARK SMILES IDX 4 1 5 2 10 3 6 4 9 5 7 6 2 7 1 8 3 9 8 10
REMARK H PARENT 8 11
REMARK Flexibility Score: inf
ROOT
ATOM      1  C   UNL     1       6.463 -55.758 -29.633  1.00  0.00    -0.003 A 
ATOM      2  C   UNL     1       6.050 -55.383 -30.924  1.00  0.00     0.014 A 
ATOM      3  C   UNL     1       7.775 -55.459 -29.224  1.00  0.00     0.014 A 
ATOM      4  C   UNL     1       6.932 -54.724 -31.787  1.00  0.00     0.047 A 
ATOM      5  C   UNL     1       8.654 -54.802 -30.088  1.00  0.00     0.047 A 
ATOM      6  C   UNL     1       8.237 -54.432 -31.371  1.00  0.00     0.115 A 
ENDROOT
BRANCH   1   7
ATOM      7  C   UNL     1       5.534 -56.454 -28.715  1.00  0.00     0.071 C 
ATOM      8  O   UNL     1       5.634 -56.305 -27.468  1.00  0.00    -0.545 OA
ATOM      9  O   UNL     1       4.539 -57.285 -29.216  1.00  0.00    -0.545 OA
ENDBRANCH   1   7
BRANCH   6  10
ATOM     10  O   UNL     1       9.124 -53.776 -32.221  1.00  0.00    -0.508 OA
ATOM     11  H   UNL     1      10.094 -54.059 -32.294  1.00  0.00     0.293 HD
ENDBRANCH   6  10
TORSDOF 2
ENDMDL
MODEL 7
REMARK VINA RESULT:    -5.335      1.585      2.032
REMARK INTER + INTRA:          -5.835
REMARK INTER:                  -5.799
REMARK INTRA:                  -0.036
REMARK UNBOUND:                -0.032
REMARK SMILES O=C([O-])c1ccc(O)cc1
REMARK SMILES IDX 4 1 5 2 10 3 6 4 9 5 7 6 2 7 1 8 3 9 8 10
REMARK H PARENT 8 11
REMARK Flexibility Score: inf
ROOT
ATOM      1  C   UNL     1       9.276 -56.008 -28.581  1.00  0.00    -0.003 A 
ATOM      2  C   UNL     1       7.965 -56.070 -29.087  1.00  0.00     0.014 A 
ATOM      3  C   UNL     1      10.186 -55.102 -29.156  1.00  0.00     0.014 A 
ATOM      4  C   UNL     1       7.575 -55.245 -30.147  1.00  0.00     0.047 A 
ATOM      5  C   UNL     1       9.793 -54.279 -30.215  1.00  0.00     0.047 A 
ATOM      6  C   UNL     1       8.488 -54.347 -30.713  1.00  0.00     0.115 A 
ENDROOT
BRANCH   1   7
ATOM      7  C   UNL     1       9.695 -56.878 -27.460  1.00  0.00     0.071 C 
ATOM      8  O   UNL     1      10.876 -56.834 -27.022  1.00  0.00    -0.545 OA
ATOM      9  O   UNL     1       8.792 -57.756 -26.874  1.00  0.00    -0.545 OA
ENDBRANCH   1   7
BRANCH   6  10
ATOM     10  O   UNL     1       8.111 -53.520 -31.768  1.00  0.00    -0.508 OA
ATOM     11  H   UNL     1       8.745 -53.311 -32.530  1.00  0.00     0.293 HD
ENDBRANCH   6  10
TORSDOF 2
ENDMDL
MODEL 8
REMARK VINA RESULT:    -5.264      1.887      2.539
REMARK INTER + INTRA:          -5.757
REMARK INTER:                  -5.724
REMARK INTRA:                  -0.033
REMARK UNBOUND:                -0.032
REMARK SMILES O=C([O-])c1ccc(O)cc1
REMARK SMILES IDX 4 1 5 2 10 3 6 4 9 5 7 6 2 7 1 8 3 9 8 10
REMARK H PARENT 8 11
REMARK Flexibility Score: inf
ROOT
ATOM      1  C   UNL     1       7.902 -54.880 -30.673  1.00  0.00    -0.003 A 
ATOM      2  C   UNL     1       7.611 -55.607 -29.504  1.00  0.00     0.014 A 
ATOM      3  C   UNL     1       6.912 -54.762 -31.665  1.00  0.00     0.014 A 
ATOM      4  C   UNL     1       6.357 -56.202 -29.333  1.00  0.00     0.047 A 
ATOM      5  C   UNL     1       5.660 -55.359 -31.492  1.00  0.00     0.047 A 
ATOM      6  C   UNL     1       5.378 -56.079 -30.327  1.00  0.00     0.115 A 
ENDROOT
BRANCH   1   7
ATOM      7  C   UNL     1       9.226 -54.248 -30.859  1.00  0.00     0.071 C 
ATOM      8  O   UNL     1       9.734 -54.153 -32.008  1.00  0.00    -0.545 OA
ATOM      9  O   UNL     1       9.930 -53.751 -29.769  1.00  0.00    -0.545 OA
ENDBRANCH   1   7
BRANCH   6  10
ATOM     10  O   UNL     1       4.126 -56.668 -30.168  1.00  0.00    -0.508 OA
ATOM     11  H   UNL     1       3.659 -56.685 -29.269  1.00  0.00     0.293 HD
ENDBRANCH   6  10
TORSDOF 2
ENDMDL
MODEL 9
REMARK VINA RESULT:    -5.094      2.516      3.192
REMARK INTER + INTRA:          -5.573
REMARK INTER:                  -5.546
REMARK INTRA:                  -0.027
REMARK UNBOUND:                -0.032
REMARK SMILES O=C([O-])c1ccc(O)cc1
REMARK SMILES IDX 4 1 5 2 10 3 6 4 9 5 7 6 2 7 1 8 3 9 8 10
REMARK H PARENT 8 11
REMARK Flexibility Score: inf
ROOT
ATOM      1  C   UNL     1       7.971 -55.560 -31.561  1.00  0.00    -0.003 A 
ATOM      2  C   UNL     1       6.883 -54.998 -32.253  1.00  0.00     0.014 A 
ATOM      3  C   UNL     1       7.753 -56.123 -30.291  1.00  0.00     0.014 A 
ATOM      4  C   UNL     1       5.605 -55.000 -31.684  1.00  0.00     0.047 A 
ATOM      5  C   UNL     1       6.475 -56.123 -29.725  1.00  0.00     0.047 A 
ATOM      6  C   UNL     1       5.398 -55.563 -30.419  1.00  0.00     0.115 A 
ENDROOT
BRANCH   1   7
ATOM      7  C   UNL     1       9.325 -55.561 -32.156  1.00  0.00     0.071 C 
ATOM      8  O   UNL     1      10.134 -54.627 -31.909  1.00  0.00    -0.545 OA
ATOM      9  O   UNL     1       9.724 -56.593 -32.997  1.00  0.00    -0.545 OA
ENDBRANCH   1   7
BRANCH   6  10
ATOM     10  O   UNL     1       4.129 -55.570 -29.843  1.00  0.00    -0.508 OA
ATOM     11  H   UNL     1       3.455 -54.840 -30.038  1.00  0.00     0.293 HD
ENDBRANCH   6  10
TORSDOF 2
ENDMDL
