MODEL 1
REMARK VINA RESULT:    -3.647      0.000      0.000
REMARK INTER + INTRA:          -4.082
REMARK INTER:                  -4.074
REMARK INTRA:                  -0.009
REMARK UNBOUND:                -0.009
REMARK SMILES CCCC(=O)[O-]
REMARK SMILES IDX 3 1 4 2 5 3 6 4 2 5 1 6
REMARK H PARENT
REMARK Flexibility Score: inf
ROOT
ATOM      1  C   UNL     1      19.315  26.019  36.169  1.00  0.00     0.052 C 
ENDROOT
BRANCH   1   2
ATOM      2  C   UNL     1      19.586  24.814  35.322  1.00  0.00     0.041 C 
ATOM      3  O   UNL     1      20.705  24.670  34.764  1.00  0.00    -0.550 OA
ATOM      4  O   UNL     1      18.613  23.833  35.174  1.00  0.00    -0.550 OA
ENDBRANCH   1   2
BRANCH   1   5
ATOM      5  C   UNL     1      17.815  26.212  36.423  1.00  0.00     0.003 C 
ATOM      6  C   UNL     1      17.475  27.642  36.843  1.00  0.00     0.004 C 
ENDBRANCH   1   5
TORSDOF 2
ENDMDL
MODEL 2
REMARK VINA RESULT:    -3.015      8.309      8.936
REMARK INTER + INTRA:          -3.376
REMARK INTER:                  -3.370
REMARK INTRA:                  -0.005
REMARK UNBOUND:                -0.009
REMARK SMILES CCCC(=O)[O-]
REMARK SMILES IDX 3 1 4 2 5 3 6 4 2 5 1 6
REMARK H PARENT
REMARK Flexibility Score: inf
ROOT
ATOM      1  C   UNL     1      21.635  34.404  34.321  1.00  0.00     0.052 C 
ENDROOT
BRANCH   1   2
ATOM      2  C   UNL     1      22.073  33.258  35.179  1.00  0.00     0.041 C 
ATOM      3  O   UNL     1      23.263  32.850  35.133  1.00  0.00    -0.550 OA
ATOM      4  O   UNL     1      21.175  32.661  36.056  1.00  0.00    -0.550 OA
ENDBRANCH   1   2
BRANCH   1   5
ATOM      5  C   UNL     1      21.015  33.924  33.002  1.00  0.00     0.003 C 
ATOM      6  C   UNL     1      20.193  35.014  32.315  1.00  0.00     0.004 C 
ENDBRANCH   1   5
TORSDOF 2
ENDMDL
MODEL 3
REMARK VINA RESULT:    -2.911     16.431     17.152
REMARK INTER + INTRA:          -3.260
REMARK INTER:                  -3.205
REMARK INTRA:                  -0.055
REMARK UNBOUND:                -0.009
REMARK SMILES CCCC(=O)[O-]
REMARK SMILES IDX 3 1 4 2 5 3 6 4 2 5 1 6
REMARK H PARENT
REMARK Flexibility Score: inf
ROOT
ATOM      1  C   UNL     1      21.118  24.236  18.233  1.00  0.00     0.052 C 
ENDROOT
BRANCH   1   2
ATOM      2  C   UNL     1      19.960  24.600  19.109  1.00  0.00     0.041 C 
ATOM      3  O   UNL     1      18.804  24.177  18.840  1.00  0.00    -0.550 OA
ATOM      4  O   UNL     1      20.160  25.379  20.242  1.00  0.00    -0.550 OA
ENDBRANCH   1   2
BRANCH   1   5
ATOM      5  C   UNL     1      21.569  22.787  18.457  1.00  0.00     0.003 C 
ATOM      6  C   UNL     1      22.324  22.609  19.774  1.00  0.00     0.004 C 
ENDBRANCH   1   5
TORSDOF 2
ENDMDL
MODEL 4
REMARK VINA RESULT:    -2.864     15.546     16.455
REMARK INTER + INTRA:          -3.208
REMARK INTER:                  -3.155
REMARK INTRA:                  -0.053
REMARK UNBOUND:                -0.009
REMARK SMILES CCCC(=O)[O-]
REMARK SMILES IDX 3 1 4 2 5 3 6 4 2 5 1 6
REMARK H PARENT
REMARK Flexibility Score: inf
ROOT
ATOM      1  C   UNL     1      22.207  22.701  19.590  1.00  0.00     0.052 C 
ENDROOT
BRANCH   1   2
ATOM      2  C   UNL     1      21.271  22.383  20.716  1.00  0.00     0.041 C 
ATOM      3  O   UNL     1      21.176  23.163  21.700  1.00  0.00    -0.550 OA
ATOM      4  O   UNL     1      20.479  21.243  20.663  1.00  0.00    -0.550 OA
ENDBRANCH   1   2
BRANCH   1   5
ATOM      5  C   UNL     1      21.451  23.098  18.316  1.00  0.00     0.003 C 
ATOM      6  C   UNL     1      20.962  24.545  18.356  1.00  0.00     0.004 C 
ENDBRANCH   1   5
TORSDOF 2
ENDMDL
MODEL 5
REMARK VINA RESULT:    -2.850     15.558     16.492
REMARK INTER + INTRA:          -3.192
REMARK INTER:                  -3.140
REMARK INTRA:                  -0.053
REMARK UNBOUND:                -0.009
REMARK SMILES CCCC(=O)[O-]
REMARK SMILES IDX 3 1 4 2 5 3 6 4 2 5 1 6
REMARK H PARENT
REMARK Flexibility Score: inf
ROOT
ATOM      1  C   UNL     1      22.193  22.685  19.568  1.00  0.00     0.052 C 
ENDROOT
BRANCH   1   2
ATOM      2  C   UNL     1      21.234  22.370  20.674  1.00  0.00     0.041 C 
ATOM      3  O   UNL     1      20.639  21.261  20.701  1.00  0.00    -0.550 OA
ATOM      4  O   UNL     1      21.023  23.288  21.696  1.00  0.00    -0.550 OA
ENDBRANCH   1   2
BRANCH   1   5
ATOM      5  C   UNL     1      21.463  23.090  18.281  1.00  0.00     0.003 C 
ATOM      6  C   UNL     1      20.947  24.528  18.333  1.00  0.00     0.004 C 
ENDBRANCH   1   5
TORSDOF 2
ENDMDL
MODEL 6
REMARK VINA RESULT:    -2.820      7.368      8.012
REMARK INTER + INTRA:          -3.159
REMARK INTER:                  -3.139
REMARK INTRA:                  -0.020
REMARK UNBOUND:                -0.009
REMARK SMILES CCCC(=O)[O-]
REMARK SMILES IDX 3 1 4 2 5 3 6 4 2 5 1 6
REMARK H PARENT
REMARK Flexibility Score: inf
ROOT
ATOM      1  C   UNL     1      22.142  32.936  35.155  1.00  0.00     0.052 C 
ENDROOT
BRANCH   1   2
ATOM      2  C   UNL     1      21.339  32.138  36.136  1.00  0.00     0.041 C 
ATOM      3  O   UNL     1      20.594  32.719  36.968  1.00  0.00    -0.550 OA
ATOM      4  O   UNL     1      21.389  30.750  36.110  1.00  0.00    -0.550 OA
ENDBRANCH   1   2
BRANCH   1   5
ATOM      5  C   UNL     1      21.343  34.122  34.598  1.00  0.00     0.003 C 
ATOM      6  C   UNL     1      21.026  33.962  33.111  1.00  0.00     0.004 C 
ENDBRANCH   1   5
TORSDOF 2
ENDMDL
MODEL 7
REMARK VINA RESULT:    -2.813     16.442     17.403
REMARK INTER + INTRA:          -3.150
REMARK INTER:                  -3.112
REMARK INTRA:                  -0.039
REMARK UNBOUND:                -0.009
REMARK SMILES CCCC(=O)[O-]
REMARK SMILES IDX 3 1 4 2 5 3 6 4 2 5 1 6
REMARK H PARENT
REMARK Flexibility Score: inf
ROOT
ATOM      1  C   UNL     1      21.479  22.759  18.532  1.00  0.00     0.052 C 
ENDROOT
BRANCH   1   2
ATOM      2  C   UNL     1      21.036  24.150  18.195  1.00  0.00     0.041 C 
ATOM      3  O   UNL     1      20.998  25.037  19.088  1.00  0.00    -0.550 OA
ATOM      4  O   UNL     1      20.696  24.475  16.888  1.00  0.00    -0.550 OA
ENDBRANCH   1   2
BRANCH   1   5
ATOM      5  C   UNL     1      22.340  22.728  19.801  1.00  0.00     0.003 C 
ATOM      6  C   UNL     1      21.636  22.032  20.965  1.00  0.00     0.004 C 
ENDBRANCH   1   5
TORSDOF 2
ENDMDL
MODEL 8
REMARK VINA RESULT:    -2.782     14.726     15.600
REMARK INTER + INTRA:          -3.116
REMARK INTER:                  -3.077
REMARK INTRA:                  -0.038
REMARK UNBOUND:                -0.009
REMARK SMILES CCCC(=O)[O-]
REMARK SMILES IDX 3 1 4 2 5 3 6 4 2 5 1 6
REMARK H PARENT
REMARK Flexibility Score: inf
ROOT
ATOM      1  C   UNL     1      19.955  24.954  20.585  1.00  0.00     0.052 C 
ENDROOT
BRANCH   1   2
ATOM      2  C   UNL     1      20.043  23.793  21.527  1.00  0.00     0.041 C 
ATOM      3  O   UNL     1      19.081  23.527  22.296  1.00  0.00    -0.550 OA
ATOM      4  O   UNL     1      21.172  22.984  21.534  1.00  0.00    -0.550 OA
ENDBRANCH   1   2
BRANCH   1   5
ATOM      5  C   UNL     1      19.665  24.500  19.149  1.00  0.00     0.003 C 
ATOM      6  C   UNL     1      20.901  24.577  18.253  1.00  0.00     0.004 C 
ENDBRANCH   1   5
TORSDOF 2
ENDMDL
MODEL 9
REMARK VINA RESULT:    -2.769     14.632     15.463
REMARK INTER + INTRA:          -3.102
REMARK INTER:                  -3.064
REMARK INTRA:                  -0.038
REMARK UNBOUND:                -0.009
REMARK SMILES CCCC(=O)[O-]
REMARK SMILES IDX 3 1 4 2 5 3 6 4 2 5 1 6
REMARK H PARENT
REMARK Flexibility Score: inf
ROOT
ATOM      1  C   UNL     1      19.281  24.031  20.210  1.00  0.00     0.052 C 
ENDROOT
BRANCH   1   2
ATOM      2  C   UNL     1      19.716  23.420  21.505  1.00  0.00     0.041 C 
ATOM      3  O   UNL     1      20.896  23.005  21.646  1.00  0.00    -0.550 OA
ATOM      4  O   UNL     1      18.828  23.338  22.571  1.00  0.00    -0.550 OA
ENDBRANCH   1   2
BRANCH   1   5
ATOM      5  C   UNL     1      20.290  25.068  19.702  1.00  0.00     0.003 C 
ATOM      6  C   UNL     1      20.914  24.667  18.365  1.00  0.00     0.004 C 
ENDBRANCH   1   5
TORSDOF 2
ENDMDL
