MODEL 1
REMARK VINA RESULT:    -5.231      0.000      0.000
REMARK INTER + INTRA:          -8.829
REMARK INTER:                  -8.136
REMARK INTRA:                  -0.693
REMARK UNBOUND:                -0.693
REMARK SMILES COc1cc(CNC(=O)CCCCC=CC(C)C)ccc1O
REMARK SMILES IDX 11 1 12 2 13 3 14 4 15 5 16 6 17 7 18 8 10 9 8 10 9 11 7 12
REMARK SMILES IDX 6 14 5 15 4 16 19 17 3 18 20 19 21 20 2 21 1 22 22 23
REMARK H PARENT 7 13 22 24
REMARK Flexibility Score: inf
ROOT
ATOM      1  C   UNL     1      -1.222   0.554  47.440  1.00  0.00     0.010 C 
ENDROOT
BRANCH   1   2
ATOM      2  C   UNL     1       0.210   1.035  47.143  1.00  0.00     0.005 C 
BRANCH   2   3
ATOM      3  C   UNL     1       0.246   2.503  46.691  1.00  0.00     0.027 C 
BRANCH   3   4
ATOM      4  C   UNL     1      -1.054   3.218  46.960  1.00  0.00    -0.031 C 
ATOM      5  C   UNL     1      -1.518   4.269  46.255  1.00  0.00    -0.028 C 
BRANCH   5   6
ATOM      6  C   UNL     1      -0.785   4.946  45.114  1.00  0.00     0.005 C 
ATOM      7  C   UNL     1       0.162   6.014  45.669  1.00  0.00     0.012 C 
ATOM      8  C   UNL     1      -1.799   5.571  44.151  1.00  0.00     0.012 C 
ENDBRANCH   5   6
ENDBRANCH   3   4
ENDBRANCH   2   3
ENDBRANCH   1   2
BRANCH   1   9
ATOM      9  C   UNL     1      -1.751  -0.386  46.348  1.00  0.00     0.100 C 
BRANCH   9  10
ATOM     10  C   UNL     1      -2.921  -1.191  46.836  1.00  0.00     0.220 C 
ATOM     11  O   UNL     1      -3.701  -0.693  47.695  1.00  0.00    -0.275 OA
ATOM     12  N   UNL     1      -3.168  -2.497  46.300  1.00  0.00    -0.352 N 
ATOM     13  H   UNL     1      -2.499  -2.890  45.600  1.00  0.00     0.163 HD
BRANCH  12  14
ATOM     14  C   UNL     1      -4.341  -3.290  46.661  1.00  0.00     0.151 C 
BRANCH  14  15
ATOM     15  C   UNL     1      -3.929  -4.646  47.175  1.00  0.00    -0.025 A 
ATOM     16  C   UNL     1      -4.644  -5.792  46.793  1.00  0.00     0.056 A 
ATOM     17  C   UNL     1      -2.818  -4.776  48.023  1.00  0.00     0.009 A 
ATOM     18  C   UNL     1      -4.249  -7.067  47.247  1.00  0.00     0.160 A 
ATOM     19  C   UNL     1      -2.423  -6.035  48.477  1.00  0.00     0.050 A 
ATOM     20  C   UNL     1      -3.133  -7.181  48.090  1.00  0.00     0.157 A 
BRANCH  18  21
ATOM     21  O   UNL     1      -4.932  -8.238  46.882  1.00  0.00    -0.493 OA
ATOM     22  C   UNL     1      -4.708  -8.962  45.676  1.00  0.00     0.278 C 
ENDBRANCH  18  21
BRANCH  20  23
ATOM     23  O   UNL     1      -2.733  -8.438  48.539  1.00  0.00    -0.504 OA
ATOM     24  H   UNL     1      -2.262  -9.095  47.928  1.00  0.00     0.293 HD
ENDBRANCH  20  23
ENDBRANCH  14  15
ENDBRANCH  12  14
ENDBRANCH   9  10
ENDBRANCH   1   9
TORSDOF 10
ENDMDL
MODEL 2
REMARK VINA RESULT:    -5.103      3.079      4.584
REMARK INTER + INTRA:          -8.630
REMARK INTER:                  -7.827
REMARK INTRA:                  -0.802
REMARK UNBOUND:                -0.693
REMARK SMILES COc1cc(CNC(=O)CCCCC=CC(C)C)ccc1O
REMARK SMILES IDX 11 1 12 2 13 3 14 4 15 5 16 6 17 7 18 8 10 9 8 10 9 11 7 12
REMARK SMILES IDX 6 14 5 15 4 16 19 17 3 18 20 19 21 20 2 21 1 22 22 23
REMARK H PARENT 7 13 22 24
REMARK Flexibility Score: inf
ROOT
ATOM      1  C   UNL     1      -1.342   0.240  46.618  1.00  0.00     0.010 C 
ENDROOT
BRANCH   1   2
ATOM      2  C   UNL     1      -0.070   0.818  47.266  1.00  0.00     0.005 C 
BRANCH   2   3
ATOM      3  C   UNL     1       0.253   2.229  46.748  1.00  0.00     0.027 C 
BRANCH   3   4
ATOM      4  C   UNL     1      -0.736   3.259  47.234  1.00  0.00    -0.031 C 
ATOM      5  C   UNL     1      -1.054   4.392  46.579  1.00  0.00    -0.028 C 
BRANCH   5   6
ATOM      6  C   UNL     1      -0.430   4.852  45.276  1.00  0.00     0.005 C 
ATOM      7  C   UNL     1       0.673   5.874  45.565  1.00  0.00     0.012 C 
ATOM      8  C   UNL     1      -1.509   5.462  44.377  1.00  0.00     0.012 C 
ENDBRANCH   5   6
ENDBRANCH   3   4
ENDBRANCH   2   3
ENDBRANCH   1   2
BRANCH   1   9
ATOM      9  C   UNL     1      -2.452  -0.006  47.650  1.00  0.00     0.100 C 
BRANCH   9  10
ATOM     10  C   UNL     1      -3.177  -1.293  47.379  1.00  0.00     0.220 C 
ATOM     11  O   UNL     1      -4.013  -1.723  48.222  1.00  0.00    -0.275 OA
ATOM     12  N   UNL     1      -2.947  -2.003  46.155  1.00  0.00    -0.352 N 
ATOM     13  H   UNL     1      -2.240  -1.631  45.481  1.00  0.00     0.163 HD
BRANCH  12  14
ATOM     14  C   UNL     1      -3.690  -3.207  45.789  1.00  0.00     0.151 C 
BRANCH  14  15
ATOM     15  C   UNL     1      -4.794  -2.875  44.818  1.00  0.00    -0.025 A 
ATOM     16  C   UNL     1      -6.071  -2.532  45.291  1.00  0.00     0.056 A 
ATOM     17  C   UNL     1      -4.551  -2.888  43.436  1.00  0.00     0.009 A 
ATOM     18  C   UNL     1      -7.102  -2.194  44.390  1.00  0.00     0.160 A 
ATOM     19  C   UNL     1      -5.569  -2.556  42.539  1.00  0.00     0.050 A 
ATOM     20  C   UNL     1      -6.841  -2.207  43.012  1.00  0.00     0.157 A 
BRANCH  18  21
ATOM     21  O   UNL     1      -8.389  -1.839  44.824  1.00  0.00    -0.493 OA
ATOM     22  C   UNL     1      -8.709  -1.420  46.147  1.00  0.00     0.278 C 
ENDBRANCH  18  21
BRANCH  20  23
ATOM     23  O   UNL     1      -7.853  -1.869  42.115  1.00  0.00    -0.504 OA
ATOM     24  H   UNL     1      -7.700  -1.200  41.369  1.00  0.00     0.293 HD
ENDBRANCH  20  23
ENDBRANCH  14  15
ENDBRANCH  12  14
ENDBRANCH   9  10
ENDBRANCH   1   9
TORSDOF 10
ENDMDL
MODEL 3
REMARK VINA RESULT:    -5.068      3.301      4.597
REMARK INTER + INTRA:          -8.575
REMARK INTER:                  -7.693
REMARK INTRA:                  -0.882
REMARK UNBOUND:                -0.693
REMARK SMILES COc1cc(CNC(=O)CCCCC=CC(C)C)ccc1O
REMARK SMILES IDX 11 1 12 2 13 3 14 4 15 5 16 6 17 7 18 8 10 9 8 10 9 11 7 12
REMARK SMILES IDX 6 14 5 15 4 16 19 17 3 18 20 19 21 20 2 21 1 22 22 23
REMARK H PARENT 7 13 22 24
REMARK Flexibility Score: inf
ROOT
ATOM      1  C   UNL     1      -0.634   4.015  46.765  1.00  0.00     0.010 C 
ENDROOT
BRANCH   1   2
ATOM      2  C   UNL     1      -1.626   4.474  45.680  1.00  0.00     0.005 C 
BRANCH   2   3
ATOM      3  C   UNL     1      -1.072   5.638  44.843  1.00  0.00     0.027 C 
BRANCH   3   4
ATOM      4  C   UNL     1      -0.251   6.598  45.668  1.00  0.00    -0.031 C 
ATOM      5  C   UNL     1      -0.744   7.662  46.331  1.00  0.00    -0.028 C 
BRANCH   5   6
ATOM      6  C   UNL     1      -2.193   8.108  46.313  1.00  0.00     0.005 C 
ATOM      7  C   UNL     1      -2.269   9.602  45.986  1.00  0.00     0.012 C 
ATOM      8  C   UNL     1      -2.837   7.818  47.671  1.00  0.00     0.012 C 
ENDBRANCH   5   6
ENDBRANCH   3   4
ENDBRANCH   2   3
ENDBRANCH   1   2
BRANCH   1   9
ATOM      9  C   UNL     1       0.053   2.693  46.395  1.00  0.00     0.100 C 
BRANCH   9  10
ATOM     10  C   UNL     1      -0.467   1.554  47.222  1.00  0.00     0.220 C 
ATOM     11  O   UNL     1       0.260   1.064  48.131  1.00  0.00    -0.275 OA
ATOM     12  N   UNL     1      -1.793   1.055  47.004  1.00  0.00    -0.352 N 
ATOM     13  H   UNL     1      -2.369   1.470  46.237  1.00  0.00     0.163 HD
BRANCH  12  14
ATOM     14  C   UNL     1      -2.394   0.016  47.838  1.00  0.00     0.151 C 
BRANCH  14  15
ATOM     15  C   UNL     1      -3.086  -1.016  46.986  1.00  0.00    -0.025 A 
ATOM     16  C   UNL     1      -4.481  -1.162  47.048  1.00  0.00     0.056 A 
ATOM     17  C   UNL     1      -2.345  -1.826  46.111  1.00  0.00     0.009 A 
ATOM     18  C   UNL     1      -5.139  -2.107  46.233  1.00  0.00     0.160 A 
ATOM     19  C   UNL     1      -2.991  -2.764  45.304  1.00  0.00     0.050 A 
ATOM     20  C   UNL     1      -4.384  -2.905  45.360  1.00  0.00     0.157 A 
BRANCH  18  21
ATOM     21  O   UNL     1      -6.532  -2.278  46.260  1.00  0.00    -0.493 OA
ATOM     22  C   UNL     1      -7.455  -1.517  45.487  1.00  0.00     0.278 C 
ENDBRANCH  18  21
BRANCH  20  23
ATOM     23  O   UNL     1      -5.028  -3.837  44.548  1.00  0.00    -0.504 OA
ATOM     24  H   UNL     1      -4.710  -4.798  44.488  1.00  0.00     0.293 HD
ENDBRANCH  20  23
ENDBRANCH  14  15
ENDBRANCH  12  14
ENDBRANCH   9  10
ENDBRANCH   1   9
TORSDOF 10
ENDMDL
MODEL 4
REMARK VINA RESULT:    -5.049     14.791     15.433
REMARK INTER + INTRA:          -8.546
REMARK INTER:                  -7.254
REMARK INTRA:                  -1.291
REMARK UNBOUND:                -0.693
REMARK SMILES COc1cc(CNC(=O)CCCCC=CC(C)C)ccc1O
REMARK SMILES IDX 11 1 12 2 13 3 14 4 15 5 16 6 17 7 18 8 10 9 8 10 9 11 7 12
REMARK SMILES IDX 6 14 5 15 4 16 19 17 3 18 20 19 21 20 2 21 1 22 22 23
REMARK H PARENT 7 13 22 24
REMARK Flexibility Score: inf
ROOT
ATOM      1  C   UNL     1       5.588  -2.414  29.964  1.00  0.00     0.010 C 
ENDROOT
BRANCH   1   2
ATOM      2  C   UNL     1       4.335  -1.524  29.875  1.00  0.00     0.005 C 
BRANCH   2   3
ATOM      3  C   UNL     1       4.618  -0.079  30.315  1.00  0.00     0.027 C 
BRANCH   3   4
ATOM      4  C   UNL     1       4.675   0.064  31.815  1.00  0.00    -0.031 C 
ATOM      5  C   UNL     1       5.764   0.440  32.514  1.00  0.00    -0.028 C 
BRANCH   5   6
ATOM      6  C   UNL     1       7.129   0.724  31.918  1.00  0.00     0.005 C 
ATOM      7  C   UNL     1       8.051  -0.476  32.144  1.00  0.00     0.012 C 
ATOM      8  C   UNL     1       7.716   1.985  32.558  1.00  0.00     0.012 C 
ENDBRANCH   5   6
ENDBRANCH   3   4
ENDBRANCH   2   3
ENDBRANCH   1   2
BRANCH   1   9
ATOM      9  C   UNL     1       5.308  -3.731  30.700  1.00  0.00     0.100 C 
BRANCH   9  10
ATOM     10  C   UNL     1       5.212  -3.521  32.183  1.00  0.00     0.220 C 
ATOM     11  O   UNL     1       6.269  -3.461  32.872  1.00  0.00    -0.275 OA
ATOM     12  N   UNL     1       3.930  -3.350  32.803  1.00  0.00    -0.352 N 
ATOM     13  H   UNL     1       3.071  -3.417  32.212  1.00  0.00     0.163 HD
BRANCH  12  14
ATOM     14  C   UNL     1       3.774  -3.046  34.224  1.00  0.00     0.151 C 
BRANCH  14  15
ATOM     15  C   UNL     1       3.233  -4.239  34.967  1.00  0.00    -0.025 A 
ATOM     16  C   UNL     1       1.918  -4.677  34.739  1.00  0.00     0.056 A 
ATOM     17  C   UNL     1       4.043  -4.934  35.879  1.00  0.00     0.009 A 
ATOM     18  C   UNL     1       1.414  -5.809  35.410  1.00  0.00     0.160 A 
ATOM     19  C   UNL     1       3.548  -6.055  36.548  1.00  0.00     0.050 A 
ATOM     20  C   UNL     1       2.238  -6.496  36.315  1.00  0.00     0.157 A 
BRANCH  18  21
ATOM     21  O   UNL     1       0.108  -6.283  35.204  1.00  0.00    -0.493 OA
ATOM     22  C   UNL     1      -0.319  -6.999  34.050  1.00  0.00     0.278 C 
ENDBRANCH  18  21
BRANCH  20  23
ATOM     23  O   UNL     1       1.749  -7.620  36.978  1.00  0.00    -0.504 OA
ATOM     24  H   UNL     1       1.874  -7.743  37.976  1.00  0.00     0.293 HD
ENDBRANCH  20  23
ENDBRANCH  14  15
ENDBRANCH  12  14
ENDBRANCH   9  10
ENDBRANCH   1   9
TORSDOF 10
ENDMDL
MODEL 5
REMARK VINA RESULT:    -5.013     14.400     15.306
REMARK INTER + INTRA:          -8.489
REMARK INTER:                  -7.363
REMARK INTRA:                  -1.127
REMARK UNBOUND:                -0.693
REMARK SMILES COc1cc(CNC(=O)CCCCC=CC(C)C)ccc1O
REMARK SMILES IDX 11 1 12 2 13 3 14 4 15 5 16 6 17 7 18 8 10 9 8 10 9 11 7 12
REMARK SMILES IDX 6 14 5 15 4 16 19 17 3 18 20 19 21 20 2 21 1 22 22 23
REMARK H PARENT 7 13 22 24
REMARK Flexibility Score: inf
ROOT
ATOM      1  C   UNL     1       3.634  -0.860  32.125  1.00  0.00     0.010 C 
ENDROOT
BRANCH   1   2
ATOM      2  C   UNL     1       4.275  -0.835  30.726  1.00  0.00     0.005 C 
BRANCH   2   3
ATOM      3  C   UNL     1       4.938   0.516  30.416  1.00  0.00     0.027 C 
BRANCH   3   4
ATOM      4  C   UNL     1       6.373   0.364  29.978  1.00  0.00    -0.031 C 
ATOM      5  C   UNL     1       7.442   0.453  30.793  1.00  0.00    -0.028 C 
BRANCH   5   6
ATOM      6  C   UNL     1       7.388   0.778  32.273  1.00  0.00     0.005 C 
ATOM      7  C   UNL     1       7.847   2.221  32.501  1.00  0.00     0.012 C 
ATOM      8  C   UNL     1       8.275  -0.201  33.047  1.00  0.00     0.012 C 
ENDBRANCH   5   6
ENDBRANCH   3   4
ENDBRANCH   2   3
ENDBRANCH   1   2
BRANCH   1   9
ATOM      9  C   UNL     1       4.595  -1.406  33.190  1.00  0.00     0.100 C 
BRANCH   9  10
ATOM     10  C   UNL     1       4.283  -2.834  33.531  1.00  0.00     0.220 C 
ATOM     11  O   UNL     1       4.618  -3.751  32.730  1.00  0.00    -0.275 OA
ATOM     12  N   UNL     1       3.645  -3.153  34.774  1.00  0.00    -0.352 N 
ATOM     13  H   UNL     1       3.367  -2.373  35.414  1.00  0.00     0.163 HD
BRANCH  12  14
ATOM     14  C   UNL     1       3.403  -4.527  35.209  1.00  0.00     0.151 C 
BRANCH  14  15
ATOM     15  C   UNL     1       4.292  -4.882  36.372  1.00  0.00    -0.025 A 
ATOM     16  C   UNL     1       5.115  -3.905  36.955  1.00  0.00     0.056 A 
ATOM     17  C   UNL     1       4.292  -6.185  36.893  1.00  0.00     0.009 A 
ATOM     18  C   UNL     1       5.930  -4.222  38.061  1.00  0.00     0.160 A 
ATOM     19  C   UNL     1       5.099  -6.506  37.987  1.00  0.00     0.050 A 
ATOM     20  C   UNL     1       5.915  -5.529  38.573  1.00  0.00     0.157 A 
BRANCH  18  21
ATOM     21  O   UNL     1       6.761  -3.273  38.677  1.00  0.00    -0.493 OA
ATOM     22  C   UNL     1       8.085  -2.961  38.253  1.00  0.00     0.278 C 
ENDBRANCH  18  21
BRANCH  20  23
ATOM     23  O   UNL     1       6.714  -5.849  39.669  1.00  0.00    -0.504 OA
ATOM     24  H   UNL     1       6.731  -5.270  40.501  1.00  0.00     0.293 HD
ENDBRANCH  20  23
ENDBRANCH  14  15
ENDBRANCH  12  14
ENDBRANCH   9  10
ENDBRANCH   1   9
TORSDOF 10
ENDMDL
MODEL 6
REMARK VINA RESULT:    -4.969     14.887     17.279
REMARK INTER + INTRA:          -8.421
REMARK INTER:                  -7.455
REMARK INTRA:                  -0.966
REMARK UNBOUND:                -0.693
REMARK SMILES COc1cc(CNC(=O)CCCCC=CC(C)C)ccc1O
REMARK SMILES IDX 11 1 12 2 13 3 14 4 15 5 16 6 17 7 18 8 10 9 8 10 9 11 7 12
REMARK SMILES IDX 6 14 5 15 4 16 19 17 3 18 20 19 21 20 2 21 1 22 22 23
REMARK H PARENT 7 13 22 24
REMARK Flexibility Score: inf
ROOT
ATOM      1  C   UNL     1       7.179   0.594  31.159  1.00  0.00     0.010 C 
ENDROOT
BRANCH   1   2
ATOM      2  C   UNL     1       5.662   0.399  30.978  1.00  0.00     0.005 C 
BRANCH   2   3
ATOM      3  C   UNL     1       4.958   0.067  32.303  1.00  0.00     0.027 C 
BRANCH   3   4
ATOM      4  C   UNL     1       3.975  -1.068  32.161  1.00  0.00    -0.031 C 
ATOM      5  C   UNL     1       3.935  -2.158  32.951  1.00  0.00    -0.028 C 
BRANCH   5   6
ATOM      6  C   UNL     1       4.906  -2.457  34.076  1.00  0.00     0.005 C 
ATOM      7  C   UNL     1       6.101  -3.245  33.531  1.00  0.00     0.012 C 
ATOM      8  C   UNL     1       4.192  -3.250  35.175  1.00  0.00     0.012 C 
ENDBRANCH   5   6
ENDBRANCH   3   4
ENDBRANCH   2   3
ENDBRANCH   1   2
BRANCH   1   9
ATOM      9  C   UNL     1       7.527   1.135  32.553  1.00  0.00     0.100 C 
BRANCH   9  10
ATOM     10  C   UNL     1       8.556   0.279  33.232  1.00  0.00     0.220 C 
ATOM     11  O   UNL     1       8.842  -0.852  32.748  1.00  0.00    -0.275 OA
ATOM     12  N   UNL     1       9.235   0.762  34.399  1.00  0.00    -0.352 N 
ATOM     13  H   UNL     1       8.970   1.696  34.787  1.00  0.00     0.163 HD
BRANCH  12  14
ATOM     14  C   UNL     1      10.313   0.021  35.050  1.00  0.00     0.151 C 
BRANCH  14  15
ATOM     15  C   UNL     1      10.056  -0.104  36.529  1.00  0.00    -0.025 A 
ATOM     16  C   UNL     1      10.245   1.002  37.374  1.00  0.00     0.056 A 
ATOM     17  C   UNL     1       9.609  -1.319  37.072  1.00  0.00     0.009 A 
ATOM     18  C   UNL     1       9.981   0.901  38.755  1.00  0.00     0.160 A 
ATOM     19  C   UNL     1       9.347  -1.425  38.439  1.00  0.00     0.050 A 
ATOM     20  C   UNL     1       9.529  -0.319  39.281  1.00  0.00     0.157 A 
BRANCH  18  21
ATOM     21  O   UNL     1      10.150   1.984  39.632  1.00  0.00    -0.493 OA
ATOM     22  C   UNL     1       9.154   2.965  39.907  1.00  0.00     0.278 C 
ENDBRANCH  18  21
BRANCH  20  23
ATOM     23  O   UNL     1       9.260  -0.425  40.645  1.00  0.00    -0.504 OA
ATOM     24  H   UNL     1       8.422  -0.880  40.986  1.00  0.00     0.293 HD
ENDBRANCH  20  23
ENDBRANCH  14  15
ENDBRANCH  12  14
ENDBRANCH   9  10
ENDBRANCH   1   9
TORSDOF 10
ENDMDL
MODEL 7
REMARK VINA RESULT:    -4.953     14.341     15.064
REMARK INTER + INTRA:          -8.397
REMARK INTER:                  -7.310
REMARK INTRA:                  -1.087
REMARK UNBOUND:                -0.693
REMARK SMILES COc1cc(CNC(=O)CCCCC=CC(C)C)ccc1O
REMARK SMILES IDX 11 1 12 2 13 3 14 4 15 5 16 6 17 7 18 8 10 9 8 10 9 11 7 12
REMARK SMILES IDX 6 14 5 15 4 16 19 17 3 18 20 19 21 20 2 21 1 22 22 23
REMARK H PARENT 7 13 22 24
REMARK Flexibility Score: inf
ROOT
ATOM      1  C   UNL     1       3.659  -0.706  31.929  1.00  0.00     0.010 C 
ENDROOT
BRANCH   1   2
ATOM      2  C   UNL     1       4.484  -0.131  30.763  1.00  0.00     0.005 C 
BRANCH   2   3
ATOM      3  C   UNL     1       5.858  -0.808  30.636  1.00  0.00     0.027 C 
BRANCH   3   4
ATOM      4  C   UNL     1       6.923   0.143  30.150  1.00  0.00    -0.031 C 
ATOM      5  C   UNL     1       7.667   0.939  30.943  1.00  0.00    -0.028 C 
BRANCH   5   6
ATOM      6  C   UNL     1       7.519   1.058  32.447  1.00  0.00     0.005 C 
ATOM      7  C   UNL     1       7.783   2.503  32.879  1.00  0.00     0.012 C 
ATOM      8  C   UNL     1       8.495   0.101  33.137  1.00  0.00     0.012 C 
ENDBRANCH   5   6
ENDBRANCH   3   4
ENDBRANCH   2   3
ENDBRANCH   1   2
BRANCH   1   9
ATOM      9  C   UNL     1       4.550  -1.204  33.075  1.00  0.00     0.100 C 
BRANCH   9  10
ATOM     10  C   UNL     1       4.262  -2.638  33.411  1.00  0.00     0.220 C 
ATOM     11  O   UNL     1       4.570  -3.543  32.585  1.00  0.00    -0.275 OA
ATOM     12  N   UNL     1       3.678  -2.976  34.676  1.00  0.00    -0.352 N 
ATOM     13  H   UNL     1       3.421  -2.207  35.335  1.00  0.00     0.163 HD
BRANCH  12  14
ATOM     14  C   UNL     1       3.462  -4.357  35.103  1.00  0.00     0.151 C 
BRANCH  14  15
ATOM     15  C   UNL     1       4.314  -4.682  36.303  1.00  0.00    -0.025 A 
ATOM     16  C   UNL     1       4.368  -5.996  36.794  1.00  0.00     0.056 A 
ATOM     17  C   UNL     1       5.072  -3.680  36.926  1.00  0.00     0.009 A 
ATOM     18  C   UNL     1       5.184  -6.314  37.900  1.00  0.00     0.160 A 
ATOM     19  C   UNL     1       5.880  -3.988  38.023  1.00  0.00     0.050 A 
ATOM     20  C   UNL     1       5.940  -5.301  38.509  1.00  0.00     0.157 A 
BRANCH  18  21
ATOM     21  O   UNL     1       5.271  -7.616  38.417  1.00  0.00    -0.493 OA
ATOM     22  C   UNL     1       4.343  -8.660  38.139  1.00  0.00     0.278 C 
ENDBRANCH  18  21
BRANCH  20  23
ATOM     23  O   UNL     1       6.752  -5.608  39.599  1.00  0.00    -0.504 OA
ATOM     24  H   UNL     1       6.717  -5.068  40.456  1.00  0.00     0.293 HD
ENDBRANCH  20  23
ENDBRANCH  14  15
ENDBRANCH  12  14
ENDBRANCH   9  10
ENDBRANCH   1   9
TORSDOF 10
ENDMDL
MODEL 8
REMARK VINA RESULT:    -4.942     13.333     13.988
REMARK INTER + INTRA:          -8.379
REMARK INTER:                  -7.548
REMARK INTRA:                  -0.831
REMARK UNBOUND:                -0.693
REMARK SMILES COc1cc(CNC(=O)CCCCC=CC(C)C)ccc1O
REMARK SMILES IDX 11 1 12 2 13 3 14 4 15 5 16 6 17 7 18 8 10 9 8 10 9 11 7 12
REMARK SMILES IDX 6 14 5 15 4 16 19 17 3 18 20 19 21 20 2 21 1 22 22 23
REMARK H PARENT 7 13 22 24
REMARK Flexibility Score: inf
ROOT
ATOM      1  C   UNL     1       4.818  -2.480  33.404  1.00  0.00     0.010 C 
ENDROOT
BRANCH   1   2
ATOM      2  C   UNL     1       3.991  -1.614  32.436  1.00  0.00     0.005 C 
BRANCH   2   3
ATOM      3  C   UNL     1       4.397  -0.132  32.494  1.00  0.00     0.027 C 
BRANCH   3   4
ATOM      4  C   UNL     1       5.212   0.286  31.296  1.00  0.00    -0.031 C 
ATOM      5  C   UNL     1       6.479   0.740  31.345  1.00  0.00    -0.028 C 
BRANCH   5   6
ATOM      6  C   UNL     1       7.278   0.964  32.614  1.00  0.00     0.005 C 
ATOM      7  C   UNL     1       8.114   2.239  32.480  1.00  0.00     0.012 C 
ATOM      8  C   UNL     1       8.178  -0.248  32.875  1.00  0.00     0.012 C 
ENDBRANCH   5   6
ENDBRANCH   3   4
ENDBRANCH   2   3
ENDBRANCH   1   2
BRANCH   1   9
ATOM      9  C   UNL     1       3.947  -3.112  34.498  1.00  0.00     0.100 C 
BRANCH   9  10
ATOM     10  C   UNL     1       3.145  -4.263  33.965  1.00  0.00     0.220 C 
ATOM     11  O   UNL     1       3.699  -5.106  33.205  1.00  0.00    -0.275 OA
ATOM     12  N   UNL     1       1.773  -4.422  34.348  1.00  0.00    -0.352 N 
ATOM     13  H   UNL     1       1.336  -3.702  34.968  1.00  0.00     0.163 HD
BRANCH  12  14
ATOM     14  C   UNL     1       0.967  -5.571  33.943  1.00  0.00     0.151 C 
BRANCH  14  15
ATOM     15  C   UNL     1       0.704  -6.477  35.117  1.00  0.00    -0.025 A 
ATOM     16  C   UNL     1      -0.438  -7.295  35.136  1.00  0.00     0.056 A 
ATOM     17  C   UNL     1       1.605  -6.526  36.192  1.00  0.00     0.009 A 
ATOM     18  C   UNL     1      -0.677  -8.166  36.219  1.00  0.00     0.160 A 
ATOM     19  C   UNL     1       1.372  -7.385  37.267  1.00  0.00     0.050 A 
ATOM     20  C   UNL     1       0.237  -8.206  37.283  1.00  0.00     0.157 A 
BRANCH  18  21
ATOM     21  O   UNL     1      -1.802  -9.004  36.272  1.00  0.00    -0.493 OA
ATOM     22  C   UNL     1      -3.116  -8.573  36.614  1.00  0.00     0.278 C 
ENDBRANCH  18  21
BRANCH  20  23
ATOM     23  O   UNL     1       0.010  -9.069  38.354  1.00  0.00    -0.504 OA
ATOM     24  H   UNL     1      -0.716  -8.887  39.037  1.00  0.00     0.293 HD
ENDBRANCH  20  23
ENDBRANCH  14  15
ENDBRANCH  12  14
ENDBRANCH   9  10
ENDBRANCH   1   9
TORSDOF 10
ENDMDL
MODEL 9
REMARK VINA RESULT:    -4.939     14.345     15.093
REMARK INTER + INTRA:          -8.374
REMARK INTER:                  -7.592
REMARK INTRA:                  -0.782
REMARK UNBOUND:                -0.693
REMARK SMILES COc1cc(CNC(=O)CCCCC=CC(C)C)ccc1O
REMARK SMILES IDX 11 1 12 2 13 3 14 4 15 5 16 6 17 7 18 8 10 9 8 10 9 11 7 12
REMARK SMILES IDX 6 14 5 15 4 16 19 17 3 18 20 19 21 20 2 21 1 22 22 23
REMARK H PARENT 7 13 22 24
REMARK Flexibility Score: inf
ROOT
ATOM      1  C   UNL     1       4.050  -1.127  30.833  1.00  0.00     0.010 C 
ENDROOT
BRANCH   1   2
ATOM      2  C   UNL     1       4.614   0.119  30.125  1.00  0.00     0.005 C 
BRANCH   2   3
ATOM      3  C   UNL     1       5.794   0.736  30.892  1.00  0.00     0.027 C 
BRANCH   3   4
ATOM      4  C   UNL     1       7.060  -0.069  30.742  1.00  0.00    -0.031 C 
ATOM      5  C   UNL     1       8.095  -0.048  31.604  1.00  0.00    -0.028 C 
BRANCH   5   6
ATOM      6  C   UNL     1       8.189   0.832  32.835  1.00  0.00     0.005 C 
ATOM      7  C   UNL     1       8.528   2.266  32.421  1.00  0.00     0.012 C 
ATOM      8  C   UNL     1       9.254   0.276  33.784  1.00  0.00     0.012 C 
ENDBRANCH   5   6
ENDBRANCH   3   4
ENDBRANCH   2   3
ENDBRANCH   1   2
BRANCH   1   9
ATOM      9  C   UNL     1       3.844  -0.892  32.336  1.00  0.00     0.100 C 
BRANCH   9  10
ATOM     10  C   UNL     1       4.346  -2.052  33.146  1.00  0.00     0.220 C 
ATOM     11  O   UNL     1       5.590  -2.236  33.261  1.00  0.00    -0.275 OA
ATOM     12  N   UNL     1       3.418  -2.917  33.813  1.00  0.00    -0.352 N 
ATOM     13  H   UNL     1       2.394  -2.749  33.690  1.00  0.00     0.163 HD
BRANCH  12  14
ATOM     14  C   UNL     1       3.843  -4.003  34.694  1.00  0.00     0.151 C 
BRANCH  14  15
ATOM     15  C   UNL     1       2.697  -4.940  34.975  1.00  0.00    -0.025 A 
ATOM     16  C   UNL     1       2.607  -5.594  36.214  1.00  0.00     0.056 A 
ATOM     17  C   UNL     1       1.702  -5.152  34.008  1.00  0.00     0.009 A 
ATOM     18  C   UNL     1       1.523  -6.451  36.495  1.00  0.00     0.160 A 
ATOM     19  C   UNL     1       0.627  -6.002  34.280  1.00  0.00     0.050 A 
ATOM     20  C   UNL     1       0.534  -6.649  35.520  1.00  0.00     0.157 A 
BRANCH  18  21
ATOM     21  O   UNL     1       1.393  -7.117  37.724  1.00  0.00    -0.493 OA
ATOM     22  C   UNL     1       2.256  -8.157  38.174  1.00  0.00     0.278 C 
ENDBRANCH  18  21
BRANCH  20  23
ATOM     23  O   UNL     1      -0.543  -7.490  35.791  1.00  0.00    -0.504 OA
ATOM     24  H   UNL     1      -1.445  -7.357  35.349  1.00  0.00     0.293 HD
ENDBRANCH  20  23
ENDBRANCH  14  15
ENDBRANCH  12  14
ENDBRANCH   9  10
ENDBRANCH   1   9
TORSDOF 10
ENDMDL
