MODEL 1
REMARK VINA RESULT:    -7.485      0.000      0.000
REMARK INTER + INTRA:         -11.491
REMARK INTER:                 -10.329
REMARK INTRA:                  -1.162
REMARK UNBOUND:                -1.162
REMARK SMILES CC[C@H](CC[C@@H](C)[C@@H]1CC[C@@H]2[C@H]3CC=C4C[C@@H](O)CC[C@]4(C)[C@H]3CC[C@@]21C)C(C)C
REMARK SMILES IDX 5 1 4 2 3 3 2 4 1 5 28 6 29 7 30 8 6 9 7 10 8 11 9 12 26 13
REMARK SMILES IDX 10 14 11 15 25 16 27 17 12 18 24 19 23 20 13 21 21 22 14 23
REMARK SMILES IDX 15 24 20 25 22 26 16 27 19 28 17 29 18 30
REMARK H PARENT 18 31
REMARK Flexibility Score: inf
ROOT
ATOM      1  C   UNL     1     120.664 130.324 128.609  1.00  0.00     0.004 C 
ENDROOT
BRANCH   1   2
ATOM      2  C   UNL     1     119.662 131.464 128.320  1.00  0.00     0.004 C 
BRANCH   2   3
ATOM      3  C   UNL     1     120.179 132.860 128.768  1.00  0.00    -0.009 C 
BRANCH   3   4
ATOM      4  C   UNL     1     121.734 132.984 128.707  1.00  0.00     0.000 C 
ATOM      5  C   UNL     1     122.399 133.799 129.818  1.00  0.00     0.004 C 
ENDBRANCH   3   4
BRANCH   3   6
ATOM      6  C   UNL     1     119.374 134.026 128.101  1.00  0.00    -0.014 C 
ATOM      7  C   UNL     1     118.245 134.624 128.963  1.00  0.00     0.007 C 
ATOM      8  C   UNL     1     118.848 133.658 126.706  1.00  0.00     0.007 C 
ENDBRANCH   3   6
ENDBRANCH   2   3
ENDBRANCH   1   2
BRANCH   1   9
ATOM      9  C   UNL     1     120.240 129.396 129.775  1.00  0.00    -0.011 C 
ATOM     10  C   UNL     1     120.286 130.144 131.120  1.00  0.00     0.008 C 
BRANCH   9  11
ATOM     11  C   UNL     1     118.890 128.637 129.462  1.00  0.00    -0.002 C 
ATOM     12  C   UNL     1     117.771 128.754 130.506  1.00  0.00     0.005 C 
ATOM     13  C   UNL     1     119.000 127.116 129.159  1.00  0.00    -0.026 C 
ATOM     14  C   UNL     1     116.815 127.599 130.223  1.00  0.00     0.005 C 
ATOM     15  C   UNL     1     117.505 126.679 129.195  1.00  0.00    -0.001 C 
ATOM     16  C   UNL     1     119.840 126.373 130.241  1.00  0.00     0.007 C 
ATOM     17  C   UNL     1     119.636 126.914 127.758  1.00  0.00     0.012 C 
ATOM     18  C   UNL     1     117.211 125.173 129.469  1.00  0.00     0.000 C 
ATOM     19  C   UNL     1     119.576 124.864 130.308  1.00  0.00     0.005 C 
ATOM     20  C   UNL     1     118.082 124.576 130.600  1.00  0.00     0.003 C 
ATOM     21  C   UNL     1     117.327 124.326 128.191  1.00  0.00     0.031 C 
ATOM     22  C   UNL     1     117.703 123.058 130.895  1.00  0.00    -0.008 C 
ATOM     23  C   UNL     1     117.011 122.889 128.458  1.00  0.00    -0.027 C 
ATOM     24  C   UNL     1     117.235 122.291 129.646  1.00  0.00    -0.065 C 
ATOM     25  C   UNL     1     116.509 123.036 131.905  1.00  0.00     0.014 C 
ATOM     26  C   UNL     1     118.903 122.308 131.535  1.00  0.00     0.016 C 
ATOM     27  C   UNL     1     116.696 120.890 129.852  1.00  0.00     0.063 C 
ATOM     28  C   UNL     1     115.898 121.638 132.138  1.00  0.00     0.033 C 
ATOM     29  C   UNL     1     115.506 120.949 130.818  1.00  0.00     0.118 C 
BRANCH  29  30
ATOM     30  O   UNL     1     115.059 119.643 131.075  1.00  0.00    -0.393 OA
ATOM     31  H   UNL     1     115.708 119.028 130.644  1.00  0.00     0.210 HD
ENDBRANCH  29  30
ENDBRANCH   9  11
ENDBRANCH   1   9
TORSDOF 7
ENDMDL
MODEL 2
REMARK VINA RESULT:    -7.444      5.137      7.853
REMARK INTER + INTRA:         -11.434
REMARK INTER:                  -9.462
REMARK INTRA:                  -1.973
REMARK UNBOUND:                -1.162
REMARK SMILES CC[C@H](CC[C@@H](C)[C@@H]1CC[C@@H]2[C@H]3CC=C4C[C@@H](O)CC[C@]4(C)[C@H]3CC[C@@]21C)C(C)C
REMARK SMILES IDX 5 1 4 2 3 3 2 4 1 5 28 6 29 7 30 8 6 9 7 10 8 11 9 12 26 13
REMARK SMILES IDX 10 14 11 15 25 16 27 17 12 18 24 19 23 20 13 21 21 22 14 23
REMARK SMILES IDX 15 24 20 25 22 26 16 27 19 28 17 29 18 30
REMARK H PARENT 18 31
REMARK Flexibility Score: inf
ROOT
ATOM      1  C   UNL     1     116.704 123.619 130.427  1.00  0.00     0.004 C 
ENDROOT
BRANCH   1   2
ATOM      2  C   UNL     1     117.756 124.747 130.516  1.00  0.00     0.004 C 
BRANCH   2   3
ATOM      3  C   UNL     1     117.127 126.166 130.582  1.00  0.00    -0.009 C 
BRANCH   3   4
ATOM      4  C   UNL     1     117.529 126.954 131.867  1.00  0.00     0.000 C 
ATOM      5  C   UNL     1     117.155 128.438 131.905  1.00  0.00     0.004 C 
ENDBRANCH   3   4
BRANCH   3   6
ATOM      6  C   UNL     1     117.282 126.941 129.229  1.00  0.00    -0.014 C 
ATOM      7  C   UNL     1     116.231 126.606 128.154  1.00  0.00     0.007 C 
ATOM      8  C   UNL     1     118.699 126.835 128.648  1.00  0.00     0.007 C 
ENDBRANCH   3   6
ENDBRANCH   2   3
ENDBRANCH   1   2
BRANCH   1   9
ATOM      9  C   UNL     1     116.740 122.832 129.093  1.00  0.00    -0.011 C 
ATOM     10  C   UNL     1     115.379 122.898 128.376  1.00  0.00     0.008 C 
BRANCH   9  11
ATOM     11  C   UNL     1     117.994 123.219 128.214  1.00  0.00    -0.002 C 
ATOM     12  C   UNL     1     117.713 123.770 126.809  1.00  0.00     0.005 C 
ATOM     13  C   UNL     1     119.067 122.113 128.005  1.00  0.00    -0.026 C 
ATOM     14  C   UNL     1     119.014 123.609 126.030  1.00  0.00     0.005 C 
ATOM     15  C   UNL     1     119.957 122.745 126.892  1.00  0.00    -0.001 C 
ATOM     16  C   UNL     1     118.427 120.773 127.533  1.00  0.00     0.007 C 
ATOM     17  C   UNL     1     119.848 121.896 129.327  1.00  0.00     0.012 C 
ATOM     18  C   UNL     1     120.811 121.770 126.027  1.00  0.00     0.000 C 
ATOM     19  C   UNL     1     119.408 119.826 126.831  1.00  0.00     0.005 C 
ATOM     20  C   UNL     1     120.036 120.504 125.587  1.00  0.00     0.003 C 
ATOM     21  C   UNL     1     122.125 121.386 126.725  1.00  0.00     0.031 C 
ATOM     22  C   UNL     1     120.920 119.570 124.649  1.00  0.00    -0.008 C 
ATOM     23  C   UNL     1     122.951 120.477 125.873  1.00  0.00    -0.027 C 
ATOM     24  C   UNL     1     122.422 119.612 124.984  1.00  0.00    -0.065 C 
ATOM     25  C   UNL     1     120.778 120.076 123.176  1.00  0.00     0.014 C 
ATOM     26  C   UNL     1     120.423 118.100 124.714  1.00  0.00     0.016 C 
ATOM     27  C   UNL     1     123.364 118.887 124.045  1.00  0.00     0.063 C 
ATOM     28  C   UNL     1     121.732 119.392 122.174  1.00  0.00     0.033 C 
ATOM     29  C   UNL     1     123.201 119.460 122.632  1.00  0.00     0.118 C 
BRANCH  29  30
ATOM     30  O   UNL     1     124.011 118.733 121.745  1.00  0.00    -0.393 OA
ATOM     31  H   UNL     1     123.409 118.134 121.232  1.00  0.00     0.210 HD
ENDBRANCH  29  30
ENDBRANCH   9  11
ENDBRANCH   1   9
TORSDOF 7
ENDMDL
MODEL 3
REMARK VINA RESULT:    -7.394      6.211      9.411
REMARK INTER + INTRA:         -11.365
REMARK INTER:                  -9.496
REMARK INTRA:                  -1.869
REMARK UNBOUND:                -1.162
REMARK SMILES CC[C@H](CC[C@@H](C)[C@@H]1CC[C@@H]2[C@H]3CC=C4C[C@@H](O)CC[C@]4(C)[C@H]3CC[C@@]21C)C(C)C
REMARK SMILES IDX 5 1 4 2 3 3 2 4 1 5 28 6 29 7 30 8 6 9 7 10 8 11 9 12 26 13
REMARK SMILES IDX 10 14 11 15 25 16 27 17 12 18 24 19 23 20 13 21 21 22 14 23
REMARK SMILES IDX 15 24 20 25 22 26 16 27 19 28 17 29 18 30
REMARK H PARENT 18 31
REMARK Flexibility Score: inf
ROOT
ATOM      1  C   UNL     1     116.631 123.958 130.417  1.00  0.00     0.004 C 
ENDROOT
BRANCH   1   2
ATOM      2  C   UNL     1     116.279 123.188 131.709  1.00  0.00     0.004 C 
BRANCH   2   3
ATOM      3  C   UNL     1     116.687 121.690 131.658  1.00  0.00    -0.009 C 
BRANCH   3   4
ATOM      4  C   UNL     1     117.746 121.307 132.738  1.00  0.00     0.000 C 
ATOM      5  C   UNL     1     118.727 120.192 132.368  1.00  0.00     0.004 C 
ENDBRANCH   3   4
BRANCH   3   6
ATOM      6  C   UNL     1     115.440 120.745 131.560  1.00  0.00    -0.014 C 
ATOM      7  C   UNL     1     114.993 120.105 132.888  1.00  0.00     0.007 C 
ATOM      8  C   UNL     1     115.597 119.673 130.472  1.00  0.00     0.007 C 
ENDBRANCH   3   6
ENDBRANCH   2   3
ENDBRANCH   1   2
BRANCH   1   9
ATOM      9  C   UNL     1     116.708 123.062 129.154  1.00  0.00    -0.011 C 
ATOM     10  C   UNL     1     115.360 123.040 128.411  1.00  0.00     0.008 C 
BRANCH   9  11
ATOM     11  C   UNL     1     117.970 123.402 128.268  1.00  0.00    -0.002 C 
ATOM     12  C   UNL     1     117.702 123.950 126.859  1.00  0.00     0.005 C 
ATOM     13  C   UNL     1     119.007 122.261 128.065  1.00  0.00    -0.026 C 
ATOM     14  C   UNL     1     118.995 123.741 126.078  1.00  0.00     0.005 C 
ATOM     15  C   UNL     1     119.913 122.855 126.945  1.00  0.00    -0.001 C 
ATOM     16  C   UNL     1     118.323 120.938 127.607  1.00  0.00     0.007 C 
ATOM     17  C   UNL     1     119.786 122.031 129.387  1.00  0.00     0.012 C 
ATOM     18  C   UNL     1     120.732 121.845 126.085  1.00  0.00     0.000 C 
ATOM     19  C   UNL     1     119.271 119.954 126.911  1.00  0.00     0.005 C 
ATOM     20  C   UNL     1     119.916 120.601 125.659  1.00  0.00     0.003 C 
ATOM     21  C   UNL     1     122.036 121.426 126.782  1.00  0.00     0.031 C 
ATOM     22  C   UNL     1     120.767 119.631 124.726  1.00  0.00    -0.008 C 
ATOM     23  C   UNL     1     122.830 120.484 125.935  1.00  0.00    -0.027 C 
ATOM     24  C   UNL     1     122.270 119.628 125.056  1.00  0.00    -0.065 C 
ATOM     25  C   UNL     1     120.636 120.129 123.249  1.00  0.00     0.014 C 
ATOM     26  C   UNL     1     120.223 118.178 124.805  1.00  0.00     0.016 C 
ATOM     27  C   UNL     1     123.185 118.866 124.120  1.00  0.00     0.063 C 
ATOM     28  C   UNL     1     121.564 119.407 122.249  1.00  0.00     0.033 C 
ATOM     29  C   UNL     1     123.036 119.431 122.702  1.00  0.00     0.118 C 
BRANCH  29  30
ATOM     30  O   UNL     1     123.820 118.672 121.820  1.00  0.00    -0.393 OA
ATOM     31  H   UNL     1     123.263 117.904 121.530  1.00  0.00     0.210 HD
ENDBRANCH  29  30
ENDBRANCH   9  11
ENDBRANCH   1   9
TORSDOF 7
ENDMDL
MODEL 4
REMARK VINA RESULT:    -7.260      6.433      9.694
REMARK INTER + INTRA:         -11.181
REMARK INTER:                  -9.646
REMARK INTRA:                  -1.535
REMARK UNBOUND:                -1.162
REMARK SMILES CC[C@H](CC[C@@H](C)[C@@H]1CC[C@@H]2[C@H]3CC=C4C[C@@H](O)CC[C@]4(C)[C@H]3CC[C@@]21C)C(C)C
REMARK SMILES IDX 5 1 4 2 3 3 2 4 1 5 28 6 29 7 30 8 6 9 7 10 8 11 9 12 26 13
REMARK SMILES IDX 10 14 11 15 25 16 27 17 12 18 24 19 23 20 13 21 21 22 14 23
REMARK SMILES IDX 15 24 20 25 22 26 16 27 19 28 17 29 18 30
REMARK H PARENT 18 31
REMARK Flexibility Score: inf
ROOT
ATOM      1  C   UNL     1     116.466 123.396 130.491  1.00  0.00     0.004 C 
ENDROOT
BRANCH   1   2
ATOM      2  C   UNL     1     117.112 122.579 131.632  1.00  0.00     0.004 C 
BRANCH   2   3
ATOM      3  C   UNL     1     116.332 121.278 131.970  1.00  0.00    -0.009 C 
BRANCH   3   4
ATOM      4  C   UNL     1     116.857 120.032 131.191  1.00  0.00     0.000 C 
ATOM      5  C   UNL     1     115.886 119.386 130.200  1.00  0.00     0.004 C 
ENDBRANCH   3   4
BRANCH   3   6
ATOM      6  C   UNL     1     116.144 121.090 133.514  1.00  0.00    -0.014 C 
ATOM      7  C   UNL     1     117.280 120.332 134.228  1.00  0.00     0.007 C 
ATOM      8  C   UNL     1     114.782 120.479 133.872  1.00  0.00     0.007 C 
ENDBRANCH   3   6
ENDBRANCH   2   3
ENDBRANCH   1   2
BRANCH   1   9
ATOM      9  C   UNL     1     116.508 122.689 129.112  1.00  0.00    -0.011 C 
ATOM     10  C   UNL     1     115.150 122.800 128.394  1.00  0.00     0.008 C 
BRANCH   9  11
ATOM     11  C   UNL     1     117.766 123.128 128.264  1.00  0.00    -0.002 C 
ATOM     12  C   UNL     1     117.496 123.697 126.865  1.00  0.00     0.005 C 
ATOM     13  C   UNL     1     118.873 122.055 128.054  1.00  0.00    -0.026 C 
ATOM     14  C   UNL     1     118.815 123.587 126.108  1.00  0.00     0.005 C 
ATOM     15  C   UNL     1     119.765 122.733 126.971  1.00  0.00    -0.001 C 
ATOM     16  C   UNL     1     118.279 120.708 127.546  1.00  0.00     0.007 C 
ATOM     17  C   UNL     1     119.636 121.835 129.387  1.00  0.00     0.012 C 
ATOM     18  C   UNL     1     120.662 121.798 126.103  1.00  0.00     0.000 C 
ATOM     19  C   UNL     1     119.299 119.801 126.845  1.00  0.00     0.005 C 
ATOM     20  C   UNL     1     119.931 120.520 125.626  1.00  0.00     0.003 C 
ATOM     21  C   UNL     1     121.973 121.437 126.819  1.00  0.00     0.031 C 
ATOM     22  C   UNL     1     120.857 119.629 124.687  1.00  0.00    -0.008 C 
ATOM     23  C   UNL     1     122.840 120.567 125.965  1.00  0.00    -0.027 C 
ATOM     24  C   UNL     1     122.350 119.705 125.051  1.00  0.00    -0.065 C 
ATOM     25  C   UNL     1     120.728 120.159 123.222  1.00  0.00     0.014 C 
ATOM     26  C   UNL     1     120.399 118.145 124.715  1.00  0.00     0.016 C 
ATOM     27  C   UNL     1     123.329 119.025 124.116  1.00  0.00     0.063 C 
ATOM     28  C   UNL     1     121.718 119.521 122.224  1.00  0.00     0.033 C 
ATOM     29  C   UNL     1     123.176 119.620 122.711  1.00  0.00     0.118 C 
BRANCH  29  30
ATOM     30  O   UNL     1     124.022 118.933 121.826  1.00  0.00    -0.393 OA
ATOM     31  H   UNL     1     123.466 118.662 121.051  1.00  0.00     0.210 HD
ENDBRANCH  29  30
ENDBRANCH   9  11
ENDBRANCH   1   9
TORSDOF 7
ENDMDL
MODEL 5
REMARK VINA RESULT:    -7.115      2.225      3.213
REMARK INTER + INTRA:         -10.981
REMARK INTER:                 -10.002
REMARK INTRA:                  -0.979
REMARK UNBOUND:                -1.162
REMARK SMILES CC[C@H](CC[C@@H](C)[C@@H]1CC[C@@H]2[C@H]3CC=C4C[C@@H](O)CC[C@]4(C)[C@H]3CC[C@@]21C)C(C)C
REMARK SMILES IDX 5 1 4 2 3 3 2 4 1 5 28 6 29 7 30 8 6 9 7 10 8 11 9 12 26 13
REMARK SMILES IDX 10 14 11 15 25 16 27 17 12 18 24 19 23 20 13 21 21 22 14 23
REMARK SMILES IDX 15 24 20 25 22 26 16 27 19 28 17 29 18 30
REMARK H PARENT 18 31
REMARK Flexibility Score: inf
ROOT
ATOM      1  C   UNL     1     118.809 129.860 129.564  1.00  0.00     0.004 C 
ENDROOT
BRANCH   1   2
ATOM      2  C   UNL     1     120.264 130.347 129.740  1.00  0.00     0.004 C 
BRANCH   2   3
ATOM      3  C   UNL     1     120.574 131.646 128.946  1.00  0.00    -0.009 C 
BRANCH   3   4
ATOM      4  C   UNL     1     119.379 132.649 128.923  1.00  0.00     0.000 C 
ATOM      5  C   UNL     1     118.908 133.120 127.545  1.00  0.00     0.004 C 
ENDBRANCH   3   4
BRANCH   3   6
ATOM      6  C   UNL     1     121.966 132.252 129.332  1.00  0.00    -0.014 C 
ATOM      7  C   UNL     1     121.991 133.782 129.516  1.00  0.00     0.007 C 
ATOM      8  C   UNL     1     123.088 131.807 128.382  1.00  0.00     0.007 C 
ENDBRANCH   3   6
ENDBRANCH   2   3
ENDBRANCH   1   2
BRANCH   1   9
ATOM      9  C   UNL     1     118.562 128.420 130.081  1.00  0.00    -0.011 C 
ATOM     10  C   UNL     1     117.749 128.435 131.388  1.00  0.00     0.008 C 
BRANCH   9  11
ATOM     11  C   UNL     1     118.008 127.474 128.943  1.00  0.00    -0.002 C 
ATOM     12  C   UNL     1     116.640 126.823 129.188  1.00  0.00     0.005 C 
ATOM     13  C   UNL     1     118.934 126.308 128.494  1.00  0.00    -0.026 C 
ATOM     14  C   UNL     1     116.562 125.642 128.225  1.00  0.00     0.005 C 
ATOM     15  C   UNL     1     117.967 125.460 127.615  1.00  0.00    -0.001 C 
ATOM     16  C   UNL     1     119.463 125.493 129.712  1.00  0.00     0.007 C 
ATOM     17  C   UNL     1     120.121 126.879 127.676  1.00  0.00     0.012 C 
ATOM     18  C   UNL     1     118.326 123.956 127.412  1.00  0.00     0.000 C 
ATOM     19  C   UNL     1     119.936 124.078 129.358  1.00  0.00     0.005 C 
ATOM     20  C   UNL     1     118.791 123.258 128.713  1.00  0.00     0.003 C 
ATOM     21  C   UNL     1     119.360 123.761 126.293  1.00  0.00     0.031 C 
ATOM     22  C   UNL     1     119.080 121.710 128.478  1.00  0.00    -0.008 C 
ATOM     23  C   UNL     1     119.673 122.314 126.084  1.00  0.00    -0.027 C 
ATOM     24  C   UNL     1     119.614 121.394 127.070  1.00  0.00    -0.065 C 
ATOM     25  C   UNL     1     117.733 120.929 128.629  1.00  0.00     0.014 C 
ATOM     26  C   UNL     1     120.082 121.173 129.536  1.00  0.00     0.016 C 
ATOM     27  C   UNL     1     119.763 119.935 126.693  1.00  0.00     0.063 C 
ATOM     28  C   UNL     1     117.814 119.439 128.236  1.00  0.00     0.033 C 
ATOM     29  C   UNL     1     118.401 119.242 126.825  1.00  0.00     0.118 C 
BRANCH  29  30
ATOM     30  O   UNL     1     118.554 117.872 126.558  1.00  0.00    -0.393 OA
ATOM     31  H   UNL     1     118.844 117.446 127.406  1.00  0.00     0.210 HD
ENDBRANCH  29  30
ENDBRANCH   9  11
ENDBRANCH   1   9
TORSDOF 7
ENDMDL
MODEL 6
REMARK VINA RESULT:    -7.011      6.572     10.160
REMARK INTER + INTRA:         -10.837
REMARK INTER:                  -9.926
REMARK INTRA:                  -0.911
REMARK UNBOUND:                -1.162
REMARK SMILES CC[C@H](CC[C@@H](C)[C@@H]1CC[C@@H]2[C@H]3CC=C4C[C@@H](O)CC[C@]4(C)[C@H]3CC[C@@]21C)C(C)C
REMARK SMILES IDX 5 1 4 2 3 3 2 4 1 5 28 6 29 7 30 8 6 9 7 10 8 11 9 12 26 13
REMARK SMILES IDX 10 14 11 15 25 16 27 17 12 18 24 19 23 20 13 21 21 22 14 23
REMARK SMILES IDX 15 24 20 25 22 26 16 27 19 28 17 29 18 30
REMARK H PARENT 18 31
REMARK Flexibility Score: inf
ROOT
ATOM      1  C   UNL     1     122.869 119.458 123.604  1.00  0.00     0.004 C 
ENDROOT
BRANCH   1   2
ATOM      2  C   UNL     1     122.915 118.763 122.225  1.00  0.00     0.004 C 
BRANCH   2   3
ATOM      3  C   UNL     1     124.047 119.303 121.307  1.00  0.00    -0.009 C 
BRANCH   3   4
ATOM      4  C   UNL     1     125.475 118.933 121.816  1.00  0.00     0.000 C 
ATOM      5  C   UNL     1     126.378 120.099 122.226  1.00  0.00     0.004 C 
ENDBRANCH   3   4
BRANCH   3   6
ATOM      6  C   UNL     1     123.765 119.011 119.794  1.00  0.00    -0.014 C 
ATOM      7  C   UNL     1     123.724 117.521 119.406  1.00  0.00     0.007 C 
ATOM      8  C   UNL     1     124.706 119.784 118.859  1.00  0.00     0.007 C 
ENDBRANCH   3   6
ENDBRANCH   2   3
ENDBRANCH   1   2
BRANCH   1   9
ATOM      9  C   UNL     1     121.510 120.132 123.922  1.00  0.00    -0.011 C 
ATOM     10  C   UNL     1     120.534 119.993 122.739  1.00  0.00     0.008 C 
BRANCH   9  11
ATOM     11  C   UNL     1     120.946 119.682 125.328  1.00  0.00    -0.002 C 
ATOM     12  C   UNL     1     119.701 118.784 125.321  1.00  0.00     0.005 C 
ATOM     13  C   UNL     1     120.618 120.816 126.341  1.00  0.00    -0.026 C 
ATOM     14  C   UNL     1     119.100 118.893 126.719  1.00  0.00     0.005 C 
ATOM     15  C   UNL     1     119.841 120.036 127.444  1.00  0.00    -0.001 C 
ATOM     16  C   UNL     1     119.736 121.926 125.696  1.00  0.00     0.007 C 
ATOM     17  C   UNL     1     121.940 121.426 126.877  1.00  0.00     0.012 C 
ATOM     18  C   UNL     1     118.887 120.862 128.360  1.00  0.00     0.000 C 
ATOM     19  C   UNL     1     118.964 122.778 126.712  1.00  0.00     0.005 C 
ATOM     20  C   UNL     1     118.035 121.894 127.582  1.00  0.00     0.003 C 
ATOM     21  C   UNL     1     119.645 121.541 129.511  1.00  0.00     0.031 C 
ATOM     22  C   UNL     1     117.027 122.666 128.542  1.00  0.00    -0.008 C 
ATOM     23  C   UNL     1     118.717 122.303 130.402  1.00  0.00    -0.027 C 
ATOM     24  C   UNL     1     117.572 122.868 129.967  1.00  0.00    -0.065 C 
ATOM     25  C   UNL     1     115.725 121.810 128.680  1.00  0.00     0.014 C 
ATOM     26  C   UNL     1     116.646 124.047 127.940  1.00  0.00     0.016 C 
ATOM     27  C   UNL     1     116.623 123.444 130.998  1.00  0.00     0.063 C 
ATOM     28  C   UNL     1     114.729 122.332 129.736  1.00  0.00     0.033 C 
ATOM     29  C   UNL     1     115.393 122.536 131.110  1.00  0.00     0.118 C 
BRANCH  29  30
ATOM     30  O   UNL     1     114.477 123.112 132.004  1.00  0.00    -0.393 OA
ATOM     31  H   UNL     1     114.859 123.984 132.283  1.00  0.00     0.210 HD
ENDBRANCH  29  30
ENDBRANCH   9  11
ENDBRANCH   1   9
TORSDOF 7
ENDMDL
MODEL 7
REMARK VINA RESULT:    -6.920      8.731     12.013
REMARK INTER + INTRA:         -10.712
REMARK INTER:                  -9.201
REMARK INTRA:                  -1.511
REMARK UNBOUND:                -1.162
REMARK SMILES CC[C@H](CC[C@@H](C)[C@@H]1CC[C@@H]2[C@H]3CC=C4C[C@@H](O)CC[C@]4(C)[C@H]3CC[C@@]21C)C(C)C
REMARK SMILES IDX 5 1 4 2 3 3 2 4 1 5 28 6 29 7 30 8 6 9 7 10 8 11 9 12 26 13
REMARK SMILES IDX 10 14 11 15 25 16 27 17 12 18 24 19 23 20 13 21 21 22 14 23
REMARK SMILES IDX 15 24 20 25 22 26 16 27 19 28 17 29 18 30
REMARK H PARENT 18 31
REMARK Flexibility Score: inf
ROOT
ATOM      1  C   UNL     1     125.003 117.345 121.758  1.00  0.00     0.004 C 
ENDROOT
BRANCH   1   2
ATOM      2  C   UNL     1     126.121 117.727 120.763  1.00  0.00     0.004 C 
BRANCH   2   3
ATOM      3  C   UNL     1     125.637 117.773 119.287  1.00  0.00    -0.009 C 
BRANCH   3   4
ATOM      4  C   UNL     1     124.173 117.261 119.108  1.00  0.00     0.000 C 
ATOM      5  C   UNL     1     123.990 115.999 118.261  1.00  0.00     0.004 C 
ENDBRANCH   3   4
BRANCH   3   6
ATOM      6  C   UNL     1     125.969 119.142 118.602  1.00  0.00    -0.014 C 
ATOM      7  C   UNL     1     127.245 119.841 119.111  1.00  0.00     0.007 C 
ATOM      8  C   UNL     1     124.781 120.114 118.619  1.00  0.00     0.007 C 
ENDBRANCH   3   6
ENDBRANCH   2   3
ENDBRANCH   1   2
BRANCH   1   9
ATOM      9  C   UNL     1     124.587 118.496 122.707  1.00  0.00    -0.011 C 
ATOM     10  C   UNL     1     125.344 119.793 122.367  1.00  0.00     0.008 C 
BRANCH   9  11
ATOM     11  C   UNL     1     123.016 118.631 122.815  1.00  0.00    -0.002 C 
ATOM     12  C   UNL     1     122.357 119.739 121.982  1.00  0.00     0.005 C 
ATOM     13  C   UNL     1     122.428 118.798 124.245  1.00  0.00    -0.026 C 
ATOM     14  C   UNL     1     120.983 119.966 122.605  1.00  0.00     0.005 C 
ATOM     15  C   UNL     1     120.950 119.183 123.933  1.00  0.00    -0.001 C 
ATOM     16  C   UNL     1     123.157 119.923 125.039  1.00  0.00     0.007 C 
ATOM     17  C   UNL     1     122.534 117.451 125.007  1.00  0.00     0.012 C 
ATOM     18  C   UNL     1     120.166 119.946 125.044  1.00  0.00     0.000 C 
ATOM     19  C   UNL     1     122.343 120.488 126.210  1.00  0.00     0.005 C 
ATOM     20  C   UNL     1     120.993 121.068 125.715  1.00  0.00     0.003 C 
ATOM     21  C   UNL     1     119.592 118.989 126.100  1.00  0.00     0.031 C 
ATOM     22  C   UNL     1     120.135 121.867 126.792  1.00  0.00    -0.008 C 
ATOM     23  C   UNL     1     118.814 119.727 127.142  1.00  0.00    -0.027 C 
ATOM     24  C   UNL     1     119.088 120.997 127.508  1.00  0.00    -0.065 C 
ATOM     25  C   UNL     1     119.345 122.996 126.052  1.00  0.00     0.014 C 
ATOM     26  C   UNL     1     121.061 122.527 127.850  1.00  0.00     0.016 C 
ATOM     27  C   UNL     1     118.112 121.699 128.429  1.00  0.00     0.063 C 
ATOM     28  C   UNL     1     118.315 123.734 126.933  1.00  0.00     0.033 C 
ATOM     29  C   UNL     1     117.346 122.762 127.631  1.00  0.00     0.118 C 
BRANCH  29  30
ATOM     30  O   UNL     1     116.502 123.470 128.501  1.00  0.00    -0.393 OA
ATOM     31  H   UNL     1     116.985 123.553 129.364  1.00  0.00     0.210 HD
ENDBRANCH  29  30
ENDBRANCH   9  11
ENDBRANCH   1   9
TORSDOF 7
ENDMDL
MODEL 8
REMARK VINA RESULT:    -6.646     11.052     12.869
REMARK INTER + INTRA:         -10.334
REMARK INTER:                  -8.657
REMARK INTRA:                  -1.677
REMARK UNBOUND:                -1.162
REMARK SMILES CC[C@H](CC[C@@H](C)[C@@H]1CC[C@@H]2[C@H]3CC=C4C[C@@H](O)CC[C@]4(C)[C@H]3CC[C@@]21C)C(C)C
REMARK SMILES IDX 5 1 4 2 3 3 2 4 1 5 28 6 29 7 30 8 6 9 7 10 8 11 9 12 26 13
REMARK SMILES IDX 10 14 11 15 25 16 27 17 12 18 24 19 23 20 13 21 21 22 14 23
REMARK SMILES IDX 15 24 20 25 22 26 16 27 19 28 17 29 18 30
REMARK H PARENT 18 31
REMARK Flexibility Score: inf
ROOT
ATOM      1  C   UNL     1     129.439 131.397 134.364  1.00  0.00     0.004 C 
ENDROOT
BRANCH   1   2
ATOM      2  C   UNL     1     128.741 132.366 133.385  1.00  0.00     0.004 C 
BRANCH   2   3
ATOM      3  C   UNL     1     129.734 133.124 132.462  1.00  0.00    -0.009 C 
BRANCH   3   4
ATOM      4  C   UNL     1     131.229 132.803 132.779  1.00  0.00     0.000 C 
ATOM      5  C   UNL     1     132.111 132.415 131.590  1.00  0.00     0.004 C 
ENDBRANCH   3   4
BRANCH   3   6
ATOM      6  C   UNL     1     129.321 133.032 130.954  1.00  0.00    -0.014 C 
ATOM      7  C   UNL     1     128.965 134.374 130.286  1.00  0.00     0.007 C 
ATOM      8  C   UNL     1     128.213 131.998 130.707  1.00  0.00     0.007 C 
ENDBRANCH   3   6
ENDBRANCH   2   3
ENDBRANCH   1   2
BRANCH   1   9
ATOM      9  C   UNL     1     129.179 129.900 134.059  1.00  0.00    -0.011 C 
ATOM     10  C   UNL     1     127.731 129.677 133.585  1.00  0.00     0.008 C 
BRANCH   9  11
ATOM     11  C   UNL     1     130.302 129.285 133.134  1.00  0.00    -0.002 C 
ATOM     12  C   UNL     1     130.062 129.343 131.618  1.00  0.00     0.005 C 
ATOM     13  C   UNL     1     130.710 127.811 133.419  1.00  0.00    -0.026 C 
ATOM     14  C   UNL     1     130.997 128.305 131.008  1.00  0.00     0.005 C 
ATOM     15  C   UNL     1     131.584 127.480 132.172  1.00  0.00    -0.001 C 
ATOM     16  C   UNL     1     129.466 126.878 133.511  1.00  0.00     0.007 C 
ATOM     17  C   UNL     1     131.525 127.749 134.738  1.00  0.00     0.012 C 
ATOM     18  C   UNL     1     131.746 125.975 131.798  1.00  0.00     0.000 C 
ATOM     19  C   UNL     1     129.781 125.394 133.280  1.00  0.00     0.005 C 
ATOM     20  C   UNL     1     130.423 125.177 131.886  1.00  0.00     0.003 C 
ATOM     21  C   UNL     1     132.846 125.295 132.628  1.00  0.00     0.031 C 
ATOM     22  C   UNL     1     130.618 123.664 131.431  1.00  0.00    -0.008 C 
ATOM     23  C   UNL     1     133.016 123.861 132.240  1.00  0.00    -0.027 C 
ATOM     24  C   UNL     1     132.011 123.100 131.762  1.00  0.00    -0.065 C 
ATOM     25  C   UNL     1     130.468 123.595 129.876  1.00  0.00     0.014 C 
ATOM     26  C   UNL     1     129.533 122.755 132.070  1.00  0.00     0.016 C 
ATOM     27  C   UNL     1     132.350 121.726 131.222  1.00  0.00     0.063 C 
ATOM     28  C   UNL     1     130.825 122.225 129.262  1.00  0.00     0.033 C 
ATOM     29  C   UNL     1     132.222 121.742 129.694  1.00  0.00     0.118 C 
BRANCH  29  30
ATOM     30  O   UNL     1     132.455 120.448 129.200  1.00  0.00    -0.393 OA
ATOM     31  H   UNL     1     132.920 119.947 129.919  1.00  0.00     0.210 HD
ENDBRANCH  29  30
ENDBRANCH   9  11
ENDBRANCH   1   9
TORSDOF 7
ENDMDL
MODEL 9
REMARK VINA RESULT:    -6.620      5.205      9.772
REMARK INTER + INTRA:         -10.298
REMARK INTER:                  -8.398
REMARK INTRA:                  -1.900
REMARK UNBOUND:                -1.162
REMARK SMILES CC[C@H](CC[C@@H](C)[C@@H]1CC[C@@H]2[C@H]3CC=C4C[C@@H](O)CC[C@]4(C)[C@H]3CC[C@@]21C)C(C)C
REMARK SMILES IDX 5 1 4 2 3 3 2 4 1 5 28 6 29 7 30 8 6 9 7 10 8 11 9 12 26 13
REMARK SMILES IDX 10 14 11 15 25 16 27 17 12 18 24 19 23 20 13 21 21 22 14 23
REMARK SMILES IDX 15 24 20 25 22 26 16 27 19 28 17 29 18 30
REMARK H PARENT 18 31
REMARK Flexibility Score: inf
ROOT
ATOM      1  C   UNL     1     121.141 117.552 125.890  1.00  0.00     0.004 C 
ENDROOT
BRANCH   1   2
ATOM      2  C   UNL     1     122.240 117.701 124.815  1.00  0.00     0.004 C 
BRANCH   2   3
ATOM      3  C   UNL     1     122.414 119.163 124.318  1.00  0.00    -0.009 C 
BRANCH   3   4
ATOM      4  C   UNL     1     123.818 119.758 124.648  1.00  0.00     0.000 C 
ATOM      5  C   UNL     1     124.539 119.173 125.865  1.00  0.00     0.004 C 
ENDBRANCH   3   4
BRANCH   3   6
ATOM      6  C   UNL     1     121.927 119.343 122.839  1.00  0.00    -0.014 C 
ATOM      7  C   UNL     1     123.042 119.580 121.803  1.00  0.00     0.007 C 
ATOM      8  C   UNL     1     120.832 120.411 122.705  1.00  0.00     0.007 C 
ENDBRANCH   3   6
ENDBRANCH   2   3
ENDBRANCH   1   2
BRANCH   1   9
ATOM      9  C   UNL     1     119.938 118.509 125.696  1.00  0.00    -0.011 C 
ATOM     10  C   UNL     1     118.817 117.830 124.889  1.00  0.00     0.008 C 
BRANCH   9  11
ATOM     11  C   UNL     1     119.492 119.176 127.057  1.00  0.00    -0.002 C 
ATOM     12  C   UNL     1     117.982 119.295 127.309  1.00  0.00     0.005 C 
ATOM     13  C   UNL     1     120.063 120.591 127.359  1.00  0.00    -0.026 C 
ATOM     14  C   UNL     1     117.823 120.355 128.394  1.00  0.00     0.005 C 
ATOM     15  C   UNL     1     119.201 121.022 128.584  1.00  0.00    -0.001 C 
ATOM     16  C   UNL     1     119.868 121.559 126.154  1.00  0.00     0.007 C 
ATOM     17  C   UNL     1     121.568 120.474 127.715  1.00  0.00     0.012 C 
ATOM     18  C   UNL     1     119.077 122.551 128.862  1.00  0.00     0.000 C 
ATOM     19  C   UNL     1     119.924 123.044 126.532  1.00  0.00     0.005 C 
ATOM     20  C   UNL     1     118.838 123.388 127.583  1.00  0.00     0.003 C 
ATOM     21  C   UNL     1     120.285 123.090 129.645  1.00  0.00     0.031 C 
ATOM     22  C   UNL     1     118.648 124.933 127.918  1.00  0.00    -0.008 C 
ATOM     23  C   UNL     1     120.140 124.549 129.936  1.00  0.00    -0.027 C 
ATOM     24  C   UNL     1     119.464 125.399 129.136  1.00  0.00    -0.065 C 
ATOM     25  C   UNL     1     117.144 125.179 128.269  1.00  0.00     0.014 C 
ATOM     26  C   UNL     1     119.016 125.809 126.690  1.00  0.00     0.016 C 
ATOM     27  C   UNL     1     119.224 126.810 129.635  1.00  0.00     0.063 C 
ATOM     28  C   UNL     1     116.839 126.592 128.807  1.00  0.00     0.033 C 
ATOM     29  C   UNL     1     117.742 126.967 129.997  1.00  0.00     0.118 C 
BRANCH  29  30
ATOM     30  O   UNL     1     117.502 128.297 130.379  1.00  0.00    -0.393 OA
ATOM     31  H   UNL     1     116.548 128.484 130.180  1.00  0.00     0.210 HD
ENDBRANCH  29  30
ENDBRANCH   9  11
ENDBRANCH   1   9
TORSDOF 7
ENDMDL
