MODEL 1
REMARK VINA RESULT:    -5.367      0.000      0.000
REMARK INTER + INTRA:          -6.808
REMARK INTER:                  -6.465
REMARK INTRA:                  -0.343
REMARK UNBOUND:                -0.343
REMARK SMILES O=c1c(O)c(-c2ccc(O)cc2O)oc2cc(O)cc(O)c12
REMARK SMILES IDX 5 1 3 2 2 3 1 4 22 5 20 6 19 7 17 8 16 9 15 10 14 11 6 12
REMARK SMILES IDX 8 13 7 14 9 15 11 16 12 17 10 18 13 20 4 22 21 24 18 26
REMARK H PARENT 10 19 13 21 4 23 21 25 18 27
REMARK Flexibility Score: inf
ROOT
ATOM      1  C   UNL     1     119.716 129.347 130.812  1.00  0.00     0.184 A 
ATOM      2  C   UNL     1     118.504 129.779 131.371  1.00  0.00     0.208 A 
ATOM      3  C   UNL     1     117.592 128.823 131.845  1.00  0.00     0.238 A 
ATOM      4  O   UNL     1     116.478 129.214 132.278  1.00  0.00    -0.285 OA
ATOM      5  C   UNL     1     117.931 127.447 131.804  1.00  0.00     0.111 A 
ATOM      6  C   UNL     1     117.103 126.393 132.298  1.00  0.00     0.134 A 
ATOM      7  C   UNL     1     117.495 125.062 132.108  1.00  0.00     0.093 A 
ATOM      8  C   UNL     1     118.711 124.748 131.502  1.00  0.00     0.123 A 
ATOM      9  C   UNL     1     119.552 125.771 131.066  1.00  0.00     0.094 A 
ATOM     10  C   UNL     1     119.173 127.108 131.206  1.00  0.00     0.146 A 
ATOM     11  O   UNL     1     119.994 128.050 130.758  1.00  0.00    -0.451 OA
ENDROOT
BRANCH   1  12
ATOM     12  C   UNL     1     120.714 130.301 130.288  1.00  0.00     0.063 A 
ATOM     13  C   UNL     1     122.252 132.137 130.708  1.00  0.00     0.047 A 
ATOM     14  C   UNL     1     121.301 131.224 131.169  1.00  0.00     0.020 A 
ATOM     15  C   UNL     1     122.639 132.130 129.362  1.00  0.00     0.119 A 
ATOM     16  C   UNL     1     122.078 131.198 128.483  1.00  0.00     0.093 A 
ATOM     17  C   UNL     1     121.126 130.274 128.940  1.00  0.00     0.130 A 
BRANCH  15  18
ATOM     18  O   UNL     1     123.585 133.037 128.891  1.00  0.00    -0.508 OA
ATOM     19  H   UNL     1     123.407 133.611 128.075  1.00  0.00     0.293 HD
ENDBRANCH  15  18
BRANCH  17  20
ATOM     20  O   UNL     1     120.610 129.320 128.064  1.00  0.00    -0.507 OA
ATOM     21  H   UNL     1     119.899 129.555 127.380  1.00  0.00     0.293 HD
ENDBRANCH  17  20
ENDBRANCH   1  12
BRANCH   2  22
ATOM     22  O   UNL     1     118.226 131.146 131.465  1.00  0.00    -0.502 OA
ATOM     23  H   UNL     1     117.288 131.516 131.375  1.00  0.00     0.293 HD
ENDBRANCH   2  22
BRANCH   6  24
ATOM     24  O   UNL     1     115.910 126.596 132.997  1.00  0.00    -0.507 OA
ATOM     25  H   UNL     1     115.826 127.105 133.863  1.00  0.00     0.293 HD
ENDBRANCH   6  24
BRANCH   8  26
ATOM     26  O   UNL     1     119.076 123.412 131.346  1.00  0.00    -0.508 OA
ATOM     27  H   UNL     1     119.937 123.048 131.738  1.00  0.00     0.293 HD
ENDBRANCH   8  26
TORSDOF 6
ENDMDL
MODEL 2
REMARK VINA RESULT:    -5.313      1.905      2.863
REMARK INTER + INTRA:          -6.744
REMARK INTER:                  -6.342
REMARK INTRA:                  -0.402
REMARK UNBOUND:                -0.343
REMARK SMILES O=c1c(O)c(-c2ccc(O)cc2O)oc2cc(O)cc(O)c12
REMARK SMILES IDX 5 1 3 2 2 3 1 4 22 5 20 6 19 7 17 8 16 9 15 10 14 11 6 12
REMARK SMILES IDX 8 13 7 14 9 15 11 16 12 17 10 18 13 20 4 22 21 24 18 26
REMARK H PARENT 10 19 13 21 4 23 21 25 18 27
REMARK Flexibility Score: inf
ROOT
ATOM      1  C   UNL     1     121.051 128.478 130.473  1.00  0.00     0.184 A 
ATOM      2  C   UNL     1     121.742 127.601 131.322  1.00  0.00     0.208 A 
ATOM      3  C   UNL     1     121.112 126.418 131.740  1.00  0.00     0.238 A 
ATOM      4  O   UNL     1     121.710 125.673 132.558  1.00  0.00    -0.285 OA
ATOM      5  C   UNL     1     119.818 126.102 131.258  1.00  0.00     0.111 A 
ATOM      6  C   UNL     1     119.100 124.909 131.580  1.00  0.00     0.134 A 
ATOM      7  C   UNL     1     117.784 124.754 131.129  1.00  0.00     0.093 A 
ATOM      8  C   UNL     1     117.181 125.714 130.317  1.00  0.00     0.123 A 
ATOM      9  C   UNL     1     117.892 126.857 129.952  1.00  0.00     0.094 A 
ATOM     10  C   UNL     1     119.193 127.060 130.416  1.00  0.00     0.146 A 
ATOM     11  O   UNL     1     119.826 128.172 130.062  1.00  0.00    -0.451 OA
ENDROOT
BRANCH   1  12
ATOM     12  C   UNL     1     121.654 129.742 130.004  1.00  0.00     0.063 A 
ATOM     13  C   UNL     1     122.251 132.054 130.464  1.00  0.00     0.047 A 
ATOM     14  C   UNL     1     121.684 130.844 130.873  1.00  0.00     0.020 A 
ATOM     15  C   UNL     1     122.809 132.172 129.185  1.00  0.00     0.119 A 
ATOM     16  C   UNL     1     122.805 131.072 128.322  1.00  0.00     0.093 A 
ATOM     17  C   UNL     1     122.242 129.853 128.727  1.00  0.00     0.130 A 
BRANCH  15  18
ATOM     18  O   UNL     1     123.375 133.373 128.766  1.00  0.00    -0.508 OA
ATOM     19  H   UNL     1     123.810 134.011 129.421  1.00  0.00     0.293 HD
ENDBRANCH  15  18
BRANCH  17  20
ATOM     20  O   UNL     1     122.288 128.750 127.875  1.00  0.00    -0.507 OA
ATOM     21  H   UNL     1     123.000 128.034 127.969  1.00  0.00     0.293 HD
ENDBRANCH  17  20
ENDBRANCH   1  12
BRANCH   2  22
ATOM     22  O   UNL     1     123.047 127.902 131.725  1.00  0.00    -0.502 OA
ATOM     23  H   UNL     1     123.851 127.384 131.391  1.00  0.00     0.293 HD
ENDBRANCH   2  22
BRANCH   6  24
ATOM     24  O   UNL     1     119.637 123.846 132.310  1.00  0.00    -0.507 OA
ATOM     25  H   UNL     1     120.586 123.796 132.646  1.00  0.00     0.293 HD
ENDBRANCH   6  24
BRANCH   8  26
ATOM     26  O   UNL     1     115.875 125.517 129.873  1.00  0.00    -0.508 OA
ATOM     27  H   UNL     1     115.673 124.950 129.058  1.00  0.00     0.293 HD
ENDBRANCH   8  26
TORSDOF 6
ENDMDL
MODEL 3
REMARK VINA RESULT:    -5.302      2.542      6.825
REMARK INTER + INTRA:          -6.730
REMARK INTER:                  -6.399
REMARK INTRA:                  -0.332
REMARK UNBOUND:                -0.343
REMARK SMILES O=c1c(O)c(-c2ccc(O)cc2O)oc2cc(O)cc(O)c12
REMARK SMILES IDX 5 1 3 2 2 3 1 4 22 5 20 6 19 7 17 8 16 9 15 10 14 11 6 12
REMARK SMILES IDX 8 13 7 14 9 15 11 16 12 17 10 18 13 20 4 22 21 24 18 26
REMARK H PARENT 10 19 13 21 4 23 21 25 18 27
REMARK Flexibility Score: inf
ROOT
ATOM      1  C   UNL     1     121.261 127.481 130.526  1.00  0.00     0.184 A 
ATOM      2  C   UNL     1     120.837 128.818 130.559  1.00  0.00     0.208 A 
ATOM      3  C   UNL     1     121.672 129.812 130.024  1.00  0.00     0.238 A 
ATOM      4  O   UNL     1     121.317 131.015 130.122  1.00  0.00    -0.285 OA
ATOM      5  C   UNL     1     122.897 129.447 129.414  1.00  0.00     0.111 A 
ATOM      6  C   UNL     1     123.803 130.366 128.799  1.00  0.00     0.134 A 
ATOM      7  C   UNL     1     125.036 129.904 128.322  1.00  0.00     0.093 A 
ATOM      8  C   UNL     1     125.369 128.550 128.376  1.00  0.00     0.123 A 
ATOM      9  C   UNL     1     124.469 127.637 128.924  1.00  0.00     0.094 A 
ATOM     10  C   UNL     1     123.247 128.072 129.445  1.00  0.00     0.146 A 
ATOM     11  O   UNL     1     122.429 127.171 129.977  1.00  0.00    -0.451 OA
ENDROOT
BRANCH   1  12
ATOM     12  C   UNL     1     120.434 126.389 131.079  1.00  0.00     0.063 A 
ATOM     13  C   UNL     1     120.047 124.773 132.854  1.00  0.00     0.047 A 
ATOM     14  C   UNL     1     120.809 125.804 132.300  1.00  0.00     0.020 A 
ATOM     15  C   UNL     1     118.892 124.323 132.203  1.00  0.00     0.119 A 
ATOM     16  C   UNL     1     118.498 124.918 131.000  1.00  0.00     0.093 A 
ATOM     17  C   UNL     1     119.255 125.957 130.439  1.00  0.00     0.130 A 
BRANCH  15  18
ATOM     18  O   UNL     1     118.126 123.295 132.745  1.00  0.00    -0.508 OA
ATOM     19  H   UNL     1     118.139 123.091 133.737  1.00  0.00     0.293 HD
ENDBRANCH  15  18
BRANCH  17  20
ATOM     20  O   UNL     1     118.825 126.573 129.264  1.00  0.00    -0.507 OA
ATOM     21  H   UNL     1     119.442 127.163 128.717  1.00  0.00     0.293 HD
ENDBRANCH  17  20
ENDBRANCH   1  12
BRANCH   2  22
ATOM     22  O   UNL     1     119.590 129.142 131.102  1.00  0.00    -0.502 OA
ATOM     23  H   UNL     1     119.090 129.986 130.849  1.00  0.00     0.293 HD
ENDBRANCH   2  22
BRANCH   6  24
ATOM     24  O   UNL     1     123.533 131.724 128.612  1.00  0.00    -0.507 OA
ATOM     25  H   UNL     1     122.910 132.099 127.914  1.00  0.00     0.293 HD
ENDBRANCH   6  24
BRANCH   8  26
ATOM     26  O   UNL     1     126.597 128.125 127.875  1.00  0.00    -0.508 OA
ATOM     27  H   UNL     1     126.841 128.246 126.899  1.00  0.00     0.293 HD
ENDBRANCH   8  26
TORSDOF 6
ENDMDL
MODEL 4
REMARK VINA RESULT:    -5.192     11.284     15.622
REMARK INTER + INTRA:          -6.598
REMARK INTER:                  -6.249
REMARK INTRA:                  -0.349
REMARK UNBOUND:                -0.343
REMARK SMILES O=c1c(O)c(-c2ccc(O)cc2O)oc2cc(O)cc(O)c12
REMARK SMILES IDX 5 1 3 2 2 3 1 4 22 5 20 6 19 7 17 8 16 9 15 10 14 11 6 12
REMARK SMILES IDX 8 13 7 14 9 15 11 16 12 17 10 18 13 20 4 22 21 24 18 26
REMARK H PARENT 10 19 13 21 4 23 21 25 18 27
REMARK Flexibility Score: inf
ROOT
ATOM      1  C   UNL     1     132.209 134.328 129.374  1.00  0.00     0.184 A 
ATOM      2  C   UNL     1     133.481 134.447 129.953  1.00  0.00     0.208 A 
ATOM      3  C   UNL     1     134.003 135.728 130.193  1.00  0.00     0.238 A 
ATOM      4  O   UNL     1     135.173 135.828 130.644  1.00  0.00    -0.285 OA
ATOM      5  C   UNL     1     133.221 136.873 129.899  1.00  0.00     0.111 A 
ATOM      6  C   UNL     1     133.632 138.220 130.142  1.00  0.00     0.134 A 
ATOM      7  C   UNL     1     132.818 139.276 129.713  1.00  0.00     0.093 A 
ATOM      8  C   UNL     1     131.583 139.037 129.111  1.00  0.00     0.123 A 
ATOM      9  C   UNL     1     131.149 137.726 128.919  1.00  0.00     0.094 A 
ATOM     10  C   UNL     1     131.954 136.650 129.300  1.00  0.00     0.146 A 
ATOM     11  O   UNL     1     131.511 135.418 129.079  1.00  0.00    -0.451 OA
ENDROOT
BRANCH   1  12
ATOM     12  C   UNL     1     131.606 133.010 129.088  1.00  0.00     0.063 A 
ATOM     13  C   UNL     1     131.701 130.900 127.882  1.00  0.00     0.047 A 
ATOM     14  C   UNL     1     132.241 132.156 128.172  1.00  0.00     0.020 A 
ATOM     15  C   UNL     1     130.526 130.477 128.516  1.00  0.00     0.119 A 
ATOM     16  C   UNL     1     129.901 131.311 129.447  1.00  0.00     0.093 A 
ATOM     17  C   UNL     1     130.439 132.571 129.748  1.00  0.00     0.130 A 
BRANCH  15  18
ATOM     18  O   UNL     1     129.978 129.228 128.233  1.00  0.00    -0.508 OA
ATOM     19  H   UNL     1     130.195 128.415 128.796  1.00  0.00     0.293 HD
ENDBRANCH  15  18
BRANCH  17  20
ATOM     20  O   UNL     1     129.832 133.373 130.713  1.00  0.00    -0.507 OA
ATOM     21  H   UNL     1     129.671 134.362 130.557  1.00  0.00     0.293 HD
ENDBRANCH  17  20
ENDBRANCH   1  12
BRANCH   2  22
ATOM     22  O   UNL     1     134.202 133.300 130.299  1.00  0.00    -0.502 OA
ATOM     23  H   UNL     1     134.071 132.823 131.183  1.00  0.00     0.293 HD
ENDBRANCH   2  22
BRANCH   6  24
ATOM     24  O   UNL     1     134.805 138.572 130.816  1.00  0.00    -0.507 OA
ATOM     25  H   UNL     1     135.735 138.307 130.533  1.00  0.00     0.293 HD
ENDBRANCH   6  24
BRANCH   8  26
ATOM     26  O   UNL     1     130.793 140.114 128.714  1.00  0.00    -0.508 OA
ATOM     27  H   UNL     1     131.041 140.687 127.915  1.00  0.00     0.293 HD
ENDBRANCH   8  26
TORSDOF 6
ENDMDL
MODEL 5
REMARK VINA RESULT:    -5.159      2.867      3.726
REMARK INTER + INTRA:          -6.558
REMARK INTER:                  -6.245
REMARK INTRA:                  -0.314
REMARK UNBOUND:                -0.343
REMARK SMILES O=c1c(O)c(-c2ccc(O)cc2O)oc2cc(O)cc(O)c12
REMARK SMILES IDX 5 1 3 2 2 3 1 4 22 5 20 6 19 7 17 8 16 9 15 10 14 11 6 12
REMARK SMILES IDX 8 13 7 14 9 15 11 16 12 17 10 18 13 20 4 22 21 24 18 26
REMARK H PARENT 10 19 13 21 4 23 21 25 18 27
REMARK Flexibility Score: inf
ROOT
ATOM      1  C   UNL     1     122.147 127.703 130.196  1.00  0.00     0.184 A 
ATOM      2  C   UNL     1     122.359 126.982 131.380  1.00  0.00     0.208 A 
ATOM      3  C   UNL     1     121.304 126.228 131.917  1.00  0.00     0.238 A 
ATOM      4  O   UNL     1     121.480 125.643 133.017  1.00  0.00    -0.285 OA
ATOM      5  C   UNL     1     120.066 126.163 131.232  1.00  0.00     0.111 A 
ATOM      6  C   UNL     1     118.940 125.395 131.662  1.00  0.00     0.134 A 
ATOM      7  C   UNL     1     117.732 125.491 130.960  1.00  0.00     0.093 A 
ATOM      8  C   UNL     1     117.625 126.274 129.811  1.00  0.00     0.123 A 
ATOM      9  C   UNL     1     118.733 126.985 129.352  1.00  0.00     0.094 A 
ATOM     10  C   UNL     1     119.942 126.941 130.051  1.00  0.00     0.146 A 
ATOM     11  O   UNL     1     120.966 127.650 129.591  1.00  0.00    -0.451 OA
ENDROOT
BRANCH   1  12
ATOM     12  C   UNL     1     123.213 128.522 129.582  1.00  0.00     0.063 A 
ATOM     13  C   UNL     1     124.097 130.727 129.062  1.00  0.00     0.047 A 
ATOM     14  C   UNL     1     123.105 129.922 129.627  1.00  0.00     0.020 A 
ATOM     15  C   UNL     1     125.217 130.142 128.457  1.00  0.00     0.119 A 
ATOM     16  C   UNL     1     125.344 128.750 128.430  1.00  0.00     0.093 A 
ATOM     17  C   UNL     1     124.355 127.935 129.000  1.00  0.00     0.130 A 
BRANCH  15  18
ATOM     18  O   UNL     1     126.211 130.935 127.888  1.00  0.00    -0.508 OA
ATOM     19  H   UNL     1     126.903 130.546 127.259  1.00  0.00     0.293 HD
ENDBRANCH  15  18
BRANCH  17  20
ATOM     20  O   UNL     1     124.516 126.550 129.008  1.00  0.00    -0.507 OA
ATOM     21  H   UNL     1     124.722 126.044 129.862  1.00  0.00     0.293 HD
ENDBRANCH  17  20
ENDBRANCH   1  12
BRANCH   2  22
ATOM     22  O   UNL     1     123.614 127.005 131.997  1.00  0.00    -0.502 OA
ATOM     23  H   UNL     1     123.922 126.276 132.628  1.00  0.00     0.293 HD
ENDBRANCH   2  22
BRANCH   6  24
ATOM     24  O   UNL     1     118.962 124.512 132.745  1.00  0.00    -0.507 OA
ATOM     25  H   UNL     1     119.468 123.641 132.770  1.00  0.00     0.293 HD
ENDBRANCH   6  24
BRANCH   8  26
ATOM     26  O   UNL     1     116.411 126.332 129.130  1.00  0.00    -0.508 OA
ATOM     27  H   UNL     1     116.340 126.746 128.208  1.00  0.00     0.293 HD
ENDBRANCH   8  26
TORSDOF 6
ENDMDL
MODEL 6
REMARK VINA RESULT:    -5.102      2.349      2.884
REMARK INTER + INTRA:          -6.489
REMARK INTER:                  -6.174
REMARK INTRA:                  -0.315
REMARK UNBOUND:                -0.343
REMARK SMILES O=c1c(O)c(-c2ccc(O)cc2O)oc2cc(O)cc(O)c12
REMARK SMILES IDX 5 1 3 2 2 3 1 4 22 5 20 6 19 7 17 8 16 9 15 10 14 11 6 12
REMARK SMILES IDX 8 13 7 14 9 15 11 16 12 17 10 18 13 20 4 22 21 24 18 26
REMARK H PARENT 10 19 13 21 4 23 21 25 18 27
REMARK Flexibility Score: inf
ROOT
ATOM      1  C   UNL     1     120.792 127.835 129.674  1.00  0.00     0.184 A 
ATOM      2  C   UNL     1     119.754 128.185 128.798  1.00  0.00     0.208 A 
ATOM      3  C   UNL     1     118.534 127.496 128.878  1.00  0.00     0.238 A 
ATOM      4  O   UNL     1     117.633 127.765 128.042  1.00  0.00    -0.285 OA
ATOM      5  C   UNL     1     118.350 126.503 129.871  1.00  0.00     0.111 A 
ATOM      6  C   UNL     1     117.140 125.771 130.074  1.00  0.00     0.134 A 
ATOM      7  C   UNL     1     117.109 124.737 131.018  1.00  0.00     0.093 A 
ATOM      8  C   UNL     1     118.220 124.451 131.812  1.00  0.00     0.123 A 
ATOM      9  C   UNL     1     119.389 125.196 131.661  1.00  0.00     0.094 A 
ATOM     10  C   UNL     1     119.465 126.208 130.700  1.00  0.00     0.146 A 
ATOM     11  O   UNL     1     120.604 126.878 130.575  1.00  0.00    -0.451 OA
ENDROOT
BRANCH   1  12
ATOM     12  C   UNL     1     122.103 128.515 129.637  1.00  0.00     0.063 A 
ATOM     13  C   UNL     1     124.473 128.428 129.096  1.00  0.00     0.047 A 
ATOM     14  C   UNL     1     123.219 127.814 129.151  1.00  0.00     0.020 A 
ATOM     15  C   UNL     1     124.624 129.757 129.514  1.00  0.00     0.119 A 
ATOM     16  C   UNL     1     123.513 130.469 129.976  1.00  0.00     0.093 A 
ATOM     17  C   UNL     1     122.250 129.862 130.029  1.00  0.00     0.130 A 
BRANCH  15  18
ATOM     18  O   UNL     1     125.869 130.378 129.466  1.00  0.00    -0.508 OA
ATOM     19  H   UNL     1     126.026 131.207 128.906  1.00  0.00     0.293 HD
ENDBRANCH  15  18
BRANCH  17  20
ATOM     20  O   UNL     1     121.142 130.598 130.447  1.00  0.00    -0.507 OA
ATOM     21  H   UNL     1     120.262 130.150 130.677  1.00  0.00     0.293 HD
ENDBRANCH  17  20
ENDBRANCH   1  12
BRANCH   2  22
ATOM     22  O   UNL     1     119.937 129.219 127.875  1.00  0.00    -0.502 OA
ATOM     23  H   UNL     1     119.852 129.076 126.876  1.00  0.00     0.293 HD
ENDBRANCH   2  22
BRANCH   6  24
ATOM     24  O   UNL     1     115.945 126.032 129.398  1.00  0.00    -0.507 OA
ATOM     25  H   UNL     1     115.031 126.047 129.824  1.00  0.00     0.293 HD
ENDBRANCH   6  24
BRANCH   8  26
ATOM     26  O   UNL     1     118.146 123.427 132.754  1.00  0.00    -0.508 OA
ATOM     27  H   UNL     1     118.972 122.923 133.054  1.00  0.00     0.293 HD
ENDBRANCH   8  26
TORSDOF 6
ENDMDL
MODEL 7
REMARK VINA RESULT:    -5.101      1.997      2.566
REMARK INTER + INTRA:          -6.488
REMARK INTER:                  -6.079
REMARK INTRA:                  -0.409
REMARK UNBOUND:                -0.343
REMARK SMILES O=c1c(O)c(-c2ccc(O)cc2O)oc2cc(O)cc(O)c12
REMARK SMILES IDX 5 1 3 2 2 3 1 4 22 5 20 6 19 7 17 8 16 9 15 10 14 11 6 12
REMARK SMILES IDX 8 13 7 14 9 15 11 16 12 17 10 18 13 20 4 22 21 24 18 26
REMARK H PARENT 10 19 13 21 4 23 21 25 18 27
REMARK Flexibility Score: inf
ROOT
ATOM      1  C   UNL     1     120.488 128.341 129.705  1.00  0.00     0.184 A 
ATOM      2  C   UNL     1     119.342 128.010 128.967  1.00  0.00     0.208 A 
ATOM      3  C   UNL     1     118.583 126.893 129.351  1.00  0.00     0.238 A 
ATOM      4  O   UNL     1     117.599 126.560 128.642  1.00  0.00    -0.285 OA
ATOM      5  C   UNL     1     118.951 126.154 130.502  1.00  0.00     0.111 A 
ATOM      6  C   UNL     1     118.230 125.030 131.010  1.00  0.00     0.134 A 
ATOM      7  C   UNL     1     118.748 124.312 132.096  1.00  0.00     0.093 A 
ATOM      8  C   UNL     1     119.923 124.713 132.731  1.00  0.00     0.123 A 
ATOM      9  C   UNL     1     120.605 125.841 132.278  1.00  0.00     0.094 A 
ATOM     10  C   UNL     1     120.136 126.557 131.173  1.00  0.00     0.146 A 
ATOM     11  O   UNL     1     120.828 127.612 130.762  1.00  0.00    -0.451 OA
ENDROOT
BRANCH   1  12
ATOM     12  C   UNL     1     121.335 129.498 129.349  1.00  0.00     0.063 A 
ATOM     13  C   UNL     1     123.005 130.473 127.875  1.00  0.00     0.047 A 
ATOM     14  C   UNL     1     122.194 129.397 128.243  1.00  0.00     0.020 A 
ATOM     15  C   UNL     1     122.956 131.671 128.600  1.00  0.00     0.119 A 
ATOM     16  C   UNL     1     122.085 131.788 129.687  1.00  0.00     0.093 A 
ATOM     17  C   UNL     1     121.264 130.714 130.060  1.00  0.00     0.130 A 
BRANCH  15  18
ATOM     18  O   UNL     1     123.761 132.749 128.243  1.00  0.00    -0.508 OA
ATOM     19  H   UNL     1     123.363 133.645 127.988  1.00  0.00     0.293 HD
ENDBRANCH  15  18
BRANCH  17  20
ATOM     20  O   UNL     1     120.366 130.860 131.117  1.00  0.00    -0.507 OA
ATOM     21  H   UNL     1     120.638 130.673 132.076  1.00  0.00     0.293 HD
ENDBRANCH  17  20
ENDBRANCH   1  12
BRANCH   2  22
ATOM     22  O   UNL     1     118.961 128.799 127.878  1.00  0.00    -0.502 OA
ATOM     23  H   UNL     1     119.050 128.482 126.920  1.00  0.00     0.293 HD
ENDBRANCH   2  22
BRANCH   6  24
ATOM     24  O   UNL     1     117.001 124.596 130.507  1.00  0.00    -0.507 OA
ATOM     25  H   UNL     1     116.884 123.891 129.797  1.00  0.00     0.293 HD
ENDBRANCH   6  24
BRANCH   8  26
ATOM     26  O   UNL     1     120.398 123.984 133.820  1.00  0.00    -0.508 OA
ATOM     27  H   UNL     1     119.920 123.154 134.150  1.00  0.00     0.293 HD
ENDBRANCH   8  26
TORSDOF 6
ENDMDL
MODEL 8
REMARK VINA RESULT:    -5.080     13.059     17.499
REMARK INTER + INTRA:          -6.463
REMARK INTER:                  -6.135
REMARK INTRA:                  -0.328
REMARK UNBOUND:                -0.343
REMARK SMILES O=c1c(O)c(-c2ccc(O)cc2O)oc2cc(O)cc(O)c12
REMARK SMILES IDX 5 1 3 2 2 3 1 4 22 5 20 6 19 7 17 8 16 9 15 10 14 11 6 12
REMARK SMILES IDX 8 13 7 14 9 15 11 16 12 17 10 18 13 20 4 22 21 24 18 26
REMARK H PARENT 10 19 13 21 4 23 21 25 18 27
REMARK Flexibility Score: inf
ROOT
ATOM      1  C   UNL     1     130.587 138.303 137.047  1.00  0.00     0.184 A 
ATOM      2  C   UNL     1     130.754 138.480 138.429  1.00  0.00     0.208 A 
ATOM      3  C   UNL     1     131.991 138.932 138.914  1.00  0.00     0.238 A 
ATOM      4  O   UNL     1     132.156 139.018 140.158  1.00  0.00    -0.285 OA
ATOM      5  C   UNL     1     133.028 139.253 138.004  1.00  0.00     0.111 A 
ATOM      6  C   UNL     1     134.309 139.762 138.380  1.00  0.00     0.134 A 
ATOM      7  C   UNL     1     135.294 139.944 137.401  1.00  0.00     0.093 A 
ATOM      8  C   UNL     1     135.026 139.698 136.054  1.00  0.00     0.123 A 
ATOM      9  C   UNL     1     133.761 139.253 135.669  1.00  0.00     0.094 A 
ATOM     10  C   UNL     1     132.770 139.025 136.626  1.00  0.00     0.146 A 
ATOM     11  O   UNL     1     131.586 138.582 136.219  1.00  0.00    -0.451 OA
ENDROOT
BRANCH   1  12
ATOM     12  C   UNL     1     129.313 137.823 136.473  1.00  0.00     0.063 A 
ATOM     13  C   UNL     1     128.053 136.022 135.432  1.00  0.00     0.047 A 
ATOM     14  C   UNL     1     129.243 136.511 135.977  1.00  0.00     0.020 A 
ATOM     15  C   UNL     1     126.913 136.834 135.390  1.00  0.00     0.119 A 
ATOM     16  C   UNL     1     126.968 138.134 135.904  1.00  0.00     0.093 A 
ATOM     17  C   UNL     1     128.157 138.630 136.457  1.00  0.00     0.130 A 
BRANCH  15  18
ATOM     18  O   UNL     1     125.723 136.359 134.847  1.00  0.00    -0.508 OA
ATOM     19  H   UNL     1     125.654 135.427 134.455  1.00  0.00     0.293 HD
ENDBRANCH  15  18
BRANCH  17  20
ATOM     20  O   UNL     1     128.185 139.910 137.009  1.00  0.00    -0.507 OA
ATOM     21  H   UNL     1     127.664 140.138 137.849  1.00  0.00     0.293 HD
ENDBRANCH  17  20
ENDBRANCH   1  12
BRANCH   2  22
ATOM     22  O   UNL     1     129.690 138.224 139.299  1.00  0.00    -0.502 OA
ATOM     23  H   UNL     1     129.615 138.664 140.208  1.00  0.00     0.293 HD
ENDBRANCH   2  22
BRANCH   6  24
ATOM     24  O   UNL     1     134.655 140.125 139.684  1.00  0.00    -0.507 OA
ATOM     25  H   UNL     1     134.891 139.479 140.421  1.00  0.00     0.293 HD
ENDBRANCH   6  24
BRANCH   8  26
ATOM     26  O   UNL     1     136.025 139.907 135.106  1.00  0.00    -0.508 OA
ATOM     27  H   UNL     1     136.043 140.740 134.530  1.00  0.00     0.293 HD
ENDBRANCH   8  26
TORSDOF 6
ENDMDL
MODEL 9
REMARK VINA RESULT:    -5.062     14.861     17.921
REMARK INTER + INTRA:          -6.441
REMARK INTER:                  -6.069
REMARK INTRA:                  -0.372
REMARK UNBOUND:                -0.343
REMARK SMILES O=c1c(O)c(-c2ccc(O)cc2O)oc2cc(O)cc(O)c12
REMARK SMILES IDX 5 1 3 2 2 3 1 4 22 5 20 6 19 7 17 8 16 9 15 10 14 11 6 12
REMARK SMILES IDX 8 13 7 14 9 15 11 16 12 17 10 18 13 20 4 22 21 24 18 26
REMARK H PARENT 10 19 13 21 4 23 21 25 18 27
REMARK Flexibility Score: inf
ROOT
ATOM      1  C   UNL     1     135.072 133.927 134.345  1.00  0.00     0.184 A 
ATOM      2  C   UNL     1     135.221 135.022 135.210  1.00  0.00     0.208 A 
ATOM      3  C   UNL     1     135.438 136.296 134.665  1.00  0.00     0.238 A 
ATOM      4  O   UNL     1     135.643 137.260 135.446  1.00  0.00    -0.285 OA
ATOM      5  C   UNL     1     135.448 136.467 133.258  1.00  0.00     0.111 A 
ATOM      6  C   UNL     1     135.615 137.721 132.594  1.00  0.00     0.134 A 
ATOM      7  C   UNL     1     135.715 137.754 131.198  1.00  0.00     0.093 A 
ATOM      8  C   UNL     1     135.590 136.591 130.438  1.00  0.00     0.123 A 
ATOM      9  C   UNL     1     135.371 135.369 131.073  1.00  0.00     0.094 A 
ATOM     10  C   UNL     1     135.306 135.297 132.467  1.00  0.00     0.146 A 
ATOM     11  O   UNL     1     135.118 134.111 133.031  1.00  0.00    -0.451 OA
ENDROOT
BRANCH   1  12
ATOM     12  C   UNL     1     134.850 132.558 134.855  1.00  0.00     0.063 A 
ATOM     13  C   UNL     1     135.686 130.647 136.105  1.00  0.00     0.047 A 
ATOM     14  C   UNL     1     135.864 131.938 135.603  1.00  0.00     0.020 A 
ATOM     15  C   UNL     1     134.484 129.964 135.878  1.00  0.00     0.119 A 
ATOM     16  C   UNL     1     133.460 130.584 135.155  1.00  0.00     0.093 A 
ATOM     17  C   UNL     1     133.629 131.882 134.653  1.00  0.00     0.130 A 
BRANCH  15  18
ATOM     18  O   UNL     1     134.296 128.675 136.371  1.00  0.00    -0.508 OA
ATOM     19  H   UNL     1     133.653 128.028 135.931  1.00  0.00     0.293 HD
ENDBRANCH  15  18
BRANCH  17  20
ATOM     20  O   UNL     1     132.583 132.506 133.975  1.00  0.00    -0.507 OA
ATOM     21  H   UNL     1     131.986 131.997 133.333  1.00  0.00     0.293 HD
ENDBRANCH  17  20
ENDBRANCH   1  12
BRANCH   2  22
ATOM     22  O   UNL     1     135.134 134.836 136.593  1.00  0.00    -0.502 OA
ATOM     23  H   UNL     1     134.391 134.300 137.023  1.00  0.00     0.293 HD
ENDBRANCH   2  22
BRANCH   6  24
ATOM     24  O   UNL     1     135.664 138.955 133.250  1.00  0.00    -0.507 OA
ATOM     25  H   UNL     1     134.924 139.639 133.250  1.00  0.00     0.293 HD
ENDBRANCH   6  24
BRANCH   8  26
ATOM     26  O   UNL     1     135.677 136.666 129.049  1.00  0.00    -0.508 OA
ATOM     27  H   UNL     1     135.172 136.021 128.452  1.00  0.00     0.293 HD
ENDBRANCH   8  26
TORSDOF 6
ENDMDL
