MODEL 1
REMARK VINA RESULT:    -4.815      0.000      0.000
REMARK INTER + INTRA:          -6.233
REMARK INTER:                  -5.941
REMARK INTRA:                  -0.291
REMARK UNBOUND:                -0.291
REMARK SMILES Oc1cc(O)c2cc(O)c(-c3cc(O)c(O)c(O)c3)[o+]c2c1
REMARK SMILES IDX 10 1 20 2 21 3 22 4 2 5 3 6 4 7 6 8 7 9 8 10 11 11 12 12
REMARK SMILES IDX 13 13 19 14 15 15 17 16 14 17 16 19 18 21 9 23 1 25 5 27
REMARK H PARENT 14 18 16 20 18 22 9 24 1 26 5 28
REMARK Flexibility Score: inf
ROOT
ATOM      1  C   UNL     1     -13.159 -15.531  32.350  1.00  0.00     0.402 A 
ATOM      2  O   UNL     1     -12.149 -15.532  33.219  1.00  0.00    -0.202 OA
ATOM      3  C   UNL     1     -12.125 -14.768  34.307  1.00  0.00     0.368 A 
ATOM      4  C   UNL     1     -11.024 -14.825  35.168  1.00  0.00     0.162 A 
ATOM      5  C   UNL     1     -10.984 -14.024  36.314  1.00  0.00     0.128 A 
ATOM      6  C   UNL     1     -12.051 -13.161  36.602  1.00  0.00     0.093 A 
ATOM      7  C   UNL     1     -13.162 -13.095  35.748  1.00  0.00     0.136 A 
ATOM      8  C   UNL     1     -13.201 -13.901  34.595  1.00  0.00     0.125 A 
ATOM      9  C   UNL     1     -14.287 -13.882  33.712  1.00  0.00     0.078 A 
ATOM     10  C   UNL     1     -14.280 -14.708  32.584  1.00  0.00     0.223 A 
ENDROOT
BRANCH   1  11
ATOM     11  C   UNL     1     -13.068 -16.420  31.170  1.00  0.00     0.091 A 
ATOM     12  C   UNL     1     -12.935 -15.902  29.872  1.00  0.00     0.068 A 
ATOM     13  C   UNL     1     -12.826 -16.752  28.765  1.00  0.00     0.162 A 
ATOM     14  C   UNL     1     -13.057 -17.809  31.353  1.00  0.00     0.068 A 
ATOM     15  C   UNL     1     -12.842 -18.155  28.956  1.00  0.00     0.200 A 
ATOM     16  C   UNL     1     -12.953 -18.673  30.258  1.00  0.00     0.162 A 
BRANCH  13  17
ATOM     17  O   UNL     1     -12.697 -16.162  27.506  1.00  0.00    -0.504 OA
ATOM     18  H   UNL     1     -12.716 -16.674  26.636  1.00  0.00     0.293 HD
ENDBRANCH  13  17
BRANCH  15  19
ATOM     19  O   UNL     1     -12.750 -19.053  27.889  1.00  0.00    -0.502 OA
ATOM     20  H   UNL     1     -12.992 -18.827  26.935  1.00  0.00     0.293 HD
ENDBRANCH  15  19
BRANCH  16  21
ATOM     21  O   UNL     1     -12.962 -20.048  30.489  1.00  0.00    -0.504 OA
ATOM     22  H   UNL     1     -13.192 -20.445  31.392  1.00  0.00     0.293 HD
ENDBRANCH  16  21
ENDBRANCH   1  11
BRANCH  10  23
ATOM     23  O   UNL     1     -15.380 -14.731  31.727  1.00  0.00    -0.500 OA
ATOM     24  H   UNL     1     -16.319 -14.550  32.062  1.00  0.00     0.294 HD
ENDBRANCH  10  23
BRANCH   5  25
ATOM     25  O   UNL     1      -9.879 -14.093  37.159  1.00  0.00    -0.507 OA
ATOM     26  H   UNL     1      -8.939 -14.183  36.795  1.00  0.00     0.293 HD
ENDBRANCH   5  25
BRANCH   7  27
ATOM     27  O   UNL     1     -14.218 -12.233  36.045  1.00  0.00    -0.507 OA
ATOM     28  H   UNL     1     -14.081 -11.394  36.596  1.00  0.00     0.293 HD
ENDBRANCH   7  27
TORSDOF 7
ENDMDL
MODEL 2
REMARK VINA RESULT:    -4.434      1.005      2.577
REMARK INTER + INTRA:          -5.762
REMARK INTER:                  -5.470
REMARK INTRA:                  -0.292
REMARK UNBOUND:                -0.291
REMARK SMILES Oc1cc(O)c2cc(O)c(-c3cc(O)c(O)c(O)c3)[o+]c2c1
REMARK SMILES IDX 10 1 20 2 21 3 22 4 2 5 3 6 4 7 6 8 7 9 8 10 11 11 12 12
REMARK SMILES IDX 13 13 19 14 15 15 17 16 14 17 16 19 18 21 9 23 1 25 5 27
REMARK H PARENT 14 18 16 20 18 22 9 24 1 26 5 28
REMARK Flexibility Score: inf
ROOT
ATOM      1  C   UNL     1     -12.054 -16.116  32.494  1.00  0.00     0.402 A 
ATOM      2  O   UNL     1     -12.885 -15.223  33.031  1.00  0.00    -0.202 OA
ATOM      3  C   UNL     1     -12.603 -14.541  34.136  1.00  0.00     0.368 A 
ATOM      4  C   UNL     1     -13.532 -13.623  34.638  1.00  0.00     0.162 A 
ATOM      5  C   UNL     1     -13.250 -12.901  35.802  1.00  0.00     0.128 A 
ATOM      6  C   UNL     1     -12.033 -13.097  36.469  1.00  0.00     0.093 A 
ATOM      7  C   UNL     1     -11.091 -14.013  35.976  1.00  0.00     0.136 A 
ATOM      8  C   UNL     1     -11.376 -14.739  34.804  1.00  0.00     0.125 A 
ATOM      9  C   UNL     1     -10.471 -15.659  34.263  1.00  0.00     0.078 A 
ATOM     10  C   UNL     1     -10.799 -16.350  33.093  1.00  0.00     0.223 A 
ENDROOT
BRANCH   1  11
ATOM     11  C   UNL     1     -12.483 -16.820  31.264  1.00  0.00     0.091 A 
ATOM     12  C   UNL     1     -12.535 -16.163  30.025  1.00  0.00     0.068 A 
ATOM     13  C   UNL     1     -12.920 -16.844  28.864  1.00  0.00     0.162 A 
ATOM     14  C   UNL     1     -12.789 -18.186  31.324  1.00  0.00     0.068 A 
ATOM     15  C   UNL     1     -13.253 -18.218  28.937  1.00  0.00     0.200 A 
ATOM     16  C   UNL     1     -13.178 -18.881  30.174  1.00  0.00     0.162 A 
BRANCH  13  17
ATOM     17  O   UNL     1     -12.948 -16.122  27.669  1.00  0.00    -0.504 OA
ATOM     18  H   UNL     1     -13.581 -15.358  27.483  1.00  0.00     0.293 HD
ENDBRANCH  13  17
BRANCH  15  19
ATOM     19  O   UNL     1     -13.656 -18.947  27.815  1.00  0.00    -0.502 OA
ATOM     20  H   UNL     1     -13.025 -19.451  27.209  1.00  0.00     0.293 HD
ENDBRANCH  15  19
BRANCH  16  21
ATOM     21  O   UNL     1     -13.488 -20.237  30.285  1.00  0.00    -0.504 OA
ATOM     22  H   UNL     1     -12.858 -20.964  29.969  1.00  0.00     0.293 HD
ENDBRANCH  16  21
ENDBRANCH   1  11
BRANCH  10  23
ATOM     23  O   UNL     1      -9.882 -17.232  32.520  1.00  0.00    -0.500 OA
ATOM     24  H   UNL     1      -9.810 -17.345  31.516  1.00  0.00     0.294 HD
ENDBRANCH  10  23
BRANCH   5  25
ATOM     25  O   UNL     1     -14.188 -11.993  36.289  1.00  0.00    -0.507 OA
ATOM     26  H   UNL     1     -13.934 -11.280  36.962  1.00  0.00     0.293 HD
ENDBRANCH   5  25
BRANCH   7  27
ATOM     27  O   UNL     1      -9.882 -14.198  36.648  1.00  0.00    -0.507 OA
ATOM     28  H   UNL     1      -9.069 -14.583  36.181  1.00  0.00     0.293 HD
ENDBRANCH   7  27
TORSDOF 7
ENDMDL
MODEL 3
REMARK VINA RESULT:    -4.327      1.024      3.150
REMARK INTER + INTRA:          -5.631
REMARK INTER:                  -5.305
REMARK INTRA:                  -0.325
REMARK UNBOUND:                -0.291
REMARK SMILES Oc1cc(O)c2cc(O)c(-c3cc(O)c(O)c(O)c3)[o+]c2c1
REMARK SMILES IDX 10 1 20 2 21 3 22 4 2 5 3 6 4 7 6 8 7 9 8 10 11 11 12 12
REMARK SMILES IDX 13 13 19 14 15 15 17 16 14 17 16 19 18 21 9 23 1 25 5 27
REMARK H PARENT 14 18 16 20 18 22 9 24 1 26 5 28
REMARK Flexibility Score: inf
ROOT
ATOM      1  C   UNL     1     -12.045 -16.138  32.499  1.00  0.00     0.402 A 
ATOM      2  O   UNL     1     -12.874 -15.243  33.034  1.00  0.00    -0.202 OA
ATOM      3  C   UNL     1     -12.592 -14.562  34.140  1.00  0.00     0.368 A 
ATOM      4  C   UNL     1     -13.519 -13.641  34.640  1.00  0.00     0.162 A 
ATOM      5  C   UNL     1     -13.237 -12.920  35.805  1.00  0.00     0.128 A 
ATOM      6  C   UNL     1     -12.022 -13.120  36.475  1.00  0.00     0.093 A 
ATOM      7  C   UNL     1     -11.082 -14.039  35.984  1.00  0.00     0.136 A 
ATOM      8  C   UNL     1     -11.367 -14.764  34.811  1.00  0.00     0.125 A 
ATOM      9  C   UNL     1     -10.464 -15.687  34.271  1.00  0.00     0.078 A 
ATOM     10  C   UNL     1     -10.792 -16.376  33.100  1.00  0.00     0.223 A 
ENDROOT
BRANCH   1  11
ATOM     11  C   UNL     1     -12.473 -16.841  31.268  1.00  0.00     0.091 A 
ATOM     12  C   UNL     1     -12.847 -18.194  31.290  1.00  0.00     0.068 A 
ATOM     13  C   UNL     1     -13.272 -18.842  30.125  1.00  0.00     0.162 A 
ATOM     14  C   UNL     1     -12.563 -16.129  30.064  1.00  0.00     0.068 A 
ATOM     15  C   UNL     1     -13.336 -18.123  28.907  1.00  0.00     0.200 A 
ATOM     16  C   UNL     1     -12.983 -16.762  28.891  1.00  0.00     0.162 A 
BRANCH  13  17
ATOM     17  O   UNL     1     -13.628 -20.189  30.226  1.00  0.00    -0.504 OA
ATOM     18  H   UNL     1     -14.293 -20.552  30.894  1.00  0.00     0.293 HD
ENDBRANCH  13  17
BRANCH  15  19
ATOM     19  O   UNL     1     -13.740 -18.720  27.710  1.00  0.00    -0.502 OA
ATOM     20  H   UNL     1     -13.151 -18.816  26.896  1.00  0.00     0.293 HD
ENDBRANCH  15  19
BRANCH  16  21
ATOM     21  O   UNL     1     -13.042 -16.017  27.713  1.00  0.00    -0.504 OA
ATOM     22  H   UNL     1     -12.285 -16.008  27.040  1.00  0.00     0.293 HD
ENDBRANCH  16  21
ENDBRANCH   1  11
BRANCH  10  23
ATOM     23  O   UNL     1      -9.877 -17.261  32.530  1.00  0.00    -0.500 OA
ATOM     24  H   UNL     1      -9.025 -17.527  33.009  1.00  0.00     0.294 HD
ENDBRANCH  10  23
BRANCH   5  25
ATOM     25  O   UNL     1     -14.172 -12.009  36.290  1.00  0.00    -0.507 OA
ATOM     26  H   UNL     1     -14.983 -11.742  35.745  1.00  0.00     0.293 HD
ENDBRANCH   5  25
BRANCH   7  27
ATOM     27  O   UNL     1      -9.875 -14.229  36.658  1.00  0.00    -0.507 OA
ATOM     28  H   UNL     1      -9.187 -13.489  36.734  1.00  0.00     0.293 HD
ENDBRANCH   7  27
TORSDOF 7
ENDMDL
MODEL 4
REMARK VINA RESULT:    -3.927      1.458      7.058
REMARK INTER + INTRA:          -5.137
REMARK INTER:                  -4.892
REMARK INTRA:                  -0.244
REMARK UNBOUND:                -0.291
REMARK SMILES Oc1cc(O)c2cc(O)c(-c3cc(O)c(O)c(O)c3)[o+]c2c1
REMARK SMILES IDX 10 1 20 2 21 3 22 4 2 5 3 6 4 7 6 8 7 9 8 10 11 11 12 12
REMARK SMILES IDX 13 13 19 14 15 15 17 16 14 17 16 19 18 21 9 23 1 25 5 27
REMARK H PARENT 14 18 16 20 18 22 9 24 1 26 5 28
REMARK Flexibility Score: inf
ROOT
ATOM      1  C   UNL     1     -12.639 -16.079  32.347  1.00  0.00     0.402 A 
ATOM      2  O   UNL     1     -11.880 -15.880  31.270  1.00  0.00    -0.202 OA
ATOM      3  C   UNL     1     -11.962 -16.627  30.174  1.00  0.00     0.368 A 
ATOM      4  C   UNL     1     -11.125 -16.354  29.087  1.00  0.00     0.162 A 
ATOM      5  C   UNL     1     -11.199 -17.134  27.928  1.00  0.00     0.128 A 
ATOM      6  C   UNL     1     -12.114 -18.194  27.855  1.00  0.00     0.093 A 
ATOM      7  C   UNL     1     -12.960 -18.478  28.938  1.00  0.00     0.136 A 
ATOM      8  C   UNL     1     -12.885 -17.692  30.103  1.00  0.00     0.125 A 
ATOM      9  C   UNL     1     -13.710 -17.924  31.210  1.00  0.00     0.078 A 
ATOM     10  C   UNL     1     -13.601 -17.110  32.341  1.00  0.00     0.223 A 
ENDROOT
BRANCH   1  11
ATOM     11  C   UNL     1     -12.450 -15.186  33.512  1.00  0.00     0.091 A 
ATOM     12  C   UNL     1     -13.451 -14.291  33.918  1.00  0.00     0.068 A 
ATOM     13  C   UNL     1     -13.272 -13.467  35.035  1.00  0.00     0.162 A 
ATOM     14  C   UNL     1     -11.270 -15.274  34.263  1.00  0.00     0.068 A 
ATOM     15  C   UNL     1     -12.066 -13.542  35.773  1.00  0.00     0.200 A 
ATOM     16  C   UNL     1     -11.072 -14.456  35.380  1.00  0.00     0.162 A 
BRANCH  13  17
ATOM     17  O   UNL     1     -14.314 -12.602  35.377  1.00  0.00    -0.504 OA
ATOM     18  H   UNL     1     -14.543 -12.337  36.323  1.00  0.00     0.293 HD
ENDBRANCH  13  17
BRANCH  15  19
ATOM     19  O   UNL     1     -11.824 -12.736  36.890  1.00  0.00    -0.502 OA
ATOM     20  H   UNL     1     -10.945 -12.278  37.079  1.00  0.00     0.293 HD
ENDBRANCH  15  19
BRANCH  16  21
ATOM     21  O   UNL     1      -9.875 -14.567  36.087  1.00  0.00    -0.504 OA
ATOM     22  H   UNL     1      -9.200 -13.813  36.131  1.00  0.00     0.293 HD
ENDBRANCH  16  21
ENDBRANCH   1  11
BRANCH  10  23
ATOM     23  O   UNL     1     -14.454 -17.305  33.428  1.00  0.00    -0.500 OA
ATOM     24  H   UNL     1     -14.726 -18.232  33.730  1.00  0.00     0.294 HD
ENDBRANCH  10  23
BRANCH   5  25
ATOM     25  O   UNL     1     -10.356 -16.849  26.856  1.00  0.00    -0.507 OA
ATOM     26  H   UNL     1     -10.611 -16.170  26.149  1.00  0.00     0.293 HD
ENDBRANCH   5  25
BRANCH   7  27
ATOM     27  O   UNL     1     -13.868 -19.535  28.853  1.00  0.00    -0.507 OA
ATOM     28  H   UNL     1     -14.623 -19.534  28.178  1.00  0.00     0.293 HD
ENDBRANCH   7  27
TORSDOF 7
ENDMDL
MODEL 5
REMARK VINA RESULT:    -3.619      1.562      7.224
REMARK INTER + INTRA:          -4.757
REMARK INTER:                  -4.448
REMARK INTRA:                  -0.310
REMARK UNBOUND:                -0.291
REMARK SMILES Oc1cc(O)c2cc(O)c(-c3cc(O)c(O)c(O)c3)[o+]c2c1
REMARK SMILES IDX 10 1 20 2 21 3 22 4 2 5 3 6 4 7 6 8 7 9 8 10 11 11 12 12
REMARK SMILES IDX 13 13 19 14 15 15 17 16 14 17 16 19 18 21 9 23 1 25 5 27
REMARK H PARENT 14 18 16 20 18 22 9 24 1 26 5 28
REMARK Flexibility Score: inf
ROOT
ATOM      1  C   UNL     1     -12.535 -16.391  31.927  1.00  0.00     0.402 A 
ATOM      2  O   UNL     1     -11.922 -16.014  30.806  1.00  0.00    -0.202 OA
ATOM      3  C   UNL     1     -11.963 -16.720  29.681  1.00  0.00     0.368 A 
ATOM      4  C   UNL     1     -11.288 -16.257  28.548  1.00  0.00     0.162 A 
ATOM      5  C   UNL     1     -11.320 -16.992  27.359  1.00  0.00     0.128 A 
ATOM      6  C   UNL     1     -12.032 -18.198  27.301  1.00  0.00     0.093 A 
ATOM      7  C   UNL     1     -12.716 -18.675  28.430  1.00  0.00     0.136 A 
ATOM      8  C   UNL     1     -12.682 -17.934  29.627  1.00  0.00     0.125 A 
ATOM      9  C   UNL     1     -13.352 -18.356  30.780  1.00  0.00     0.078 A 
ATOM     10  C   UNL     1     -13.293 -17.580  31.941  1.00  0.00     0.223 A 
ENDROOT
BRANCH   1  11
ATOM     11  C   UNL     1     -12.409 -15.524  33.120  1.00  0.00     0.091 A 
ATOM     12  C   UNL     1     -11.213 -15.454  33.851  1.00  0.00     0.068 A 
ATOM     13  C   UNL     1     -11.097 -14.614  34.964  1.00  0.00     0.162 A 
ATOM     14  C   UNL     1     -13.486 -14.711  33.498  1.00  0.00     0.068 A 
ATOM     15  C   UNL     1     -12.198 -13.814  35.356  1.00  0.00     0.200 A 
ATOM     16  C   UNL     1     -13.389 -13.868  34.609  1.00  0.00     0.162 A 
BRANCH  13  17
ATOM     17  O   UNL     1      -9.875 -14.599  35.641  1.00  0.00    -0.504 OA
ATOM     18  H   UNL     1      -9.006 -14.930  35.248  1.00  0.00     0.293 HD
ENDBRANCH  13  17
BRANCH  15  19
ATOM     19  O   UNL     1     -12.146 -12.966  36.465  1.00  0.00    -0.502 OA
ATOM     20  H   UNL     1     -11.292 -12.608  36.866  1.00  0.00     0.293 HD
ENDBRANCH  15  19
BRANCH  16  21
ATOM     21  O   UNL     1     -14.492 -13.089  34.956  1.00  0.00    -0.504 OA
ATOM     22  H   UNL     1     -15.114 -12.690  34.262  1.00  0.00     0.293 HD
ENDBRANCH  16  21
ENDBRANCH   1  11
BRANCH  10  23
ATOM     23  O   UNL     1     -13.999 -17.970  33.080  1.00  0.00    -0.500 OA
ATOM     24  H   UNL     1     -13.647 -18.687  33.703  1.00  0.00     0.294 HD
ENDBRANCH  10  23
BRANCH   5  25
ATOM     25  O   UNL     1     -10.640 -16.516  26.240  1.00  0.00    -0.507 OA
ATOM     26  H   UNL     1     -10.188 -17.145  25.587  1.00  0.00     0.293 HD
ENDBRANCH   5  25
BRANCH   7  27
ATOM     27  O   UNL     1     -13.422 -19.876  28.361  1.00  0.00    -0.507 OA
ATOM     28  H   UNL     1     -13.499 -20.399  27.496  1.00  0.00     0.293 HD
ENDBRANCH   7  27
TORSDOF 7
ENDMDL
MODEL 6
REMARK VINA RESULT:    -2.933      2.133      7.599
REMARK INTER + INTRA:          -3.910
REMARK INTER:                  -4.113
REMARK INTRA:                   0.203
REMARK UNBOUND:                -0.291
REMARK SMILES Oc1cc(O)c2cc(O)c(-c3cc(O)c(O)c(O)c3)[o+]c2c1
REMARK SMILES IDX 10 1 20 2 21 3 22 4 2 5 3 6 4 7 6 8 7 9 8 10 11 11 12 12
REMARK SMILES IDX 13 13 19 14 15 15 17 16 14 17 16 19 18 21 9 23 1 25 5 27
REMARK H PARENT 14 18 16 20 18 22 9 24 1 26 5 28
REMARK Flexibility Score: inf
ROOT
ATOM      1  C   UNL     1     -11.815 -16.126  30.745  1.00  0.00     0.402 A 
ATOM      2  O   UNL     1     -12.701 -15.737  29.829  1.00  0.00    -0.202 OA
ATOM      3  C   UNL     1     -12.652 -16.126  28.559  1.00  0.00     0.368 A 
ATOM      4  C   UNL     1     -13.619 -15.668  27.658  1.00  0.00     0.162 A 
ATOM      5  C   UNL     1     -13.577 -16.067  26.318  1.00  0.00     0.128 A 
ATOM      6  C   UNL     1     -12.564 -16.928  25.876  1.00  0.00     0.093 A 
ATOM      7  C   UNL     1     -11.588 -17.396  26.769  1.00  0.00     0.136 A 
ATOM      8  C   UNL     1     -11.631 -16.994  28.117  1.00  0.00     0.125 A 
ATOM      9  C   UNL     1     -10.689 -17.436  29.054  1.00  0.00     0.078 A 
ATOM     10  C   UNL     1     -10.780 -17.013  30.383  1.00  0.00     0.223 A 
ENDROOT
BRANCH   1  11
ATOM     11  C   UNL     1     -11.969 -15.618  32.128  1.00  0.00     0.091 A 
ATOM     12  C   UNL     1     -10.868 -15.502  32.991  1.00  0.00     0.068 A 
ATOM     13  C   UNL     1     -11.020 -15.000  34.288  1.00  0.00     0.162 A 
ATOM     14  C   UNL     1     -13.229 -15.191  32.569  1.00  0.00     0.068 A 
ATOM     15  C   UNL     1     -12.301 -14.594  34.736  1.00  0.00     0.200 A 
ATOM     16  C   UNL     1     -13.399 -14.690  33.863  1.00  0.00     0.162 A 
BRANCH  13  17
ATOM     17  O   UNL     1      -9.879 -14.914  35.088  1.00  0.00    -0.504 OA
ATOM     18  H   UNL     1      -9.685 -14.151  35.720  1.00  0.00     0.293 HD
ENDBRANCH  13  17
BRANCH  15  19
ATOM     19  O   UNL     1     -12.517 -14.097  36.025  1.00  0.00    -0.502 OA
ATOM     20  H   UNL     1     -12.128 -14.504  36.862  1.00  0.00     0.293 HD
ENDBRANCH  15  19
BRANCH  16  21
ATOM     21  O   UNL     1     -14.675 -14.291  34.263  1.00  0.00    -0.504 OA
ATOM     22  H   UNL     1     -15.368 -13.954  33.605  1.00  0.00     0.293 HD
ENDBRANCH  16  21
ENDBRANCH   1  11
BRANCH  10  23
ATOM     23  O   UNL     1      -9.875 -17.488  31.332  1.00  0.00    -0.500 OA
ATOM     24  H   UNL     1     -10.137 -18.195  32.008  1.00  0.00     0.294 HD
ENDBRANCH  10  23
BRANCH   5  25
ATOM     25  O   UNL     1     -14.548 -15.600  25.434  1.00  0.00    -0.507 OA
ATOM     26  H   UNL     1     -14.305 -15.271  24.507  1.00  0.00     0.293 HD
ENDBRANCH   5  25
BRANCH   7  27
ATOM     27  O   UNL     1     -10.584 -18.254  26.317  1.00  0.00    -0.507 OA
ATOM     28  H   UNL     1      -9.603 -18.027  26.427  1.00  0.00     0.293 HD
ENDBRANCH   7  27
TORSDOF 7
ENDMDL
MODEL 7
REMARK VINA RESULT:    -2.667      1.535      7.333
REMARK INTER + INTRA:          -3.582
REMARK INTER:                  -3.529
REMARK INTRA:                  -0.053
REMARK UNBOUND:                -0.291
REMARK SMILES Oc1cc(O)c2cc(O)c(-c3cc(O)c(O)c(O)c3)[o+]c2c1
REMARK SMILES IDX 10 1 20 2 21 3 22 4 2 5 3 6 4 7 6 8 7 9 8 10 11 11 12 12
REMARK SMILES IDX 13 13 19 14 15 15 17 16 14 17 16 19 18 21 9 23 1 25 5 27
REMARK H PARENT 14 18 16 20 18 22 9 24 1 26 5 28
REMARK Flexibility Score: inf
ROOT
ATOM      1  C   UNL     1     -12.507 -16.134  31.682  1.00  0.00     0.402 A 
ATOM      2  O   UNL     1     -12.960 -15.505  30.599  1.00  0.00    -0.202 OA
ATOM      3  C   UNL     1     -13.088 -16.097  29.415  1.00  0.00     0.368 A 
ATOM      4  C   UNL     1     -13.567 -15.364  28.324  1.00  0.00     0.162 A 
ATOM      5  C   UNL     1     -13.704 -15.973  27.073  1.00  0.00     0.128 A 
ATOM      6  C   UNL     1     -13.359 -17.322  26.909  1.00  0.00     0.093 A 
ATOM      7  C   UNL     1     -12.877 -18.069  27.995  1.00  0.00     0.136 A 
ATOM      8  C   UNL     1     -12.741 -17.456  29.254  1.00  0.00     0.125 A 
ATOM      9  C   UNL     1     -12.274 -18.154  30.374  1.00  0.00     0.078 A 
ATOM     10  C   UNL     1     -12.163 -17.500  31.604  1.00  0.00     0.223 A 
ENDROOT
BRANCH   1  11
ATOM     11  C   UNL     1     -12.400 -15.367  32.944  1.00  0.00     0.091 A 
ATOM     12  C   UNL     1     -13.486 -14.636  33.450  1.00  0.00     0.068 A 
ATOM     13  C   UNL     1     -13.382 -13.933  34.655  1.00  0.00     0.162 A 
ATOM     14  C   UNL     1     -11.209 -15.416  33.681  1.00  0.00     0.068 A 
ATOM     15  C   UNL     1     -12.167 -13.965  35.382  1.00  0.00     0.200 A 
ATOM     16  C   UNL     1     -11.087 -14.716  34.886  1.00  0.00     0.162 A 
BRANCH  13  17
ATOM     17  O   UNL     1     -14.506 -13.228  35.094  1.00  0.00    -0.504 OA
ATOM     18  H   UNL     1     -15.273 -12.955  34.496  1.00  0.00     0.293 HD
ENDBRANCH  13  17
BRANCH  15  19
ATOM     19  O   UNL     1     -12.000 -13.273  36.585  1.00  0.00    -0.502 OA
ATOM     20  H   UNL     1     -11.112 -13.153  37.051  1.00  0.00     0.293 HD
ENDBRANCH  15  19
BRANCH  16  21
ATOM     21  O   UNL     1      -9.877 -14.782  35.577  1.00  0.00    -0.504 OA
ATOM     22  H   UNL     1      -9.646 -15.553  36.192  1.00  0.00     0.293 HD
ENDBRANCH  16  21
ENDBRANCH   1  11
BRANCH  10  23
ATOM     23  O   UNL     1     -11.746 -18.202  32.735  1.00  0.00    -0.500 OA
ATOM     24  H   UNL     1     -11.145 -17.779  33.431  1.00  0.00     0.294 HD
ENDBRANCH  10  23
BRANCH   5  25
ATOM     25  O   UNL     1     -14.181 -15.228  25.997  1.00  0.00    -0.507 OA
ATOM     26  H   UNL     1     -14.920 -14.545  26.113  1.00  0.00     0.293 HD
ENDBRANCH   5  25
BRANCH   7  27
ATOM     27  O   UNL     1     -12.538 -19.411  27.821  1.00  0.00    -0.507 OA
ATOM     28  H   UNL     1     -12.854 -19.939  27.016  1.00  0.00     0.293 HD
ENDBRANCH   7  27
TORSDOF 7
ENDMDL
MODEL 8
REMARK VINA RESULT:    -2.432      1.719      7.384
REMARK INTER + INTRA:          -3.293
REMARK INTER:                  -3.140
REMARK INTRA:                  -0.153
REMARK UNBOUND:                -0.291
REMARK SMILES Oc1cc(O)c2cc(O)c(-c3cc(O)c(O)c(O)c3)[o+]c2c1
REMARK SMILES IDX 10 1 20 2 21 3 22 4 2 5 3 6 4 7 6 8 7 9 8 10 11 11 12 12
REMARK SMILES IDX 13 13 19 14 15 15 17 16 14 17 16 19 18 21 9 23 1 25 5 27
REMARK H PARENT 14 18 16 20 18 22 9 24 1 26 5 28
REMARK Flexibility Score: inf
ROOT
ATOM      1  C   UNL     1     -11.835 -16.107  31.776  1.00  0.00     0.402 A 
ATOM      2  O   UNL     1     -12.686 -17.102  31.527  1.00  0.00    -0.202 OA
ATOM      3  C   UNL     1     -12.675 -17.802  30.397  1.00  0.00     0.368 A 
ATOM      4  C   UNL     1     -13.606 -18.829  30.211  1.00  0.00     0.162 A 
ATOM      5  C   UNL     1     -13.608 -19.571  29.025  1.00  0.00     0.128 A 
ATOM      6  C   UNL     1     -12.675 -19.285  28.020  1.00  0.00     0.093 A 
ATOM      7  C   UNL     1     -11.735 -18.259  28.193  1.00  0.00     0.136 A 
ATOM      8  C   UNL     1     -11.733 -17.512  29.387  1.00  0.00     0.125 A 
ATOM      9  C   UNL     1     -10.813 -16.483  29.618  1.00  0.00     0.078 A 
ATOM     10  C   UNL     1     -10.849 -15.777  30.824  1.00  0.00     0.223 A 
ENDROOT
BRANCH   1  11
ATOM     11  C   UNL     1     -11.950 -15.394  33.069  1.00  0.00     0.091 A 
ATOM     12  C   UNL     1     -10.876 -15.335  33.970  1.00  0.00     0.068 A 
ATOM     13  C   UNL     1     -10.987 -14.639  35.179  1.00  0.00     0.162 A 
ATOM     14  C   UNL     1     -13.137 -14.716  33.378  1.00  0.00     0.068 A 
ATOM     15  C   UNL     1     -12.198 -13.977  35.497  1.00  0.00     0.200 A 
ATOM     16  C   UNL     1     -13.266 -14.018  34.583  1.00  0.00     0.162 A 
BRANCH  13  17
ATOM     17  O   UNL     1      -9.875 -14.625  36.024  1.00  0.00    -0.504 OA
ATOM     18  H   UNL     1      -8.929 -14.801  35.719  1.00  0.00     0.293 HD
ENDBRANCH  13  17
BRANCH  15  19
ATOM     19  O   UNL     1     -12.374 -13.278  36.694  1.00  0.00    -0.502 OA
ATOM     20  H   UNL     1     -11.736 -12.575  37.039  1.00  0.00     0.293 HD
ENDBRANCH  15  19
BRANCH  16  21
ATOM     21  O   UNL     1     -14.472 -13.371  34.854  1.00  0.00    -0.504 OA
ATOM     22  H   UNL     1     -14.912 -13.405  35.766  1.00  0.00     0.293 HD
ENDBRANCH  16  21
ENDBRANCH   1  11
BRANCH  10  23
ATOM     23  O   UNL     1      -9.905 -14.783  31.081  1.00  0.00    -0.500 OA
ATOM     24  H   UNL     1      -9.989 -13.855  30.685  1.00  0.00     0.294 HD
ENDBRANCH  10  23
BRANCH   5  25
ATOM     25  O   UNL     1     -14.544 -20.589  28.857  1.00  0.00    -0.507 OA
ATOM     26  H   UNL     1     -14.522 -21.427  29.425  1.00  0.00     0.293 HD
ENDBRANCH   5  25
BRANCH   7  27
ATOM     27  O   UNL     1     -10.809 -17.984  27.185  1.00  0.00    -0.507 OA
ATOM     28  H   UNL     1     -10.125 -18.670  26.891  1.00  0.00     0.293 HD
ENDBRANCH   7  27
TORSDOF 7
ENDMDL
