MODEL 1
REMARK VINA RESULT:    -5.907      0.000      0.000
REMARK INTER + INTRA:          -6.924
REMARK INTER:                  -6.943
REMARK INTRA:                   0.020
REMARK UNBOUND:                 0.020
REMARK SMILES C=C(C)[C@H]1CC[C@]2(C(=O)[O-])CC[C@@]3(C)[C@H](CC[C@H]4[C@@]5(C)C[C@H](O)[C@@H](O)C(C)(C)[C@@H]5CC[C@]43C)[C@@H]12
REMARK SMILES IDX 7 1 6 2 34 3 11 4 5 5 15 6 4 7 12 8 16 9 13 10 17 11 32 12
REMARK SMILES IDX 14 13 18 14 31 15 33 16 19 17 30 18 29 19 21 20 20 21 26 22
REMARK SMILES IDX 22 23 24 24 27 25 28 26 8 27 9 28 10 29 2 30 3 31 1 32 23 33
REMARK SMILES IDX 25 35
REMARK H PARENT 23 34 25 36
REMARK Flexibility Score: inf
ROOT
ATOM      1  C   UNL     1    -114.979 -11.095  37.980  1.00  0.00     0.014 C 
ATOM      2  C   UNL     1    -115.474 -12.444  37.413  1.00  0.00     0.014 C 
ATOM      3  C   UNL     1    -114.140 -10.599  36.785  1.00  0.00     0.012 C 
ATOM      4  C   UNL     1    -116.124 -10.088  38.299  1.00  0.00     0.014 C 
ATOM      5  C   UNL     1    -114.278 -13.033  36.644  1.00  0.00     0.009 C 
ATOM      6  C   UNL     1    -113.502  -9.191  36.981  1.00  0.00     0.000 C 
ATOM      7  C   UNL     1    -113.399 -11.838  36.209  1.00  0.00     0.018 C 
ATOM      8  C   UNL     1    -116.030  -8.748  37.531  1.00  0.00     0.008 C 
ATOM      9  C   UNL     1    -112.737  -8.788  35.728  1.00  0.00     0.005 C 
ATOM     10  C   UNL     1    -114.582  -8.095  37.447  1.00  0.00    -0.024 C 
ATOM     11  C   UNL     1    -112.146  -7.400  35.839  1.00  0.00     0.005 C 
ATOM     12  C   UNL     1    -114.615  -6.752  36.511  1.00  0.00    -0.024 C 
ATOM     13  C   UNL     1    -114.195  -7.687  38.906  1.00  0.00     0.012 C 
ATOM     14  C   UNL     1    -113.133  -6.228  36.191  1.00  0.00     0.002 C 
ATOM     15  C   UNL     1    -115.392  -6.992  35.166  1.00  0.00     0.008 C 
ATOM     16  C   UNL     1    -115.423  -5.643  37.276  1.00  0.00     0.012 C 
ATOM     17  C   UNL     1    -113.031  -5.024  35.131  1.00  0.00    -0.023 C 
ATOM     18  C   UNL     1    -115.215  -5.916  34.073  1.00  0.00     0.005 C 
ATOM     19  C   UNL     1    -113.732  -5.530  33.816  1.00  0.00     0.004 C 
ATOM     20  C   UNL     1    -111.524  -4.616  34.861  1.00  0.00     0.042 C 
ATOM     21  C   UNL     1    -113.685  -3.726  35.723  1.00  0.00     0.012 C 
ATOM     22  C   UNL     1    -113.498  -4.653  32.525  1.00  0.00    -0.003 C 
ATOM     23  C   UNL     1    -111.266  -3.800  33.571  1.00  0.00     0.144 C 
ATOM     24  C   UNL     1    -111.965  -4.407  32.337  1.00  0.00     0.149 C 
ATOM     25  C   UNL     1    -113.997  -5.419  31.263  1.00  0.00     0.014 C 
ATOM     26  C   UNL     1    -114.277  -3.312  32.540  1.00  0.00     0.014 C 
ENDROOT
BRANCH   1  27
ATOM     27  C   UNL     1    -114.206 -11.371  39.272  1.00  0.00     0.048 C 
ATOM     28  O   UNL     1    -114.288 -12.504  39.817  1.00  0.00    -0.550 OA
ATOM     29  O   UNL     1    -113.479 -10.387  39.926  1.00  0.00    -0.550 OA
ENDBRANCH   1  27
BRANCH   7  30
ATOM     30  C   UNL     1    -111.906 -12.014  36.533  1.00  0.00    -0.077 C 
ATOM     31  C   UNL     1    -111.362 -12.126  37.937  1.00  0.00     0.039 C 
ATOM     32  C   UNL     1    -111.025 -12.156  35.527  1.00  0.00     0.008 C 
ENDBRANCH   7  30
BRANCH  23  33
ATOM     33  O   UNL     1    -111.604  -2.445  33.717  1.00  0.00    -0.390 OA
ATOM     34  H   UNL     1    -111.528  -2.231  34.683  1.00  0.00     0.211 HD
ENDBRANCH  23  33
BRANCH  24  35
ATOM     35  O   UNL     1    -111.326  -5.621  32.014  1.00  0.00    -0.390 OA
ATOM     36  H   UNL     1    -110.461  -5.394  31.582  1.00  0.00     0.211 HD
ENDBRANCH  24  35
TORSDOF 4
ENDMDL
MODEL 2
REMARK VINA RESULT:    -5.579      2.147      7.880
REMARK INTER + INTRA:          -6.538
REMARK INTER:                  -6.379
REMARK INTRA:                  -0.159
REMARK UNBOUND:                 0.020
REMARK SMILES C=C(C)[C@H]1CC[C@]2(C(=O)[O-])CC[C@@]3(C)[C@H](CC[C@H]4[C@@]5(C)C[C@H](O)[C@@H](O)C(C)(C)[C@@H]5CC[C@]43C)[C@@H]12
REMARK SMILES IDX 7 1 6 2 34 3 11 4 5 5 15 6 4 7 12 8 16 9 13 10 17 11 32 12
REMARK SMILES IDX 14 13 18 14 31 15 33 16 19 17 30 18 29 19 21 20 20 21 26 22
REMARK SMILES IDX 22 23 24 24 27 25 28 26 8 27 9 28 10 29 2 30 3 31 1 32 23 33
REMARK SMILES IDX 25 35
REMARK H PARENT 23 34 25 36
REMARK Flexibility Score: inf
ROOT
ATOM      1  C   UNL     1    -113.582  -2.976  33.435  1.00  0.00     0.014 C 
ATOM      2  C   UNL     1    -112.706  -2.238  32.399  1.00  0.00     0.014 C 
ATOM      3  C   UNL     1    -113.570  -4.395  32.831  1.00  0.00     0.012 C 
ATOM      4  C   UNL     1    -112.979  -2.989  34.872  1.00  0.00     0.014 C 
ATOM      5  C   UNL     1    -113.120  -2.807  31.029  1.00  0.00     0.009 C 
ATOM      6  C   UNL     1    -114.339  -5.461  33.665  1.00  0.00     0.000 C 
ATOM      7  C   UNL     1    -113.674  -4.227  31.288  1.00  0.00     0.018 C 
ATOM      8  C   UNL     1    -112.728  -4.404  35.447  1.00  0.00     0.008 C 
ATOM      9  C   UNL     1    -114.224  -6.825  32.998  1.00  0.00     0.005 C 
ATOM     10  C   UNL     1    -113.886  -5.467  35.207  1.00  0.00    -0.024 C 
ATOM     11  C   UNL     1    -114.903  -7.915  33.799  1.00  0.00     0.005 C 
ATOM     12  C   UNL     1    -113.433  -6.939  35.763  1.00  0.00    -0.024 C 
ATOM     13  C   UNL     1    -115.119  -4.971  36.031  1.00  0.00     0.012 C 
ATOM     14  C   UNL     1    -114.462  -8.079  35.299  1.00  0.00     0.002 C 
ATOM     15  C   UNL     1    -111.979  -7.320  35.303  1.00  0.00     0.008 C 
ATOM     16  C   UNL     1    -113.378  -6.873  37.332  1.00  0.00     0.012 C 
ATOM     17  C   UNL     1    -114.025  -9.591  35.629  1.00  0.00    -0.023 C 
ATOM     18  C   UNL     1    -111.569  -8.796  35.486  1.00  0.00     0.005 C 
ATOM     19  C   UNL     1    -112.622  -9.805  34.950  1.00  0.00     0.004 C 
ATOM     20  C   UNL     1    -115.091 -10.633  35.091  1.00  0.00     0.042 C 
ATOM     21  C   UNL     1    -114.005  -9.822  37.181  1.00  0.00     0.012 C 
ATOM     22  C   UNL     1    -112.114 -11.298  34.864  1.00  0.00    -0.003 C 
ATOM     23  C   UNL     1    -114.597 -12.093  34.950  1.00  0.00     0.144 C 
ATOM     24  C   UNL     1    -113.234 -12.190  34.235  1.00  0.00     0.149 C 
ATOM     25  C   UNL     1    -110.876 -11.386  33.924  1.00  0.00     0.014 C 
ATOM     26  C   UNL     1    -111.651 -11.871  36.229  1.00  0.00     0.014 C 
ENDROOT
BRANCH   1  27
ATOM     27  C   UNL     1    -114.946  -2.283  33.492  1.00  0.00     0.048 C 
ATOM     28  O   UNL     1    -115.013  -1.029  33.391  1.00  0.00    -0.550 OA
ATOM     29  O   UNL     1    -116.121  -2.979  33.740  1.00  0.00    -0.550 OA
ENDBRANCH   1  27
BRANCH   7  30
ATOM     30  C   UNL     1    -115.028  -4.500  30.613  1.00  0.00    -0.077 C 
ATOM     31  C   UNL     1    -116.092  -3.446  30.416  1.00  0.00     0.039 C 
ATOM     32  C   UNL     1    -115.273  -5.715  30.090  1.00  0.00     0.008 C 
ENDBRANCH   7  30
BRANCH  23  33
ATOM     33  O   UNL     1    -114.562 -12.768  36.180  1.00  0.00    -0.390 OA
ATOM     34  H   UNL     1    -114.184 -12.137  36.846  1.00  0.00     0.211 HD
ENDBRANCH  23  33
BRANCH  24  35
ATOM     35  O   UNL     1    -113.414 -11.839  32.882  1.00  0.00    -0.390 OA
ATOM     36  H   UNL     1    -113.247 -12.655  32.340  1.00  0.00     0.211 HD
ENDBRANCH  24  35
TORSDOF 4
ENDMDL
MODEL 3
REMARK VINA RESULT:    -5.087      1.877      3.870
REMARK INTER + INTRA:          -5.960
REMARK INTER:                  -5.944
REMARK INTRA:                  -0.016
REMARK UNBOUND:                 0.020
REMARK SMILES C=C(C)[C@H]1CC[C@]2(C(=O)[O-])CC[C@@]3(C)[C@H](CC[C@H]4[C@@]5(C)C[C@H](O)[C@@H](O)C(C)(C)[C@@H]5CC[C@]43C)[C@@H]12
REMARK SMILES IDX 7 1 6 2 34 3 11 4 5 5 15 6 4 7 12 8 16 9 13 10 17 11 32 12
REMARK SMILES IDX 14 13 18 14 31 15 33 16 19 17 30 18 29 19 21 20 20 21 26 22
REMARK SMILES IDX 22 23 24 24 27 25 28 26 8 27 9 28 10 29 2 30 3 31 1 32 23 33
REMARK SMILES IDX 25 35
REMARK H PARENT 23 34 25 36
REMARK Flexibility Score: inf
ROOT
ATOM      1  C   UNL     1    -113.342 -11.327  36.902  1.00  0.00     0.014 C 
ATOM      2  C   UNL     1    -112.407 -11.675  38.082  1.00  0.00     0.014 C 
ATOM      3  C   UNL     1    -113.511  -9.812  37.137  1.00  0.00     0.012 C 
ATOM      4  C   UNL     1    -112.715 -11.595  35.502  1.00  0.00     0.014 C 
ATOM      5  C   UNL     1    -112.914 -10.840  39.271  1.00  0.00     0.009 C 
ATOM      6  C   UNL     1    -114.384  -9.084  36.072  1.00  0.00     0.000 C 
ATOM      7  C   UNL     1    -113.627  -9.605  38.674  1.00  0.00     0.018 C 
ATOM      8  C   UNL     1    -112.622 -10.347  34.593  1.00  0.00     0.008 C 
ATOM      9  C   UNL     1    -114.445  -7.595  36.380  1.00  0.00     0.005 C 
ATOM     10  C   UNL     1    -113.902  -9.404  34.572  1.00  0.00    -0.024 C 
ATOM     11  C   UNL     1    -115.232  -6.826  35.340  1.00  0.00     0.005 C 
ATOM     12  C   UNL     1    -113.616  -8.071  33.665  1.00  0.00    -0.024 C 
ATOM     13  C   UNL     1    -115.050 -10.232  33.907  1.00  0.00     0.012 C 
ATOM     14  C   UNL     1    -114.782  -6.984  33.843  1.00  0.00     0.002 C 
ATOM     15  C   UNL     1    -112.227  -7.417  34.005  1.00  0.00     0.008 C 
ATOM     16  C   UNL     1    -113.520  -8.515  32.161  1.00  0.00     0.012 C 
ATOM     17  C   UNL     1    -114.521  -5.560  33.145  1.00  0.00    -0.023 C 
ATOM     18  C   UNL     1    -111.991  -5.993  33.458  1.00  0.00     0.005 C 
ATOM     19  C   UNL     1    -113.167  -5.017  33.738  1.00  0.00     0.004 C 
ATOM     20  C   UNL     1    -115.714  -4.553  33.418  1.00  0.00     0.042 C 
ATOM     21  C   UNL     1    -114.496  -5.718  31.584  1.00  0.00     0.012 C 
ATOM     22  C   UNL     1    -112.843  -3.499  33.447  1.00  0.00    -0.003 C 
ATOM     23  C   UNL     1    -115.400  -3.055  33.189  1.00  0.00     0.144 C 
ATOM     24  C   UNL     1    -114.074  -2.621  33.846  1.00  0.00     0.149 C 
ATOM     25  C   UNL     1    -111.644  -3.034  34.324  1.00  0.00     0.014 C 
ATOM     26  C   UNL     1    -112.422  -3.229  31.979  1.00  0.00     0.014 C 
ENDROOT
BRANCH   1  27
ATOM     27  C   UNL     1    -114.613 -12.171  37.031  1.00  0.00     0.048 C 
ATOM     28  O   UNL     1    -114.646 -13.125  37.852  1.00  0.00    -0.550 OA
ATOM     29  O   UNL     1    -115.714 -11.982  36.208  1.00  0.00    -0.550 OA
ENDBRANCH   1  27
BRANCH   7  30
ATOM     30  C   UNL     1    -115.018  -9.339  39.273  1.00  0.00    -0.077 C 
ATOM     31  C   UNL     1    -116.125 -10.366  39.306  1.00  0.00     0.039 C 
ATOM     32  C   UNL     1    -115.263  -8.163  39.877  1.00  0.00     0.008 C 
ENDBRANCH   7  30
BRANCH  23  33
ATOM     33  O   UNL     1    -115.420  -2.704  31.830  1.00  0.00    -0.390 OA
ATOM     34  H   UNL     1    -116.369  -2.548  31.586  1.00  0.00     0.211 HD
ENDBRANCH  23  33
BRANCH  24  35
ATOM     35  O   UNL     1    -114.240  -2.646  35.245  1.00  0.00    -0.390 OA
ATOM     36  H   UNL     1    -115.046  -3.194  35.438  1.00  0.00     0.211 HD
ENDBRANCH  24  35
TORSDOF 4
ENDMDL
MODEL 4
REMARK VINA RESULT:    -4.680      2.044      3.116
REMARK INTER + INTRA:          -5.481
REMARK INTER:                  -5.361
REMARK INTRA:                  -0.120
REMARK UNBOUND:                 0.020
REMARK SMILES C=C(C)[C@H]1CC[C@]2(C(=O)[O-])CC[C@@]3(C)[C@H](CC[C@H]4[C@@]5(C)C[C@H](O)[C@@H](O)C(C)(C)[C@@H]5CC[C@]43C)[C@@H]12
REMARK SMILES IDX 7 1 6 2 34 3 11 4 5 5 15 6 4 7 12 8 16 9 13 10 17 11 32 12
REMARK SMILES IDX 14 13 18 14 31 15 33 16 19 17 30 18 29 19 21 20 20 21 26 22
REMARK SMILES IDX 22 23 24 24 27 25 28 26 8 27 9 28 10 29 2 30 3 31 1 32 23 33
REMARK SMILES IDX 25 35
REMARK H PARENT 23 34 25 36
REMARK Flexibility Score: inf
ROOT
ATOM      1  C   UNL     1    -114.646  -9.129  36.938  1.00  0.00     0.014 C 
ATOM      2  C   UNL     1    -115.935  -9.941  37.190  1.00  0.00     0.014 C 
ATOM      3  C   UNL     1    -114.777  -8.888  35.420  1.00  0.00     0.012 C 
ATOM      4  C   UNL     1    -114.596  -7.774  37.704  1.00  0.00     0.014 C 
ATOM      5  C   UNL     1    -116.075 -10.881  35.979  1.00  0.00     0.009 C 
ATOM      6  C   UNL     1    -113.637  -8.027  34.800  1.00  0.00     0.000 C 
ATOM      7  C   UNL     1    -115.336 -10.201  34.802  1.00  0.00     0.018 C 
ATOM      8  C   UNL     1    -114.456  -6.530  36.794  1.00  0.00     0.008 C 
ATOM      9  C   UNL     1    -113.893  -7.819  33.314  1.00  0.00     0.005 C 
ATOM     10  C   UNL     1    -113.409  -6.653  35.603  1.00  0.00    -0.024 C 
ATOM     11  C   UNL     1    -112.847  -6.936  32.669  1.00  0.00     0.005 C 
ATOM     12  C   UNL     1    -113.455  -5.315  34.662  1.00  0.00    -0.024 C 
ATOM     13  C   UNL     1    -111.997  -6.759  36.266  1.00  0.00     0.012 C 
ATOM     14  C   UNL     1    -112.611  -5.522  33.313  1.00  0.00     0.002 C 
ATOM     15  C   UNL     1    -114.927  -4.897  34.305  1.00  0.00     0.008 C 
ATOM     16  C   UNL     1    -112.862  -4.117  35.487  1.00  0.00     0.012 C 
ATOM     17  C   UNL     1    -112.731  -4.344  32.226  1.00  0.00    -0.023 C 
ATOM     18  C   UNL     1    -115.088  -3.860  33.173  1.00  0.00     0.005 C 
ATOM     19  C   UNL     1    -114.264  -4.197  31.899  1.00  0.00     0.004 C 
ATOM     20  C   UNL     1    -111.893  -4.671  30.922  1.00  0.00     0.042 C 
ATOM     21  C   UNL     1    -112.086  -3.026  32.782  1.00  0.00     0.012 C 
ATOM     22  C   UNL     1    -114.622  -3.320  30.636  1.00  0.00    -0.003 C 
ATOM     23  C   UNL     1    -112.265  -3.858  29.658  1.00  0.00     0.144 C 
ATOM     24  C   UNL     1    -113.787  -3.814  29.410  1.00  0.00     0.149 C 
ATOM     25  C   UNL     1    -116.125  -3.503  30.271  1.00  0.00     0.014 C 
ATOM     26  C   UNL     1    -114.425  -1.799  30.865  1.00  0.00     0.014 C 
ENDROOT
BRANCH   1  27
ATOM     27  C   UNL     1    -113.450  -9.977  37.381  1.00  0.00     0.048 C 
ATOM     28  O   UNL     1    -113.485 -10.571  38.490  1.00  0.00    -0.550 OA
ATOM     29  O   UNL     1    -112.278 -10.048  36.642  1.00  0.00    -0.550 OA
ENDBRANCH   1  27
BRANCH   7  30
ATOM     30  C   UNL     1    -114.364 -11.131  34.058  1.00  0.00    -0.077 C 
ATOM     31  C   UNL     1    -113.658 -12.297  34.708  1.00  0.00     0.039 C 
ATOM     32  C   UNL     1    -114.175 -10.966  32.737  1.00  0.00     0.008 C 
ENDBRANCH   7  30
BRANCH  23  33
ATOM     33  O   UNL     1    -111.726  -2.563  29.675  1.00  0.00    -0.390 OA
ATOM     34  H   UNL     1    -111.523  -2.321  28.734  1.00  0.00     0.211 HD
ENDBRANCH  23  33
BRANCH  24  35
ATOM     35  O   UNL     1    -114.215  -5.102  29.032  1.00  0.00    -0.390 OA
ATOM     36  H   UNL     1    -114.543  -5.042  28.097  1.00  0.00     0.211 HD
ENDBRANCH  24  35
TORSDOF 4
ENDMDL
MODEL 5
REMARK VINA RESULT:    -4.394      2.060      8.071
REMARK INTER + INTRA:          -5.145
REMARK INTER:                  -5.000
REMARK INTRA:                  -0.145
REMARK UNBOUND:                 0.020
REMARK SMILES C=C(C)[C@H]1CC[C@]2(C(=O)[O-])CC[C@@]3(C)[C@H](CC[C@H]4[C@@]5(C)C[C@H](O)[C@@H](O)C(C)(C)[C@@H]5CC[C@]43C)[C@@H]12
REMARK SMILES IDX 7 1 6 2 34 3 11 4 5 5 15 6 4 7 12 8 16 9 13 10 17 11 32 12
REMARK SMILES IDX 14 13 18 14 31 15 33 16 19 17 30 18 29 19 21 20 20 21 26 22
REMARK SMILES IDX 22 23 24 24 27 25 28 26 8 27 9 28 10 29 2 30 3 31 1 32 23 33
REMARK SMILES IDX 25 35
REMARK H PARENT 23 34 25 36
REMARK Flexibility Score: inf
ROOT
ATOM      1  C   UNL     1    -114.798  -5.071  31.496  1.00  0.00     0.014 C 
ATOM      2  C   UNL     1    -115.861  -3.973  31.721  1.00  0.00     0.014 C 
ATOM      3  C   UNL     1    -114.551  -5.504  32.955  1.00  0.00     0.012 C 
ATOM      4  C   UNL     1    -115.308  -6.275  30.648  1.00  0.00     0.014 C 
ATOM      5  C   UNL     1    -115.413  -3.218  32.985  1.00  0.00     0.009 C 
ATOM      6  C   UNL     1    -113.535  -6.673  33.121  1.00  0.00     0.000 C 
ATOM      7  C   UNL     1    -114.565  -4.209  33.817  1.00  0.00     0.018 C 
ATOM      8  C   UNL     1    -115.232  -7.643  31.370  1.00  0.00     0.008 C 
ATOM      9  C   UNL     1    -113.403  -7.041  34.592  1.00  0.00     0.005 C 
ATOM     10  C   UNL     1    -113.895  -7.927  32.182  1.00  0.00    -0.024 C 
ATOM     11  C   UNL     1    -112.473  -8.215  34.809  1.00  0.00     0.005 C 
ATOM     12  C   UNL     1    -114.005  -9.350  32.984  1.00  0.00    -0.024 C 
ATOM     13  C   UNL     1    -112.748  -8.028  31.124  1.00  0.00     0.012 C 
ATOM     14  C   UNL     1    -112.790  -9.534  34.015  1.00  0.00     0.002 C 
ATOM     15  C   UNL     1    -115.372  -9.491  33.747  1.00  0.00     0.008 C 
ATOM     16  C   UNL     1    -113.989 -10.510  31.924  1.00  0.00     0.012 C 
ATOM     17  C   UNL     1    -112.888 -10.808  34.990  1.00  0.00    -0.023 C 
ATOM     18  C   UNL     1    -115.460 -10.627  34.788  1.00  0.00     0.005 C 
ATOM     19  C   UNL     1    -114.252 -10.669  35.765  1.00  0.00     0.004 C 
ATOM     20  C   UNL     1    -111.661 -10.868  35.991  1.00  0.00     0.042 C 
ATOM     21  C   UNL     1    -112.778 -12.135  34.161  1.00  0.00     0.012 C 
ATOM     22  C   UNL     1    -114.445 -11.628  37.004  1.00  0.00    -0.003 C 
ATOM     23  C   UNL     1    -111.852 -11.761  37.241  1.00  0.00     0.144 C 
ATOM     24  C   UNL     1    -113.201 -11.515  37.945  1.00  0.00     0.149 C 
ATOM     25  C   UNL     1    -115.688 -11.184  37.831  1.00  0.00     0.014 C 
ATOM     26  C   UNL     1    -114.708 -13.104  36.607  1.00  0.00     0.014 C 
ENDROOT
BRANCH   1  27
ATOM     27  C   UNL     1    -113.604  -4.444  30.771  1.00  0.00     0.048 C 
ATOM     28  O   UNL     1    -113.798  -3.519  29.939  1.00  0.00    -0.550 OA
ATOM     29  O   UNL     1    -112.309  -4.917  30.929  1.00  0.00    -0.550 OA
ENDBRANCH   1  27
BRANCH   7  30
ATOM     30  C   UNL     1    -113.222  -3.632  34.293  1.00  0.00    -0.077 C 
ATOM     31  C   UNL     1    -112.415  -2.628  33.503  1.00  0.00     0.039 C 
ATOM     32  C   UNL     1    -112.756  -3.963  35.510  1.00  0.00     0.008 C 
ENDBRANCH   7  30
BRANCH  23  33
ATOM     33  O   UNL     1    -111.681 -13.125  36.956  1.00  0.00    -0.390 OA
ATOM     34  H   UNL     1    -110.819 -13.400  37.363  1.00  0.00     0.211 HD
ENDBRANCH  23  33
BRANCH  24  35
ATOM     35  O   UNL     1    -113.169 -10.236  38.536  1.00  0.00    -0.390 OA
ATOM     36  H   UNL     1    -112.536  -9.682  38.009  1.00  0.00     0.211 HD
ENDBRANCH  24  35
TORSDOF 4
ENDMDL
MODEL 6
REMARK VINA RESULT:    -4.354      2.540      8.635
REMARK INTER + INTRA:          -5.097
REMARK INTER:                  -5.569
REMARK INTRA:                   0.471
REMARK UNBOUND:                 0.020
REMARK SMILES C=C(C)[C@H]1CC[C@]2(C(=O)[O-])CC[C@@]3(C)[C@H](CC[C@H]4[C@@]5(C)C[C@H](O)[C@@H](O)C(C)(C)[C@@H]5CC[C@]43C)[C@@H]12
REMARK SMILES IDX 7 1 6 2 34 3 11 4 5 5 15 6 4 7 12 8 16 9 13 10 17 11 32 12
REMARK SMILES IDX 14 13 18 14 31 15 33 16 19 17 30 18 29 19 21 20 20 21 26 22
REMARK SMILES IDX 22 23 24 24 27 25 28 26 8 27 9 28 10 29 2 30 3 31 1 32 23 33
REMARK SMILES IDX 25 35
REMARK H PARENT 23 34 25 36
REMARK Flexibility Score: inf
ROOT
ATOM      1  C   UNL     1    -114.469  -3.327  30.175  1.00  0.00     0.014 C 
ATOM      2  C   UNL     1    -115.800  -2.565  29.993  1.00  0.00     0.014 C 
ATOM      3  C   UNL     1    -114.697  -3.927  31.577  1.00  0.00     0.012 C 
ATOM      4  C   UNL     1    -114.243  -4.458  29.127  1.00  0.00     0.014 C 
ATOM      5  C   UNL     1    -116.115  -1.948  31.367  1.00  0.00     0.009 C 
ATOM      6  C   UNL     1    -113.539  -4.833  32.090  1.00  0.00     0.000 C 
ATOM      7  C   UNL     1    -115.413  -2.836  32.423  1.00  0.00     0.018 C 
ATOM      8  C   UNL     1    -114.068  -5.869  29.738  1.00  0.00     0.008 C 
ATOM      9  C   UNL     1    -113.891  -5.401  33.458  1.00  0.00     0.005 C 
ATOM     10  C   UNL     1    -113.132  -5.961  31.020  1.00  0.00    -0.024 C 
ATOM     11  C   UNL     1    -112.826  -6.341  33.981  1.00  0.00     0.005 C 
ATOM     12  C   UNL     1    -113.135  -7.484  31.622  1.00  0.00    -0.024 C 
ATOM     13  C   UNL     1    -111.686  -5.610  30.538  1.00  0.00     0.012 C 
ATOM     14  C   UNL     1    -112.420  -7.545  33.057  1.00  0.00     0.002 C 
ATOM     15  C   UNL     1    -114.590  -8.070  31.731  1.00  0.00     0.008 C 
ATOM     16  C   UNL     1    -112.379  -8.412  30.605  1.00  0.00     0.012 C 
ATOM     17  C   UNL     1    -112.523  -8.951  33.829  1.00  0.00    -0.023 C 
ATOM     18  C   UNL     1    -114.748  -9.352  32.575  1.00  0.00     0.005 C 
ATOM     19  C   UNL     1    -114.058  -9.271  33.965  1.00  0.00     0.004 C 
ATOM     20  C   UNL     1    -111.820  -8.886  35.248  1.00  0.00     0.042 C 
ATOM     21  C   UNL     1    -111.725 -10.056  33.051  1.00  0.00     0.012 C 
ATOM     22  C   UNL     1    -114.437 -10.442  34.954  1.00  0.00    -0.003 C 
ATOM     23  C   UNL     1    -112.219  -9.996  36.250  1.00  0.00     0.144 C 
ATOM     24  C   UNL     1    -113.745 -10.197  36.335  1.00  0.00     0.149 C 
ATOM     25  C   UNL     1    -115.974 -10.449  35.205  1.00  0.00     0.014 C 
ATOM     26  C   UNL     1    -114.093 -11.850  34.403  1.00  0.00     0.014 C 
ENDROOT
BRANCH   1  27
ATOM     27  C   UNL     1    -113.320  -2.323  30.054  1.00  0.00     0.048 C 
ATOM     28  O   UNL     1    -113.548  -1.166  29.612  1.00  0.00    -0.550 OA
ATOM     29  O   UNL     1    -112.004  -2.665  30.333  1.00  0.00    -0.550 OA
ENDBRANCH   1  27
BRANCH   7  30
ATOM     30  C   UNL     1    -114.586  -2.045  33.450  1.00  0.00    -0.077 C 
ATOM     31  C   UNL     1    -113.103  -2.239  33.656  1.00  0.00     0.039 C 
ATOM     32  C   UNL     1    -115.176  -1.069  34.161  1.00  0.00     0.008 C 
ENDBRANCH   7  30
BRANCH  23  33
ATOM     33  O   UNL     1    -111.571 -11.212  35.989  1.00  0.00    -0.390 OA
ATOM     34  H   UNL     1    -110.916 -11.355  36.722  1.00  0.00     0.211 HD
ENDBRANCH  23  33
BRANCH  24  35
ATOM     35  O   UNL     1    -114.312  -9.065  36.954  1.00  0.00    -0.390 OA
ATOM     36  H   UNL     1    -115.264  -9.021  36.676  1.00  0.00     0.211 HD
ENDBRANCH  24  35
TORSDOF 4
ENDMDL
MODEL 7
REMARK VINA RESULT:    -4.264      1.676      2.058
REMARK INTER + INTRA:          -4.992
REMARK INTER:                  -5.206
REMARK INTRA:                   0.214
REMARK UNBOUND:                 0.020
REMARK SMILES C=C(C)[C@H]1CC[C@]2(C(=O)[O-])CC[C@@]3(C)[C@H](CC[C@H]4[C@@]5(C)C[C@H](O)[C@@H](O)C(C)(C)[C@@H]5CC[C@]43C)[C@@H]12
REMARK SMILES IDX 7 1 6 2 34 3 11 4 5 5 15 6 4 7 12 8 16 9 13 10 17 11 32 12
REMARK SMILES IDX 14 13 18 14 31 15 33 16 19 17 30 18 29 19 21 20 20 21 26 22
REMARK SMILES IDX 22 23 24 24 27 25 28 26 8 27 9 28 10 29 2 30 3 31 1 32 23 33
REMARK SMILES IDX 25 35
REMARK H PARENT 23 34 25 36
REMARK Flexibility Score: inf
ROOT
ATOM      1  C   UNL     1    -114.578 -11.081  36.108  1.00  0.00     0.014 C 
ATOM      2  C   UNL     1    -115.267 -12.315  35.486  1.00  0.00     0.014 C 
ATOM      3  C   UNL     1    -114.144 -10.344  34.825  1.00  0.00     0.012 C 
ATOM      4  C   UNL     1    -115.533 -10.187  36.955  1.00  0.00     0.014 C 
ATOM      5  C   UNL     1    -114.393 -12.713  34.283  1.00  0.00     0.009 C 
ATOM      6  C   UNL     1    -113.435  -8.979  35.070  1.00  0.00     0.000 C 
ATOM      7  C   UNL     1    -113.660 -11.431  33.824  1.00  0.00     0.018 C 
ATOM      8  C   UNL     1    -115.646  -8.725  36.461  1.00  0.00     0.008 C 
ATOM      9  C   UNL     1    -113.093  -8.325  33.738  1.00  0.00     0.005 C 
ATOM     10  C   UNL     1    -114.280  -8.023  36.048  1.00  0.00    -0.024 C 
ATOM     11  C   UNL     1    -112.455  -6.964  33.914  1.00  0.00     0.005 C 
ATOM     12  C   UNL     1    -114.566  -6.531  35.438  1.00  0.00    -0.024 C 
ATOM     13  C   UNL     1    -113.441  -7.883  37.360  1.00  0.00     0.012 C 
ATOM     14  C   UNL     1    -113.245  -5.911  34.772  1.00  0.00     0.002 C 
ATOM     15  C   UNL     1    -115.735  -6.539  34.387  1.00  0.00     0.008 C 
ATOM     16  C   UNL     1    -115.058  -5.610  36.613  1.00  0.00     0.012 C 
ATOM     17  C   UNL     1    -113.447  -4.527  33.979  1.00  0.00    -0.023 C 
ATOM     18  C   UNL     1    -115.879  -5.274  33.516  1.00  0.00     0.005 C 
ATOM     19  C   UNL     1    -114.542  -4.801  32.881  1.00  0.00     0.004 C 
ATOM     20  C   UNL     1    -112.091  -4.029  33.328  1.00  0.00     0.042 C 
ATOM     21  C   UNL     1    -113.842  -3.383  34.978  1.00  0.00     0.012 C 
ATOM     22  C   UNL     1    -114.701  -3.690  31.770  1.00  0.00    -0.003 C 
ATOM     23  C   UNL     1    -112.229  -2.979  32.199  1.00  0.00     0.144 C 
ATOM     24  C   UNL     1    -113.299  -3.366  31.158  1.00  0.00     0.149 C 
ATOM     25  C   UNL     1    -115.595  -4.223  30.611  1.00  0.00     0.014 C 
ATOM     26  C   UNL     1    -115.395  -2.401  32.280  1.00  0.00     0.014 C 
ENDROOT
BRANCH   1  27
ATOM     27  C   UNL     1    -113.445 -11.569  37.016  1.00  0.00     0.048 C 
ATOM     28  O   UNL     1    -113.449 -12.758  37.431  1.00  0.00    -0.550 OA
ATOM     29  O   UNL     1    -112.448 -10.722  37.479  1.00  0.00    -0.550 OA
ENDBRANCH   1  27
BRANCH   7  30
ATOM     30  C   UNL     1    -112.147 -11.617  33.621  1.00  0.00    -0.077 C 
ATOM     31  C   UNL     1    -111.453 -11.440  32.292  1.00  0.00     0.039 C 
ATOM     32  C   UNL     1    -111.366 -11.875  34.685  1.00  0.00     0.008 C 
ENDBRANCH   7  30
BRANCH  23  33
ATOM     33  O   UNL     1    -112.463  -1.686  32.694  1.00  0.00    -0.390 OA
ATOM     34  H   UNL     1    -112.438  -1.069  31.917  1.00  0.00     0.211 HD
ENDBRANCH  23  33
BRANCH  24  35
ATOM     35  O   UNL     1    -112.831  -4.478  30.430  1.00  0.00    -0.390 OA
ATOM     36  H   UNL     1    -113.611  -5.070  30.260  1.00  0.00     0.211 HD
ENDBRANCH  24  35
TORSDOF 4
ENDMDL
MODEL 8
REMARK VINA RESULT:    -3.998      2.306      4.802
REMARK INTER + INTRA:          -4.680
REMARK INTER:                  -4.956
REMARK INTRA:                   0.276
REMARK UNBOUND:                 0.020
REMARK SMILES C=C(C)[C@H]1CC[C@]2(C(=O)[O-])CC[C@@]3(C)[C@H](CC[C@H]4[C@@]5(C)C[C@H](O)[C@@H](O)C(C)(C)[C@@H]5CC[C@]43C)[C@@H]12
REMARK SMILES IDX 7 1 6 2 34 3 11 4 5 5 15 6 4 7 12 8 16 9 13 10 17 11 32 12
REMARK SMILES IDX 14 13 18 14 31 15 33 16 19 17 30 18 29 19 21 20 20 21 26 22
REMARK SMILES IDX 22 23 24 24 27 25 28 26 8 27 9 28 10 29 2 30 3 31 1 32 23 33
REMARK SMILES IDX 25 35
REMARK H PARENT 23 34 25 36
REMARK Flexibility Score: inf
ROOT
ATOM      1  C   UNL     1    -113.834 -12.016  41.003  1.00  0.00     0.014 C 
ATOM      2  C   UNL     1    -112.885 -11.961  42.220  1.00  0.00     0.014 C 
ATOM      3  C   UNL     1    -113.917 -10.513  40.665  1.00  0.00     0.012 C 
ATOM      4  C   UNL     1    -113.263 -12.817  39.795  1.00  0.00     0.014 C 
ATOM      5  C   UNL     1    -113.313 -10.720  43.022  1.00  0.00     0.009 C 
ATOM      6  C   UNL     1    -114.781 -10.178  39.413  1.00  0.00     0.000 C 
ATOM      7  C   UNL     1    -113.979  -9.750  42.018  1.00  0.00     0.018 C 
ATOM      8  C   UNL     1    -113.131 -11.997  38.489  1.00  0.00     0.008 C 
ATOM      9  C   UNL     1    -114.756  -8.678  39.151  1.00  0.00     0.005 C 
ATOM     10  C   UNL     1    -114.360 -11.053  38.132  1.00  0.00    -0.024 C 
ATOM     11  C   UNL     1    -115.531  -8.300  37.907  1.00  0.00     0.005 C 
ATOM     12  C   UNL     1    -114.031 -10.166  36.797  1.00  0.00    -0.024 C 
ATOM     13  C   UNL     1    -115.569 -11.999  37.828  1.00  0.00     0.012 C 
ATOM     14  C   UNL     1    -115.134  -9.023  36.570  1.00  0.00     0.002 C 
ATOM     15  C   UNL     1    -112.601  -9.516  36.860  1.00  0.00     0.008 C 
ATOM     16  C   UNL     1    -114.002 -11.136  35.561  1.00  0.00     0.012 C 
ATOM     17  C   UNL     1    -114.819  -7.972  35.395  1.00  0.00    -0.023 C 
ATOM     18  C   UNL     1    -112.307  -8.409  35.826  1.00  0.00     0.005 C 
ATOM     19  C   UNL     1    -113.422  -7.331  35.736  1.00  0.00     0.004 C 
ATOM     20  C   UNL     1    -115.949  -6.867  35.287  1.00  0.00     0.042 C 
ATOM     21  C   UNL     1    -114.847  -8.694  34.002  1.00  0.00     0.012 C 
ATOM     22  C   UNL     1    -113.027  -6.048  34.904  1.00  0.00    -0.003 C 
ATOM     23  C   UNL     1    -115.564  -5.579  34.520  1.00  0.00     0.144 C 
ATOM     24  C   UNL     1    -114.199  -5.014  34.961  1.00  0.00     0.149 C 
ATOM     25  C   UNL     1    -111.781  -5.365  35.539  1.00  0.00     0.014 C 
ATOM     26  C   UNL     1    -112.635  -6.361  33.436  1.00  0.00     0.014 C 
ENDROOT
BRANCH   1  27
ATOM     27  C   UNL     1    -115.143 -12.677  41.443  1.00  0.00     0.048 C 
ATOM     28  O   UNL     1    -116.105 -12.752  40.633  1.00  0.00    -0.550 OA
ATOM     29  O   UNL     1    -115.349 -13.124  42.740  1.00  0.00    -0.550 OA
ENDBRANCH   1  27
BRANCH   7  30
ATOM     30  C   UNL     1    -115.336  -9.201  42.488  1.00  0.00    -0.077 C 
ATOM     31  C   UNL     1    -115.892  -7.864  42.058  1.00  0.00     0.039 C 
ATOM     32  C   UNL     1    -116.125  -9.966  43.262  1.00  0.00     0.008 C 
ENDBRANCH   7  30
BRANCH  23  33
ATOM     33  O   UNL     1    -115.605  -5.751  33.128  1.00  0.00    -0.390 OA
ATOM     34  H   UNL     1    -114.969  -6.482  32.908  1.00  0.00     0.211 HD
ENDBRANCH  23  33
BRANCH  24  35
ATOM     35  O   UNL     1    -114.325  -4.513  36.273  1.00  0.00    -0.390 OA
ATOM     36  H   UNL     1    -115.221  -4.782  36.606  1.00  0.00     0.211 HD
ENDBRANCH  24  35
TORSDOF 4
ENDMDL
MODEL 9
REMARK VINA RESULT:    -3.971      3.539      7.834
REMARK INTER + INTRA:          -4.648
REMARK INTER:                  -4.538
REMARK INTRA:                  -0.110
REMARK UNBOUND:                 0.020
REMARK SMILES C=C(C)[C@H]1CC[C@]2(C(=O)[O-])CC[C@@]3(C)[C@H](CC[C@H]4[C@@]5(C)C[C@H](O)[C@@H](O)C(C)(C)[C@@H]5CC[C@]43C)[C@@H]12
REMARK SMILES IDX 7 1 6 2 34 3 11 4 5 5 15 6 4 7 12 8 16 9 13 10 17 11 32 12
REMARK SMILES IDX 14 13 18 14 31 15 33 16 19 17 30 18 29 19 21 20 20 21 26 22
REMARK SMILES IDX 22 23 24 24 27 25 28 26 8 27 9 28 10 29 2 30 3 31 1 32 23 33
REMARK SMILES IDX 25 35
REMARK H PARENT 23 34 25 36
REMARK Flexibility Score: inf
ROOT
ATOM      1  C   UNL     1    -113.586  -3.943  34.617  1.00  0.00     0.014 C 
ATOM      2  C   UNL     1    -112.366  -3.002  34.724  1.00  0.00     0.014 C 
ATOM      3  C   UNL     1    -113.169  -4.777  33.389  1.00  0.00     0.012 C 
ATOM      4  C   UNL     1    -113.784  -4.861  35.860  1.00  0.00     0.014 C 
ATOM      5  C   UNL     1    -111.996  -2.638  33.275  1.00  0.00     0.009 C 
ATOM      6  C   UNL     1    -114.172  -5.904  33.000  1.00  0.00     0.000 C 
ATOM      7  C   UNL     1    -112.500  -3.797  32.384  1.00  0.00     0.018 C 
ATOM      8  C   UNL     1    -113.752  -6.376  35.547  1.00  0.00     0.008 C 
ATOM      9  C   UNL     1    -113.639  -6.685  31.807  1.00  0.00     0.005 C 
ATOM     10  C   UNL     1    -114.553  -6.836  34.252  1.00  0.00    -0.024 C 
ATOM     11  C   UNL     1    -114.546  -7.834  31.422  1.00  0.00     0.005 C 
ATOM     12  C   UNL     1    -114.332  -8.436  33.983  1.00  0.00    -0.024 C 
ATOM     13  C   UNL     1    -116.065  -6.576  34.553  1.00  0.00     0.012 C 
ATOM     14  C   UNL     1    -114.904  -8.870  32.548  1.00  0.00     0.002 C 
ATOM     15  C   UNL     1    -112.820  -8.848  34.097  1.00  0.00     0.008 C 
ATOM     16  C   UNL     1    -115.075  -9.229  35.119  1.00  0.00     0.012 C 
ATOM     17  C   UNL     1    -114.582 -10.378  32.095  1.00  0.00    -0.023 C 
ATOM     18  C   UNL     1    -112.449 -10.244  33.551  1.00  0.00     0.005 C 
ATOM     19  C   UNL     1    -113.015 -10.527  32.132  1.00  0.00     0.004 C 
ATOM     20  C   UNL     1    -115.156 -10.685  30.651  1.00  0.00     0.042 C 
ATOM     21  C   UNL     1    -115.325 -11.395  33.032  1.00  0.00     0.012 C 
ATOM     22  C   UNL     1    -112.426 -11.817  31.437  1.00  0.00    -0.003 C 
ATOM     23  C   UNL     1    -114.552 -11.914  29.930  1.00  0.00     0.144 C 
ATOM     24  C   UNL     1    -113.011 -11.939  29.992  1.00  0.00     0.149 C 
ATOM     25  C   UNL     1    -110.880 -11.685  31.296  1.00  0.00     0.014 C 
ATOM     26  C   UNL     1    -112.666 -13.118  32.245  1.00  0.00     0.014 C 
ENDROOT
BRANCH   1  27
ATOM     27  C   UNL     1    -114.842  -3.083  34.448  1.00  0.00     0.048 C 
ATOM     28  O   UNL     1    -114.844  -1.894  34.863  1.00  0.00    -0.550 OA
ATOM     29  O   UNL     1    -116.025  -3.592  33.929  1.00  0.00    -0.550 OA
ENDBRANCH   1  27
BRANCH   7  30
ATOM     30  C   UNL     1    -113.310  -3.336  31.161  1.00  0.00    -0.077 C 
ATOM     31  C   UNL     1    -114.333  -2.226  31.206  1.00  0.00     0.039 C 
ATOM     32  C   UNL     1    -113.057  -3.881  29.958  1.00  0.00     0.008 C 
ENDBRANCH   7  30
BRANCH  23  33
ATOM     33  O   UNL     1    -115.088 -13.125  30.396  1.00  0.00    -0.390 OA
ATOM     34  H   UNL     1    -115.894 -12.898  30.929  1.00  0.00     0.211 HD
ENDBRANCH  23  33
BRANCH  24  35
ATOM     35  O   UNL     1    -112.515 -10.892  29.190  1.00  0.00    -0.390 OA
ATOM     36  H   UNL     1    -112.797 -10.038  29.611  1.00  0.00     0.211 HD
ENDBRANCH  24  35
TORSDOF 4
ENDMDL
