MODEL 1
REMARK VINA RESULT:    -3.335      0.000      0.000
REMARK INTER + INTRA:          -3.880
REMARK INTER:                  -3.822
REMARK INTRA:                  -0.057
REMARK UNBOUND:                -0.057
REMARK SMILES CC(C)[C@@H]([NH3+])C(=O)[O-]
REMARK SMILES IDX 4 1 5 2 6 6 7 7 8 8 2 9 1 10 3 11
REMARK H PARENT 5 3 5 4 5 5
REMARK Flexibility Score: inf
ROOT
ATOM      1  C   UNL     1      19.860  31.228  43.636  1.00  0.00     0.230 C 
ENDROOT
BRANCH   1   2
ATOM      2  N   UNL     1      20.436  31.077  44.981  1.00  0.00    -0.350 N 
ATOM      3  H   UNL     1      21.137  31.824  45.184  1.00  0.00     0.345 HD
ATOM      4  H   UNL     1      19.673  31.138  45.695  1.00  0.00     0.345 HD
ATOM      5  H   UNL     1      20.888  30.140  45.082  1.00  0.00     0.345 HD
ENDBRANCH   1   2
BRANCH   1   6
ATOM      6  C   UNL     1      19.716  29.888  42.956  1.00  0.00     0.099 C 
ATOM      7  O   UNL     1      20.408  28.900  43.320  1.00  0.00    -0.544 OA
ATOM      8  O   UNL     1      18.774  29.725  41.947  1.00  0.00    -0.544 OA
ENDBRANCH   1   6
BRANCH   1   9
ATOM      9  C   UNL     1      18.507  32.001  43.633  1.00  0.00     0.047 C 
ATOM     10  C   UNL     1      17.761  31.938  44.976  1.00  0.00     0.014 C 
ATOM     11  C   UNL     1      18.684  33.462  43.193  1.00  0.00     0.014 C 
ENDBRANCH   1   9
TORSDOF 3
ENDMDL
MODEL 2
REMARK VINA RESULT:    -3.287      1.597      2.067
REMARK INTER + INTRA:          -3.825
REMARK INTER:                  -3.833
REMARK INTRA:                   0.008
REMARK UNBOUND:                -0.057
REMARK SMILES CC(C)[C@@H]([NH3+])C(=O)[O-]
REMARK SMILES IDX 4 1 5 2 6 6 7 7 8 8 2 9 1 10 3 11
REMARK H PARENT 5 3 5 4 5 5
REMARK Flexibility Score: inf
ROOT
ATOM      1  C   UNL     1      20.272  30.885  44.533  1.00  0.00     0.230 C 
ENDROOT
BRANCH   1   2
ATOM      2  N   UNL     1      20.450  29.491  44.966  1.00  0.00    -0.350 N 
ATOM      3  H   UNL     1      20.402  29.404  46.006  1.00  0.00     0.345 HD
ATOM      4  H   UNL     1      19.693  28.898  44.550  1.00  0.00     0.345 HD
ATOM      5  H   UNL     1      21.365  29.117  44.627  1.00  0.00     0.345 HD
ENDBRANCH   1   2
BRANCH   1   6
ATOM      6  C   UNL     1      20.481  31.019  43.043  1.00  0.00     0.099 C 
ATOM      7  O   UNL     1      21.273  31.880  42.577  1.00  0.00    -0.544 OA
ATOM      8  O   UNL     1      19.828  30.152  42.176  1.00  0.00    -0.544 OA
ENDBRANCH   1   6
BRANCH   1   9
ATOM      9  C   UNL     1      18.899  31.488  44.958  1.00  0.00     0.047 C 
ATOM     10  C   UNL     1      18.468  32.695  44.110  1.00  0.00     0.014 C 
ATOM     11  C   UNL     1      17.788  30.426  44.973  1.00  0.00     0.014 C 
ENDBRANCH   1   9
TORSDOF 3
ENDMDL
MODEL 3
REMARK VINA RESULT:    -3.284      2.402      2.813
REMARK INTER + INTRA:          -3.821
REMARK INTER:                  -3.754
REMARK INTRA:                  -0.067
REMARK UNBOUND:                -0.057
REMARK SMILES CC(C)[C@@H]([NH3+])C(=O)[O-]
REMARK SMILES IDX 4 1 5 2 6 6 7 7 8 8 2 9 1 10 3 11
REMARK H PARENT 5 3 5 4 5 5
REMARK Flexibility Score: inf
ROOT
ATOM      1  C   UNL     1      18.563  30.675  42.803  1.00  0.00     0.230 C 
ENDROOT
BRANCH   1   2
ATOM      2  N   UNL     1      19.205  29.477  42.239  1.00  0.00    -0.350 N 
ATOM      3  H   UNL     1      18.737  28.602  42.566  1.00  0.00     0.345 HD
ATOM      4  H   UNL     1      19.148  29.512  41.194  1.00  0.00     0.345 HD
ATOM      5  H   UNL     1      20.216  29.448  42.499  1.00  0.00     0.345 HD
ENDBRANCH   1   2
BRANCH   1   6
ATOM      6  C   UNL     1      17.079  30.675  42.524  1.00  0.00     0.099 C 
ATOM      7  O   UNL     1      16.341  29.751  42.957  1.00  0.00    -0.544 OA
ATOM      8  O   UNL     1      16.510  31.731  41.823  1.00  0.00    -0.544 OA
ENDBRANCH   1   6
BRANCH   1   9
ATOM      9  C   UNL     1      18.843  30.860  44.325  1.00  0.00     0.047 C 
ATOM     10  C   UNL     1      20.339  30.858  44.680  1.00  0.00     0.014 C 
ATOM     11  C   UNL     1      18.169  32.123  44.882  1.00  0.00     0.014 C 
ENDBRANCH   1   9
TORSDOF 3
ENDMDL
MODEL 4
REMARK VINA RESULT:    -3.277     22.169     23.001
REMARK INTER + INTRA:          -3.813
REMARK INTER:                  -3.740
REMARK INTRA:                  -0.073
REMARK UNBOUND:                -0.057
REMARK SMILES CC(C)[C@@H]([NH3+])C(=O)[O-]
REMARK SMILES IDX 4 1 5 2 6 6 7 7 8 8 2 9 1 10 3 11
REMARK H PARENT 5 3 5 4 5 5
REMARK Flexibility Score: inf
ROOT
ATOM      1  C   UNL     1      16.731  46.071  27.000  1.00  0.00     0.230 C 
ENDROOT
BRANCH   1   2
ATOM      2  N   UNL     1      17.188  47.398  27.442  1.00  0.00    -0.350 N 
ATOM      3  H   UNL     1      18.056  47.332  28.019  1.00  0.00     0.345 HD
ATOM      4  H   UNL     1      17.391  47.993  26.605  1.00  0.00     0.345 HD
ATOM      5  H   UNL     1      16.440  47.876  27.994  1.00  0.00     0.345 HD
ENDBRANCH   1   2
BRANCH   1   6
ATOM      6  C   UNL     1      15.287  45.843  27.376  1.00  0.00     0.099 C 
ATOM      7  O   UNL     1      14.376  46.582  26.918  1.00  0.00    -0.544 OA
ATOM      8  O   UNL     1      14.950  44.775  28.197  1.00  0.00    -0.544 OA
ENDBRANCH   1   6
BRANCH   1   9
ATOM      9  C   UNL     1      16.956  45.823  25.477  1.00  0.00     0.047 C 
ATOM     10  C   UNL     1      18.396  46.099  25.015  1.00  0.00     0.014 C 
ATOM     11  C   UNL     1      16.526  44.409  25.058  1.00  0.00     0.014 C 
ENDBRANCH   1   9
TORSDOF 3
ENDMDL
MODEL 5
REMARK VINA RESULT:    -3.246      2.181      3.324
REMARK INTER + INTRA:          -3.778
REMARK INTER:                  -3.716
REMARK INTRA:                  -0.062
REMARK UNBOUND:                -0.057
REMARK SMILES CC(C)[C@@H]([NH3+])C(=O)[O-]
REMARK SMILES IDX 4 1 5 2 6 6 7 7 8 8 2 9 1 10 3 11
REMARK H PARENT 5 3 5 4 5 5
REMARK Flexibility Score: inf
ROOT
ATOM      1  C   UNL     1      18.683  30.578  44.637  1.00  0.00     0.230 C 
ENDROOT
BRANCH   1   2
ATOM      2  N   UNL     1      19.176  31.876  45.123  1.00  0.00    -0.350 N 
ATOM      3  H   UNL     1      18.538  32.283  45.843  1.00  0.00     0.345 HD
ATOM      4  H   UNL     1      20.122  31.750  45.553  1.00  0.00     0.345 HD
ATOM      5  H   UNL     1      19.278  32.549  44.330  1.00  0.00     0.345 HD
ENDBRANCH   1   2
BRANCH   1   6
ATOM      6  C   UNL     1      17.232  30.669  44.230  1.00  0.00     0.099 C 
ATOM      7  O   UNL     1      16.788  29.995  43.264  1.00  0.00    -0.544 OA
ATOM      8  O   UNL     1      16.361  31.468  44.961  1.00  0.00    -0.544 OA
ENDBRANCH   1   6
BRANCH   1   9
ATOM      9  C   UNL     1      19.549  29.990  43.481  1.00  0.00     0.047 C 
ATOM     10  C   UNL     1      20.352  31.052  42.712  1.00  0.00     0.014 C 
ATOM     11  C   UNL     1      20.483  28.875  43.977  1.00  0.00     0.014 C 
ENDBRANCH   1   9
TORSDOF 3
ENDMDL
MODEL 6
REMARK VINA RESULT:    -3.187     22.012     23.078
REMARK INTER + INTRA:          -3.710
REMARK INTER:                  -3.649
REMARK INTRA:                  -0.061
REMARK UNBOUND:                -0.057
REMARK SMILES CC(C)[C@@H]([NH3+])C(=O)[O-]
REMARK SMILES IDX 4 1 5 2 6 6 7 7 8 8 2 9 1 10 3 11
REMARK H PARENT 5 3 5 4 5 5
REMARK Flexibility Score: inf
ROOT
ATOM      1  C   UNL     1      17.983  45.541  26.189  1.00  0.00     0.230 C 
ENDROOT
BRANCH   1   2
ATOM      2  N   UNL     1      18.629  45.735  24.881  1.00  0.00    -0.350 N 
ATOM      3  H   UNL     1      17.956  45.589  24.096  1.00  0.00     0.345 HD
ATOM      4  H   UNL     1      19.002  46.712  24.819  1.00  0.00     0.345 HD
ATOM      5  H   UNL     1      19.437  45.083  24.772  1.00  0.00     0.345 HD
ENDBRANCH   1   2
BRANCH   1   6
ATOM      6  C   UNL     1      17.539  46.860  26.773  1.00  0.00     0.099 C 
ATOM      7  O   UNL     1      17.932  47.951  26.280  1.00  0.00    -0.544 OA
ATOM      8  O   UNL     1      16.646  46.876  27.838  1.00  0.00    -0.544 OA
ENDBRANCH   1   6
BRANCH   1   9
ATOM      9  C   UNL     1      16.800  44.527  26.142  1.00  0.00     0.047 C 
ATOM     10  C   UNL     1      15.937  44.647  24.875  1.00  0.00     0.014 C 
ATOM     11  C   UNL     1      17.281  43.079  26.320  1.00  0.00     0.014 C 
ENDBRANCH   1   9
TORSDOF 3
ENDMDL
MODEL 7
REMARK VINA RESULT:    -3.156      1.902      2.738
REMARK INTER + INTRA:          -3.674
REMARK INTER:                  -3.695
REMARK INTRA:                   0.021
REMARK UNBOUND:                -0.057
REMARK SMILES CC(C)[C@@H]([NH3+])C(=O)[O-]
REMARK SMILES IDX 4 1 5 2 6 6 7 7 8 8 2 9 1 10 3 11
REMARK H PARENT 5 3 5 4 5 5
REMARK Flexibility Score: inf
ROOT
ATOM      1  C   UNL     1      18.753  30.975  44.388  1.00  0.00     0.230 C 
ENDROOT
BRANCH   1   2
ATOM      2  N   UNL     1      18.630  32.242  45.125  1.00  0.00    -0.350 N 
ATOM      3  H   UNL     1      19.254  32.261  45.962  1.00  0.00     0.345 HD
ATOM      4  H   UNL     1      18.896  33.037  44.497  1.00  0.00     0.345 HD
ATOM      5  H   UNL     1      17.641  32.396  45.426  1.00  0.00     0.345 HD
ENDBRANCH   1   2
BRANCH   1   6
ATOM      6  C   UNL     1      18.007  31.038  43.077  1.00  0.00     0.099 C 
ATOM      7  O   UNL     1      17.644  29.985  42.489  1.00  0.00    -0.544 OA
ATOM      8  O   UNL     1      17.673  32.272  42.533  1.00  0.00    -0.544 OA
ENDBRANCH   1   6
BRANCH   1   9
ATOM      9  C   UNL     1      20.233  30.538  44.166  1.00  0.00     0.047 C 
ATOM     10  C   UNL     1      20.419  29.014  44.095  1.00  0.00     0.014 C 
ATOM     11  C   UNL     1      20.846  31.205  42.925  1.00  0.00     0.014 C 
ENDBRANCH   1   9
TORSDOF 3
ENDMDL
MODEL 8
REMARK VINA RESULT:    -2.598      2.172      2.624
REMARK INTER + INTRA:          -3.035
REMARK INTER:                  -2.974
REMARK INTRA:                  -0.061
REMARK UNBOUND:                -0.057
REMARK SMILES CC(C)[C@@H]([NH3+])C(=O)[O-]
REMARK SMILES IDX 4 1 5 2 6 6 7 7 8 8 2 9 1 10 3 11
REMARK H PARENT 5 3 5 4 5 5
REMARK Flexibility Score: inf
ROOT
ATOM      1  C   UNL     1      18.568  30.001  43.446  1.00  0.00     0.230 C 
ENDROOT
BRANCH   1   2
ATOM      2  N   UNL     1      18.927  29.631  42.068  1.00  0.00    -0.350 N 
ATOM      3  H   UNL     1      19.315  28.662  42.020  1.00  0.00     0.345 HD
ATOM      4  H   UNL     1      18.073  29.674  41.463  1.00  0.00     0.345 HD
ATOM      5  H   UNL     1      19.624  30.304  41.678  1.00  0.00     0.345 HD
ENDBRANCH   1   2
BRANCH   1   6
ATOM      6  C   UNL     1      19.795  30.071  44.323  1.00  0.00     0.099 C 
ATOM      7  O   UNL     1      20.495  31.117  44.372  1.00  0.00    -0.544 OA
ATOM      8  O   UNL     1      20.131  28.988  45.125  1.00  0.00    -0.544 OA
ENDBRANCH   1   6
BRANCH   1   9
ATOM      9  C   UNL     1      17.747  31.323  43.530  1.00  0.00     0.047 C 
ATOM     10  C   UNL     1      16.746  31.500  42.377  1.00  0.00     0.014 C 
ATOM     11  C   UNL     1      17.029  31.465  44.881  1.00  0.00     0.014 C 
ENDBRANCH   1   9
TORSDOF 3
ENDMDL
