MODEL 1
REMARK VINA RESULT:    10.000      0.000      0.000
REMARK INTER + INTRA:          17.683
REMARK INTER:                  18.184
REMARK INTRA:                  -0.501
REMARK UNBOUND:                -0.501
REMARK SMILES CCCCCC=CCC=CCCCCCCCC(=O)[O-]
REMARK SMILES IDX 11 1 12 2 13 3 14 4 15 5 16 6 17 7 18 8 19 9 20 10 10 11
REMARK SMILES IDX 9 12 8 13 7 14 6 15 5 16 4 17 3 18 2 19 1 20
REMARK H PARENT
REMARK Flexibility Score: inf
ROOT
ATOM      1  C   UNL     1     -13.538  18.866 -14.602  1.00  0.00     0.027 C 
ENDROOT
BRANCH   1   2
ATOM      2  C   UNL     1     -13.335  18.183 -15.963  1.00  0.00     0.004 C 
BRANCH   2   3
ATOM      3  C   UNL     1     -14.640  18.078 -16.763  1.00  0.00     0.000 C 
BRANCH   3   4
ATOM      4  C   UNL     1     -14.352  17.886 -18.258  1.00  0.00     0.000 C 
BRANCH   4   5
ATOM      5  C   UNL     1     -14.766  19.129 -19.062  1.00  0.00     0.000 C 
BRANCH   5   6
ATOM      6  C   UNL     1     -13.648  19.630 -19.990  1.00  0.00     0.006 C 
BRANCH   6   7
ATOM      7  C   UNL     1     -14.156  20.618 -21.049  1.00  0.00     0.053 C 
BRANCH   7   8
ATOM      8  C   UNL     1     -13.595  20.288 -22.398  1.00  0.00     0.041 C 
ATOM      9  O   UNL     1     -12.648  20.971 -22.872  1.00  0.00    -0.550 OA
ATOM     10  O   UNL     1     -14.105  19.216 -23.125  1.00  0.00    -0.550 OA
ENDBRANCH   7   8
ENDBRANCH   6   7
ENDBRANCH   5   6
ENDBRANCH   4   5
ENDBRANCH   3   4
ENDBRANCH   2   3
ENDBRANCH   1   2
BRANCH   1  11
ATOM     11  C   UNL     1     -12.246  19.431 -14.062  1.00  0.00    -0.031 C 
ATOM     12  C   UNL     1     -12.019  19.744 -12.771  1.00  0.00    -0.027 C 
BRANCH  12  13
ATOM     13  C   UNL     1     -12.993  19.516 -11.640  1.00  0.00     0.054 C 
BRANCH  13  14
ATOM     14  C   UNL     1     -13.031  18.074 -11.201  1.00  0.00    -0.027 C 
ATOM     15  C   UNL     1     -12.791  17.645  -9.949  1.00  0.00    -0.031 C 
BRANCH  15  16
ATOM     16  C   UNL     1     -12.408  18.530  -8.787  1.00  0.00     0.027 C 
BRANCH  16  17
ATOM     17  C   UNL     1     -13.607  19.342  -8.282  1.00  0.00     0.004 C 
BRANCH  17  18
ATOM     18  C   UNL     1     -13.244  20.208  -7.064  1.00  0.00     0.000 C 
BRANCH  18  19
ATOM     19  C   UNL     1     -11.979  21.049  -7.297  1.00  0.00    -0.003 C 
ATOM     20  C   UNL     1     -11.963  21.728  -8.668  1.00  0.00     0.004 C 
ENDBRANCH  18  19
ENDBRANCH  17  18
ENDBRANCH  16  17
ENDBRANCH  15  16
ENDBRANCH  13  14
ENDBRANCH  12  13
ENDBRANCH   1  11
TORSDOF 14
ENDMDL
MODEL 2
REMARK VINA RESULT:    10.749      5.084     11.028
REMARK INTER + INTRA:          19.046
REMARK INTER:                  18.522
REMARK INTRA:                   0.524
REMARK UNBOUND:                -0.501
REMARK SMILES CCCCCC=CCC=CCCCCCCCC(=O)[O-]
REMARK SMILES IDX 11 1 12 2 13 3 14 4 15 5 16 6 17 7 18 8 19 9 20 10 10 11
REMARK SMILES IDX 9 12 8 13 7 14 6 15 5 16 4 17 3 18 2 19 1 20
REMARK H PARENT
REMARK Flexibility Score: inf
ROOT
ATOM      1  C   UNL     1     -12.051  19.342 -14.955  1.00  0.00     0.027 C 
ENDROOT
BRANCH   1   2
ATOM      2  C   UNL     1     -11.891  19.657 -13.460  1.00  0.00     0.004 C 
BRANCH   2   3
ATOM      3  C   UNL     1     -12.943  18.945 -12.598  1.00  0.00     0.000 C 
BRANCH   3   4
ATOM      4  C   UNL     1     -13.012  19.562 -11.195  1.00  0.00     0.000 C 
BRANCH   4   5
ATOM      5  C   UNL     1     -13.386  18.504 -10.146  1.00  0.00     0.000 C 
BRANCH   5   6
ATOM      6  C   UNL     1     -13.591  19.108  -8.747  1.00  0.00     0.006 C 
BRANCH   6   7
ATOM      7  C   UNL     1     -12.267  19.402  -8.030  1.00  0.00     0.053 C 
BRANCH   7   8
ATOM      8  C   UNL     1     -12.151  20.858  -7.699  1.00  0.00     0.041 C 
ATOM      9  O   UNL     1     -11.482  21.623  -8.443  1.00  0.00    -0.550 OA
ATOM     10  O   UNL     1     -12.798  21.375  -6.580  1.00  0.00    -0.550 OA
ENDBRANCH   7   8
ENDBRANCH   6   7
ENDBRANCH   5   6
ENDBRANCH   4   5
ENDBRANCH   3   4
ENDBRANCH   2   3
ENDBRANCH   1   2
BRANCH   1  11
ATOM     11  C   UNL     1     -10.852  19.797 -15.752  1.00  0.00    -0.031 C 
ATOM     12  C   UNL     1     -10.704  19.642 -17.082  1.00  0.00    -0.027 C 
BRANCH  12  13
ATOM     13  C   UNL     1     -11.742  19.051 -18.006  1.00  0.00     0.054 C 
BRANCH  13  14
ATOM     14  C   UNL     1     -11.464  19.369 -19.454  1.00  0.00    -0.027 C 
ATOM     15  C   UNL     1     -12.383  19.804 -20.335  1.00  0.00    -0.031 C 
BRANCH  15  16
ATOM     16  C   UNL     1     -13.848  20.010 -20.031  1.00  0.00     0.027 C 
BRANCH  16  17
ATOM     17  C   UNL     1     -14.523  20.883 -21.097  1.00  0.00     0.004 C 
BRANCH  17  18
ATOM     18  C   UNL     1     -14.225  20.388 -22.522  1.00  0.00     0.000 C 
BRANCH  18  19
ATOM     19  C   UNL     1     -12.877  20.901 -23.052  1.00  0.00    -0.003 C 
ATOM     20  C   UNL     1     -11.812  19.806 -23.125  1.00  0.00     0.004 C 
ENDBRANCH  18  19
ENDBRANCH  17  18
ENDBRANCH  16  17
ENDBRANCH  15  16
ENDBRANCH  13  14
ENDBRANCH  12  13
ENDBRANCH   1  11
TORSDOF 14
ENDMDL
MODEL 3
REMARK VINA RESULT:    10.763      0.790      1.770
REMARK INTER + INTRA:          19.071
REMARK INTER:                  19.637
REMARK INTRA:                  -0.566
REMARK UNBOUND:                -0.501
REMARK SMILES CCCCCC=CCC=CCCCCCCCC(=O)[O-]
REMARK SMILES IDX 11 1 12 2 13 3 14 4 15 5 16 6 17 7 18 8 19 9 20 10 10 11
REMARK SMILES IDX 9 12 8 13 7 14 6 15 5 16 4 17 3 18 2 19 1 20
REMARK H PARENT
REMARK Flexibility Score: inf
ROOT
ATOM      1  C   UNL     1     -13.954  17.983 -15.699  1.00  0.00     0.027 C 
ENDROOT
BRANCH   1   2
ATOM      2  C   UNL     1     -14.784  17.836 -16.982  1.00  0.00     0.004 C 
BRANCH   2   3
ATOM      3  C   UNL     1     -13.949  18.075 -18.248  1.00  0.00     0.000 C 
BRANCH   3   4
ATOM      4  C   UNL     1     -14.681  19.013 -19.218  1.00  0.00     0.000 C 
BRANCH   4   5
ATOM      5  C   UNL     1     -13.688  19.724 -20.150  1.00  0.00     0.000 C 
BRANCH   5   6
ATOM      6  C   UNL     1     -14.290  20.976 -20.808  1.00  0.00     0.006 C 
BRANCH   6   7
ATOM      7  C   UNL     1     -13.924  21.098 -22.293  1.00  0.00     0.053 C 
BRANCH   7   8
ATOM      8  C   UNL     1     -13.279  19.840 -22.789  1.00  0.00     0.041 C 
ATOM      9  O   UNL     1     -12.025  19.770 -22.886  1.00  0.00    -0.550 OA
ATOM     10  O   UNL     1     -14.061  18.738 -23.125  1.00  0.00    -0.550 OA
ENDBRANCH   7   8
ENDBRANCH   6   7
ENDBRANCH   5   6
ENDBRANCH   4   5
ENDBRANCH   3   4
ENDBRANCH   2   3
ENDBRANCH   1   2
BRANCH   1  11
ATOM     11  C   UNL     1     -12.659  18.716 -15.953  1.00  0.00    -0.031 C 
ATOM     12  C   UNL     1     -11.739  19.010 -15.013  1.00  0.00    -0.027 C 
BRANCH  12  13
ATOM     13  C   UNL     1     -11.819  18.595 -13.564  1.00  0.00     0.054 C 
BRANCH  13  14
ATOM     14  C   UNL     1     -12.654  19.545 -12.743  1.00  0.00    -0.027 C 
ATOM     15  C   UNL     1     -13.157  19.271 -11.526  1.00  0.00    -0.031 C 
BRANCH  15  16
ATOM     16  C   UNL     1     -13.001  17.958 -10.798  1.00  0.00     0.027 C 
BRANCH  16  17
ATOM     17  C   UNL     1     -12.715  18.175  -9.306  1.00  0.00     0.004 C 
BRANCH  17  18
ATOM     18  C   UNL     1     -13.381  19.455  -8.772  1.00  0.00     0.000 C 
BRANCH  18  19
ATOM     19  C   UNL     1     -12.357  20.544  -8.415  1.00  0.00    -0.003 C 
ATOM     20  C   UNL     1     -12.572  21.124  -7.016  1.00  0.00     0.004 C 
ENDBRANCH  18  19
ENDBRANCH  17  18
ENDBRANCH  16  17
ENDBRANCH  15  16
ENDBRANCH  13  14
ENDBRANCH  12  13
ENDBRANCH   1  11
TORSDOF 14
ENDMDL
MODEL 4
REMARK VINA RESULT:    11.132      1.589      2.591
REMARK INTER + INTRA:          19.742
REMARK INTER:                  19.696
REMARK INTRA:                   0.046
REMARK UNBOUND:                -0.501
REMARK SMILES CCCCCC=CCC=CCCCCCCCC(=O)[O-]
REMARK SMILES IDX 11 1 12 2 13 3 14 4 15 5 16 6 17 7 18 8 19 9 20 10 10 11
REMARK SMILES IDX 9 12 8 13 7 14 6 15 5 16 4 17 3 18 2 19 1 20
REMARK H PARENT
REMARK Flexibility Score: inf
ROOT
ATOM      1  C   UNL     1     -11.461  18.932 -16.864  1.00  0.00     0.027 C 
ENDROOT
BRANCH   1   2
ATOM      2  C   UNL     1     -11.263  19.612 -18.227  1.00  0.00     0.004 C 
BRANCH   2   3
ATOM      3  C   UNL     1     -12.072  18.933 -19.340  1.00  0.00     0.000 C 
BRANCH   3   4
ATOM      4  C   UNL     1     -12.312  19.897 -20.510  1.00  0.00     0.000 C 
BRANCH   4   5
ATOM      5  C   UNL     1     -11.362  19.593 -21.678  1.00  0.00     0.000 C 
BRANCH   5   6
ATOM      6  C   UNL     1     -11.945  20.012 -23.037  1.00  0.00     0.006 C 
BRANCH   6   7
ATOM      7  C   UNL     1     -13.074  21.043 -22.904  1.00  0.00     0.053 C 
BRANCH   7   8
ATOM      8  C   UNL     1     -14.340  20.390 -22.441  1.00  0.00     0.041 C 
ATOM      9  O   UNL     1     -15.090  20.979 -21.618  1.00  0.00    -0.550 OA
ATOM     10  O   UNL     1     -14.702  19.139 -22.933  1.00  0.00    -0.550 OA
ENDBRANCH   7   8
ENDBRANCH   6   7
ENDBRANCH   5   6
ENDBRANCH   4   5
ENDBRANCH   3   4
ENDBRANCH   2   3
ENDBRANCH   1   2
BRANCH   1  11
ATOM     11  C   UNL     1     -10.766  19.688 -15.757  1.00  0.00    -0.031 C 
ATOM     12  C   UNL     1     -11.146  19.689 -14.464  1.00  0.00    -0.027 C 
BRANCH  12  13
ATOM     13  C   UNL     1     -12.287  18.881 -13.896  1.00  0.00     0.054 C 
BRANCH  13  14
ATOM     14  C   UNL     1     -13.086  19.657 -12.880  1.00  0.00    -0.027 C 
ATOM     15  C   UNL     1     -13.230  19.312 -11.588  1.00  0.00    -0.031 C 
BRANCH  15  16
ATOM     16  C   UNL     1     -12.648  18.073 -10.951  1.00  0.00     0.027 C 
BRANCH  16  17
ATOM     17  C   UNL     1     -12.644  18.180  -9.420  1.00  0.00     0.004 C 
BRANCH  17  18
ATOM     18  C   UNL     1     -13.617  19.258  -8.915  1.00  0.00     0.000 C 
BRANCH  18  19
ATOM     19  C   UNL     1     -13.066  20.027  -7.704  1.00  0.00    -0.003 C 
ATOM     20  C   UNL     1     -12.067  21.117  -8.097  1.00  0.00     0.004 C 
ENDBRANCH  18  19
ENDBRANCH  17  18
ENDBRANCH  16  17
ENDBRANCH  15  16
ENDBRANCH  13  14
ENDBRANCH  12  13
ENDBRANCH   1  11
TORSDOF 14
ENDMDL
MODEL 5
REMARK VINA RESULT:    12.278      4.990     10.745
REMARK INTER + INTRA:          21.826
REMARK INTER:                  22.468
REMARK INTRA:                  -0.642
REMARK UNBOUND:                -0.501
REMARK SMILES CCCCCC=CCC=CCCCCCCCC(=O)[O-]
REMARK SMILES IDX 11 1 12 2 13 3 14 4 15 5 16 6 17 7 18 8 19 9 20 10 10 11
REMARK SMILES IDX 9 12 8 13 7 14 6 15 5 16 4 17 3 18 2 19 1 20
REMARK H PARENT
REMARK Flexibility Score: inf
ROOT
ATOM      1  C   UNL     1     -12.746  19.785 -13.421  1.00  0.00     0.027 C 
ENDROOT
BRANCH   1   2
ATOM      2  C   UNL     1     -12.352  19.449 -11.974  1.00  0.00     0.004 C 
BRANCH   2   3
ATOM      3  C   UNL     1     -13.371  18.525 -11.293  1.00  0.00     0.000 C 
BRANCH   3   4
ATOM      4  C   UNL     1     -12.667  17.514 -10.378  1.00  0.00     0.000 C 
BRANCH   4   5
ATOM      5  C   UNL     1     -12.670  17.997  -8.919  1.00  0.00     0.000 C 
BRANCH   5   6
ATOM      6  C   UNL     1     -13.365  19.357  -8.750  1.00  0.00     0.006 C 
BRANCH   6   7
ATOM      7  C   UNL     1     -13.246  19.909  -7.323  1.00  0.00     0.053 C 
BRANCH   7   8
ATOM      8  C   UNL     1     -12.300  21.069  -7.277  1.00  0.00     0.041 C 
ATOM      9  O   UNL     1     -12.148  21.719  -6.209  1.00  0.00    -0.550 OA
ATOM     10  O   UNL     1     -11.570  21.421  -8.410  1.00  0.00    -0.550 OA
ENDBRANCH   7   8
ENDBRANCH   6   7
ENDBRANCH   5   6
ENDBRANCH   4   5
ENDBRANCH   3   4
ENDBRANCH   2   3
ENDBRANCH   1   2
BRANCH   1  11
ATOM     11  C   UNL     1     -12.018  18.911 -14.414  1.00  0.00    -0.031 C 
ATOM     12  C   UNL     1     -12.587  18.307 -15.475  1.00  0.00    -0.027 C 
BRANCH  12  13
ATOM     13  C   UNL     1     -14.032  18.459 -15.887  1.00  0.00     0.054 C 
BRANCH  13  14
ATOM     14  C   UNL     1     -14.418  17.496 -16.981  1.00  0.00    -0.027 C 
ATOM     15  C   UNL     1     -14.588  17.829 -18.273  1.00  0.00    -0.031 C 
BRANCH  15  16
ATOM     16  C   UNL     1     -14.457  19.224 -18.834  1.00  0.00     0.027 C 
BRANCH  16  17
ATOM     17  C   UNL     1     -14.505  19.218 -20.368  1.00  0.00     0.004 C 
BRANCH  17  18
ATOM     18  C   UNL     1     -13.633  20.330 -20.976  1.00  0.00     0.000 C 
BRANCH  18  19
ATOM     19  C   UNL     1     -13.598  20.276 -22.511  1.00  0.00    -0.003 C 
ATOM     20  C   UNL     1     -12.564  21.228 -23.115  1.00  0.00     0.004 C 
ENDBRANCH  18  19
ENDBRANCH  17  18
ENDBRANCH  16  17
ENDBRANCH  15  16
ENDBRANCH  13  14
ENDBRANCH  12  13
ENDBRANCH   1  11
TORSDOF 14
ENDMDL
MODEL 6
REMARK VINA RESULT:    12.321      1.562      1.977
REMARK INTER + INTRA:          21.905
REMARK INTER:                  22.318
REMARK INTRA:                  -0.413
REMARK UNBOUND:                -0.501
REMARK SMILES CCCCCC=CCC=CCCCCCCCC(=O)[O-]
REMARK SMILES IDX 11 1 12 2 13 3 14 4 15 5 16 6 17 7 18 8 19 9 20 10 10 11
REMARK SMILES IDX 9 12 8 13 7 14 6 15 5 16 4 17 3 18 2 19 1 20
REMARK H PARENT
REMARK Flexibility Score: inf
ROOT
ATOM      1  C   UNL     1     -11.307  19.309 -14.426  1.00  0.00     0.027 C 
ENDROOT
BRANCH   1   2
ATOM      2  C   UNL     1     -10.966  19.066 -15.904  1.00  0.00     0.004 C 
BRANCH   2   3
ATOM      3  C   UNL     1     -10.622  20.366 -16.644  1.00  0.00     0.000 C 
BRANCH   3   4
ATOM      4  C   UNL     1     -10.601  20.144 -18.162  1.00  0.00     0.000 C 
BRANCH   4   5
ATOM      5  C   UNL     1     -11.927  19.539 -18.648  1.00  0.00     0.000 C 
BRANCH   5   6
ATOM      6  C   UNL     1     -12.028  19.494 -20.181  1.00  0.00     0.006 C 
BRANCH   6   7
ATOM      7  C   UNL     1     -13.479  19.455 -20.678  1.00  0.00     0.053 C 
BRANCH   7   8
ATOM      8  C   UNL     1     -13.743  20.574 -21.638  1.00  0.00     0.041 C 
ATOM      9  O   UNL     1     -12.999  20.735 -22.642  1.00  0.00    -0.550 OA
ATOM     10  O   UNL     1     -14.824  21.429 -21.436  1.00  0.00    -0.550 OA
ENDBRANCH   7   8
ENDBRANCH   6   7
ENDBRANCH   5   6
ENDBRANCH   4   5
ENDBRANCH   3   4
ENDBRANCH   2   3
ENDBRANCH   1   2
BRANCH   1  11
ATOM     11  C   UNL     1     -12.786  19.535 -14.225  1.00  0.00    -0.031 C 
ATOM     12  C   UNL     1     -13.426  19.458 -13.042  1.00  0.00    -0.027 C 
BRANCH  12  13
ATOM     13  C   UNL     1     -12.760  19.200 -11.712  1.00  0.00     0.054 C 
BRANCH  13  14
ATOM     14  C   UNL     1     -12.951  17.779 -11.244  1.00  0.00    -0.027 C 
ATOM     15  C   UNL     1     -12.774  17.357  -9.979  1.00  0.00    -0.031 C 
BRANCH  15  16
ATOM     16  C   UNL     1     -12.320  18.223  -8.829  1.00  0.00     0.027 C 
BRANCH  16  17
ATOM     17  C   UNL     1     -13.234  19.443  -8.652  1.00  0.00     0.004 C 
BRANCH  17  18
ATOM     18  C   UNL     1     -13.269  19.929  -7.193  1.00  0.00     0.000 C 
BRANCH  18  19
ATOM     19  C   UNL     1     -12.299  21.093  -6.938  1.00  0.00    -0.003 C 
ATOM     20  C   UNL     1     -11.702  21.662  -8.227  1.00  0.00     0.004 C 
ENDBRANCH  18  19
ENDBRANCH  17  18
ENDBRANCH  16  17
ENDBRANCH  15  16
ENDBRANCH  13  14
ENDBRANCH  12  13
ENDBRANCH   1  11
TORSDOF 14
ENDMDL
