MODEL 1
REMARK VINA RESULT:    -3.303      0.000      0.000
REMARK INTER + INTRA:          -3.719
REMARK INTER:                  -3.593
REMARK INTRA:                  -0.126
REMARK UNBOUND:                -0.126
REMARK SMILES Cc1ccc(C(C)C)cc1O
REMARK SMILES IDX 1 1 2 2 10 3 9 4 5 5 4 6 3 7 11 8 6 10 7 11 8 12
REMARK H PARENT 11 9
REMARK Flexibility Score: inf
ROOT
ATOM      1  C   UNL     1     113.920 119.101 107.722  1.00  0.00     0.048 C 
ATOM      2  C   UNL     1     113.411 120.430 108.206  1.00  0.00    -0.009 A 
ATOM      3  C   UNL     1     113.331 120.699 109.583  1.00  0.00     0.118 A 
ATOM      4  C   UNL     1     112.856 121.941 110.028  1.00  0.00     0.050 A 
ATOM      5  C   UNL     1     112.455 122.927 109.110  1.00  0.00    -0.042 A 
ATOM      6  C   UNL     1     112.539 122.648 107.734  1.00  0.00     0.004 A 
ATOM      7  C   UNL     1     113.012 121.413 107.287  1.00  0.00     0.007 A 
ENDROOT
BRANCH   3   8
ATOM      8  O   UNL     1     113.725 119.731 110.508  1.00  0.00    -0.508 OA
ATOM      9  H   UNL     1     113.049 119.152 110.991  1.00  0.00     0.293 HD
ENDBRANCH   3   8
BRANCH   5  10
ATOM     10  C   UNL     1     111.944 124.266 109.608  1.00  0.00     0.013 C 
ATOM     11  C   UNL     1     112.414 125.409 108.702  1.00  0.00     0.012 C 
ATOM     12  C   UNL     1     110.415 124.259 109.741  1.00  0.00     0.012 C 
ENDBRANCH   5  10
TORSDOF 2
ENDMDL
MODEL 2
REMARK VINA RESULT:    -3.295      8.524     10.186
REMARK INTER + INTRA:          -3.710
REMARK INTER:                  -3.584
REMARK INTRA:                  -0.126
REMARK UNBOUND:                -0.126
REMARK SMILES Cc1ccc(C(C)C)cc1O
REMARK SMILES IDX 1 1 2 2 10 3 9 4 5 5 4 6 3 7 11 8 6 10 7 11 8 12
REMARK H PARENT 11 9
REMARK Flexibility Score: inf
ROOT
ATOM      1  C   UNL     1     119.075 118.105 107.659  1.00  0.00     0.048 C 
ATOM      2  C   UNL     1     120.399 118.605 108.166  1.00  0.00    -0.009 A 
ATOM      3  C   UNL     1     120.652 118.665 109.547  1.00  0.00     0.118 A 
ATOM      4  C   UNL     1     121.889 119.133 110.013  1.00  0.00     0.050 A 
ATOM      5  C   UNL     1     122.886 119.545 109.112  1.00  0.00    -0.042 A 
ATOM      6  C   UNL     1     122.623 119.482 107.732  1.00  0.00     0.004 A 
ATOM      7  C   UNL     1     121.392 119.017 107.264  1.00  0.00     0.007 A 
ENDROOT
BRANCH   3   8
ATOM      8  O   UNL     1     119.673 118.259 110.455  1.00  0.00    -0.508 OA
ATOM      9  H   UNL     1     119.075 118.927 110.926  1.00  0.00     0.293 HD
ENDBRANCH   3   8
BRANCH   5  10
ATOM     10  C   UNL     1     124.219 120.048 109.633  1.00  0.00     0.013 C 
ATOM     11  C   UNL     1     125.377 119.553 108.759  1.00  0.00     0.012 C 
ATOM     12  C   UNL     1     124.227 121.578 109.746  1.00  0.00     0.012 C 
ENDBRANCH   5  10
TORSDOF 2
ENDMDL
MODEL 3
REMARK VINA RESULT:    -3.293     10.991     14.454
REMARK INTER + INTRA:          -3.708
REMARK INTER:                  -3.582
REMARK INTRA:                  -0.126
REMARK UNBOUND:                -0.126
REMARK SMILES Cc1ccc(C(C)C)cc1O
REMARK SMILES IDX 1 1 2 2 10 3 9 4 5 5 4 6 3 7 11 8 6 10 7 11 8 12
REMARK H PARENT 11 9
REMARK Flexibility Score: inf
ROOT
ATOM      1  C   UNL     1     118.067 112.861 107.658  1.00  0.00     0.048 C 
ATOM      2  C   UNL     1     118.589 111.549 108.176  1.00  0.00    -0.009 A 
ATOM      3  C   UNL     1     118.666 111.313 109.558  1.00  0.00     0.118 A 
ATOM      4  C   UNL     1     119.154 110.087 110.034  1.00  0.00     0.050 A 
ATOM      5  C   UNL     1     119.569 109.085 109.141  1.00  0.00    -0.042 A 
ATOM      6  C   UNL     1     119.489 109.331 107.758  1.00  0.00     0.004 A 
ATOM      7  C   UNL     1     119.003 110.550 107.281  1.00  0.00     0.007 A 
ENDROOT
BRANCH   3   8
ATOM      8  O   UNL     1     118.257 112.297 110.459  1.00  0.00    -0.508 OA
ATOM      9  H   UNL     1     118.917 112.942 110.877  1.00  0.00     0.293 HD
ENDBRANCH   3   8
BRANCH   5  10
ATOM     10  C   UNL     1     120.094 107.764 109.671  1.00  0.00     0.013 C 
ATOM     11  C   UNL     1     119.615 106.591 108.808  1.00  0.00     0.012 C 
ATOM     12  C   UNL     1     121.624 107.781 109.781  1.00  0.00     0.012 C 
ENDBRANCH   5  10
TORSDOF 2
ENDMDL
MODEL 4
REMARK VINA RESULT:    -3.291      8.527     10.280
REMARK INTER + INTRA:          -3.706
REMARK INTER:                  -3.580
REMARK INTRA:                  -0.126
REMARK UNBOUND:                -0.126
REMARK SMILES Cc1ccc(C(C)C)cc1O
REMARK SMILES IDX 1 1 2 2 10 3 9 4 5 5 4 6 3 7 11 8 6 10 7 11 8 12
REMARK H PARENT 11 9
REMARK Flexibility Score: inf
ROOT
ATOM      1  C   UNL     1     112.811 113.962 107.644  1.00  0.00     0.048 C 
ATOM      2  C   UNL     1     111.511 113.416 108.165  1.00  0.00    -0.009 A 
ATOM      3  C   UNL     1     111.281 113.332 109.548  1.00  0.00     0.118 A 
ATOM      4  C   UNL     1     110.067 112.821 110.027  1.00  0.00     0.050 A 
ATOM      5  C   UNL     1     109.069 112.389 109.136  1.00  0.00    -0.042 A 
ATOM      6  C   UNL     1     109.308 112.477 107.753  1.00  0.00     0.004 A 
ATOM      7  C   UNL     1     110.517 112.986 107.272  1.00  0.00     0.007 A 
ENDROOT
BRANCH   3   8
ATOM      8  O   UNL     1     112.261 113.756 110.446  1.00  0.00    -0.508 OA
ATOM      9  H   UNL     1     112.486 114.737 110.563  1.00  0.00     0.293 HD
ENDBRANCH   3   8
BRANCH   5  10
ATOM     10  C   UNL     1     107.759 111.839 109.670  1.00  0.00     0.013 C 
ATOM     11  C   UNL     1     106.589 112.204 108.750  1.00  0.00     0.012 C 
ATOM     12  C   UNL     1     107.843 110.322 109.882  1.00  0.00     0.012 C 
ENDBRANCH   5  10
TORSDOF 2
ENDMDL
MODEL 5
REMARK VINA RESULT:    -2.958      9.455     11.108
REMARK INTER + INTRA:          -3.343
REMARK INTER:                  -3.240
REMARK INTRA:                  -0.103
REMARK UNBOUND:                -0.126
REMARK SMILES Cc1ccc(C(C)C)cc1O
REMARK SMILES IDX 1 1 2 2 10 3 9 4 5 5 4 6 3 7 11 8 6 10 7 11 8 12
REMARK H PARENT 11 9
REMARK Flexibility Score: inf
ROOT
ATOM      1  C   UNL     1     125.412 122.260 108.289  1.00  0.00     0.048 C 
ATOM      2  C   UNL     1     124.344 121.206 108.374  1.00  0.00    -0.009 A 
ATOM      3  C   UNL     1     123.857 120.790 109.624  1.00  0.00     0.118 A 
ATOM      4  C   UNL     1     122.861 119.805 109.696  1.00  0.00     0.050 A 
ATOM      5  C   UNL     1     122.340 119.225 108.527  1.00  0.00    -0.042 A 
ATOM      6  C   UNL     1     122.834 119.648 107.280  1.00  0.00     0.004 A 
ATOM      7  C   UNL     1     123.825 120.629 107.204  1.00  0.00     0.007 A 
ENDROOT
BRANCH   3   8
ATOM      8  O   UNL     1     124.364 121.356 110.795  1.00  0.00    -0.508 OA
ATOM      9  H   UNL     1     125.275 121.797 110.820  1.00  0.00     0.293 HD
ENDBRANCH   3   8
BRANCH   5  10
ATOM     10  C   UNL     1     121.262 118.162 108.622  1.00  0.00     0.013 C 
ATOM     11  C   UNL     1     121.872 116.775 108.856  1.00  0.00     0.012 C 
ATOM     12  C   UNL     1     120.240 118.506 109.713  1.00  0.00     0.012 C 
ENDBRANCH   5  10
TORSDOF 2
ENDMDL
MODEL 6
REMARK VINA RESULT:    -2.953      8.905     10.882
REMARK INTER + INTRA:          -3.337
REMARK INTER:                  -3.234
REMARK INTRA:                  -0.103
REMARK UNBOUND:                -0.126
REMARK SMILES Cc1ccc(C(C)C)cc1O
REMARK SMILES IDX 1 1 2 2 10 3 9 4 5 5 4 6 3 7 11 8 6 10 7 11 8 12
REMARK H PARENT 11 9
REMARK Flexibility Score: inf
ROOT
ATOM      1  C   UNL     1     106.570 109.759 108.256  1.00  0.00     0.048 C 
ATOM      2  C   UNL     1     107.641 110.810 108.343  1.00  0.00    -0.009 A 
ATOM      3  C   UNL     1     108.139 111.213 109.594  1.00  0.00     0.118 A 
ATOM      4  C   UNL     1     109.137 112.195 109.668  1.00  0.00     0.050 A 
ATOM      5  C   UNL     1     109.650 112.786 108.500  1.00  0.00    -0.042 A 
ATOM      6  C   UNL     1     109.145 112.376 107.253  1.00  0.00     0.004 A 
ATOM      7  C   UNL     1     108.151 111.399 107.175  1.00  0.00     0.007 A 
ENDROOT
BRANCH   3   8
ATOM      8  O   UNL     1     107.640 110.636 110.762  1.00  0.00    -0.508 OA
ATOM      9  H   UNL     1     108.163 110.656 111.630  1.00  0.00     0.293 HD
ENDBRANCH   3   8
BRANCH   5  10
ATOM     10  C   UNL     1     110.731 113.847 108.598  1.00  0.00     0.013 C 
ATOM     11  C   UNL     1     110.123 115.237 108.811  1.00  0.00     0.012 C 
ATOM     12  C   UNL     1     111.739 113.509 109.703  1.00  0.00     0.012 C 
ENDBRANCH   5  10
TORSDOF 2
ENDMDL
MODEL 7
REMARK VINA RESULT:    -2.937      2.122      4.244
REMARK INTER + INTRA:          -3.320
REMARK INTER:                  -3.216
REMARK INTRA:                  -0.104
REMARK UNBOUND:                -0.126
REMARK SMILES Cc1ccc(C(C)C)cc1O
REMARK SMILES IDX 1 1 2 2 10 3 9 4 5 5 4 6 3 7 11 8 6 10 7 11 8 12
REMARK H PARENT 11 9
REMARK Flexibility Score: inf
ROOT
ATOM      1  C   UNL     1     109.768 125.540 108.305  1.00  0.00     0.048 C 
ATOM      2  C   UNL     1     110.797 124.448 108.391  1.00  0.00    -0.009 A 
ATOM      3  C   UNL     1     111.096 123.851 109.627  1.00  0.00     0.118 A 
ATOM      4  C   UNL     1     112.058 122.834 109.700  1.00  0.00     0.050 A 
ATOM      5  C   UNL     1     112.731 122.399 108.545  1.00  0.00    -0.042 A 
ATOM      6  C   UNL     1     112.425 123.003 107.312  1.00  0.00     0.004 A 
ATOM      7  C   UNL     1     111.468 124.016 107.236  1.00  0.00     0.007 A 
ENDROOT
BRANCH   3   8
ATOM      8  O   UNL     1     110.437 124.271 110.783  1.00  0.00    -0.508 OA
ATOM      9  H   UNL     1     110.917 124.348 111.671  1.00  0.00     0.293 HD
ENDBRANCH   3   8
BRANCH   5  10
ATOM     10  C   UNL     1     113.769 121.296 108.641  1.00  0.00     0.013 C 
ATOM     11  C   UNL     1     115.167 121.872 108.888  1.00  0.00     0.012 C 
ATOM     12  C   UNL     1     113.392 120.275 109.723  1.00  0.00     0.012 C 
ENDBRANCH   5  10
TORSDOF 2
ENDMDL
MODEL 8
REMARK VINA RESULT:    -2.822      7.012      8.653
REMARK INTER + INTRA:          -3.195
REMARK INTER:                  -3.069
REMARK INTRA:                  -0.126
REMARK UNBOUND:                -0.126
REMARK SMILES Cc1ccc(C(C)C)cc1O
REMARK SMILES IDX 1 1 2 2 10 3 9 4 5 5 4 6 3 7 11 8 6 10 7 11 8 12
REMARK H PARENT 11 9
REMARK Flexibility Score: inf
ROOT
ATOM      1  C   UNL     1     108.213 111.217 109.326  1.00  0.00     0.048 C 
ATOM      2  C   UNL     1     108.684 112.600 108.972  1.00  0.00    -0.009 A 
ATOM      3  C   UNL     1     109.858 113.117 109.544  1.00  0.00     0.118 A 
ATOM      4  C   UNL     1     110.292 114.408 109.210  1.00  0.00     0.050 A 
ATOM      5  C   UNL     1     109.563 115.196 108.303  1.00  0.00    -0.042 A 
ATOM      6  C   UNL     1     108.389 114.670 107.735  1.00  0.00     0.004 A 
ATOM      7  C   UNL     1     107.954 113.385 108.066  1.00  0.00     0.007 A 
ENDROOT
BRANCH   3   8
ATOM      8  O   UNL     1     110.594 112.347 110.446  1.00  0.00    -0.508 OA
ATOM      9  H   UNL     1     110.141 111.751 111.129  1.00  0.00     0.293 HD
ENDBRANCH   3   8
BRANCH   5  10
ATOM     10  C   UNL     1     110.047 116.591 107.951  1.00  0.00     0.013 C 
ATOM     11  C   UNL     1     111.426 116.546 107.283  1.00  0.00     0.012 C 
ATOM     12  C   UNL     1     109.028 117.322 107.067  1.00  0.00     0.012 C 
ENDBRANCH   5  10
TORSDOF 2
ENDMDL
MODEL 9
REMARK VINA RESULT:    -2.790     11.646     13.877
REMARK INTER + INTRA:          -3.161
REMARK INTER:                  -3.035
REMARK INTRA:                  -0.126
REMARK UNBOUND:                -0.126
REMARK SMILES Cc1ccc(C(C)C)cc1O
REMARK SMILES IDX 1 1 2 2 10 3 9 4 5 5 4 6 3 7 11 8 6 10 7 11 8 12
REMARK H PARENT 11 9
REMARK Flexibility Score: inf
ROOT
ATOM      1  C   UNL     1     120.804 108.137 109.252  1.00  0.00     0.048 C 
ATOM      2  C   UNL     1     119.412 108.595 108.914  1.00  0.00    -0.009 A 
ATOM      3  C   UNL     1     118.887 109.760 109.500  1.00  0.00     0.118 A 
ATOM      4  C   UNL     1     117.589 110.181 109.181  1.00  0.00     0.050 A 
ATOM      5  C   UNL     1     116.799 109.449 108.277  1.00  0.00    -0.042 A 
ATOM      6  C   UNL     1     117.333 108.285 107.696  1.00  0.00     0.004 A 
ATOM      7  C   UNL     1     118.626 107.863 108.011  1.00  0.00     0.007 A 
ENDROOT
BRANCH   3   8
ATOM      8  O   UNL     1     119.658 110.497 110.399  1.00  0.00    -0.508 OA
ATOM      9  H   UNL     1     119.245 111.196 111.005  1.00  0.00     0.293 HD
ENDBRANCH   3   8
BRANCH   5  10
ATOM     10  C   UNL     1     115.396 109.919 107.942  1.00  0.00     0.013 C 
ATOM     11  C   UNL     1     115.422 111.276 107.228  1.00  0.00     0.012 C 
ATOM     12  C   UNL     1     114.646 108.871 107.109  1.00  0.00     0.012 C 
ENDBRANCH   5  10
TORSDOF 2
ENDMDL
