MODEL 1
REMARK VINA RESULT:   110.933      0.000      0.000
REMARK INTER + INTRA:         261.472
REMARK INTER:                 263.334
REMARK INTRA:                  -1.862
REMARK UNBOUND:                -1.862
REMARK SMILES O=C(OC[C@@H]1O[C@@H](OC(=O)c2cc(O)c(O)c(O)c2)[C@@H](OC(=O)c2cc(O)c(O)c(O)c2)[C@H](OC(=O)c2cc(O)c(O)c(O)c2)[C@@H]1OC(=O)c1cc(O)c(O)c(O)c1)c1cc(O)c(O)c(O)c1
REMARK SMILES IDX 5 1 46 2 33 3 20 4 7 5 6 6 4 7 3 8 2 9 1 10 59 11 60 12
REMARK SMILES IDX 61 13 67 14 63 15 65 16 62 17 64 19 66 21 47 23 48 24 49 25
REMARK SMILES IDX 50 26 58 27 51 28 56 29 52 30 54 31 57 32 53 34 55 36 34 38
REMARK SMILES IDX 35 39 36 40 37 41 45 42 38 43 43 44 39 45 41 46 44 47 40 49
REMARK SMILES IDX 42 51 8 53 9 54 10 55 11 56 19 57 12 58 17 59 13 60 15 61
REMARK SMILES IDX 18 62 14 64 16 66 21 68 22 69 23 70 24 71 32 72 25 73 30 74
REMARK SMILES IDX 26 75 28 76 31 77 27 79 29 81
REMARK H PARENT 62 18 64 20 66 22 57 33 53 35 55 37 44 48 40 50 42 52 18 63
REMARK H PARENT 14 65 16 67 31 78 27 80 29 82
REMARK Flexibility Score: inf
ROOT
ATOM      1  C   UNL     1     -36.358  29.520 -17.236  1.00  0.00     0.205 C 
ATOM      2  C   UNL     1     -37.385  29.759 -18.365  1.00  0.00     0.254 C 
ATOM      3  C   UNL     1     -38.807  29.532 -17.811  1.00  0.00     0.267 C 
ATOM      4  C   UNL     1     -38.893  28.157 -17.123  1.00  0.00     0.290 C 
ATOM      5  C   UNL     1     -37.744  27.998 -16.111  1.00  0.00     0.357 C 
ATOM      6  O   UNL     1     -36.481  28.202 -16.724  1.00  0.00    -0.329 OA
ENDROOT
BRANCH   1   7
ATOM      7  C   UNL     1     -34.921  29.734 -17.742  1.00  0.00     0.269 C 
BRANCH   7   8
ATOM      8  O   UNL     1     -33.976  29.422 -16.719  1.00  0.00    -0.459 OA
BRANCH   8   9
ATOM      9  C   UNL     1     -32.591  29.387 -16.915  1.00  0.00     0.338 C 
ATOM     10  O   UNL     1     -32.038  30.214 -17.689  1.00  0.00    -0.246 OA
BRANCH   9  11
ATOM     11  C   UNL     1     -31.774  28.395 -16.181  1.00  0.00     0.067 A 
ATOM     12  C   UNL     1     -30.996  27.465 -16.883  1.00  0.00     0.066 A 
ATOM     13  C   UNL     1     -30.233  26.514 -16.203  1.00  0.00     0.162 A 
ATOM     14  C   UNL     1     -31.772  28.366 -14.779  1.00  0.00     0.066 A 
ATOM     15  C   UNL     1     -30.240  26.477 -14.797  1.00  0.00     0.200 A 
ATOM     16  C   UNL     1     -31.014  27.422 -14.078  1.00  0.00     0.162 A 
BRANCH  13  17
ATOM     17  O   UNL     1     -29.486  25.595 -16.943  1.00  0.00    -0.504 OA
ATOM     18  H   UNL     1     -29.918  24.866 -17.498  1.00  0.00     0.293 HD
ENDBRANCH  13  17
BRANCH  15  19
ATOM     19  O   UNL     1     -29.480  25.495 -14.154  1.00  0.00    -0.502 OA
ATOM     20  H   UNL     1     -28.953  25.651 -13.309  1.00  0.00     0.293 HD
ENDBRANCH  15  19
BRANCH  16  21
ATOM     21  O   UNL     1     -31.052  27.464 -12.682  1.00  0.00    -0.504 OA
ATOM     22  H   UNL     1     -30.911  28.297 -12.134  1.00  0.00     0.293 HD
ENDBRANCH  16  21
ENDBRANCH   9  11
ENDBRANCH   8   9
ENDBRANCH   7   8
ENDBRANCH   1   7
BRANCH   2  23
ATOM     23  O   UNL     1     -37.133  28.851 -19.437  1.00  0.00    -0.452 OA
BRANCH  23  24
ATOM     24  C   UNL     1     -37.722  28.953 -20.705  1.00  0.00     0.338 C 
ATOM     25  O   UNL     1     -37.774  30.067 -21.295  1.00  0.00    -0.246 OA
BRANCH  24  26
ATOM     26  C   UNL     1     -38.279  27.746 -21.348  1.00  0.00     0.067 A 
ATOM     27  C   UNL     1     -37.681  26.488 -21.153  1.00  0.00     0.066 A 
ATOM     28  C   UNL     1     -39.421  27.842 -22.157  1.00  0.00     0.066 A 
ATOM     29  C   UNL     1     -38.215  25.345 -21.755  1.00  0.00     0.162 A 
ATOM     30  C   UNL     1     -39.958  26.706 -22.768  1.00  0.00     0.162 A 
ATOM     31  C   UNL     1     -39.355  25.451 -22.571  1.00  0.00     0.200 A 
BRANCH  29  32
ATOM     32  O   UNL     1     -37.612  24.109 -21.515  1.00  0.00    -0.504 OA
ATOM     33  H   UNL     1     -38.119  23.339 -21.096  1.00  0.00     0.293 HD
ENDBRANCH  29  32
BRANCH  30  34
ATOM     34  O   UNL     1     -41.088  26.817 -23.580  1.00  0.00    -0.504 OA
ATOM     35  H   UNL     1     -41.140  27.513 -24.317  1.00  0.00     0.293 HD
ENDBRANCH  30  34
BRANCH  31  36
ATOM     36  O   UNL     1     -39.882  24.306 -23.170  1.00  0.00    -0.502 OA
ATOM     37  H   UNL     1     -40.778  24.309 -23.648  1.00  0.00     0.293 HD
ENDBRANCH  31  36
ENDBRANCH  24  26
ENDBRANCH  23  24
ENDBRANCH   2  23
BRANCH   3  38
ATOM     38  O   UNL     1     -39.774  29.589 -18.859  1.00  0.00    -0.450 OA
BRANCH  38  39
ATOM     39  C   UNL     1     -40.124  30.753 -19.552  1.00  0.00     0.338 C 
ATOM     40  O   UNL     1     -39.492  31.825 -19.348  1.00  0.00    -0.246 OA
BRANCH  39  41
ATOM     41  C   UNL     1     -41.247  30.718 -20.518  1.00  0.00     0.067 A 
ATOM     42  C   UNL     1     -41.113  30.087 -21.767  1.00  0.00     0.066 A 
ATOM     43  C   UNL     1     -42.467  31.330 -20.194  1.00  0.00     0.066 A 
ATOM     44  C   UNL     1     -42.168  30.096 -22.691  1.00  0.00     0.162 A 
ATOM     45  C   UNL     1     -43.524  31.346 -21.108  1.00  0.00     0.162 A 
ATOM     46  C   UNL     1     -43.377  30.734 -22.363  1.00  0.00     0.200 A 
BRANCH  44  47
ATOM     47  O   UNL     1     -42.021  29.475 -23.935  1.00  0.00    -0.504 OA
ATOM     48  H   UNL     1     -42.442  28.574 -24.137  1.00  0.00     0.293 HD
ENDBRANCH  44  47
BRANCH  45  49
ATOM     49  O   UNL     1     -44.719  31.972 -20.752  1.00  0.00    -0.504 OA
ATOM     50  H   UNL     1     -45.590  31.777 -21.229  1.00  0.00     0.293 HD
ENDBRANCH  45  49
BRANCH  46  51
ATOM     51  O   UNL     1     -44.437  30.763 -23.270  1.00  0.00    -0.502 OA
ATOM     52  H   UNL     1     -44.384  31.254 -24.155  1.00  0.00     0.293 HD
ENDBRANCH  46  51
ENDBRANCH  39  41
ENDBRANCH  38  39
ENDBRANCH   3  38
BRANCH   5  53
ATOM     53  O   UNL     1     -37.916  28.884 -15.002  1.00  0.00    -0.428 OA
BRANCH  53  54
ATOM     54  C   UNL     1     -38.699  28.575 -13.883  1.00  0.00     0.340 C 
ATOM     55  O   UNL     1     -39.219  29.499 -13.199  1.00  0.00    -0.246 OA
BRANCH  54  56
ATOM     56  C   UNL     1     -38.886  27.159 -13.493  1.00  0.00     0.067 A 
ATOM     57  C   UNL     1     -39.599  26.838 -12.326  1.00  0.00     0.066 A 
ATOM     58  C   UNL     1     -38.367  26.125 -14.288  1.00  0.00     0.066 A 
ATOM     59  C   UNL     1     -39.784  25.500 -11.951  1.00  0.00     0.162 A 
ATOM     60  C   UNL     1     -38.554  24.785 -13.922  1.00  0.00     0.162 A 
ATOM     61  C   UNL     1     -39.257  24.469 -12.748  1.00  0.00     0.200 A 
BRANCH  59  62
ATOM     62  O   UNL     1     -40.487  25.189 -10.790  1.00  0.00    -0.504 OA
ATOM     63  H   UNL     1     -41.499  25.136 -10.779  1.00  0.00     0.293 HD
ENDBRANCH  59  62
BRANCH  60  64
ATOM     64  O   UNL     1     -38.026  23.775 -14.725  1.00  0.00    -0.504 OA
ATOM     65  H   UNL     1     -38.602  23.026 -15.093  1.00  0.00     0.293 HD
ENDBRANCH  60  64
BRANCH  61  66
ATOM     66  O   UNL     1     -39.425  23.129 -12.390  1.00  0.00    -0.502 OA
ATOM     67  H   UNL     1     -38.665  22.454 -12.462  1.00  0.00     0.293 HD
ENDBRANCH  61  66
ENDBRANCH  54  56
ENDBRANCH  53  54
ENDBRANCH   5  53
BRANCH   4  68
ATOM     68  O   UNL     1     -40.146  28.020 -16.445  1.00  0.00    -0.448 OA
BRANCH  68  69
ATOM     69  C   UNL     1     -41.235  27.307 -16.967  1.00  0.00     0.339 C 
ATOM     70  O   UNL     1     -41.888  27.773 -17.939  1.00  0.00    -0.246 OA
BRANCH  69  71
ATOM     71  C   UNL     1     -41.595  25.988 -16.404  1.00  0.00     0.067 A 
ATOM     72  C   UNL     1     -41.898  25.853 -15.037  1.00  0.00     0.066 A 
ATOM     73  C   UNL     1     -41.644  24.853 -17.229  1.00  0.00     0.066 A 
ATOM     74  C   UNL     1     -42.276  24.609 -14.511  1.00  0.00     0.162 A 
ATOM     75  C   UNL     1     -42.004  23.601 -16.713  1.00  0.00     0.162 A 
ATOM     76  C   UNL     1     -42.343  23.482 -15.342  1.00  0.00     0.200 A 
BRANCH  74  77
ATOM     77  O   UNL     1     -42.601  24.485 -13.160  1.00  0.00    -0.504 OA
ATOM     78  H   UNL     1     -42.327  23.675 -12.625  1.00  0.00     0.293 HD
ENDBRANCH  74  77
BRANCH  75  79
ATOM     79  O   UNL     1     -42.000  22.514 -17.592  1.00  0.00    -0.504 OA
ATOM     80  H   UNL     1     -42.818  21.975 -17.828  1.00  0.00     0.293 HD
ENDBRANCH  75  79
BRANCH  76  81
ATOM     81  O   UNL     1     -42.757  22.272 -14.780  1.00  0.00    -0.502 OA
ATOM     82  H   UNL     1     -42.199  21.741 -14.134  1.00  0.00     0.293 HD
ENDBRANCH  76  81
ENDBRANCH  69  71
ENDBRANCH  68  69
ENDBRANCH   4  68
TORSDOF 31
ENDMDL
MODEL 2
REMARK VINA RESULT:   111.346      0.108      1.783
REMARK INTER + INTRA:         262.452
REMARK INTER:                 264.273
REMARK INTRA:                  -1.821
REMARK UNBOUND:                -1.862
REMARK SMILES O=C(OC[C@@H]1O[C@@H](OC(=O)c2cc(O)c(O)c(O)c2)[C@@H](OC(=O)c2cc(O)c(O)c(O)c2)[C@H](OC(=O)c2cc(O)c(O)c(O)c2)[C@@H]1OC(=O)c1cc(O)c(O)c(O)c1)c1cc(O)c(O)c(O)c1
REMARK SMILES IDX 5 1 46 2 33 3 20 4 7 5 6 6 4 7 3 8 2 9 1 10 59 11 60 12
REMARK SMILES IDX 61 13 67 14 63 15 65 16 62 17 64 19 66 21 47 23 48 24 49 25
REMARK SMILES IDX 50 26 58 27 51 28 56 29 52 30 54 31 57 32 53 34 55 36 34 38
REMARK SMILES IDX 35 39 36 40 37 41 45 42 38 43 43 44 39 45 41 46 44 47 40 49
REMARK SMILES IDX 42 51 8 53 9 54 10 55 11 56 19 57 12 58 17 59 13 60 15 61
REMARK SMILES IDX 18 62 14 64 16 66 21 68 22 69 23 70 24 71 32 72 25 73 30 74
REMARK SMILES IDX 26 75 28 76 31 77 27 79 29 81
REMARK H PARENT 62 18 64 20 66 22 57 33 53 35 55 37 44 48 40 50 42 52 18 63
REMARK H PARENT 14 65 16 67 31 78 27 80 29 82
REMARK Flexibility Score: inf
ROOT
ATOM      1  C   UNL     1     -36.359  29.517 -17.154  1.00  0.00     0.205 C 
ATOM      2  C   UNL     1     -37.360  29.760 -18.305  1.00  0.00     0.254 C 
ATOM      3  C   UNL     1     -38.794  29.541 -17.781  1.00  0.00     0.267 C 
ATOM      4  C   UNL     1     -38.903  28.168 -17.094  1.00  0.00     0.290 C 
ATOM      5  C   UNL     1     -37.777  28.003 -16.058  1.00  0.00     0.357 C 
ATOM      6  O   UNL     1     -36.500  28.200 -16.644  1.00  0.00    -0.329 OA
ENDROOT
BRANCH   1   7
ATOM      7  C   UNL     1     -34.910  29.722 -17.629  1.00  0.00     0.269 C 
BRANCH   7   8
ATOM      8  O   UNL     1     -33.990  29.144 -16.705  1.00  0.00    -0.459 OA
BRANCH   8   9
ATOM      9  C   UNL     1     -32.599  29.205 -16.840  1.00  0.00     0.338 C 
ATOM     10  O   UNL     1     -32.070  30.087 -17.569  1.00  0.00    -0.246 OA
BRANCH   9  11
ATOM     11  C   UNL     1     -31.750  28.251 -16.094  1.00  0.00     0.067 A 
ATOM     12  C   UNL     1     -30.922  27.355 -16.783  1.00  0.00     0.066 A 
ATOM     13  C   UNL     1     -30.128  26.438 -16.092  1.00  0.00     0.162 A 
ATOM     14  C   UNL     1     -31.765  28.223 -14.691  1.00  0.00     0.066 A 
ATOM     15  C   UNL     1     -30.152  26.402 -14.686  1.00  0.00     0.200 A 
ATOM     16  C   UNL     1     -30.976  27.313 -13.979  1.00  0.00     0.162 A 
BRANCH  13  17
ATOM     17  O   UNL     1     -29.331  25.552 -16.821  1.00  0.00    -0.504 OA
ATOM     18  H   UNL     1     -29.187  25.649 -17.819  1.00  0.00     0.293 HD
ENDBRANCH  13  17
BRANCH  15  19
ATOM     19  O   UNL     1     -29.359  25.454 -14.032  1.00  0.00    -0.502 OA
ATOM     20  H   UNL     1     -28.519  25.054 -14.422  1.00  0.00     0.293 HD
ENDBRANCH  15  19
BRANCH  16  21
ATOM     21  O   UNL     1     -31.034  27.354 -12.584  1.00  0.00    -0.504 OA
ATOM     22  H   UNL     1     -31.521  26.680 -12.015  1.00  0.00     0.293 HD
ENDBRANCH  16  21
ENDBRANCH   9  11
ENDBRANCH   8   9
ENDBRANCH   7   8
ENDBRANCH   1   7
BRANCH   2  23
ATOM     23  O   UNL     1     -37.090  28.849 -19.371  1.00  0.00    -0.452 OA
BRANCH  23  24
ATOM     24  C   UNL     1     -37.654  28.951 -20.650  1.00  0.00     0.338 C 
ATOM     25  O   UNL     1     -37.662  30.058 -21.257  1.00  0.00    -0.246 OA
BRANCH  24  26
ATOM     26  C   UNL     1     -38.238  27.753 -21.286  1.00  0.00     0.067 A 
ATOM     27  C   UNL     1     -39.375  27.858 -22.106  1.00  0.00     0.066 A 
ATOM     28  C   UNL     1     -37.653  26.494 -21.085  1.00  0.00     0.066 A 
ATOM     29  C   UNL     1     -39.921  26.725 -22.715  1.00  0.00     0.162 A 
ATOM     30  C   UNL     1     -38.196  25.354 -21.684  1.00  0.00     0.162 A 
ATOM     31  C   UNL     1     -39.334  25.465 -22.501  1.00  0.00     0.200 A 
BRANCH  29  32
ATOM     32  O   UNL     1     -41.033  26.870 -23.545  1.00  0.00    -0.504 OA
ATOM     33  H   UNL     1     -41.754  27.556 -23.358  1.00  0.00     0.293 HD
ENDBRANCH  29  32
BRANCH  30  34
ATOM     34  O   UNL     1     -37.612  24.104 -21.466  1.00  0.00    -0.504 OA
ATOM     35  H   UNL     1     -38.143  23.340 -21.062  1.00  0.00     0.293 HD
ENDBRANCH  30  34
BRANCH  31  36
ATOM     36  O   UNL     1     -39.885  24.337 -23.112  1.00  0.00    -0.502 OA
ATOM     37  H   UNL     1     -40.576  23.753 -22.649  1.00  0.00     0.293 HD
ENDBRANCH  31  36
ENDBRANCH  24  26
ENDBRANCH  23  24
ENDBRANCH   2  23
BRANCH   3  38
ATOM     38  O   UNL     1     -39.739  29.603 -18.850  1.00  0.00    -0.450 OA
BRANCH  38  39
ATOM     39  C   UNL     1     -40.041  30.760 -19.575  1.00  0.00     0.338 C 
ATOM     40  O   UNL     1     -39.350  31.804 -19.418  1.00  0.00    -0.246 OA
BRANCH  39  41
ATOM     41  C   UNL     1     -41.182  30.753 -20.520  1.00  0.00     0.067 A 
ATOM     42  C   UNL     1     -42.405  31.363 -20.190  1.00  0.00     0.066 A 
ATOM     43  C   UNL     1     -41.054  30.122 -21.767  1.00  0.00     0.066 A 
ATOM     44  C   UNL     1     -43.492  31.316 -21.074  1.00  0.00     0.162 A 
ATOM     45  C   UNL     1     -42.131  30.068 -22.655  1.00  0.00     0.162 A 
ATOM     46  C   UNL     1     -43.357  30.659 -22.310  1.00  0.00     0.200 A 
BRANCH  44  47
ATOM     47  O   UNL     1     -44.707  31.916 -20.731  1.00  0.00    -0.504 OA
ATOM     48  H   UNL     1     -44.828  32.923 -20.742  1.00  0.00     0.293 HD
ENDBRANCH  44  47
BRANCH  45  49
ATOM     49  O   UNL     1     -41.967  29.424 -23.882  1.00  0.00    -0.504 OA
ATOM     50  H   UNL     1     -41.422  28.577 -23.975  1.00  0.00     0.293 HD
ENDBRANCH  45  49
BRANCH  46  51
ATOM     51  O   UNL     1     -44.427  30.592 -23.202  1.00  0.00    -0.502 OA
ATOM     52  H   UNL     1     -44.529  29.841 -23.876  1.00  0.00     0.293 HD
ENDBRANCH  46  51
ENDBRANCH  39  41
ENDBRANCH  38  39
ENDBRANCH   3  38
BRANCH   5  53
ATOM     53  O   UNL     1     -37.967  28.891 -14.954  1.00  0.00    -0.428 OA
BRANCH  53  54
ATOM     54  C   UNL     1     -38.684  28.545 -13.801  1.00  0.00     0.340 C 
ATOM     55  O   UNL     1     -39.136  29.445 -13.042  1.00  0.00    -0.246 OA
BRANCH  54  56
ATOM     56  C   UNL     1     -38.879  27.117 -13.466  1.00  0.00     0.067 A 
ATOM     57  C   UNL     1     -38.334  26.119 -14.291  1.00  0.00     0.066 A 
ATOM     58  C   UNL     1     -39.598  26.744 -12.319  1.00  0.00     0.066 A 
ATOM     59  C   UNL     1     -38.512  24.763 -13.979  1.00  0.00     0.162 A 
ATOM     60  C   UNL     1     -39.772  25.391 -11.998  1.00  0.00     0.162 A 
ATOM     61  C   UNL     1     -39.236  24.396 -12.832  1.00  0.00     0.200 A 
BRANCH  59  62
ATOM     62  O   UNL     1     -37.973  23.779 -14.804  1.00  0.00    -0.504 OA
ATOM     63  H   UNL     1     -38.130  23.778 -15.805  1.00  0.00     0.293 HD
ENDBRANCH  59  62
BRANCH  60  64
ATOM     64  O   UNL     1     -40.493  25.045 -10.855  1.00  0.00    -0.504 OA
ATOM     65  H   UNL     1     -40.760  24.086 -10.660  1.00  0.00     0.293 HD
ENDBRANCH  60  64
BRANCH  61  66
ATOM     66  O   UNL     1     -39.429  23.051 -12.506  1.00  0.00    -0.502 OA
ATOM     67  H   UNL     1     -40.357  22.630 -12.486  1.00  0.00     0.293 HD
ENDBRANCH  61  66
ENDBRANCH  54  56
ENDBRANCH  53  54
ENDBRANCH   5  53
BRANCH   4  68
ATOM     68  O   UNL     1     -40.170  28.038 -16.443  1.00  0.00    -0.448 OA
BRANCH  68  69
ATOM     69  C   UNL     1     -41.246  27.313 -16.978  1.00  0.00     0.339 C 
ATOM     70  O   UNL     1     -41.889  27.772 -17.960  1.00  0.00    -0.246 OA
BRANCH  69  71
ATOM     71  C   UNL     1     -41.601  25.993 -16.417  1.00  0.00     0.067 A 
ATOM     72  C   UNL     1     -41.913  25.856 -15.052  1.00  0.00     0.066 A 
ATOM     73  C   UNL     1     -41.635  24.857 -17.242  1.00  0.00     0.066 A 
ATOM     74  C   UNL     1     -42.286  24.610 -14.528  1.00  0.00     0.162 A 
ATOM     75  C   UNL     1     -41.991  23.603 -16.728  1.00  0.00     0.162 A 
ATOM     76  C   UNL     1     -42.339  23.482 -15.360  1.00  0.00     0.200 A 
BRANCH  74  77
ATOM     77  O   UNL     1     -42.621  24.484 -13.180  1.00  0.00    -0.504 OA
ATOM     78  H   UNL     1     -42.034  23.975 -12.537  1.00  0.00     0.293 HD
ENDBRANCH  74  77
BRANCH  75  79
ATOM     79  O   UNL     1     -41.973  22.515 -17.607  1.00  0.00    -0.504 OA
ATOM     80  H   UNL     1     -42.251  22.565 -18.574  1.00  0.00     0.293 HD
ENDBRANCH  75  79
BRANCH  76  81
ATOM     81  O   UNL     1     -42.750  22.270 -14.800  1.00  0.00    -0.502 OA
ATOM     82  H   UNL     1     -42.792  21.407 -15.314  1.00  0.00     0.293 HD
ENDBRANCH  76  81
ENDBRANCH  69  71
ENDBRANCH  68  69
ENDBRANCH   4  68
TORSDOF 31
ENDMDL
MODEL 3
REMARK VINA RESULT:   112.600      1.772      8.441
REMARK INTER + INTRA:         265.430
REMARK INTER:                 265.037
REMARK INTRA:                   0.392
REMARK UNBOUND:                -1.862
REMARK SMILES O=C(OC[C@@H]1O[C@@H](OC(=O)c2cc(O)c(O)c(O)c2)[C@@H](OC(=O)c2cc(O)c(O)c(O)c2)[C@H](OC(=O)c2cc(O)c(O)c(O)c2)[C@@H]1OC(=O)c1cc(O)c(O)c(O)c1)c1cc(O)c(O)c(O)c1
REMARK SMILES IDX 5 1 46 2 33 3 20 4 7 5 6 6 4 7 3 8 2 9 1 10 59 11 60 12
REMARK SMILES IDX 61 13 67 14 63 15 65 16 62 17 64 19 66 21 47 23 48 24 49 25
REMARK SMILES IDX 50 26 58 27 51 28 56 29 52 30 54 31 57 32 53 34 55 36 34 38
REMARK SMILES IDX 35 39 36 40 37 41 45 42 38 43 43 44 39 45 41 46 44 47 40 49
REMARK SMILES IDX 42 51 8 53 9 54 10 55 11 56 19 57 12 58 17 59 13 60 15 61
REMARK SMILES IDX 18 62 14 64 16 66 21 68 22 69 23 70 24 71 32 72 25 73 30 74
REMARK SMILES IDX 26 75 28 76 31 77 27 79 29 81
REMARK H PARENT 62 18 64 20 66 22 57 33 53 35 55 37 44 48 40 50 42 52 18 63
REMARK H PARENT 14 65 16 67 31 78 27 80 29 82
REMARK Flexibility Score: inf
ROOT
ATOM      1  C   UNL     1     -39.417  29.199 -18.621  1.00  0.00     0.205 C 
ATOM      2  C   UNL     1     -37.876  29.139 -18.704  1.00  0.00     0.254 C 
ATOM      3  C   UNL     1     -37.341  28.257 -17.558  1.00  0.00     0.267 C 
ATOM      4  C   UNL     1     -37.908  28.741 -16.210  1.00  0.00     0.290 C 
ATOM      5  C   UNL     1     -39.439  28.875 -16.297  1.00  0.00     0.357 C 
ATOM      6  O   UNL     1     -39.826  29.723 -17.366  1.00  0.00    -0.329 OA
ENDROOT
BRANCH   1   7
ATOM      7  C   UNL     1     -39.999  30.070 -19.746  1.00  0.00     0.269 C 
BRANCH   7   8
ATOM      8  O   UNL     1     -39.900  29.402 -21.003  1.00  0.00    -0.459 OA
BRANCH   8   9
ATOM      9  C   UNL     1     -40.965  29.249 -21.897  1.00  0.00     0.338 C 
ATOM     10  O   UNL     1     -41.034  28.228 -22.634  1.00  0.00    -0.246 OA
BRANCH   9  11
ATOM     11  C   UNL     1     -42.028  30.276 -21.950  1.00  0.00     0.067 A 
ATOM     12  C   UNL     1     -43.076  30.254 -21.020  1.00  0.00     0.066 A 
ATOM     13  C   UNL     1     -44.095  31.208 -21.068  1.00  0.00     0.162 A 
ATOM     14  C   UNL     1     -42.008  31.279 -22.930  1.00  0.00     0.066 A 
ATOM     15  C   UNL     1     -44.081  32.207 -22.058  1.00  0.00     0.200 A 
ATOM     16  C   UNL     1     -43.018  32.245 -22.994  1.00  0.00     0.162 A 
BRANCH  13  17
ATOM     17  O   UNL     1     -45.129  31.137 -20.132  1.00  0.00    -0.504 OA
ATOM     18  H   UNL     1     -44.968  30.883 -19.164  1.00  0.00     0.293 HD
ENDBRANCH  13  17
BRANCH  15  19
ATOM     19  O   UNL     1     -45.131  33.130 -22.085  1.00  0.00    -0.502 OA
ATOM     20  H   UNL     1     -45.625  33.449 -21.266  1.00  0.00     0.293 HD
ENDBRANCH  15  19
BRANCH  16  21
ATOM     21  O   UNL     1     -42.922  33.221 -23.991  1.00  0.00    -0.504 OA
ATOM     22  H   UNL     1     -42.055  33.557 -24.376  1.00  0.00     0.293 HD
ENDBRANCH  16  21
ENDBRANCH   9  11
ENDBRANCH   8   9
ENDBRANCH   7   8
ENDBRANCH   1   7
BRANCH   2  23
ATOM     23  O   UNL     1     -37.342  30.458 -18.590  1.00  0.00    -0.452 OA
BRANCH  23  24
ATOM     24  C   UNL     1     -37.004  31.264 -19.686  1.00  0.00     0.338 C 
ATOM     25  O   UNL     1     -36.699  32.476 -19.516  1.00  0.00    -0.246 OA
BRANCH  24  26
ATOM     26  C   UNL     1     -37.002  30.683 -21.044  1.00  0.00     0.067 A 
ATOM     27  C   UNL     1     -37.209  29.305 -21.235  1.00  0.00     0.066 A 
ATOM     28  C   UNL     1     -36.803  31.506 -22.162  1.00  0.00     0.066 A 
ATOM     29  C   UNL     1     -37.217  28.758 -22.521  1.00  0.00     0.162 A 
ATOM     30  C   UNL     1     -36.802  30.967 -23.451  1.00  0.00     0.162 A 
ATOM     31  C   UNL     1     -37.008  29.588 -23.636  1.00  0.00     0.200 A 
BRANCH  29  32
ATOM     32  O   UNL     1     -37.454  27.391 -22.675  1.00  0.00    -0.504 OA
ATOM     33  H   UNL     1     -36.908  26.695 -22.181  1.00  0.00     0.293 HD
ENDBRANCH  29  32
BRANCH  30  34
ATOM     34  O   UNL     1     -36.591  31.795 -24.556  1.00  0.00    -0.504 OA
ATOM     35  H   UNL     1     -35.654  32.001 -24.887  1.00  0.00     0.293 HD
ENDBRANCH  30  34
BRANCH  31  36
ATOM     36  O   UNL     1     -37.016  29.035 -24.918  1.00  0.00    -0.502 OA
ATOM     37  H   UNL     1     -36.437  29.400 -25.668  1.00  0.00     0.293 HD
ENDBRANCH  31  36
ENDBRANCH  24  26
ENDBRANCH  23  24
ENDBRANCH   2  23
BRANCH   3  38
ATOM     38  O   UNL     1     -35.915  28.303 -17.505  1.00  0.00    -0.450 OA
BRANCH  38  39
ATOM     39  C   UNL     1     -35.179  29.223 -16.751  1.00  0.00     0.338 C 
ATOM     40  O   UNL     1     -35.768  30.001 -15.952  1.00  0.00    -0.246 OA
BRANCH  39  41
ATOM     41  C   UNL     1     -33.707  29.281 -16.904  1.00  0.00     0.067 A 
ATOM     42  C   UNL     1     -33.113  29.961 -17.981  1.00  0.00     0.066 A 
ATOM     43  C   UNL     1     -32.881  28.643 -15.966  1.00  0.00     0.066 A 
ATOM     44  C   UNL     1     -31.720  29.975 -18.140  1.00  0.00     0.162 A 
ATOM     45  C   UNL     1     -31.491  28.650 -16.115  1.00  0.00     0.162 A 
ATOM     46  C   UNL     1     -30.905  29.312 -17.206  1.00  0.00     0.200 A 
BRANCH  44  47
ATOM     47  O   UNL     1     -31.140  30.645 -19.221  1.00  0.00    -0.504 OA
ATOM     48  H   UNL     1     -30.140  30.807 -19.277  1.00  0.00     0.293 HD
ENDBRANCH  44  47
BRANCH  45  49
ATOM     49  O   UNL     1     -30.704  27.997 -15.166  1.00  0.00    -0.504 OA
ATOM     50  H   UNL     1     -29.695  27.967 -15.235  1.00  0.00     0.293 HD
ENDBRANCH  45  49
BRANCH  46  51
ATOM     51  O   UNL     1     -29.517  29.305 -17.348  1.00  0.00    -0.502 OA
ATOM     52  H   UNL     1     -28.906  29.855 -16.755  1.00  0.00     0.293 HD
ENDBRANCH  46  51
ENDBRANCH  39  41
ENDBRANCH  38  39
ENDBRANCH   3  38
BRANCH   5  53
ATOM     53  O   UNL     1     -40.056  27.592 -16.422  1.00  0.00    -0.428 OA
BRANCH  53  54
ATOM     54  C   UNL     1     -41.301  27.277 -15.864  1.00  0.00     0.340 C 
ATOM     55  O   UNL     1     -42.053  28.194 -15.434  1.00  0.00    -0.246 OA
BRANCH  54  56
ATOM     56  C   UNL     1     -41.713  25.859 -15.755  1.00  0.00     0.067 A 
ATOM     57  C   UNL     1     -41.702  25.033 -16.891  1.00  0.00     0.066 A 
ATOM     58  C   UNL     1     -42.105  25.322 -14.518  1.00  0.00     0.066 A 
ATOM     59  C   UNL     1     -42.088  23.689 -16.796  1.00  0.00     0.162 A 
ATOM     60  C   UNL     1     -42.484  23.977 -14.415  1.00  0.00     0.162 A 
ATOM     61  C   UNL     1     -42.484  23.158 -15.556  1.00  0.00     0.200 A 
BRANCH  59  62
ATOM     62  O   UNL     1     -42.080  22.877 -17.927  1.00  0.00    -0.504 OA
ATOM     63  H   UNL     1     -41.479  23.073 -18.719  1.00  0.00     0.293 HD
ENDBRANCH  59  62
BRANCH  60  64
ATOM     64  O   UNL     1     -42.873  23.467 -13.177  1.00  0.00    -0.504 OA
ATOM     65  H   UNL     1     -42.248  22.908 -12.608  1.00  0.00     0.293 HD
ENDBRANCH  60  64
BRANCH  61  66
ATOM     66  O   UNL     1     -42.876  21.822 -15.441  1.00  0.00    -0.502 OA
ATOM     67  H   UNL     1     -42.416  21.079 -15.966  1.00  0.00     0.293 HD
ENDBRANCH  61  66
ENDBRANCH  54  56
ENDBRANCH  53  54
ENDBRANCH   5  53
BRANCH   4  68
ATOM     68  O   UNL     1     -37.570  27.818 -15.170  1.00  0.00    -0.448 OA
BRANCH  68  69
ATOM     69  C   UNL     1     -38.329  27.656 -14.001  1.00  0.00     0.339 C 
ATOM     70  O   UNL     1     -38.732  28.667 -13.365  1.00  0.00    -0.246 OA
BRANCH  69  71
ATOM     71  C   UNL     1     -38.691  26.301 -13.535  1.00  0.00     0.067 A 
ATOM     72  C   UNL     1     -38.062  25.166 -14.078  1.00  0.00     0.066 A 
ATOM     73  C   UNL     1     -39.665  26.130 -12.538  1.00  0.00     0.066 A 
ATOM     74  C   UNL     1     -38.379  23.883 -13.609  1.00  0.00     0.162 A 
ATOM     75  C   UNL     1     -40.003  24.853 -12.071  1.00  0.00     0.162 A 
ATOM     76  C   UNL     1     -39.338  23.717 -12.599  1.00  0.00     0.200 A 
BRANCH  74  77
ATOM     77  O   UNL     1     -37.734  22.763 -14.132  1.00  0.00    -0.504 OA
ATOM     78  H   UNL     1     -36.733  22.739 -14.252  1.00  0.00     0.293 HD
ENDBRANCH  74  77
BRANCH  75  79
ATOM     79  O   UNL     1     -41.003  24.763 -11.099  1.00  0.00    -0.504 OA
ATOM     80  H   UNL     1     -41.318  23.897 -10.690  1.00  0.00     0.293 HD
ENDBRANCH  75  79
BRANCH  76  81
ATOM     81  O   UNL     1     -39.594  22.424 -12.140  1.00  0.00    -0.502 OA
ATOM     82  H   UNL     1     -39.797  22.206 -11.180  1.00  0.00     0.293 HD
ENDBRANCH  76  81
ENDBRANCH  69  71
ENDBRANCH  68  69
ENDBRANCH   4  68
TORSDOF 31
ENDMDL
MODEL 4
REMARK VINA RESULT:   113.327      2.426      5.913
REMARK INTER + INTRA:         267.154
REMARK INTER:                 264.362
REMARK INTRA:                   2.792
REMARK UNBOUND:                -1.862
REMARK SMILES O=C(OC[C@@H]1O[C@@H](OC(=O)c2cc(O)c(O)c(O)c2)[C@@H](OC(=O)c2cc(O)c(O)c(O)c2)[C@H](OC(=O)c2cc(O)c(O)c(O)c2)[C@@H]1OC(=O)c1cc(O)c(O)c(O)c1)c1cc(O)c(O)c(O)c1
REMARK SMILES IDX 5 1 46 2 33 3 20 4 7 5 6 6 4 7 3 8 2 9 1 10 59 11 60 12
REMARK SMILES IDX 61 13 67 14 63 15 65 16 62 17 64 19 66 21 47 23 48 24 49 25
REMARK SMILES IDX 50 26 58 27 51 28 56 29 52 30 54 31 57 32 53 34 55 36 34 38
REMARK SMILES IDX 35 39 36 40 37 41 45 42 38 43 43 44 39 45 41 46 44 47 40 49
REMARK SMILES IDX 42 51 8 53 9 54 10 55 11 56 19 57 12 58 17 59 13 60 15 61
REMARK SMILES IDX 18 62 14 64 16 66 21 68 22 69 23 70 24 71 32 72 25 73 30 74
REMARK SMILES IDX 26 75 28 76 31 77 27 79 29 81
REMARK H PARENT 62 18 64 20 66 22 57 33 53 35 55 37 44 48 40 50 42 52 18 63
REMARK H PARENT 14 65 16 67 31 78 27 80 29 82
REMARK Flexibility Score: inf
ROOT
ATOM      1  C   UNL     1     -35.111  29.495 -16.233  1.00  0.00     0.205 C 
ATOM      2  C   UNL     1     -34.776  30.540 -17.319  1.00  0.00     0.254 C 
ATOM      3  C   UNL     1     -36.078  30.971 -18.025  1.00  0.00     0.267 C 
ATOM      4  C   UNL     1     -36.846  29.732 -18.520  1.00  0.00     0.290 C 
ATOM      5  C   UNL     1     -37.007  28.716 -17.376  1.00  0.00     0.357 C 
ATOM      6  O   UNL     1     -35.753  28.368 -16.811  1.00  0.00    -0.329 OA
ENDROOT
BRANCH   1   7
ATOM      7  C   UNL     1     -33.841  29.032 -15.500  1.00  0.00     0.269 C 
BRANCH   7   8
ATOM      8  O   UNL     1     -32.788  28.778 -16.428  1.00  0.00    -0.459 OA
BRANCH   8   9
ATOM      9  C   UNL     1     -31.428  28.807 -16.100  1.00  0.00     0.338 C 
ATOM     10  O   UNL     1     -30.789  29.893 -16.139  1.00  0.00    -0.246 OA
BRANCH   9  11
ATOM     11  C   UNL     1     -30.752  27.562 -15.675  1.00  0.00     0.067 A 
ATOM     12  C   UNL     1     -29.951  26.850 -16.578  1.00  0.00     0.066 A 
ATOM     13  C   UNL     1     -29.321  25.665 -16.195  1.00  0.00     0.162 A 
ATOM     14  C   UNL     1     -30.906  27.073 -14.369  1.00  0.00     0.066 A 
ATOM     15  C   UNL     1     -29.484  25.168 -14.889  1.00  0.00     0.200 A 
ATOM     16  C   UNL     1     -30.281  25.889 -13.964  1.00  0.00     0.162 A 
BRANCH  13  17
ATOM     17  O   UNL     1     -28.546  24.980 -17.134  1.00  0.00    -0.504 OA
ATOM     18  H   UNL     1     -27.584  25.229 -17.329  1.00  0.00     0.293 HD
ENDBRANCH  13  17
BRANCH  15  19
ATOM     19  O   UNL     1     -28.853  23.967 -14.551  1.00  0.00    -0.502 OA
ATOM     20  H   UNL     1     -28.102  23.555 -15.081  1.00  0.00     0.293 HD
ENDBRANCH  15  19
BRANCH  16  21
ATOM     21  O   UNL     1     -30.471  25.472 -12.644  1.00  0.00    -0.504 OA
ATOM     22  H   UNL     1     -30.656  24.521 -12.370  1.00  0.00     0.293 HD
ENDBRANCH  16  21
ENDBRANCH   9  11
ENDBRANCH   8   9
ENDBRANCH   7   8
ENDBRANCH   1   7
BRANCH   2  23
ATOM     23  O   UNL     1     -33.877  29.968 -18.269  1.00  0.00    -0.452 OA
BRANCH  23  24
ATOM     24  C   UNL     1     -32.660  30.552 -18.646  1.00  0.00     0.338 C 
ATOM     25  O   UNL     1     -32.301  31.655 -18.149  1.00  0.00    -0.246 OA
BRANCH  24  26
ATOM     26  C   UNL     1     -31.796  29.865 -19.628  1.00  0.00     0.067 A 
ATOM     27  C   UNL     1     -31.036  30.601 -20.553  1.00  0.00     0.066 A 
ATOM     28  C   UNL     1     -31.719  28.465 -19.639  1.00  0.00     0.066 A 
ATOM     29  C   UNL     1     -30.211  29.950 -21.475  1.00  0.00     0.162 A 
ATOM     30  C   UNL     1     -30.902  27.805 -20.561  1.00  0.00     0.162 A 
ATOM     31  C   UNL     1     -30.145  28.546 -21.486  1.00  0.00     0.200 A 
BRANCH  29  32
ATOM     32  O   UNL     1     -29.449  30.714 -22.360  1.00  0.00    -0.504 OA
ATOM     33  H   UNL     1     -28.508  30.447 -22.624  1.00  0.00     0.293 HD
ENDBRANCH  29  32
BRANCH  30  34
ATOM     34  O   UNL     1     -30.842  26.410 -20.570  1.00  0.00    -0.504 OA
ATOM     35  H   UNL     1     -30.162  25.917 -21.139  1.00  0.00     0.293 HD
ENDBRANCH  30  34
BRANCH  31  36
ATOM     36  O   UNL     1     -29.321  27.903 -22.410  1.00  0.00    -0.502 OA
ATOM     37  H   UNL     1     -28.660  28.410 -22.991  1.00  0.00     0.293 HD
ENDBRANCH  31  36
ENDBRANCH  24  26
ENDBRANCH  23  24
ENDBRANCH   2  23
BRANCH   3  38
ATOM     38  O   UNL     1     -35.794  31.818 -19.139  1.00  0.00    -0.450 OA
BRANCH  38  39
ATOM     39  C   UNL     1     -36.736  32.211 -20.095  1.00  0.00     0.338 C 
ATOM     40  O   UNL     1     -37.557  33.133 -19.834  1.00  0.00    -0.246 OA
BRANCH  39  41
ATOM     41  C   UNL     1     -36.767  31.533 -21.412  1.00  0.00     0.067 A 
ATOM     42  C   UNL     1     -36.671  32.262 -22.610  1.00  0.00     0.066 A 
ATOM     43  C   UNL     1     -36.903  30.137 -21.476  1.00  0.00     0.066 A 
ATOM     44  C   UNL     1     -36.744  31.614 -23.851  1.00  0.00     0.162 A 
ATOM     45  C   UNL     1     -36.979  29.482 -22.708  1.00  0.00     0.162 A 
ATOM     46  C   UNL     1     -36.905  30.218 -23.901  1.00  0.00     0.200 A 
BRANCH  44  47
ATOM     47  O   UNL     1     -36.658  32.350 -25.036  1.00  0.00    -0.504 OA
ATOM     48  H   UNL     1     -35.849  32.922 -25.254  1.00  0.00     0.293 HD
ENDBRANCH  44  47
BRANCH  45  49
ATOM     49  O   UNL     1     -37.122  28.094 -22.730  1.00  0.00    -0.504 OA
ATOM     50  H   UNL     1     -36.627  27.514 -23.395  1.00  0.00     0.293 HD
ENDBRANCH  45  49
BRANCH  46  51
ATOM     51  O   UNL     1     -36.988  29.554 -25.125  1.00  0.00    -0.502 OA
ATOM     52  H   UNL     1     -37.851  29.490 -25.653  1.00  0.00     0.293 HD
ENDBRANCH  46  51
ENDBRANCH  39  41
ENDBRANCH  38  39
ENDBRANCH   3  38
BRANCH   5  53
ATOM     53  O   UNL     1     -37.891  29.218 -16.371  1.00  0.00    -0.428 OA
BRANCH  53  54
ATOM     54  C   UNL     1     -38.155  28.546 -15.171  1.00  0.00     0.340 C 
ATOM     55  O   UNL     1     -37.585  28.905 -14.105  1.00  0.00    -0.246 OA
BRANCH  54  56
ATOM     56  C   UNL     1     -39.085  27.394 -15.170  1.00  0.00     0.067 A 
ATOM     57  C   UNL     1     -38.822  26.277 -14.360  1.00  0.00     0.066 A 
ATOM     58  C   UNL     1     -40.241  27.409 -15.966  1.00  0.00     0.066 A 
ATOM     59  C   UNL     1     -39.698  25.182 -14.352  1.00  0.00     0.162 A 
ATOM     60  C   UNL     1     -41.125  26.322 -15.956  1.00  0.00     0.162 A 
ATOM     61  C   UNL     1     -40.852  25.202 -15.154  1.00  0.00     0.200 A 
BRANCH  59  62
ATOM     62  O   UNL     1     -39.430  24.076 -13.550  1.00  0.00    -0.504 OA
ATOM     63  H   UNL     1     -39.851  23.172 -13.732  1.00  0.00     0.293 HD
ENDBRANCH  59  62
BRANCH  60  64
ATOM     64  O   UNL     1     -42.266  26.358 -16.758  1.00  0.00    -0.504 OA
ATOM     65  H   UNL     1     -42.246  26.071 -17.730  1.00  0.00     0.293 HD
ENDBRANCH  60  64
BRANCH  61  66
ATOM     66  O   UNL     1     -41.737  24.120 -15.164  1.00  0.00    -0.502 OA
ATOM     67  H   UNL     1     -41.808  23.477 -14.376  1.00  0.00     0.293 HD
ENDBRANCH  61  66
ENDBRANCH  54  56
ENDBRANCH  53  54
ENDBRANCH   5  53
BRANCH   4  68
ATOM     68  O   UNL     1     -38.138  30.111 -19.005  1.00  0.00    -0.448 OA
BRANCH  68  69
ATOM     69  C   UNL     1     -38.786  29.466 -20.069  1.00  0.00     0.339 C 
ATOM     70  O   UNL     1     -38.344  28.369 -20.506  1.00  0.00    -0.246 OA
BRANCH  69  71
ATOM     71  C   UNL     1     -40.010  30.052 -20.655  1.00  0.00     0.067 A 
ATOM     72  C   UNL     1     -40.527  29.565 -21.869  1.00  0.00     0.066 A 
ATOM     73  C   UNL     1     -40.677  31.101 -20.002  1.00  0.00     0.066 A 
ATOM     74  C   UNL     1     -41.709  30.096 -22.404  1.00  0.00     0.162 A 
ATOM     75  C   UNL     1     -41.851  31.652 -20.534  1.00  0.00     0.162 A 
ATOM     76  C   UNL     1     -42.383  31.130 -21.739  1.00  0.00     0.200 A 
BRANCH  74  77
ATOM     77  O   UNL     1     -42.231  29.592 -23.595  1.00  0.00    -0.504 OA
ATOM     78  H   UNL     1     -41.741  28.892 -24.131  1.00  0.00     0.293 HD
ENDBRANCH  74  77
BRANCH  75  79
ATOM     79  O   UNL     1     -42.439  32.714 -19.840  1.00  0.00    -0.504 OA
ATOM     80  H   UNL     1     -43.376  32.697 -19.470  1.00  0.00     0.293 HD
ENDBRANCH  75  79
BRANCH  76  81
ATOM     81  O   UNL     1     -43.575  31.603 -22.293  1.00  0.00    -0.502 OA
ATOM     82  H   UNL     1     -44.228  32.180 -21.793  1.00  0.00     0.293 HD
ENDBRANCH  76  81
ENDBRANCH  69  71
ENDBRANCH  68  69
ENDBRANCH   4  68
TORSDOF 31
ENDMDL
MODEL 5
REMARK VINA RESULT:   113.664      1.879      8.822
REMARK INTER + INTRA:         267.954
REMARK INTER:                 263.408
REMARK INTRA:                   4.546
REMARK UNBOUND:                -1.862
REMARK SMILES O=C(OC[C@@H]1O[C@@H](OC(=O)c2cc(O)c(O)c(O)c2)[C@@H](OC(=O)c2cc(O)c(O)c(O)c2)[C@H](OC(=O)c2cc(O)c(O)c(O)c2)[C@@H]1OC(=O)c1cc(O)c(O)c(O)c1)c1cc(O)c(O)c(O)c1
REMARK SMILES IDX 5 1 46 2 33 3 20 4 7 5 6 6 4 7 3 8 2 9 1 10 59 11 60 12
REMARK SMILES IDX 61 13 67 14 63 15 65 16 62 17 64 19 66 21 47 23 48 24 49 25
REMARK SMILES IDX 50 26 58 27 51 28 56 29 52 30 54 31 57 32 53 34 55 36 34 38
REMARK SMILES IDX 35 39 36 40 37 41 45 42 38 43 43 44 39 45 41 46 44 47 40 49
REMARK SMILES IDX 42 51 8 53 9 54 10 55 11 56 19 57 12 58 17 59 13 60 15 61
REMARK SMILES IDX 18 62 14 64 16 66 21 68 22 69 23 70 24 71 32 72 25 73 30 74
REMARK SMILES IDX 26 75 28 76 31 77 27 79 29 81
REMARK H PARENT 62 18 64 20 66 22 57 33 53 35 55 37 44 48 40 50 42 52 18 63
REMARK H PARENT 14 65 16 67 31 78 27 80 29 82
REMARK Flexibility Score: inf
ROOT
ATOM      1  C   UNL     1     -37.087  28.408 -16.063  1.00  0.00     0.205 C 
ATOM      2  C   UNL     1     -37.512  28.318 -17.546  1.00  0.00     0.254 C 
ATOM      3  C   UNL     1     -36.258  28.419 -18.438  1.00  0.00     0.267 C 
ATOM      4  C   UNL     1     -35.442  29.669 -18.063  1.00  0.00     0.290 C 
ATOM      5  C   UNL     1     -35.190  29.703 -16.545  1.00  0.00     0.357 C 
ATOM      6  O   UNL     1     -36.405  29.628 -15.816  1.00  0.00    -0.329 OA
ENDROOT
BRANCH   1   7
ATOM      7  C   UNL     1     -38.307  28.313 -15.131  1.00  0.00     0.269 C 
BRANCH   7   8
ATOM      8  O   UNL     1     -39.090  27.162 -15.443  1.00  0.00    -0.459 OA
BRANCH   8   9
ATOM      9  C   UNL     1     -39.102  25.989 -14.679  1.00  0.00     0.338 C 
ATOM     10  O   UNL     1     -38.155  25.739 -13.885  1.00  0.00    -0.246 OA
BRANCH   9  11
ATOM     11  C   UNL     1     -40.250  25.062 -14.782  1.00  0.00     0.067 A 
ATOM     12  C   UNL     1     -40.932  24.654 -13.628  1.00  0.00     0.066 A 
ATOM     13  C   UNL     1     -42.007  23.766 -13.709  1.00  0.00     0.162 A 
ATOM     14  C   UNL     1     -40.667  24.574 -16.029  1.00  0.00     0.066 A 
ATOM     15  C   UNL     1     -42.418  23.267 -14.959  1.00  0.00     0.200 A 
ATOM     16  C   UNL     1     -41.743  23.685 -16.133  1.00  0.00     0.162 A 
BRANCH  13  17
ATOM     17  O   UNL     1     -42.646  23.373 -12.532  1.00  0.00    -0.504 OA
ATOM     18  H   UNL     1     -43.613  23.604 -12.336  1.00  0.00     0.293 HD
ENDBRANCH  13  17
BRANCH  15  19
ATOM     19  O   UNL     1     -43.485  22.364 -14.995  1.00  0.00    -0.502 OA
ATOM     20  H   UNL     1     -43.863  21.971 -15.843  1.00  0.00     0.293 HD
ENDBRANCH  15  19
BRANCH  16  21
ATOM     21  O   UNL     1     -42.109  23.253 -17.410  1.00  0.00    -0.504 OA
ATOM     22  H   UNL     1     -41.602  23.474 -18.252  1.00  0.00     0.293 HD
ENDBRANCH  16  21
ENDBRANCH   9  11
ENDBRANCH   8   9
ENDBRANCH   7   8
ENDBRANCH   1   7
BRANCH   2  23
ATOM     23  O   UNL     1     -38.409  29.386 -17.849  1.00  0.00    -0.452 OA
BRANCH  23  24
ATOM     24  C   UNL     1     -38.510  29.991 -19.109  1.00  0.00     0.338 C 
ATOM     25  O   UNL     1     -37.484  30.139 -19.829  1.00  0.00    -0.246 OA
BRANCH  24  26
ATOM     26  C   UNL     1     -39.827  30.452 -19.593  1.00  0.00     0.067 A 
ATOM     27  C   UNL     1     -40.183  31.810 -19.521  1.00  0.00     0.066 A 
ATOM     28  C   UNL     1     -40.737  29.535 -20.140  1.00  0.00     0.066 A 
ATOM     29  C   UNL     1     -41.426  32.246 -19.987  1.00  0.00     0.162 A 
ATOM     30  C   UNL     1     -41.985  29.960 -20.602  1.00  0.00     0.162 A 
ATOM     31  C   UNL     1     -42.336  31.320 -20.526  1.00  0.00     0.200 A 
BRANCH  29  32
ATOM     32  O   UNL     1     -41.733  33.606 -19.926  1.00  0.00    -0.504 OA
ATOM     33  H   UNL     1     -42.685  33.944 -20.014  1.00  0.00     0.293 HD
ENDBRANCH  29  32
BRANCH  30  34
ATOM     34  O   UNL     1     -42.886  29.036 -21.134  1.00  0.00    -0.504 OA
ATOM     35  H   UNL     1     -43.841  28.977 -20.794  1.00  0.00     0.293 HD
ENDBRANCH  30  34
BRANCH  31  36
ATOM     36  O   UNL     1     -43.576  31.762 -20.989  1.00  0.00    -0.502 OA
ATOM     37  H   UNL     1     -43.962  32.664 -20.726  1.00  0.00     0.293 HD
ENDBRANCH  31  36
ENDBRANCH  24  26
ENDBRANCH  23  24
ENDBRANCH   2  23
BRANCH   3  38
ATOM     38  O   UNL     1     -36.622  28.498 -19.816  1.00  0.00    -0.450 OA
BRANCH  38  39
ATOM     39  C   UNL     1     -36.594  27.419 -20.706  1.00  0.00     0.338 C 
ATOM     40  O   UNL     1     -35.529  26.763 -20.871  1.00  0.00    -0.246 OA
BRANCH  39  41
ATOM     41  C   UNL     1     -37.819  27.059 -21.458  1.00  0.00     0.067 A 
ATOM     42  C   UNL     1     -38.019  25.756 -21.944  1.00  0.00     0.066 A 
ATOM     43  C   UNL     1     -38.800  28.033 -21.702  1.00  0.00     0.066 A 
ATOM     44  C   UNL     1     -39.162  25.436 -22.690  1.00  0.00     0.162 A 
ATOM     45  C   UNL     1     -39.943  27.725 -22.446  1.00  0.00     0.162 A 
ATOM     46  C   UNL     1     -40.126  26.426 -22.948  1.00  0.00     0.200 A 
BRANCH  44  47
ATOM     47  O   UNL     1     -39.346  24.139 -23.178  1.00  0.00    -0.504 OA
ATOM     48  H   UNL     1     -38.574  23.485 -23.264  1.00  0.00     0.293 HD
ENDBRANCH  44  47
BRANCH  45  49
ATOM     49  O   UNL     1     -40.892  28.722 -22.674  1.00  0.00    -0.504 OA
ATOM     50  H   UNL     1     -41.537  29.023 -21.956  1.00  0.00     0.293 HD
ENDBRANCH  45  49
BRANCH  46  51
ATOM     51  O   UNL     1     -41.267  26.134 -23.695  1.00  0.00    -0.502 OA
ATOM     52  H   UNL     1     -41.276  26.157 -24.709  1.00  0.00     0.293 HD
ENDBRANCH  46  51
ENDBRANCH  39  41
ENDBRANCH  38  39
ENDBRANCH   3  38
BRANCH   5  53
ATOM     53  O   UNL     1     -34.302  28.653 -16.153  1.00  0.00    -0.428 OA
BRANCH  53  54
ATOM     54  C   UNL     1     -33.123  28.870 -15.429  1.00  0.00     0.340 C 
ATOM     55  O   UNL     1     -33.003  29.899 -14.708  1.00  0.00    -0.246 OA
BRANCH  54  56
ATOM     56  C   UNL     1     -32.012  27.900 -15.539  1.00  0.00     0.067 A 
ATOM     57  C   UNL     1     -31.642  27.392 -16.796  1.00  0.00     0.066 A 
ATOM     58  C   UNL     1     -31.308  27.486 -14.396  1.00  0.00     0.066 A 
ATOM     59  C   UNL     1     -30.588  26.474 -16.910  1.00  0.00     0.162 A 
ATOM     60  C   UNL     1     -30.249  26.575 -14.505  1.00  0.00     0.162 A 
ATOM     61  C   UNL     1     -29.891  26.061 -15.761  1.00  0.00     0.200 A 
BRANCH  59  62
ATOM     62  O   UNL     1     -30.230  25.971 -18.157  1.00  0.00    -0.504 OA
ATOM     63  H   UNL     1     -29.597  25.185 -18.253  1.00  0.00     0.293 HD
ENDBRANCH  59  62
BRANCH  60  64
ATOM     64  O   UNL     1     -29.567  26.177 -13.355  1.00  0.00    -0.504 OA
ATOM     65  H   UNL     1     -29.895  26.420 -12.427  1.00  0.00     0.293 HD
ENDBRANCH  60  64
BRANCH  61  66
ATOM     66  O   UNL     1     -28.840  25.144 -15.852  1.00  0.00    -0.502 OA
ATOM     67  H   UNL     1     -28.326  24.832 -15.029  1.00  0.00     0.293 HD
ENDBRANCH  61  66
ENDBRANCH  54  56
ENDBRANCH  53  54
ENDBRANCH   5  53
BRANCH   4  68
ATOM     68  O   UNL     1     -34.188  29.668 -18.752  1.00  0.00    -0.448 OA
BRANCH  68  69
ATOM     69  C   UNL     1     -33.215  30.666 -18.593  1.00  0.00     0.339 C 
ATOM     70  O   UNL     1     -33.547  31.813 -18.190  1.00  0.00    -0.246 OA
BRANCH  69  71
ATOM     71  C   UNL     1     -31.793  30.363 -18.860  1.00  0.00     0.067 A 
ATOM     72  C   UNL     1     -30.917  30.054 -17.804  1.00  0.00     0.066 A 
ATOM     73  C   UNL     1     -31.299  30.375 -20.174  1.00  0.00     0.066 A 
ATOM     74  C   UNL     1     -29.577  29.730 -18.060  1.00  0.00     0.162 A 
ATOM     75  C   UNL     1     -29.958  30.069 -20.444  1.00  0.00     0.162 A 
ATOM     76  C   UNL     1     -29.092  29.723 -19.376  1.00  0.00     0.200 A 
BRANCH  74  77
ATOM     77  O   UNL     1     -28.719  29.398 -17.012  1.00  0.00    -0.504 OA
ATOM     78  H   UNL     1     -27.780  29.763 -16.964  1.00  0.00     0.293 HD
ENDBRANCH  74  77
BRANCH  75  79
ATOM     79  O   UNL     1     -29.535  30.132 -21.775  1.00  0.00    -0.504 OA
ATOM     80  H   UNL     1     -28.596  29.933 -22.079  1.00  0.00     0.293 HD
ENDBRANCH  75  79
BRANCH  76  81
ATOM     81  O   UNL     1     -27.760  29.360 -19.585  1.00  0.00    -0.502 OA
ATOM     82  H   UNL     1     -27.393  29.088 -20.481  1.00  0.00     0.293 HD
ENDBRANCH  76  81
ENDBRANCH  69  71
ENDBRANCH  68  69
ENDBRANCH   4  68
TORSDOF 31
ENDMDL
MODEL 6
REMARK VINA RESULT:   113.730      0.784      1.968
REMARK INTER + INTRA:         268.110
REMARK INTER:                 270.998
REMARK INTRA:                  -2.887
REMARK UNBOUND:                -1.862
REMARK SMILES O=C(OC[C@@H]1O[C@@H](OC(=O)c2cc(O)c(O)c(O)c2)[C@@H](OC(=O)c2cc(O)c(O)c(O)c2)[C@H](OC(=O)c2cc(O)c(O)c(O)c2)[C@@H]1OC(=O)c1cc(O)c(O)c(O)c1)c1cc(O)c(O)c(O)c1
REMARK SMILES IDX 5 1 46 2 33 3 20 4 7 5 6 6 4 7 3 8 2 9 1 10 59 11 60 12
REMARK SMILES IDX 61 13 67 14 63 15 65 16 62 17 64 19 66 21 47 23 48 24 49 25
REMARK SMILES IDX 50 26 58 27 51 28 56 29 52 30 54 31 57 32 53 34 55 36 34 38
REMARK SMILES IDX 35 39 36 40 37 41 45 42 38 43 43 44 39 45 41 46 44 47 40 49
REMARK SMILES IDX 42 51 8 53 9 54 10 55 11 56 19 57 12 58 17 59 13 60 15 61
REMARK SMILES IDX 18 62 14 64 16 66 21 68 22 69 23 70 24 71 32 72 25 73 30 74
REMARK SMILES IDX 26 75 28 76 31 77 27 79 29 81
REMARK H PARENT 62 18 64 20 66 22 57 33 53 35 55 37 44 48 40 50 42 52 18 63
REMARK H PARENT 14 65 16 67 31 78 27 80 29 82
REMARK Flexibility Score: inf
ROOT
ATOM      1  C   UNL     1     -36.610  29.313 -16.621  1.00  0.00     0.205 C 
ATOM      2  C   UNL     1     -37.448  29.561 -17.894  1.00  0.00     0.254 C 
ATOM      3  C   UNL     1     -38.944  29.407 -17.552  1.00  0.00     0.267 C 
ATOM      4  C   UNL     1     -39.191  28.056 -16.856  1.00  0.00     0.290 C 
ATOM      5  C   UNL     1     -38.212  27.878 -15.682  1.00  0.00     0.357 C 
ATOM      6  O   UNL     1     -36.864  28.015 -16.105  1.00  0.00    -0.329 OA
ENDROOT
BRANCH   1   7
ATOM      7  C   UNL     1     -35.106  29.455 -16.913  1.00  0.00     0.269 C 
BRANCH   7   8
ATOM      8  O   UNL     1     -34.476  30.266 -15.923  1.00  0.00    -0.459 OA
BRANCH   8   9
ATOM      9  C   UNL     1     -33.504  29.801 -15.029  1.00  0.00     0.338 C 
ATOM     10  O   UNL     1     -33.647  29.975 -13.789  1.00  0.00    -0.246 OA
BRANCH   9  11
ATOM     11  C   UNL     1     -32.324  29.074 -15.546  1.00  0.00     0.067 A 
ATOM     12  C   UNL     1     -31.792  27.993 -14.831  1.00  0.00     0.066 A 
ATOM     13  C   UNL     1     -30.669  27.309 -15.299  1.00  0.00     0.162 A 
ATOM     14  C   UNL     1     -31.717  29.458 -16.752  1.00  0.00     0.066 A 
ATOM     15  C   UNL     1     -30.054  27.701 -16.502  1.00  0.00     0.200 A 
ATOM     16  C   UNL     1     -30.593  28.784 -17.239  1.00  0.00     0.162 A 
BRANCH  13  17
ATOM     17  O   UNL     1     -30.163  26.248 -14.544  1.00  0.00    -0.504 OA
ATOM     18  H   UNL     1     -29.403  25.664 -14.871  1.00  0.00     0.293 HD
ENDBRANCH  13  17
BRANCH  15  19
ATOM     19  O   UNL     1     -28.919  27.003 -16.926  1.00  0.00    -0.502 OA
ATOM     20  H   UNL     1     -28.739  26.034 -16.715  1.00  0.00     0.293 HD
ENDBRANCH  15  19
BRANCH  16  21
ATOM     21  O   UNL     1     -30.052  29.216 -18.454  1.00  0.00    -0.504 OA
ATOM     22  H   UNL     1     -29.107  29.544 -18.570  1.00  0.00     0.293 HD
ENDBRANCH  16  21
ENDBRANCH   9  11
ENDBRANCH   8   9
ENDBRANCH   7   8
ENDBRANCH   1   7
BRANCH   2  23
ATOM     23  O   UNL     1     -37.081  28.615 -18.898  1.00  0.00    -0.452 OA
BRANCH  23  24
ATOM     24  C   UNL     1     -37.383  28.760 -20.259  1.00  0.00     0.338 C 
ATOM     25  O   UNL     1     -37.142  29.847 -20.853  1.00  0.00    -0.246 OA
BRANCH  24  26
ATOM     26  C   UNL     1     -37.982  27.629 -20.997  1.00  0.00     0.067 A 
ATOM     27  C   UNL     1     -39.081  27.831 -21.851  1.00  0.00     0.066 A 
ATOM     28  C   UNL     1     -37.452  26.338 -20.857  1.00  0.00     0.066 A 
ATOM     29  C   UNL     1     -39.641  26.762 -22.555  1.00  0.00     0.162 A 
ATOM     30  C   UNL     1     -38.010  25.262 -21.552  1.00  0.00     0.162 A 
ATOM     31  C   UNL     1     -39.110  25.469 -22.404  1.00  0.00     0.200 A 
BRANCH  29  32
ATOM     32  O   UNL     1     -40.712  27.005 -23.416  1.00  0.00    -0.504 OA
ATOM     33  H   UNL     1     -41.468  27.631 -23.166  1.00  0.00     0.293 HD
ENDBRANCH  29  32
BRANCH  30  34
ATOM     34  O   UNL     1     -37.481  23.979 -21.397  1.00  0.00    -0.504 OA
ATOM     35  H   UNL     1     -37.942  23.168 -21.798  1.00  0.00     0.293 HD
ENDBRANCH  30  34
BRANCH  31  36
ATOM     36  O   UNL     1     -39.675  24.406 -23.110  1.00  0.00    -0.502 OA
ATOM     37  H   UNL     1     -39.504  23.437 -22.857  1.00  0.00     0.293 HD
ENDBRANCH  31  36
ENDBRANCH  24  26
ENDBRANCH  23  24
ENDBRANCH   2  23
BRANCH   3  38
ATOM     38  O   UNL     1     -39.744  29.474 -18.733  1.00  0.00    -0.450 OA
BRANCH  38  39
ATOM     39  C   UNL     1     -40.007  30.649 -19.446  1.00  0.00     0.338 C 
ATOM     40  O   UNL     1     -39.317  31.684 -19.238  1.00  0.00    -0.246 OA
BRANCH  39  41
ATOM     41  C   UNL     1     -41.107  30.670 -20.438  1.00  0.00     0.067 A 
ATOM     42  C   UNL     1     -40.961  30.070 -21.701  1.00  0.00     0.066 A 
ATOM     43  C   UNL     1     -42.319  31.305 -20.125  1.00  0.00     0.066 A 
ATOM     44  C   UNL     1     -41.993  30.132 -22.648  1.00  0.00     0.162 A 
ATOM     45  C   UNL     1     -43.354  31.374 -21.062  1.00  0.00     0.162 A 
ATOM     46  C   UNL     1     -43.193  30.792 -22.330  1.00  0.00     0.200 A 
BRANCH  44  47
ATOM     47  O   UNL     1     -41.833  29.542 -23.905  1.00  0.00    -0.504 OA
ATOM     48  H   UNL     1     -41.675  30.096 -24.740  1.00  0.00     0.293 HD
ENDBRANCH  44  47
BRANCH  45  49
ATOM     49  O   UNL     1     -44.540  32.021 -20.716  1.00  0.00    -0.504 OA
ATOM     50  H   UNL     1     -44.564  33.001 -20.467  1.00  0.00     0.293 HD
ENDBRANCH  45  49
BRANCH  46  51
ATOM     51  O   UNL     1     -44.230  30.873 -23.259  1.00  0.00    -0.502 OA
ATOM     52  H   UNL     1     -44.859  31.667 -23.306  1.00  0.00     0.293 HD
ENDBRANCH  46  51
ENDBRANCH  39  41
ENDBRANCH  38  39
ENDBRANCH   3  38
BRANCH   5  53
ATOM     53  O   UNL     1     -38.506  28.800 -14.630  1.00  0.00    -0.428 OA
BRANCH  53  54
ATOM     54  C   UNL     1     -38.808  28.405 -13.321  1.00  0.00     0.340 C 
ATOM     55  O   UNL     1     -38.819  29.255 -12.389  1.00  0.00    -0.246 OA
BRANCH  54  56
ATOM     56  C   UNL     1     -39.085  26.979 -13.036  1.00  0.00     0.067 A 
ATOM     57  C   UNL     1     -38.505  25.977 -13.830  1.00  0.00     0.066 A 
ATOM     58  C   UNL     1     -39.917  26.613 -11.965  1.00  0.00     0.066 A 
ATOM     59  C   UNL     1     -38.759  24.623 -13.566  1.00  0.00     0.162 A 
ATOM     60  C   UNL     1     -40.168  25.262 -11.691  1.00  0.00     0.162 A 
ATOM     61  C   UNL     1     -39.596  24.263 -12.496  1.00  0.00     0.200 A 
BRANCH  59  62
ATOM     62  O   UNL     1     -38.185  23.634 -14.360  1.00  0.00    -0.504 OA
ATOM     63  H   UNL     1     -38.204  22.657 -14.092  1.00  0.00     0.293 HD
ENDBRANCH  59  62
BRANCH  60  64
ATOM     64  O   UNL     1     -41.001  24.922 -10.625  1.00  0.00    -0.504 OA
ATOM     65  H   UNL     1     -41.380  23.988 -10.518  1.00  0.00     0.293 HD
ENDBRANCH  60  64
BRANCH  61  66
ATOM     66  O   UNL     1     -39.866  22.921 -12.218  1.00  0.00    -0.502 OA
ATOM     67  H   UNL     1     -39.127  22.220 -12.178  1.00  0.00     0.293 HD
ENDBRANCH  61  66
ENDBRANCH  54  56
ENDBRANCH  53  54
ENDBRANCH   5  53
BRANCH   4  68
ATOM     68  O   UNL     1     -40.534  27.988 -16.369  1.00  0.00    -0.448 OA
BRANCH  68  69
ATOM     69  C   UNL     1     -41.524  27.172 -16.937  1.00  0.00     0.339 C 
ATOM     70  O   UNL     1     -42.150  27.559 -17.961  1.00  0.00    -0.246 OA
BRANCH  69  71
ATOM     71  C   UNL     1     -41.808  25.841 -16.360  1.00  0.00     0.067 A 
ATOM     72  C   UNL     1     -42.087  25.700 -14.989  1.00  0.00     0.066 A 
ATOM     73  C   UNL     1     -41.807  24.699 -17.177  1.00  0.00     0.066 A 
ATOM     74  C   UNL     1     -42.393  24.443 -14.449  1.00  0.00     0.162 A 
ATOM     75  C   UNL     1     -42.095  23.433 -16.648  1.00  0.00     0.162 A 
ATOM     76  C   UNL     1     -42.411  23.307 -15.272  1.00  0.00     0.200 A 
BRANCH  74  77
ATOM     77  O   UNL     1     -42.695  24.312 -13.094  1.00  0.00    -0.504 OA
ATOM     78  H   UNL     1     -43.121  23.475 -12.728  1.00  0.00     0.293 HD
ENDBRANCH  74  77
BRANCH  75  79
ATOM     79  O   UNL     1     -42.045  22.341 -17.519  1.00  0.00    -0.504 OA
ATOM     80  H   UNL     1     -41.874  21.393 -17.227  1.00  0.00     0.293 HD
ENDBRANCH  75  79
BRANCH  76  81
ATOM     81  O   UNL     1     -42.755  22.082 -14.696  1.00  0.00    -0.502 OA
ATOM     82  H   UNL     1     -43.462  21.473 -15.069  1.00  0.00     0.293 HD
ENDBRANCH  76  81
ENDBRANCH  69  71
ENDBRANCH  68  69
ENDBRANCH   4  68
TORSDOF 31
ENDMDL
MODEL 7
REMARK VINA RESULT:   113.861      1.279      2.450
REMARK INTER + INTRA:         268.421
REMARK INTER:                 267.944
REMARK INTRA:                   0.477
REMARK UNBOUND:                -1.862
REMARK SMILES O=C(OC[C@@H]1O[C@@H](OC(=O)c2cc(O)c(O)c(O)c2)[C@@H](OC(=O)c2cc(O)c(O)c(O)c2)[C@H](OC(=O)c2cc(O)c(O)c(O)c2)[C@@H]1OC(=O)c1cc(O)c(O)c(O)c1)c1cc(O)c(O)c(O)c1
REMARK SMILES IDX 5 1 46 2 33 3 20 4 7 5 6 6 4 7 3 8 2 9 1 10 59 11 60 12
REMARK SMILES IDX 61 13 67 14 63 15 65 16 62 17 64 19 66 21 47 23 48 24 49 25
REMARK SMILES IDX 50 26 58 27 51 28 56 29 52 30 54 31 57 32 53 34 55 36 34 38
REMARK SMILES IDX 35 39 36 40 37 41 45 42 38 43 43 44 39 45 41 46 44 47 40 49
REMARK SMILES IDX 42 51 8 53 9 54 10 55 11 56 19 57 12 58 17 59 13 60 15 61
REMARK SMILES IDX 18 62 14 64 16 66 21 68 22 69 23 70 24 71 32 72 25 73 30 74
REMARK SMILES IDX 26 75 28 76 31 77 27 79 29 81
REMARK H PARENT 62 18 64 20 66 22 57 33 53 35 55 37 44 48 40 50 42 52 18 63
REMARK H PARENT 14 65 16 67 31 78 27 80 29 82
REMARK Flexibility Score: inf
ROOT
ATOM      1  C   UNL     1     -36.329  29.632 -17.107  1.00  0.00     0.205 C 
ATOM      2  C   UNL     1     -37.322  29.834 -18.273  1.00  0.00     0.254 C 
ATOM      3  C   UNL     1     -38.761  29.659 -17.747  1.00  0.00     0.267 C 
ATOM      4  C   UNL     1     -38.892  28.321 -16.997  1.00  0.00     0.290 C 
ATOM      5  C   UNL     1     -37.773  28.190 -15.948  1.00  0.00     0.357 C 
ATOM      6  O   UNL     1     -36.490  28.342 -16.536  1.00  0.00    -0.329 OA
ENDROOT
BRANCH   1   7
ATOM      7  C   UNL     1     -34.876  29.795 -17.584  1.00  0.00     0.269 C 
BRANCH   7   8
ATOM      8  O   UNL     1     -33.967  29.274 -16.615  1.00  0.00    -0.459 OA
BRANCH   8   9
ATOM      9  C   UNL     1     -32.574  29.306 -16.749  1.00  0.00     0.338 C 
ATOM     10  O   UNL     1     -32.022  30.207 -17.436  1.00  0.00    -0.246 OA
BRANCH   9  11
ATOM     11  C   UNL     1     -31.750  28.296 -16.050  1.00  0.00     0.067 A 
ATOM     12  C   UNL     1     -30.963  27.397 -16.784  1.00  0.00     0.066 A 
ATOM     13  C   UNL     1     -30.194  26.428 -16.137  1.00  0.00     0.162 A 
ATOM     14  C   UNL     1     -31.748  28.216 -14.649  1.00  0.00     0.066 A 
ATOM     15  C   UNL     1     -30.201  26.341 -14.734  1.00  0.00     0.200 A 
ATOM     16  C   UNL     1     -30.983  27.254 -13.983  1.00  0.00     0.162 A 
BRANCH  13  17
ATOM     17  O   UNL     1     -29.439  25.543 -16.910  1.00  0.00    -0.504 OA
ATOM     18  H   UNL     1     -28.426  25.526 -16.881  1.00  0.00     0.293 HD
ENDBRANCH  13  17
BRANCH  15  19
ATOM     19  O   UNL     1     -29.433  25.343 -14.126  1.00  0.00    -0.502 OA
ATOM     20  H   UNL     1     -28.733  24.798 -14.604  1.00  0.00     0.293 HD
ENDBRANCH  15  19
BRANCH  16  21
ATOM     21  O   UNL     1     -31.021  27.246 -12.586  1.00  0.00    -0.504 OA
ATOM     22  H   UNL     1     -31.786  26.881 -12.041  1.00  0.00     0.293 HD
ENDBRANCH  16  21
ENDBRANCH   9  11
ENDBRANCH   8   9
ENDBRANCH   7   8
ENDBRANCH   1   7
BRANCH   2  23
ATOM     23  O   UNL     1     -37.060  28.870 -19.293  1.00  0.00    -0.452 OA
BRANCH  23  24
ATOM     24  C   UNL     1     -37.561  28.957 -20.600  1.00  0.00     0.338 C 
ATOM     25  O   UNL     1     -37.519  30.051 -21.227  1.00  0.00    -0.246 OA
BRANCH  24  26
ATOM     26  C   UNL     1     -38.135  27.757 -21.240  1.00  0.00     0.067 A 
ATOM     27  C   UNL     1     -37.560  26.490 -21.037  1.00  0.00     0.066 A 
ATOM     28  C   UNL     1     -39.271  27.869 -22.055  1.00  0.00     0.066 A 
ATOM     29  C   UNL     1     -38.110  25.354 -21.636  1.00  0.00     0.162 A 
ATOM     30  C   UNL     1     -39.825  26.739 -22.664  1.00  0.00     0.162 A 
ATOM     31  C   UNL     1     -39.244  25.475 -22.458  1.00  0.00     0.200 A 
BRANCH  29  32
ATOM     32  O   UNL     1     -37.529  24.109 -21.388  1.00  0.00    -0.504 OA
ATOM     33  H   UNL     1     -38.081  23.308 -21.105  1.00  0.00     0.293 HD
ENDBRANCH  29  32
BRANCH  30  34
ATOM     34  O   UNL     1     -40.949  26.865 -23.481  1.00  0.00    -0.504 OA
ATOM     35  H   UNL     1     -41.003  26.391 -24.377  1.00  0.00     0.293 HD
ENDBRANCH  30  34
BRANCH  31  36
ATOM     36  O   UNL     1     -39.787  24.336 -23.054  1.00  0.00    -0.502 OA
ATOM     37  H   UNL     1     -39.625  23.403 -22.686  1.00  0.00     0.293 HD
ENDBRANCH  31  36
ENDBRANCH  24  26
ENDBRANCH  23  24
ENDBRANCH   2  23
BRANCH   3  38
ATOM     38  O   UNL     1     -39.700  29.683 -18.822  1.00  0.00    -0.450 OA
BRANCH  38  39
ATOM     39  C   UNL     1     -39.992  30.812 -19.594  1.00  0.00     0.338 C 
ATOM     40  O   UNL     1     -39.285  31.851 -19.488  1.00  0.00    -0.246 OA
BRANCH  39  41
ATOM     41  C   UNL     1     -41.142  30.781 -20.528  1.00  0.00     0.067 A 
ATOM     42  C   UNL     1     -42.368  31.382 -20.195  1.00  0.00     0.066 A 
ATOM     43  C   UNL     1     -41.018  30.135 -21.768  1.00  0.00     0.066 A 
ATOM     44  C   UNL     1     -43.462  31.312 -21.069  1.00  0.00     0.162 A 
ATOM     45  C   UNL     1     -42.103  30.057 -22.645  1.00  0.00     0.162 A 
ATOM     46  C   UNL     1     -43.332  30.641 -22.297  1.00  0.00     0.200 A 
BRANCH  44  47
ATOM     47  O   UNL     1     -44.680  31.904 -20.722  1.00  0.00    -0.504 OA
ATOM     48  H   UNL     1     -44.838  32.901 -20.822  1.00  0.00     0.293 HD
ENDBRANCH  44  47
BRANCH  45  49
ATOM     49  O   UNL     1     -41.942  29.399 -23.866  1.00  0.00    -0.504 OA
ATOM     50  H   UNL     1     -41.647  28.434 -23.919  1.00  0.00     0.293 HD
ENDBRANCH  45  49
BRANCH  46  51
ATOM     51  O   UNL     1     -44.409  30.550 -23.178  1.00  0.00    -0.502 OA
ATOM     52  H   UNL     1     -44.388  30.953 -24.109  1.00  0.00     0.293 HD
ENDBRANCH  46  51
ENDBRANCH  39  41
ENDBRANCH  38  39
ENDBRANCH   3  38
BRANCH   5  53
ATOM     53  O   UNL     1     -37.956  29.132 -14.888  1.00  0.00    -0.428 OA
BRANCH  53  54
ATOM     54  C   UNL     1     -39.214  29.546 -14.433  1.00  0.00     0.340 C 
ATOM     55  O   UNL     1     -40.030  30.085 -15.230  1.00  0.00    -0.246 OA
BRANCH  54  56
ATOM     56  C   UNL     1     -39.567  29.372 -13.006  1.00  0.00     0.067 A 
ATOM     57  C   UNL     1     -38.817  28.504 -12.196  1.00  0.00     0.066 A 
ATOM     58  C   UNL     1     -40.642  30.080 -12.444  1.00  0.00     0.066 A 
ATOM     59  C   UNL     1     -39.142  28.335 -10.842  1.00  0.00     0.162 A 
ATOM     60  C   UNL     1     -40.966  29.922 -11.091  1.00  0.00     0.162 A 
ATOM     61  C   UNL     1     -40.222  29.043 -10.287  1.00  0.00     0.200 A 
BRANCH  59  62
ATOM     62  O   UNL     1     -38.398  27.469 -10.046  1.00  0.00    -0.504 OA
ATOM     63  H   UNL     1     -38.010  26.608 -10.414  1.00  0.00     0.293 HD
ENDBRANCH  59  62
BRANCH  60  64
ATOM     64  O   UNL     1     -42.041  30.633 -10.556  1.00  0.00    -0.504 OA
ATOM     65  H   UNL     1     -41.916  31.320  -9.821  1.00  0.00     0.293 HD
ENDBRANCH  60  64
BRANCH  61  66
ATOM     66  O   UNL     1     -40.566  28.887  -8.942  1.00  0.00    -0.502 OA
ATOM     67  H   UNL     1     -41.488  29.139  -8.590  1.00  0.00     0.293 HD
ENDBRANCH  61  66
ENDBRANCH  54  56
ENDBRANCH  53  54
ENDBRANCH   5  53
BRANCH   4  68
ATOM     68  O   UNL     1     -40.164  28.240 -16.346  1.00  0.00    -0.448 OA
BRANCH  68  69
ATOM     69  C   UNL     1     -41.069  27.187 -16.545  1.00  0.00     0.339 C 
ATOM     70  O   UNL     1     -41.803  27.170 -17.571  1.00  0.00    -0.246 OA
BRANCH  69  71
ATOM     71  C   UNL     1     -41.137  26.075 -15.574  1.00  0.00     0.067 A 
ATOM     72  C   UNL     1     -42.265  25.236 -15.524  1.00  0.00     0.066 A 
ATOM     73  C   UNL     1     -40.072  25.838 -14.690  1.00  0.00     0.066 A 
ATOM     74  C   UNL     1     -42.313  24.159 -14.628  1.00  0.00     0.162 A 
ATOM     75  C   UNL     1     -40.113  24.775 -13.779  1.00  0.00     0.162 A 
ATOM     76  C   UNL     1     -41.238  23.913 -13.761  1.00  0.00     0.200 A 
BRANCH  74  77
ATOM     77  O   UNL     1     -43.422  23.314 -14.601  1.00  0.00    -0.504 OA
ATOM     78  H   UNL     1     -43.625  22.736 -13.799  1.00  0.00     0.293 HD
ENDBRANCH  74  77
BRANCH  75  79
ATOM     79  O   UNL     1     -39.026  24.623 -12.912  1.00  0.00    -0.504 OA
ATOM     80  H   UNL     1     -38.976  23.927 -12.186  1.00  0.00     0.293 HD
ENDBRANCH  75  79
BRANCH  76  81
ATOM     81  O   UNL     1     -41.317  22.808 -12.911  1.00  0.00    -0.502 OA
ATOM     82  H   UNL     1     -40.983  21.893 -13.159  1.00  0.00     0.293 HD
ENDBRANCH  76  81
ENDBRANCH  69  71
ENDBRANCH  68  69
ENDBRANCH   4  68
TORSDOF 31
ENDMDL
MODEL 8
REMARK VINA RESULT:   113.900      0.849      7.435
REMARK INTER + INTRA:         268.514
REMARK INTER:                 271.184
REMARK INTRA:                  -2.670
REMARK UNBOUND:                -1.862
REMARK SMILES O=C(OC[C@@H]1O[C@@H](OC(=O)c2cc(O)c(O)c(O)c2)[C@@H](OC(=O)c2cc(O)c(O)c(O)c2)[C@H](OC(=O)c2cc(O)c(O)c(O)c2)[C@@H]1OC(=O)c1cc(O)c(O)c(O)c1)c1cc(O)c(O)c(O)c1
REMARK SMILES IDX 5 1 46 2 33 3 20 4 7 5 6 6 4 7 3 8 2 9 1 10 59 11 60 12
REMARK SMILES IDX 61 13 67 14 63 15 65 16 62 17 64 19 66 21 47 23 48 24 49 25
REMARK SMILES IDX 50 26 58 27 51 28 56 29 52 30 54 31 57 32 53 34 55 36 34 38
REMARK SMILES IDX 35 39 36 40 37 41 45 42 38 43 43 44 39 45 41 46 44 47 40 49
REMARK SMILES IDX 42 51 8 53 9 54 10 55 11 56 19 57 12 58 17 59 13 60 15 61
REMARK SMILES IDX 18 62 14 64 16 66 21 68 22 69 23 70 24 71 32 72 25 73 30 74
REMARK SMILES IDX 26 75 28 76 31 77 27 79 29 81
REMARK H PARENT 62 18 64 20 66 22 57 33 53 35 55 37 44 48 40 50 42 52 18 63
REMARK H PARENT 14 65 16 67 31 78 27 80 29 82
REMARK Flexibility Score: inf
ROOT
ATOM      1  C   UNL     1     -36.660  28.249 -16.748  1.00  0.00     0.205 C 
ATOM      2  C   UNL     1     -38.033  27.969 -16.098  1.00  0.00     0.254 C 
ATOM      3  C   UNL     1     -39.137  28.118 -17.165  1.00  0.00     0.267 C 
ATOM      4  C   UNL     1     -39.009  29.480 -17.871  1.00  0.00     0.290 C 
ATOM      5  C   UNL     1     -37.566  29.688 -18.365  1.00  0.00     0.357 C 
ATOM      6  O   UNL     1     -36.632  29.554 -17.306  1.00  0.00    -0.329 OA
ENDROOT
BRANCH   1   7
ATOM      7  C   UNL     1     -35.523  28.113 -15.721  1.00  0.00     0.269 C 
BRANCH   7   8
ATOM      8  O   UNL     1     -34.278  28.509 -16.293  1.00  0.00    -0.459 OA
BRANCH   8   9
ATOM      9  C   UNL     1     -33.204  29.024 -15.557  1.00  0.00     0.338 C 
ATOM     10  O   UNL     1     -33.397  29.932 -14.704  1.00  0.00    -0.246 OA
BRANCH   9  11
ATOM     11  C   UNL     1     -31.847  28.472 -15.762  1.00  0.00     0.067 A 
ATOM     12  C   UNL     1     -31.540  27.175 -15.330  1.00  0.00     0.066 A 
ATOM     13  C   UNL     1     -30.259  26.649 -15.502  1.00  0.00     0.162 A 
ATOM     14  C   UNL     1     -30.849  29.237 -16.384  1.00  0.00     0.066 A 
ATOM     15  C   UNL     1     -29.255  27.420 -16.115  1.00  0.00     0.200 A 
ATOM     16  C   UNL     1     -29.559  28.727 -16.568  1.00  0.00     0.162 A 
BRANCH  13  17
ATOM     17  O   UNL     1     -29.994  25.358 -15.040  1.00  0.00    -0.504 OA
ATOM     18  H   UNL     1     -29.185  25.141 -14.468  1.00  0.00     0.293 HD
ENDBRANCH  13  17
BRANCH  15  19
ATOM     19  O   UNL     1     -27.979  26.864 -16.249  1.00  0.00    -0.502 OA
ATOM     20  H   UNL     1     -27.441  26.490 -15.482  1.00  0.00     0.293 HD
ENDBRANCH  15  19
BRANCH  16  21
ATOM     21  O   UNL     1     -28.622  29.544 -17.207  1.00  0.00    -0.504 OA
ATOM     22  H   UNL     1     -28.529  30.534 -17.048  1.00  0.00     0.293 HD
ENDBRANCH  16  21
ENDBRANCH   9  11
ENDBRANCH   8   9
ENDBRANCH   7   8
ENDBRANCH   1   7
BRANCH   2  23
ATOM     23  O   UNL     1     -38.255  28.899 -15.038  1.00  0.00    -0.452 OA
BRANCH  23  24
ATOM     24  C   UNL     1     -38.713  28.539 -13.763  1.00  0.00     0.338 C 
ATOM     25  O   UNL     1     -38.943  29.425 -12.895  1.00  0.00    -0.246 OA
BRANCH  24  26
ATOM     26  C   UNL     1     -38.928  27.113 -13.443  1.00  0.00     0.067 A 
ATOM     27  C   UNL     1     -38.420  26.105 -14.281  1.00  0.00     0.066 A 
ATOM     28  C   UNL     1     -39.637  26.750 -12.288  1.00  0.00     0.066 A 
ATOM     29  C   UNL     1     -38.615  24.757 -13.971  1.00  0.00     0.162 A 
ATOM     30  C   UNL     1     -39.843  25.404 -11.974  1.00  0.00     0.162 A 
ATOM     31  C   UNL     1     -39.334  24.400 -12.817  1.00  0.00     0.200 A 
BRANCH  29  32
ATOM     32  O   UNL     1     -38.072  23.783 -14.811  1.00  0.00    -0.504 OA
ATOM     33  H   UNL     1     -38.383  23.668 -15.768  1.00  0.00     0.293 HD
ENDBRANCH  29  32
BRANCH  30  34
ATOM     34  O   UNL     1     -40.561  25.056 -10.828  1.00  0.00    -0.504 OA
ATOM     35  H   UNL     1     -41.228  25.697 -10.410  1.00  0.00     0.293 HD
ENDBRANCH  30  34
BRANCH  31  36
ATOM     36  O   UNL     1     -39.527  23.052 -12.514  1.00  0.00    -0.502 OA
ATOM     37  H   UNL     1     -40.251  22.495 -12.960  1.00  0.00     0.293 HD
ENDBRANCH  31  36
ENDBRANCH  24  26
ENDBRANCH  23  24
ENDBRANCH   2  23
BRANCH   3  38
ATOM     38  O   UNL     1     -40.432  28.022 -16.571  1.00  0.00    -0.450 OA
BRANCH  38  39
ATOM     39  C   UNL     1     -41.480  27.248 -17.077  1.00  0.00     0.338 C 
ATOM     40  O   UNL     1     -42.187  27.683 -18.028  1.00  0.00    -0.246 OA
BRANCH  39  41
ATOM     41  C   UNL     1     -41.760  25.919 -16.485  1.00  0.00     0.067 A 
ATOM     42  C   UNL     1     -41.745  24.753 -17.270  1.00  0.00     0.066 A 
ATOM     43  C   UNL     1     -42.056  25.812 -15.117  1.00  0.00     0.066 A 
ATOM     44  C   UNL     1     -42.051  23.506 -16.707  1.00  0.00     0.162 A 
ATOM     45  C   UNL     1     -42.365  24.574 -14.547  1.00  0.00     0.162 A 
ATOM     46  C   UNL     1     -42.369  23.416 -15.341  1.00  0.00     0.200 A 
BRANCH  44  47
ATOM     47  O   UNL     1     -42.044  22.355 -17.500  1.00  0.00    -0.504 OA
ATOM     48  H   UNL     1     -41.767  21.451 -17.129  1.00  0.00     0.293 HD
ENDBRANCH  44  47
BRANCH  45  49
ATOM     49  O   UNL     1     -42.661  24.510 -13.185  1.00  0.00    -0.504 OA
ATOM     50  H   UNL     1     -42.643  25.329 -12.593  1.00  0.00     0.293 HD
ENDBRANCH  45  49
BRANCH  46  51
ATOM     51  O   UNL     1     -42.686  22.188 -14.762  1.00  0.00    -0.502 OA
ATOM     52  H   UNL     1     -43.404  21.577 -15.136  1.00  0.00     0.293 HD
ENDBRANCH  46  51
ENDBRANCH  39  41
ENDBRANCH  38  39
ENDBRANCH   3  38
BRANCH   5  53
ATOM     53  O   UNL     1     -37.257  28.784 -19.428  1.00  0.00    -0.428 OA
BRANCH  53  54
ATOM     54  C   UNL     1     -37.803  28.890 -20.714  1.00  0.00     0.340 C 
ATOM     55  O   UNL     1     -37.849  30.010 -21.292  1.00  0.00    -0.246 OA
BRANCH  54  56
ATOM     56  C   UNL     1     -38.351  27.684 -21.374  1.00  0.00     0.067 A 
ATOM     57  C   UNL     1     -39.482  27.786 -22.200  1.00  0.00     0.066 A 
ATOM     58  C   UNL     1     -37.741  26.432 -21.193  1.00  0.00     0.066 A 
ATOM     59  C   UNL     1     -40.006  26.649 -22.831  1.00  0.00     0.162 A 
ATOM     60  C   UNL     1     -38.256  25.293 -21.828  1.00  0.00     0.162 A 
ATOM     61  C   UNL     1     -39.395  25.397 -22.642  1.00  0.00     0.200 A 
BRANCH  59  62
ATOM     62  O   UNL     1     -41.131  26.756 -23.645  1.00  0.00    -0.504 OA
ATOM     63  H   UNL     1     -42.000  26.287 -23.416  1.00  0.00     0.293 HD
ENDBRANCH  59  62
BRANCH  60  64
ATOM     64  O   UNL     1     -37.636  24.060 -21.630  1.00  0.00    -0.504 OA
ATOM     65  H   UNL     1     -37.870  23.463 -20.845  1.00  0.00     0.293 HD
ENDBRANCH  60  64
BRANCH  61  66
ATOM     66  O   UNL     1     -39.903  24.251 -23.259  1.00  0.00    -0.502 OA
ATOM     67  H   UNL     1     -39.826  24.102 -24.264  1.00  0.00     0.293 HD
ENDBRANCH  61  66
ENDBRANCH  54  56
ENDBRANCH  53  54
ENDBRANCH   5  53
BRANCH   4  68
ATOM     68  O   UNL     1     -39.906  29.547 -18.984  1.00  0.00    -0.448 OA
BRANCH  68  69
ATOM     69  C   UNL     1     -40.285  30.748 -19.602  1.00  0.00     0.339 C 
ATOM     70  O   UNL     1     -39.660  31.813 -19.350  1.00  0.00    -0.246 OA
BRANCH  69  71
ATOM     71  C   UNL     1     -41.393  30.759 -20.581  1.00  0.00     0.067 A 
ATOM     72  C   UNL     1     -42.611  31.393 -20.276  1.00  0.00     0.066 A 
ATOM     73  C   UNL     1     -41.241  30.140 -21.832  1.00  0.00     0.066 A 
ATOM     74  C   UNL     1     -43.648  31.436 -21.219  1.00  0.00     0.162 A 
ATOM     75  C   UNL     1     -42.275  30.161 -22.778  1.00  0.00     0.162 A 
ATOM     76  C   UNL     1     -43.485  30.834 -22.475  1.00  0.00     0.200 A 
BRANCH  74  77
ATOM     77  O   UNL     1     -44.844  32.089 -20.922  1.00  0.00    -0.504 OA
ATOM     78  H   UNL     1     -45.167  32.191 -19.971  1.00  0.00     0.293 HD
ENDBRANCH  74  77
BRANCH  75  79
ATOM     79  O   UNL     1     -42.057  29.497 -23.989  1.00  0.00    -0.504 OA
ATOM     80  H   UNL     1     -42.722  28.873 -24.418  1.00  0.00     0.293 HD
ENDBRANCH  75  79
BRANCH  76  81
ATOM     81  O   UNL     1     -44.533  30.933 -23.393  1.00  0.00    -0.502 OA
ATOM     82  H   UNL     1     -44.907  31.808 -23.715  1.00  0.00     0.293 HD
ENDBRANCH  76  81
ENDBRANCH  69  71
ENDBRANCH  68  69
ENDBRANCH   4  68
TORSDOF 31
ENDMDL
