MODEL 1
REMARK VINA RESULT:    -6.608      0.000      0.000
REMARK INTER + INTRA:          -7.188
REMARK INTER:                  -7.188
REMARK INTRA:                   0.000
REMARK UNBOUND:                 0.000
REMARK SMILES Cc1cc(O)c2c(c1)C(=O)c1cc(O)cc(O)c1C2=O
REMARK SMILES IDX 1 1 2 2 8 3 7 4 6 5 4 6 3 7 19 8 20 9 18 10 11 11 9 12 10 13
REMARK SMILES IDX 12 14 13 15 15 16 16 17 5 18 17 20 14 22
REMARK H PARENT 5 19 17 21 14 23
REMARK Flexibility Score: inf
ROOT
ATOM      1  C   UNL     1       3.805  10.628 -19.047  1.00  0.00     0.044 C 
ATOM      2  C   UNL     1       4.266  10.144 -20.390  1.00  0.00    -0.047 A 
ATOM      3  C   UNL     1       5.459  10.625 -20.940  1.00  0.00     0.016 A 
ATOM      4  C   UNL     1       5.885  10.200 -22.209  1.00  0.00     0.038 A 
ATOM      5  C   UNL     1       5.105   9.277 -22.941  1.00  0.00     0.076 A 
ATOM      6  C   UNL     1       3.855   8.859 -22.415  1.00  0.00     0.127 A 
ATOM      7  C   UNL     1       3.462   9.280 -21.141  1.00  0.00     0.050 A 
ATOM      8  C   UNL     1       5.659   8.738 -24.209  1.00  0.00     0.201 C 
ATOM      9  O   UNL     1       5.343   7.578 -24.588  1.00  0.00    -0.288 OA
ATOM     10  C   UNL     1       6.722   9.488 -24.928  1.00  0.00     0.076 A 
ATOM     11  C   UNL     1       7.498  10.412 -24.194  1.00  0.00     0.041 A 
ATOM     12  C   UNL     1       7.147  10.719 -22.788  1.00  0.00     0.194 C 
ATOM     13  O   UNL     1       7.909  11.446 -22.092  1.00  0.00    -0.289 OA
ATOM     14  C   UNL     1       8.600  11.038 -24.804  1.00  0.00     0.059 A 
ATOM     15  C   UNL     1       8.923  10.765 -26.135  1.00  0.00     0.120 A 
ATOM     16  C   UNL     1       8.134   9.885 -26.874  1.00  0.00     0.093 A 
ATOM     17  C   UNL     1       7.022   9.264 -26.298  1.00  0.00     0.131 A 
ENDROOT
BRANCH   6  18
ATOM     18  O   UNL     1       2.964   8.060 -23.133  1.00  0.00    -0.507 OA
ATOM     19  H   UNL     1       3.098   7.803 -24.101  1.00  0.00     0.293 HD
ENDBRANCH   6  18
BRANCH  17  20
ATOM     20  O   UNL     1       6.227   8.468 -27.125  1.00  0.00    -0.507 OA
ATOM     21  H   UNL     1       6.252   8.509 -28.134  1.00  0.00     0.293 HD
ENDBRANCH  17  20
BRANCH  15  22
ATOM     22  O   UNL     1      10.021  11.374 -26.738  1.00  0.00    -0.508 OA
ATOM     23  H   UNL     1      10.427  12.225 -26.366  1.00  0.00     0.293 HD
ENDBRANCH  15  22
TORSDOF 3
ENDMDL
MODEL 2
REMARK VINA RESULT:    -6.419      1.815      6.060
REMARK INTER + INTRA:          -6.982
REMARK INTER:                  -6.982
REMARK INTRA:                   0.000
REMARK UNBOUND:                 0.000
REMARK SMILES Cc1cc(O)c2c(c1)C(=O)c1cc(O)cc(O)c1C2=O
REMARK SMILES IDX 1 1 2 2 8 3 7 4 6 5 4 6 3 7 19 8 20 9 18 10 11 11 9 12 10 13
REMARK SMILES IDX 12 14 13 15 15 16 16 17 5 18 17 20 14 22
REMARK H PARENT 5 19 17 21 14 23
REMARK Flexibility Score: inf
ROOT
ATOM      1  C   UNL     1      10.843  13.190 -25.777  1.00  0.00     0.044 C 
ATOM      2  C   UNL     1       9.962  12.601 -24.715  1.00  0.00    -0.047 A 
ATOM      3  C   UNL     1       8.935  11.716 -25.064  1.00  0.00     0.016 A 
ATOM      4  C   UNL     1       8.087  11.181 -24.080  1.00  0.00     0.038 A 
ATOM      5  C   UNL     1       8.269  11.536 -22.725  1.00  0.00     0.076 A 
ATOM      6  C   UNL     1       9.257  12.498 -22.389  1.00  0.00     0.127 A 
ATOM      7  C   UNL     1      10.102  13.001 -23.383  1.00  0.00     0.050 A 
ATOM      8  C   UNL     1       7.452  10.838 -21.699  1.00  0.00     0.201 C 
ATOM      9  O   UNL     1       7.916  10.665 -20.541  1.00  0.00    -0.288 OA
ATOM     10  C   UNL     1       6.176  10.185 -22.091  1.00  0.00     0.076 A 
ATOM     11  C   UNL     1       5.996   9.834 -23.448  1.00  0.00     0.041 A 
ATOM     12  C   UNL     1       6.998  10.250 -24.458  1.00  0.00     0.194 C 
ATOM     13  O   UNL     1       6.907   9.833 -25.646  1.00  0.00    -0.289 OA
ATOM     14  C   UNL     1       4.866   9.093 -23.834  1.00  0.00     0.059 A 
ATOM     15  C   UNL     1       3.910   8.715 -22.888  1.00  0.00     0.120 A 
ATOM     16  C   UNL     1       4.063   9.095 -21.556  1.00  0.00     0.093 A 
ATOM     17  C   UNL     1       5.168   9.849 -21.150  1.00  0.00     0.131 A 
ENDROOT
BRANCH   6  18
ATOM     18  O   UNL     1       9.407  13.005 -21.097  1.00  0.00    -0.507 OA
ATOM     19  H   UNL     1       8.677  13.496 -20.600  1.00  0.00     0.293 HD
ENDBRANCH   6  18
BRANCH  17  20
ATOM     20  O   UNL     1       5.208  10.271 -19.819  1.00  0.00    -0.507 OA
ATOM     21  H   UNL     1       5.127   9.644 -19.030  1.00  0.00     0.293 HD
ENDBRANCH  17  20
BRANCH  15  22
ATOM     22  O   UNL     1       2.794   7.970 -23.265  1.00  0.00    -0.508 OA
ATOM     23  H   UNL     1       2.866   7.199 -23.919  1.00  0.00     0.293 HD
ENDBRANCH  15  22
TORSDOF 3
ENDMDL
MODEL 3
REMARK VINA RESULT:    -6.305      2.676      5.403
REMARK INTER + INTRA:          -6.858
REMARK INTER:                  -6.858
REMARK INTRA:                   0.000
REMARK UNBOUND:                 0.000
REMARK SMILES Cc1cc(O)c2c(c1)C(=O)c1cc(O)cc(O)c1C2=O
REMARK SMILES IDX 1 1 2 2 8 3 7 4 6 5 4 6 3 7 19 8 20 9 18 10 11 11 9 12 10 13
REMARK SMILES IDX 12 14 13 15 15 16 16 17 5 18 17 20 14 22
REMARK H PARENT 5 19 17 21 14 23
REMARK Flexibility Score: inf
ROOT
ATOM      1  C   UNL     1      11.754  12.683 -19.999  1.00  0.00     0.044 C 
ATOM      2  C   UNL     1      10.665  12.559 -21.025  1.00  0.00    -0.047 A 
ATOM      3  C   UNL     1       9.551  11.750 -20.774  1.00  0.00     0.016 A 
ATOM      4  C   UNL     1       8.541  11.605 -21.739  1.00  0.00     0.038 A 
ATOM      5  C   UNL     1       8.646  12.280 -22.976  1.00  0.00     0.076 A 
ATOM      6  C   UNL     1       9.818  13.029 -23.256  1.00  0.00     0.127 A 
ATOM      7  C   UNL     1      10.801  13.176 -22.272  1.00  0.00     0.050 A 
ATOM      8  C   UNL     1       7.492  12.222 -23.909  1.00  0.00     0.201 C 
ATOM      9  O   UNL     1       7.270  13.185 -24.691  1.00  0.00    -0.288 OA
ATOM     10  C   UNL     1       6.500  11.122 -23.789  1.00  0.00     0.076 A 
ATOM     11  C   UNL     1       6.399  10.447 -22.552  1.00  0.00     0.041 A 
ATOM     12  C   UNL     1       7.367  10.742 -21.468  1.00  0.00     0.194 C 
ATOM     13  O   UNL     1       7.205  10.236 -20.324  1.00  0.00    -0.289 OA
ATOM     14  C   UNL     1       5.383   9.496 -22.356  1.00  0.00     0.059 A 
ATOM     15  C   UNL     1       4.481   9.201 -23.381  1.00  0.00     0.120 A 
ATOM     16  C   UNL     1       4.603   9.835 -24.616  1.00  0.00     0.093 A 
ATOM     17  C   UNL     1       5.618  10.770 -24.844  1.00  0.00     0.131 A 
ENDROOT
BRANCH   6  18
ATOM     18  O   UNL     1      10.061  13.611 -24.502  1.00  0.00    -0.507 OA
ATOM     19  H   UNL     1      10.837  14.230 -24.688  1.00  0.00     0.293 HD
ENDBRANCH   6  18
BRANCH  17  20
ATOM     20  O   UNL     1       5.734  11.296 -26.133  1.00  0.00    -0.507 OA
ATOM     21  H   UNL     1       6.244  10.843 -26.878  1.00  0.00     0.293 HD
ENDBRANCH  17  20
BRANCH  15  22
ATOM     22  O   UNL     1       3.465   8.268 -23.186  1.00  0.00    -0.508 OA
ATOM     23  H   UNL     1       3.667   7.286 -23.038  1.00  0.00     0.293 HD
ENDBRANCH  15  22
TORSDOF 3
ENDMDL
MODEL 4
REMARK VINA RESULT:    -6.293      1.481      5.526
REMARK INTER + INTRA:          -6.845
REMARK INTER:                  -6.845
REMARK INTRA:                   0.000
REMARK UNBOUND:                 0.000
REMARK SMILES Cc1cc(O)c2c(c1)C(=O)c1cc(O)cc(O)c1C2=O
REMARK SMILES IDX 1 1 2 2 8 3 7 4 6 5 4 6 3 7 19 8 20 9 18 10 11 11 9 12 10 13
REMARK SMILES IDX 12 14 13 15 15 16 16 17 5 18 17 20 14 22
REMARK H PARENT 5 19 17 21 14 23
REMARK Flexibility Score: inf
ROOT
ATOM      1  C   UNL     1      10.826  11.776 -25.665  1.00  0.00     0.044 C 
ATOM      2  C   UNL     1       9.455  11.284 -25.304  1.00  0.00    -0.047 A 
ATOM      3  C   UNL     1       8.940  11.512 -24.023  1.00  0.00     0.016 A 
ATOM      4  C   UNL     1       7.669  11.032 -23.667  1.00  0.00     0.038 A 
ATOM      5  C   UNL     1       6.900  10.311 -24.608  1.00  0.00     0.076 A 
ATOM      6  C   UNL     1       7.463  10.010 -25.875  1.00  0.00     0.127 A 
ATOM      7  C   UNL     1       8.721  10.517 -26.214  1.00  0.00     0.050 A 
ATOM      8  C   UNL     1       5.506   9.948 -24.245  1.00  0.00     0.201 C 
ATOM      9  O   UNL     1       4.631   9.848 -25.147  1.00  0.00    -0.288 OA
ATOM     10  C   UNL     1       5.106   9.890 -22.815  1.00  0.00     0.076 A 
ATOM     11  C   UNL     1       5.879  10.610 -21.877  1.00  0.00     0.041 A 
ATOM     12  C   UNL     1       7.134  11.272 -22.306  1.00  0.00     0.194 C 
ATOM     13  O   UNL     1       7.760  12.018 -21.503  1.00  0.00    -0.289 OA
ATOM     14  C   UNL     1       5.455  10.692 -20.539  1.00  0.00     0.059 A 
ATOM     15  C   UNL     1       4.283  10.054 -20.127  1.00  0.00     0.120 A 
ATOM     16  C   UNL     1       3.540   9.309 -21.040  1.00  0.00     0.093 A 
ATOM     17  C   UNL     1       3.950   9.195 -22.372  1.00  0.00     0.131 A 
ENDROOT
BRANCH   6  18
ATOM     18  O   UNL     1       6.826   9.188 -26.807  1.00  0.00    -0.507 OA
ATOM     19  H   UNL     1       7.010   9.221 -27.800  1.00  0.00     0.293 HD
ENDBRANCH   6  18
BRANCH  17  20
ATOM     20  O   UNL     1       3.206   8.358 -23.207  1.00  0.00    -0.507 OA
ATOM     21  H   UNL     1       2.570   8.696 -23.915  1.00  0.00     0.293 HD
ENDBRANCH  17  20
BRANCH  15  22
ATOM     22  O   UNL     1       3.854  10.143 -18.804  1.00  0.00    -0.508 OA
ATOM     23  H   UNL     1       4.499  10.347 -18.049  1.00  0.00     0.293 HD
ENDBRANCH  15  22
TORSDOF 3
ENDMDL
MODEL 5
REMARK VINA RESULT:    -6.168      3.734      6.206
REMARK INTER + INTRA:          -6.709
REMARK INTER:                  -6.709
REMARK INTRA:                   0.000
REMARK UNBOUND:                 0.000
REMARK SMILES Cc1cc(O)c2c(c1)C(=O)c1cc(O)cc(O)c1C2=O
REMARK SMILES IDX 1 1 2 2 8 3 7 4 6 5 4 6 3 7 19 8 20 9 18 10 11 11 9 12 10 13
REMARK SMILES IDX 12 14 13 15 15 16 16 17 5 18 17 20 14 22
REMARK H PARENT 5 19 17 21 14 23
REMARK Flexibility Score: inf
ROOT
ATOM      1  C   UNL     1       6.635  11.518 -26.919  1.00  0.00     0.044 C 
ATOM      2  C   UNL     1       7.265  11.607 -25.560  1.00  0.00    -0.047 A 
ATOM      3  C   UNL     1       8.338  12.478 -25.337  1.00  0.00     0.016 A 
ATOM      4  C   UNL     1       8.953  12.548 -24.076  1.00  0.00     0.038 A 
ATOM      5  C   UNL     1       8.487  11.733 -23.020  1.00  0.00     0.076 A 
ATOM      6  C   UNL     1       7.457  10.792 -23.276  1.00  0.00     0.127 A 
ATOM      7  C   UNL     1       6.846  10.755 -24.533  1.00  0.00     0.050 A 
ATOM      8  C   UNL     1       9.062  11.941 -21.666  1.00  0.00     0.201 C 
ATOM      9  O   UNL     1       8.361  11.709 -20.645  1.00  0.00    -0.288 OA
ATOM     10  C   UNL     1      10.389  12.595 -21.520  1.00  0.00     0.076 A 
ATOM     11  C   UNL     1      10.852  13.407 -22.579  1.00  0.00     0.041 A 
ATOM     12  C   UNL     1      10.092  13.468 -23.850  1.00  0.00     0.194 C 
ATOM     13  O   UNL     1      10.432  14.285 -24.750  1.00  0.00    -0.289 OA
ATOM     14  C   UNL     1      12.035  14.151 -22.424  1.00  0.00     0.059 A 
ATOM     15  C   UNL     1      12.765  14.081 -21.234  1.00  0.00     0.120 A 
ATOM     16  C   UNL     1      12.333  13.250 -20.203  1.00  0.00     0.093 A 
ATOM     17  C   UNL     1      11.170  12.484 -20.340  1.00  0.00     0.131 A 
ENDROOT
BRANCH   6  18
ATOM     18  O   UNL     1       7.037   9.858 -22.327  1.00  0.00    -0.507 OA
ATOM     19  H   UNL     1       6.093   9.811 -21.968  1.00  0.00     0.293 HD
ENDBRANCH   6  18
BRANCH  17  20
ATOM     20  O   UNL     1      10.850  11.606 -19.302  1.00  0.00    -0.507 OA
ATOM     21  H   UNL     1      11.305  11.615 -18.400  1.00  0.00     0.293 HD
ENDBRANCH  17  20
BRANCH  15  22
ATOM     22  O   UNL     1      13.931  14.827 -21.072  1.00  0.00    -0.508 OA
ATOM     23  H   UNL     1      14.676  14.801 -21.759  1.00  0.00     0.293 HD
ENDBRANCH  15  22
TORSDOF 3
ENDMDL
MODEL 6
REMARK VINA RESULT:    -6.125      4.087      6.366
REMARK INTER + INTRA:          -6.663
REMARK INTER:                  -6.663
REMARK INTRA:                   0.000
REMARK UNBOUND:                 0.000
REMARK SMILES Cc1cc(O)c2c(c1)C(=O)c1cc(O)cc(O)c1C2=O
REMARK SMILES IDX 1 1 2 2 8 3 7 4 6 5 4 6 3 7 19 8 20 9 18 10 11 11 9 12 10 13
REMARK SMILES IDX 12 14 13 15 15 16 16 17 5 18 17 20 14 22
REMARK H PARENT 5 19 17 21 14 23
REMARK Flexibility Score: inf
ROOT
ATOM      1  C   UNL     1       5.069  11.311 -22.899  1.00  0.00     0.044 C 
ATOM      2  C   UNL     1       6.486  11.755 -23.109  1.00  0.00    -0.047 A 
ATOM      3  C   UNL     1       7.414  11.664 -22.065  1.00  0.00     0.016 A 
ATOM      4  C   UNL     1       8.736  12.103 -22.242  1.00  0.00     0.038 A 
ATOM      5  C   UNL     1       9.138  12.643 -23.484  1.00  0.00     0.076 A 
ATOM      6  C   UNL     1       8.172  12.810 -24.510  1.00  0.00     0.127 A 
ATOM      7  C   UNL     1       6.867  12.347 -24.317  1.00  0.00     0.050 A 
ATOM      8  C   UNL     1      10.577  12.958 -23.681  1.00  0.00     0.201 C 
ATOM      9  O   UNL     1      11.082  12.882 -24.833  1.00  0.00    -0.288 OA
ATOM     10  C   UNL     1      11.453  13.177 -22.501  1.00  0.00     0.076 A 
ATOM     11  C   UNL     1      11.046  12.639 -21.259  1.00  0.00     0.041 A 
ATOM     12  C   UNL     1       9.710  12.010 -21.129  1.00  0.00     0.194 C 
ATOM     13  O   UNL     1       9.394  11.418 -20.060  1.00  0.00    -0.289 OA
ATOM     14  C   UNL     1      11.910  12.705 -20.152  1.00  0.00     0.059 A 
ATOM     15  C   UNL     1      13.162  13.314 -20.266  1.00  0.00     0.120 A 
ATOM     16  C   UNL     1      13.550  13.883 -21.478  1.00  0.00     0.093 A 
ATOM     17  C   UNL     1      12.700  13.848 -22.589  1.00  0.00     0.131 A 
ENDROOT
BRANCH   6  18
ATOM     18  O   UNL     1       8.455  13.460 -25.713  1.00  0.00    -0.507 OA
ATOM     19  H   UNL     1       9.347  13.403 -26.183  1.00  0.00     0.293 HD
ENDBRANCH   6  18
BRANCH  17  20
ATOM     20  O   UNL     1      13.118  14.517 -23.742  1.00  0.00    -0.507 OA
ATOM     21  H   UNL     1      12.485  14.858 -24.452  1.00  0.00     0.293 HD
ENDBRANCH  17  20
BRANCH  15  22
ATOM     22  O   UNL     1      14.026  13.371 -19.174  1.00  0.00    -0.508 OA
ATOM     23  H   UNL     1      14.074  12.620 -18.496  1.00  0.00     0.293 HD
ENDBRANCH  15  22
TORSDOF 3
ENDMDL
MODEL 7
REMARK VINA RESULT:    -6.028      3.476      6.169
REMARK INTER + INTRA:          -6.556
REMARK INTER:                  -6.556
REMARK INTRA:                   0.000
REMARK UNBOUND:                 0.000
REMARK SMILES Cc1cc(O)c2c(c1)C(=O)c1cc(O)cc(O)c1C2=O
REMARK SMILES IDX 1 1 2 2 8 3 7 4 6 5 4 6 3 7 19 8 20 9 18 10 11 11 9 12 10 13
REMARK SMILES IDX 12 14 13 15 15 16 16 17 5 18 17 20 14 22
REMARK H PARENT 5 19 17 21 14 23
REMARK Flexibility Score: inf
ROOT
ATOM      1  C   UNL     1      13.584  14.080 -21.861  1.00  0.00     0.044 C 
ATOM      2  C   UNL     1      12.267  13.374 -21.723  1.00  0.00    -0.047 A 
ATOM      3  C   UNL     1      11.351  13.381 -22.779  1.00  0.00     0.016 A 
ATOM      4  C   UNL     1      10.104  12.747 -22.649  1.00  0.00     0.038 A 
ATOM      5  C   UNL     1       9.768  12.096 -21.442  1.00  0.00     0.076 A 
ATOM      6  C   UNL     1      10.666  12.166 -20.346  1.00  0.00     0.127 A 
ATOM      7  C   UNL     1      11.910  12.785 -20.506  1.00  0.00     0.050 A 
ATOM      8  C   UNL     1       8.507  11.312 -21.393  1.00  0.00     0.201 C 
ATOM      9  O   UNL     1       8.424  10.305 -20.640  1.00  0.00    -0.288 OA
ATOM     10  C   UNL     1       7.419  11.603 -22.363  1.00  0.00     0.076 A 
ATOM     11  C   UNL     1       7.758  12.257 -23.569  1.00  0.00     0.041 A 
ATOM     12  C   UNL     1       9.136  12.765 -23.772  1.00  0.00     0.194 C 
ATOM     13  O   UNL     1       9.476  13.236 -24.892  1.00  0.00    -0.289 OA
ATOM     14  C   UNL     1       6.785  12.426 -24.569  1.00  0.00     0.059 A 
ATOM     15  C   UNL     1       5.481  11.966 -24.374  1.00  0.00     0.120 A 
ATOM     16  C   UNL     1       5.132  11.357 -23.170  1.00  0.00     0.093 A 
ATOM     17  C   UNL     1       6.076  11.195 -22.151  1.00  0.00     0.131 A 
ENDROOT
BRANCH   6  18
ATOM     18  O   UNL     1      10.351  11.669 -19.080  1.00  0.00    -0.507 OA
ATOM     19  H   UNL     1       9.756  10.867 -18.925  1.00  0.00     0.293 HD
ENDBRANCH   6  18
BRANCH  17  20
ATOM     20  O   UNL     1       5.632  10.659 -20.939  1.00  0.00    -0.507 OA
ATOM     21  H   UNL     1       5.720  11.134 -20.052  1.00  0.00     0.293 HD
ENDBRANCH  17  20
BRANCH  15  22
ATOM     22  O   UNL     1       4.517  12.121 -25.369  1.00  0.00    -0.508 OA
ATOM     23  H   UNL     1       4.667  11.780 -26.311  1.00  0.00     0.293 HD
ENDBRANCH  15  22
TORSDOF 3
ENDMDL
MODEL 8
REMARK VINA RESULT:    -6.003      1.646      2.165
REMARK INTER + INTRA:          -6.530
REMARK INTER:                  -6.530
REMARK INTRA:                   0.000
REMARK UNBOUND:                 0.000
REMARK SMILES Cc1cc(O)c2c(c1)C(=O)c1cc(O)cc(O)c1C2=O
REMARK SMILES IDX 1 1 2 2 8 3 7 4 6 5 4 6 3 7 19 8 20 9 18 10 11 11 9 12 10 13
REMARK SMILES IDX 12 14 13 15 15 16 16 17 5 18 17 20 14 22
REMARK H PARENT 5 19 17 21 14 23
REMARK Flexibility Score: inf
ROOT
ATOM      1  C   UNL     1       3.491   9.498 -19.623  1.00  0.00     0.044 C 
ATOM      2  C   UNL     1       4.343   9.678 -20.844  1.00  0.00    -0.047 A 
ATOM      3  C   UNL     1       5.570  10.343 -20.755  1.00  0.00     0.016 A 
ATOM      4  C   UNL     1       6.362  10.541 -21.898  1.00  0.00     0.038 A 
ATOM      5  C   UNL     1       5.918  10.066 -23.152  1.00  0.00     0.076 A 
ATOM      6  C   UNL     1       4.635   9.469 -23.251  1.00  0.00     0.127 A 
ATOM      7  C   UNL     1       3.874   9.264 -22.096  1.00  0.00     0.050 A 
ATOM      8  C   UNL     1       6.846  10.162 -24.309  1.00  0.00     0.201 C 
ATOM      9  O   UNL     1       6.784   9.308 -25.234  1.00  0.00    -0.288 OA
ATOM     10  C   UNL     1       7.961  11.145 -24.281  1.00  0.00     0.076 A 
ATOM     11  C   UNL     1       8.400  11.620 -23.025  1.00  0.00     0.041 A 
ATOM     12  C   UNL     1       7.658  11.252 -21.796  1.00  0.00     0.194 C 
ATOM     13  O   UNL     1       8.117  11.569 -20.664  1.00  0.00    -0.289 OA
ATOM     14  C   UNL     1       9.538  12.441 -22.948  1.00  0.00     0.059 A 
ATOM     15  C   UNL     1      10.229  12.805 -24.106  1.00  0.00     0.120 A 
ATOM     16  C   UNL     1       9.775  12.372 -25.351  1.00  0.00     0.093 A 
ATOM     17  C   UNL     1       8.634  11.570 -25.456  1.00  0.00     0.131 A 
ENDROOT
BRANCH   6  18
ATOM     18  O   UNL     1       4.067   9.100 -24.471  1.00  0.00    -0.507 OA
ATOM     19  H   UNL     1       4.263   9.569 -25.344  1.00  0.00     0.293 HD
ENDBRANCH   6  18
BRANCH  17  20
ATOM     20  O   UNL     1       8.186  11.252 -26.741  1.00  0.00    -0.507 OA
ATOM     21  H   UNL     1       8.675  10.626 -27.365  1.00  0.00     0.293 HD
ENDBRANCH  17  20
BRANCH  15  22
ATOM     22  O   UNL     1      11.364  13.610 -24.032  1.00  0.00    -0.508 OA
ATOM     23  H   UNL     1      11.371  14.470 -23.496  1.00  0.00     0.293 HD
ENDBRANCH  15  22
TORSDOF 3
ENDMDL
MODEL 9
REMARK VINA RESULT:    -5.851      3.054      4.721
REMARK INTER + INTRA:          -6.364
REMARK INTER:                  -6.364
REMARK INTRA:                   0.000
REMARK UNBOUND:                 0.000
REMARK SMILES Cc1cc(O)c2c(c1)C(=O)c1cc(O)cc(O)c1C2=O
REMARK SMILES IDX 1 1 2 2 8 3 7 4 6 5 4 6 3 7 19 8 20 9 18 10 11 11 9 12 10 13
REMARK SMILES IDX 12 14 13 15 15 16 16 17 5 18 17 20 14 22
REMARK H PARENT 5 19 17 21 14 23
REMARK Flexibility Score: inf
ROOT
ATOM      1  C   UNL     1       3.329   9.616 -21.876  1.00  0.00     0.044 C 
ATOM      2  C   UNL     1       4.593  10.300 -22.307  1.00  0.00    -0.047 A 
ATOM      3  C   UNL     1       5.719  10.285 -21.477  1.00  0.00     0.016 A 
ATOM      4  C   UNL     1       6.898  10.947 -21.859  1.00  0.00     0.038 A 
ATOM      5  C   UNL     1       6.952  11.634 -23.092  1.00  0.00     0.076 A 
ATOM      6  C   UNL     1       5.781  11.717 -23.889  1.00  0.00     0.127 A 
ATOM      7  C   UNL     1       4.626  11.033 -23.498  1.00  0.00     0.050 A 
ATOM      8  C   UNL     1       8.257  12.194 -23.529  1.00  0.00     0.201 C 
ATOM      9  O   UNL     1       8.519  12.286 -24.758  1.00  0.00    -0.288 OA
ATOM     10  C   UNL     1       9.317  12.466 -22.523  1.00  0.00     0.076 A 
ATOM     11  C   UNL     1       9.259  11.779 -21.290  1.00  0.00     0.041 A 
ATOM     12  C   UNL     1       8.085  10.932 -20.971  1.00  0.00     0.194 C 
ATOM     13  O   UNL     1       8.086  10.220 -19.930  1.00  0.00    -0.289 OA
ATOM     14  C   UNL     1      10.314  11.904 -20.370  1.00  0.00     0.059 A 
ATOM     15  C   UNL     1      11.413  12.716 -20.659  1.00  0.00     0.120 A 
ATOM     16  C   UNL     1      11.455  13.428 -21.856  1.00  0.00     0.093 A 
ATOM     17  C   UNL     1      10.409  13.336 -22.780  1.00  0.00     0.131 A 
ENDROOT
BRANCH   6  18
ATOM     18  O   UNL     1       5.711  12.490 -25.049  1.00  0.00    -0.507 OA
ATOM     19  H   UNL     1       6.348  12.391 -25.827  1.00  0.00     0.293 HD
ENDBRANCH   6  18
BRANCH  17  20
ATOM     20  O   UNL     1      10.477  14.148 -23.915  1.00  0.00    -0.507 OA
ATOM     21  H   UNL     1       9.665  14.536 -24.375  1.00  0.00     0.293 HD
ENDBRANCH  17  20
BRANCH  15  22
ATOM     22  O   UNL     1      12.467  12.834 -19.754  1.00  0.00    -0.508 OA
ATOM     23  H   UNL     1      13.070  13.647 -19.745  1.00  0.00     0.293 HD
ENDBRANCH  15  22
TORSDOF 3
ENDMDL
