MODEL 1
REMARK VINA RESULT:    -2.758      0.000      0.000
REMARK INTER + INTRA:          -6.030
REMARK INTER:                  -5.015
REMARK INTRA:                  -1.015
REMARK UNBOUND:                -1.015
REMARK SMILES CCCCCC=CCC=CCCCCCCCC(=O)[O-]
REMARK SMILES IDX 11 1 12 2 13 3 14 4 15 5 16 6 17 7 18 8 19 9 20 10 10 11
REMARK SMILES IDX 9 12 8 13 7 14 6 15 5 16 4 17 3 18 2 19 1 20
REMARK H PARENT
REMARK Flexibility Score: inf
ROOT
ATOM      1  C   UNL     1     -20.798   2.245   7.890  1.00  0.00     0.027 C 
ENDROOT
BRANCH   1   2
ATOM      2  C   UNL     1     -21.574   2.842   9.074  1.00  0.00     0.004 C 
BRANCH   2   3
ATOM      3  C   UNL     1     -22.013   1.769  10.082  1.00  0.00     0.000 C 
BRANCH   3   4
ATOM      4  C   UNL     1     -21.018   1.676  11.247  1.00  0.00     0.000 C 
BRANCH   4   5
ATOM      5  C   UNL     1     -21.702   1.424  12.601  1.00  0.00     0.000 C 
BRANCH   5   6
ATOM      6  C   UNL     1     -20.841   0.672  13.634  1.00  0.00     0.006 C 
BRANCH   6   7
ATOM      7  C   UNL     1     -21.419  -0.697  14.013  1.00  0.00     0.053 C 
BRANCH   7   8
ATOM      8  C   UNL     1     -20.874  -1.766  13.119  1.00  0.00     0.041 C 
ATOM      9  O   UNL     1     -20.034  -1.478  12.226  1.00  0.00    -0.550 OA
ATOM     10  O   UNL     1     -21.323  -3.075  13.246  1.00  0.00    -0.550 OA
ENDBRANCH   7   8
ENDBRANCH   6   7
ENDBRANCH   5   6
ENDBRANCH   4   5
ENDBRANCH   3   4
ENDBRANCH   2   3
ENDBRANCH   1   2
BRANCH   1  11
ATOM     11  C   UNL     1     -20.527   0.774   8.068  1.00  0.00    -0.031 C 
ATOM     12  C   UNL     1     -20.413  -0.052   7.017  1.00  0.00    -0.027 C 
BRANCH  12  13
ATOM     13  C   UNL     1     -20.126  -1.514   7.222  1.00  0.00     0.054 C 
BRANCH  13  14
ATOM     14  C   UNL     1     -20.025  -1.868   8.686  1.00  0.00    -0.027 C 
ATOM     15  C   UNL     1     -19.498  -3.022   9.134  1.00  0.00    -0.031 C 
BRANCH  15  16
ATOM     16  C   UNL     1     -19.009  -4.134   8.241  1.00  0.00     0.027 C 
BRANCH  16  17
ATOM     17  C   UNL     1     -19.291  -5.502   8.876  1.00  0.00     0.004 C 
BRANCH  17  18
ATOM     18  C   UNL     1     -20.626  -6.115   8.416  1.00  0.00     0.000 C 
BRANCH  18  19
ATOM     19  C   UNL     1     -21.629  -6.354   9.562  1.00  0.00    -0.003 C 
ATOM     20  C   UNL     1     -22.963  -6.911   9.066  1.00  0.00     0.004 C 
ENDBRANCH  18  19
ENDBRANCH  17  18
ENDBRANCH  16  17
ENDBRANCH  15  16
ENDBRANCH  13  14
ENDBRANCH  12  13
ENDBRANCH   1  11
TORSDOF 14
ENDMDL
MODEL 2
REMARK VINA RESULT:    -2.715      1.088      2.374
REMARK INTER + INTRA:          -5.952
REMARK INTER:                  -4.819
REMARK INTRA:                  -1.134
REMARK UNBOUND:                -1.015
REMARK SMILES CCCCCC=CCC=CCCCCCCCC(=O)[O-]
REMARK SMILES IDX 11 1 12 2 13 3 14 4 15 5 16 6 17 7 18 8 19 9 20 10 10 11
REMARK SMILES IDX 9 12 8 13 7 14 6 15 5 16 4 17 3 18 2 19 1 20
REMARK H PARENT
REMARK Flexibility Score: inf
ROOT
ATOM      1  C   UNL     1     -20.596  -0.175   7.099  1.00  0.00     0.027 C 
ENDROOT
BRANCH   1   2
ATOM      2  C   UNL     1     -20.110   1.006   7.952  1.00  0.00     0.004 C 
BRANCH   2   3
ATOM      3  C   UNL     1     -21.135   2.150   7.997  1.00  0.00     0.000 C 
BRANCH   3   4
ATOM      4  C   UNL     1     -21.591   2.418   9.438  1.00  0.00     0.000 C 
BRANCH   4   5
ATOM      5  C   UNL     1     -21.231   1.275  10.404  1.00  0.00     0.000 C 
BRANCH   5   6
ATOM      6  C   UNL     1     -21.921   1.347  11.779  1.00  0.00     0.006 C 
BRANCH   6   7
ATOM      7  C   UNL     1     -20.966   1.054  12.944  1.00  0.00     0.053 C 
BRANCH   7   8
ATOM      8  C   UNL     1     -21.181  -0.332  13.466  1.00  0.00     0.041 C 
ATOM      9  O   UNL     1     -21.930  -0.527  14.460  1.00  0.00    -0.550 OA
ATOM     10  O   UNL     1     -20.525  -1.407  12.877  1.00  0.00    -0.550 OA
ENDBRANCH   7   8
ENDBRANCH   6   7
ENDBRANCH   5   6
ENDBRANCH   4   5
ENDBRANCH   3   4
ENDBRANCH   2   3
ENDBRANCH   1   2
BRANCH   1  11
ATOM     11  C   UNL     1     -20.298  -1.505   7.740  1.00  0.00    -0.031 C 
ATOM     12  C   UNL     1     -20.012  -1.607   9.046  1.00  0.00    -0.027 C 
BRANCH  12  13
ATOM     13  C   UNL     1     -19.734  -2.950   9.665  1.00  0.00     0.054 C 
BRANCH  13  14
ATOM     14  C   UNL     1     -18.965  -3.852   8.729  1.00  0.00    -0.027 C 
ATOM     15  C   UNL     1     -19.260  -5.152   8.547  1.00  0.00    -0.031 C 
BRANCH  15  16
ATOM     16  C   UNL     1     -20.340  -5.890   9.296  1.00  0.00     0.027 C 
BRANCH  16  17
ATOM     17  C   UNL     1     -21.338  -6.527   8.319  1.00  0.00     0.004 C 
BRANCH  17  18
ATOM     18  C   UNL     1     -22.629  -7.007   9.006  1.00  0.00     0.000 C 
BRANCH  18  19
ATOM     19  C   UNL     1     -23.219  -8.293   8.392  1.00  0.00    -0.003 C 
ATOM     20  C   UNL     1     -24.684  -8.130   7.992  1.00  0.00     0.004 C 
ENDBRANCH  18  19
ENDBRANCH  17  18
ENDBRANCH  16  17
ENDBRANCH  15  16
ENDBRANCH  13  14
ENDBRANCH  12  13
ENDBRANCH   1  11
TORSDOF 14
ENDMDL
MODEL 3
REMARK VINA RESULT:    -2.572      1.742      6.078
REMARK INTER + INTRA:          -5.692
REMARK INTER:                  -4.490
REMARK INTRA:                  -1.202
REMARK UNBOUND:                -1.015
REMARK SMILES CCCCCC=CCC=CCCCCCCCC(=O)[O-]
REMARK SMILES IDX 11 1 12 2 13 3 14 4 15 5 16 6 17 7 18 8 19 9 20 10 10 11
REMARK SMILES IDX 9 12 8 13 7 14 6 15 5 16 4 17 3 18 2 19 1 20
REMARK H PARENT
REMARK Flexibility Score: inf
ROOT
ATOM      1  C   UNL     1     -19.879  -0.290   6.729  1.00  0.00     0.027 C 
ENDROOT
BRANCH   1   2
ATOM      2  C   UNL     1     -20.353  -1.564   7.442  1.00  0.00     0.004 C 
BRANCH   2   3
ATOM      3  C   UNL     1     -20.140  -1.492   8.962  1.00  0.00     0.000 C 
BRANCH   3   4
ATOM      4  C   UNL     1     -19.537  -2.801   9.491  1.00  0.00     0.000 C 
BRANCH   4   5
ATOM      5  C   UNL     1     -19.224  -3.812   8.375  1.00  0.00     0.000 C 
BRANCH   5   6
ATOM      6  C   UNL     1     -19.161  -5.282   8.829  1.00  0.00     0.006 C 
BRANCH   6   7
ATOM      7  C   UNL     1     -20.272  -6.146   8.220  1.00  0.00     0.053 C 
BRANCH   7   8
ATOM      8  C   UNL     1     -21.430  -6.256   9.161  1.00  0.00     0.041 C 
ATOM      9  O   UNL     1     -21.353  -5.773  10.322  1.00  0.00    -0.550 OA
ATOM     10  O   UNL     1     -22.583  -6.927   8.770  1.00  0.00    -0.550 OA
ENDBRANCH   7   8
ENDBRANCH   6   7
ENDBRANCH   5   6
ENDBRANCH   4   5
ENDBRANCH   3   4
ENDBRANCH   2   3
ENDBRANCH   1   2
BRANCH   1  11
ATOM     11  C   UNL     1     -19.976   0.929   7.608  1.00  0.00    -0.031 C 
ATOM     12  C   UNL     1     -20.941   1.845   7.436  1.00  0.00    -0.027 C 
BRANCH  12  13
ATOM     13  C   UNL     1     -21.025   3.045   8.339  1.00  0.00     0.054 C 
BRANCH  13  14
ATOM     14  C   UNL     1     -22.265   3.015   9.200  1.00  0.00    -0.027 C 
ATOM     15  C   UNL     1     -22.361   2.300  10.335  1.00  0.00    -0.031 C 
BRANCH  15  16
ATOM     16  C   UNL     1     -21.279   1.388  10.857  1.00  0.00     0.027 C 
BRANCH  16  17
ATOM     17  C   UNL     1     -21.371   1.257  12.383  1.00  0.00     0.004 C 
BRANCH  17  18
ATOM     18  C   UNL     1     -20.910  -0.119  12.898  1.00  0.00     0.000 C 
BRANCH  18  19
ATOM     19  C   UNL     1     -20.734  -0.183  14.428  1.00  0.00    -0.003 C 
ATOM     20  C   UNL     1     -21.900  -0.886  15.121  1.00  0.00     0.004 C 
ENDBRANCH  18  19
ENDBRANCH  17  18
ENDBRANCH  16  17
ENDBRANCH  15  16
ENDBRANCH  13  14
ENDBRANCH  12  13
ENDBRANCH   1  11
TORSDOF 14
ENDMDL
MODEL 4
REMARK VINA RESULT:    -2.535      2.290      6.927
REMARK INTER + INTRA:          -5.626
REMARK INTER:                  -4.537
REMARK INTRA:                  -1.089
REMARK UNBOUND:                -1.015
REMARK SMILES CCCCCC=CCC=CCCCCCCCC(=O)[O-]
REMARK SMILES IDX 11 1 12 2 13 3 14 4 15 5 16 6 17 7 18 8 19 9 20 10 10 11
REMARK SMILES IDX 9 12 8 13 7 14 6 15 5 16 4 17 3 18 2 19 1 20
REMARK H PARENT
REMARK Flexibility Score: inf
ROOT
ATOM      1  C   UNL     1     -20.099  -2.100   7.602  1.00  0.00     0.027 C 
ENDROOT
BRANCH   1   2
ATOM      2  C   UNL     1     -19.584  -2.921   8.794  1.00  0.00     0.004 C 
BRANCH   2   3
ATOM      3  C   UNL     1     -19.403  -2.062  10.055  1.00  0.00     0.000 C 
BRANCH   3   4
ATOM      4  C   UNL     1     -20.491  -2.377  11.090  1.00  0.00     0.000 C 
BRANCH   4   5
ATOM      5  C   UNL     1     -20.110  -1.939  12.515  1.00  0.00     0.000 C 
BRANCH   5   6
ATOM      6  C   UNL     1     -21.274  -1.380  13.356  1.00  0.00     0.006 C 
BRANCH   6   7
ATOM      7  C   UNL     1     -20.901  -0.106  14.123  1.00  0.00     0.053 C 
BRANCH   7   8
ATOM      8  C   UNL     1     -21.127   1.106  13.275  1.00  0.00     0.041 C 
ATOM      9  O   UNL     1     -21.641   0.992  12.130  1.00  0.00    -0.550 OA
ATOM     10  O   UNL     1     -20.737   2.359  13.733  1.00  0.00    -0.550 OA
ENDBRANCH   7   8
ENDBRANCH   6   7
ENDBRANCH   5   6
ENDBRANCH   4   5
ENDBRANCH   3   4
ENDBRANCH   2   3
ENDBRANCH   1   2
BRANCH   1  11
ATOM     11  C   UNL     1     -20.312  -0.652   7.954  1.00  0.00    -0.031 C 
ATOM     12  C   UNL     1     -20.426   0.292   7.007  1.00  0.00    -0.027 C 
BRANCH  12  13
ATOM     13  C   UNL     1     -20.654   1.730   7.385  1.00  0.00     0.054 C 
BRANCH  13  14
ATOM     14  C   UNL     1     -21.076   1.872   8.828  1.00  0.00    -0.027 C 
ATOM     15  C   UNL     1     -21.756   2.933   9.299  1.00  0.00    -0.031 C 
BRANCH  15  16
ATOM     16  C   UNL     1     -22.122   4.140   8.473  1.00  0.00     0.027 C 
BRANCH  16  17
ATOM     17  C   UNL     1     -21.821   5.434   9.242  1.00  0.00     0.004 C 
BRANCH  17  18
ATOM     18  C   UNL     1     -20.363   5.902   9.085  1.00  0.00     0.000 C 
BRANCH  18  19
ATOM     19  C   UNL     1     -19.673   6.246  10.421  1.00  0.00    -0.003 C 
ATOM     20  C   UNL     1     -18.391   7.053  10.225  1.00  0.00     0.004 C 
ENDBRANCH  18  19
ENDBRANCH  17  18
ENDBRANCH  16  17
ENDBRANCH  15  16
ENDBRANCH  13  14
ENDBRANCH  12  13
ENDBRANCH   1  11
TORSDOF 14
ENDMDL
MODEL 5
REMARK VINA RESULT:    -2.424      3.074      7.722
REMARK INTER + INTRA:          -5.424
REMARK INTER:                  -4.339
REMARK INTRA:                  -1.085
REMARK UNBOUND:                -1.015
REMARK SMILES CCCCCC=CCC=CCCCCCCCC(=O)[O-]
REMARK SMILES IDX 11 1 12 2 13 3 14 4 15 5 16 6 17 7 18 8 19 9 20 10 10 11
REMARK SMILES IDX 9 12 8 13 7 14 6 15 5 16 4 17 3 18 2 19 1 20
REMARK H PARENT
REMARK Flexibility Score: inf
ROOT
ATOM      1  C   UNL     1     -20.180   0.381   7.075  1.00  0.00     0.027 C 
ENDROOT
BRANCH   1   2
ATOM      2  C   UNL     1     -20.793  -0.904   7.651  1.00  0.00     0.004 C 
BRANCH   2   3
ATOM      3  C   UNL     1     -19.758  -2.032   7.782  1.00  0.00     0.000 C 
BRANCH   3   4
ATOM      4  C   UNL     1     -19.670  -2.525   9.233  1.00  0.00     0.000 C 
BRANCH   4   5
ATOM      5  C   UNL     1     -20.256  -1.524  10.244  1.00  0.00     0.000 C 
BRANCH   5   6
ATOM      6  C   UNL     1     -19.733  -1.675  11.685  1.00  0.00     0.006 C 
BRANCH   6   7
ATOM      7  C   UNL     1     -20.856  -1.835  12.716  1.00  0.00     0.053 C 
BRANCH   7   8
ATOM      8  C   UNL     1     -21.051  -0.566  13.485  1.00  0.00     0.041 C 
ATOM      9  O   UNL     1     -21.271   0.515  12.879  1.00  0.00    -0.550 OA
ATOM     10  O   UNL     1     -20.953  -0.571  14.872  1.00  0.00    -0.550 OA
ENDBRANCH   7   8
ENDBRANCH   6   7
ENDBRANCH   5   6
ENDBRANCH   4   5
ENDBRANCH   3   4
ENDBRANCH   2   3
ENDBRANCH   1   2
BRANCH   1  11
ATOM     11  C   UNL     1     -20.640   1.614   7.807  1.00  0.00    -0.031 C 
ATOM     12  C   UNL     1     -21.152   1.546   9.046  1.00  0.00    -0.027 C 
BRANCH  12  13
ATOM     13  C   UNL     1     -21.590   2.794   9.761  1.00  0.00     0.054 C 
BRANCH  13  14
ATOM     14  C   UNL     1     -22.064   3.857   8.799  1.00  0.00    -0.027 C 
ATOM     15  C   UNL     1     -21.666   5.140   8.860  1.00  0.00    -0.031 C 
BRANCH  15  16
ATOM     16  C   UNL     1     -20.758   5.697   9.928  1.00  0.00     0.027 C 
BRANCH  16  17
ATOM     17  C   UNL     1     -19.669   6.581   9.305  1.00  0.00     0.004 C 
BRANCH  17  18
ATOM     18  C   UNL     1     -18.558   6.959  10.302  1.00  0.00     0.000 C 
BRANCH  18  19
ATOM     19  C   UNL     1     -17.956   8.358  10.062  1.00  0.00    -0.003 C 
ATOM     20  C   UNL     1     -16.443   8.314   9.852  1.00  0.00     0.004 C 
ENDBRANCH  18  19
ENDBRANCH  17  18
ENDBRANCH  16  17
ENDBRANCH  15  16
ENDBRANCH  13  14
ENDBRANCH  12  13
ENDBRANCH   1  11
TORSDOF 14
ENDMDL
MODEL 6
REMARK VINA RESULT:    -2.218      3.421      6.498
REMARK INTER + INTRA:          -5.048
REMARK INTER:                  -3.238
REMARK INTRA:                  -1.810
REMARK UNBOUND:                -1.015
REMARK SMILES CCCCCC=CCC=CCCCCCCCC(=O)[O-]
REMARK SMILES IDX 11 1 12 2 13 3 14 4 15 5 16 6 17 7 18 8 19 9 20 10 10 11
REMARK SMILES IDX 9 12 8 13 7 14 6 15 5 16 4 17 3 18 2 19 1 20
REMARK H PARENT
REMARK Flexibility Score: inf
ROOT
ATOM      1  C   UNL     1     -20.010  -2.365   7.694  1.00  0.00     0.027 C 
ENDROOT
BRANCH   1   2
ATOM      2  C   UNL     1     -20.744  -1.069   7.322  1.00  0.00     0.004 C 
BRANCH   2   3
ATOM      3  C   UNL     1     -19.872  -0.129   6.475  1.00  0.00     0.000 C 
BRANCH   3   4
ATOM      4  C   UNL     1     -19.583   1.175   7.231  1.00  0.00     0.000 C 
BRANCH   4   5
ATOM      5  C   UNL     1     -20.759   1.633   8.109  1.00  0.00     0.000 C 
BRANCH   5   6
ATOM      6  C   UNL     1     -21.268   3.059   7.821  1.00  0.00     0.006 C 
BRANCH   6   7
ATOM      7  C   UNL     1     -21.885   3.734   9.052  1.00  0.00     0.053 C 
BRANCH   7   8
ATOM      8  C   UNL     1     -21.558   5.195   9.071  1.00  0.00     0.041 C 
ATOM      9  O   UNL     1     -20.676   5.638   9.854  1.00  0.00    -0.550 OA
ATOM     10  O   UNL     1     -22.254   6.074   8.250  1.00  0.00    -0.550 OA
ENDBRANCH   7   8
ENDBRANCH   6   7
ENDBRANCH   5   6
ENDBRANCH   4   5
ENDBRANCH   3   4
ENDBRANCH   2   3
ENDBRANCH   1   2
BRANCH   1  11
ATOM     11  C   UNL     1     -19.615  -2.402   9.147  1.00  0.00    -0.031 C 
ATOM     12  C   UNL     1     -20.069  -1.492  10.023  1.00  0.00    -0.027 C 
BRANCH  12  13
ATOM     13  C   UNL     1     -19.672  -1.560  11.472  1.00  0.00     0.054 C 
BRANCH  13  14
ATOM     14  C   UNL     1     -20.651  -2.372  12.285  1.00  0.00    -0.027 C 
ATOM     15  C   UNL     1     -21.128  -1.976  13.480  1.00  0.00    -0.031 C 
BRANCH  15  16
ATOM     16  C   UNL     1     -20.699  -0.717  14.189  1.00  0.00     0.027 C 
BRANCH  16  17
ATOM     17  C   UNL     1     -21.665   0.435  13.880  1.00  0.00     0.004 C 
BRANCH  17  18
ATOM     18  C   UNL     1     -20.944   1.727  13.455  1.00  0.00     0.000 C 
BRANCH  18  19
ATOM     19  C   UNL     1     -20.945   1.967  11.932  1.00  0.00    -0.003 C 
ATOM     20  C   UNL     1     -22.060   1.203  11.220  1.00  0.00     0.004 C 
ENDBRANCH  18  19
ENDBRANCH  17  18
ENDBRANCH  16  17
ENDBRANCH  15  16
ENDBRANCH  13  14
ENDBRANCH  12  13
ENDBRANCH   1  11
TORSDOF 14
ENDMDL
MODEL 7
REMARK VINA RESULT:    -2.196      6.004      7.696
REMARK INTER + INTRA:          -5.009
REMARK INTER:                  -4.510
REMARK INTRA:                  -0.499
REMARK UNBOUND:                -1.015
REMARK SMILES CCCCCC=CCC=CCCCCCCCC(=O)[O-]
REMARK SMILES IDX 11 1 12 2 13 3 14 4 15 5 16 6 17 7 18 8 19 9 20 10 10 11
REMARK SMILES IDX 9 12 8 13 7 14 6 15 5 16 4 17 3 18 2 19 1 20
REMARK H PARENT
REMARK Flexibility Score: inf
ROOT
ATOM      1  C   UNL     1     -21.794   5.312   9.110  1.00  0.00     0.027 C 
ENDROOT
BRANCH   1   2
ATOM      2  C   UNL     1     -20.560   5.591   9.981  1.00  0.00     0.004 C 
BRANCH   2   3
ATOM      3  C   UNL     1     -19.645   6.660   9.365  1.00  0.00     0.000 C 
BRANCH   3   4
ATOM      4  C   UNL     1     -18.485   6.996  10.312  1.00  0.00     0.000 C 
BRANCH   4   5
ATOM      5  C   UNL     1     -17.752   8.292   9.928  1.00  0.00     0.000 C 
BRANCH   5   6
ATOM      6  C   UNL     1     -16.288   8.376  10.401  1.00  0.00     0.006 C 
BRANCH   6   7
ATOM      7  C   UNL     1     -15.586   9.664   9.954  1.00  0.00     0.053 C 
BRANCH   7   8
ATOM      8  C   UNL     1     -14.741  10.215  11.060  1.00  0.00     0.041 C 
ATOM      9  O   UNL     1     -15.153  10.182  12.250  1.00  0.00    -0.550 OA
ATOM     10  O   UNL     1     -13.513  10.799  10.772  1.00  0.00    -0.550 OA
ENDBRANCH   7   8
ENDBRANCH   6   7
ENDBRANCH   5   6
ENDBRANCH   4   5
ENDBRANCH   3   4
ENDBRANCH   2   3
ENDBRANCH   1   2
BRANCH   1  11
ATOM     11  C   UNL     1     -21.788   3.919   8.538  1.00  0.00    -0.031 C 
ATOM     12  C   UNL     1     -21.242   2.888   9.201  1.00  0.00    -0.027 C 
BRANCH  12  13
ATOM     13  C   UNL     1     -21.263   1.504   8.614  1.00  0.00     0.054 C 
BRANCH  13  14
ATOM     14  C   UNL     1     -20.216   1.333   7.540  1.00  0.00    -0.027 C 
ATOM     15  C   UNL     1     -20.029   0.184   6.865  1.00  0.00    -0.031 C 
BRANCH  15  16
ATOM     16  C   UNL     1     -20.786  -1.091   7.135  1.00  0.00     0.027 C 
BRANCH  16  17
ATOM     17  C   UNL     1     -20.010  -1.986   8.110  1.00  0.00     0.004 C 
BRANCH  17  18
ATOM     18  C   UNL     1     -19.987  -1.431   9.547  1.00  0.00     0.000 C 
BRANCH  18  19
ATOM     19  C   UNL     1     -20.156  -2.512  10.633  1.00  0.00    -0.003 C 
ATOM     20  C   UNL     1     -20.392  -1.915  12.020  1.00  0.00     0.004 C 
ENDBRANCH  18  19
ENDBRANCH  17  18
ENDBRANCH  16  17
ENDBRANCH  15  16
ENDBRANCH  13  14
ENDBRANCH  12  13
ENDBRANCH   1  11
TORSDOF 14
ENDMDL
MODEL 8
REMARK VINA RESULT:    -2.156      2.165      5.567
REMARK INTER + INTRA:          -4.936
REMARK INTER:                  -3.373
REMARK INTRA:                  -1.563
REMARK UNBOUND:                -1.015
REMARK SMILES CCCCCC=CCC=CCCCCCCCC(=O)[O-]
REMARK SMILES IDX 11 1 12 2 13 3 14 4 15 5 16 6 17 7 18 8 19 9 20 10 10 11
REMARK SMILES IDX 9 12 8 13 7 14 6 15 5 16 4 17 3 18 2 19 1 20
REMARK H PARENT
REMARK Flexibility Score: inf
ROOT
ATOM      1  C   UNL     1     -20.412   1.976   7.371  1.00  0.00     0.027 C 
ENDROOT
BRANCH   1   2
ATOM      2  C   UNL     1     -20.868   0.737   6.587  1.00  0.00     0.004 C 
BRANCH   2   3
ATOM      3  C   UNL     1     -19.805  -0.373   6.585  1.00  0.00     0.000 C 
BRANCH   3   4
ATOM      4  C   UNL     1     -20.382  -1.682   7.142  1.00  0.00     0.000 C 
BRANCH   4   5
ATOM      5  C   UNL     1     -19.867  -2.012   8.553  1.00  0.00     0.000 C 
BRANCH   5   6
ATOM      6  C   UNL     1     -19.164  -3.377   8.684  1.00  0.00     0.006 C 
BRANCH   6   7
ATOM      7  C   UNL     1     -19.979  -4.395   9.490  1.00  0.00     0.053 C 
BRANCH   7   8
ATOM      8  C   UNL     1     -20.074  -5.695   8.754  1.00  0.00     0.041 C 
ATOM      9  O   UNL     1     -19.095  -6.118   8.084  1.00  0.00    -0.550 OA
ATOM     10  O   UNL     1     -21.258  -6.424   8.778  1.00  0.00    -0.550 OA
ENDBRANCH   7   8
ENDBRANCH   6   7
ENDBRANCH   5   6
ENDBRANCH   4   5
ENDBRANCH   3   4
ENDBRANCH   2   3
ENDBRANCH   1   2
BRANCH   1  11
ATOM     11  C   UNL     1     -21.150   2.131   8.675  1.00  0.00    -0.031 C 
ATOM     12  C   UNL     1     -21.119   1.178   9.619  1.00  0.00    -0.027 C 
BRANCH  12  13
ATOM     13  C   UNL     1     -21.852   1.366  10.918  1.00  0.00     0.054 C 
BRANCH  13  14
ATOM     14  C   UNL     1     -21.033   2.146  11.919  1.00  0.00    -0.027 C 
ATOM     15  C   UNL     1     -20.940   1.813  13.219  1.00  0.00    -0.031 C 
BRANCH  15  16
ATOM     16  C   UNL     1     -21.687   0.670  13.857  1.00  0.00     0.027 C 
BRANCH  16  17
ATOM     17  C   UNL     1     -20.738  -0.497  14.159  1.00  0.00     0.004 C 
BRANCH  17  18
ATOM     18  C   UNL     1     -21.351  -1.871  13.834  1.00  0.00     0.000 C 
BRANCH  18  19
ATOM     19  C   UNL     1     -20.852  -2.477  12.507  1.00  0.00    -0.003 C 
ATOM     20  C   UNL     1     -19.890  -1.549  11.767  1.00  0.00     0.004 C 
ENDBRANCH  18  19
ENDBRANCH  17  18
ENDBRANCH  16  17
ENDBRANCH  15  16
ENDBRANCH  13  14
ENDBRANCH  12  13
ENDBRANCH   1  11
TORSDOF 14
ENDMDL
MODEL 9
REMARK VINA RESULT:    -2.054      2.282      4.129
REMARK INTER + INTRA:          -4.751
REMARK INTER:                  -3.501
REMARK INTRA:                  -1.250
REMARK UNBOUND:                -1.015
REMARK SMILES CCCCCC=CCC=CCCCCCCCC(=O)[O-]
REMARK SMILES IDX 11 1 12 2 13 3 14 4 15 5 16 6 17 7 18 8 19 9 20 10 10 11
REMARK SMILES IDX 9 12 8 13 7 14 6 15 5 16 4 17 3 18 2 19 1 20
REMARK H PARENT
REMARK Flexibility Score: inf
ROOT
ATOM      1  C   UNL     1     -21.384  -1.369  13.667  1.00  0.00     0.027 C 
ENDROOT
BRANCH   1   2
ATOM      2  C   UNL     1     -20.708  -0.039  14.032  1.00  0.00     0.004 C 
BRANCH   2   3
ATOM      3  C   UNL     1     -21.571   1.174  13.651  1.00  0.00     0.000 C 
BRANCH   3   4
ATOM      4  C   UNL     1     -21.059   1.823  12.357  1.00  0.00     0.000 C 
BRANCH   4   5
ATOM      5  C   UNL     1     -21.854   1.391  11.114  1.00  0.00     0.000 C 
BRANCH   5   6
ATOM      6  C   UNL     1     -21.201   1.754   9.767  1.00  0.00     0.006 C 
BRANCH   6   7
ATOM      7  C   UNL     1     -20.784   0.524   8.952  1.00  0.00     0.053 C 
BRANCH   7   8
ATOM      8  C   UNL     1     -20.360   0.923   7.574  1.00  0.00     0.041 C 
ATOM      9  O   UNL     1     -20.326   2.139   7.248  1.00  0.00    -0.550 OA
ATOM     10  O   UNL     1     -20.036  -0.050   6.635  1.00  0.00    -0.550 OA
ENDBRANCH   7   8
ENDBRANCH   6   7
ENDBRANCH   5   6
ENDBRANCH   4   5
ENDBRANCH   3   4
ENDBRANCH   2   3
ENDBRANCH   1   2
BRANCH   1  11
ATOM     11  C   UNL     1     -20.580  -2.166  12.674  1.00  0.00    -0.031 C 
ATOM     12  C   UNL     1     -19.986  -1.583  11.621  1.00  0.00    -0.027 C 
BRANCH  12  13
ATOM     13  C   UNL     1     -19.175  -2.400  10.652  1.00  0.00     0.054 C 
BRANCH  13  14
ATOM     14  C   UNL     1     -19.797  -2.420   9.276  1.00  0.00    -0.027 C 
ATOM     15  C   UNL     1     -19.537  -3.372   8.362  1.00  0.00    -0.031 C 
BRANCH  15  16
ATOM     16  C   UNL     1     -18.549  -4.493   8.561  1.00  0.00     0.027 C 
BRANCH  16  17
ATOM     17  C   UNL     1     -19.279  -5.827   8.770  1.00  0.00     0.004 C 
BRANCH  17  18
ATOM     18  C   UNL     1     -20.787  -5.741   8.471  1.00  0.00     0.000 C 
BRANCH  18  19
ATOM     19  C   UNL     1     -21.668  -6.474   9.503  1.00  0.00    -0.003 C 
ATOM     20  C   UNL     1     -22.922  -7.079   8.874  1.00  0.00     0.004 C 
ENDBRANCH  18  19
ENDBRANCH  17  18
ENDBRANCH  16  17
ENDBRANCH  15  16
ENDBRANCH  13  14
ENDBRANCH  12  13
ENDBRANCH   1  11
TORSDOF 14
ENDMDL
