MODEL 1
REMARK VINA RESULT:    -3.170      0.000      0.000
REMARK INTER + INTRA:          -4.960
REMARK INTER:                  -4.838
REMARK INTRA:                  -0.122
REMARK UNBOUND:                -0.122
REMARK SMILES CC1=CCC[C@H](C)C(=O)C[C@H](C(C)C)C(=O)C1
REMARK SMILES IDX 8 1 9 2 6 3 7 4 5 5 4 6 3 7 2 8 1 9 10 11 11 12 15 13 16 14
REMARK SMILES IDX 17 15 12 17 13 18 14 19
REMARK H PARENT
REMARK Flexibility Score: 70.00
ROOT
ATOM      1  C   UNL     1       2.840  76.577 -29.268  1.00  0.00     0.136 C 
ATOM      2  O   UNL     1       3.817  76.299 -29.950  1.00  0.00    -0.299 OA
ENDROOT
BRANCH   1   3
ATOM      3  C   UNL     1       1.731  75.541 -29.074  1.00  0.00     0.053 C 
ATOM      4  C   UNL     1       1.647  74.586 -30.279  1.00  0.00     0.016 C 
BRANCH   3   5
ATOM      5  C   UNL     1       1.915  74.723 -27.760  1.00  0.00     0.015 C 
BRANCH   5   6
ATOM      6  C   UNL     1       0.852  75.032 -26.677  1.00  0.00     0.028 C 
BRANCH   6   7
ATOM      7  C   UNL     1       1.361  76.017 -25.650  1.00  0.00    -0.028 C 
ATOM      8  C   UNL     1       1.032  77.331 -25.566  1.00  0.00    -0.070 CG0
ATOM      9  C   UNL     1       1.651  78.139 -24.453  1.00  0.00     0.039 C 
ATOM     10  G   UNL     1       0.142  78.047 -26.563  1.00  0.00     0.000 G0
ENDBRANCH   6   7
ENDBRANCH   5   6
ENDBRANCH   3   5
ENDBRANCH   1   3
BRANCH   1  11
ATOM     11  C   UNL     1       2.783  77.951 -28.637  1.00  0.00     0.087 C 
BRANCH  11  12
ATOM     12  C   UNL     1       1.406  78.654 -28.778  1.00  0.00     0.066 C 
BRANCH  12  13
ATOM     13  C   UNL     1       0.931  79.031 -27.388  1.00  0.00     0.140 C 
ATOM     14  O   UNL     1       1.273  80.100 -26.900  1.00  0.00    -0.299 OA
BRANCH  13  15
ATOM     15  C   UNL     1       0.127  78.071 -26.555  1.00  0.00     0.106 CG0
ATOM     16  G   UNL     1       1.031  77.358 -25.567  1.00  0.00     0.000 G0
ENDBRANCH  13  15
ENDBRANCH  12  13
BRANCH  12  17
ATOM     17  C   UNL     1       1.439  79.901 -29.716  1.00  0.00    -0.006 C 
ATOM     18  C   UNL     1       2.871  80.267 -30.140  1.00  0.00     0.008 C 
ATOM     19  C   UNL     1       0.589  79.667 -30.979  1.00  0.00     0.008 C 
ENDBRANCH  12  17
ENDBRANCH  11  12
ENDBRANCH   1  11
TORSDOF 1
ENDMDL
MODEL 2
REMARK VINA RESULT:    -3.066      5.637      7.580
REMARK INTER + INTRA:          -4.801
REMARK INTER:                  -4.707
REMARK INTRA:                  -0.094
REMARK UNBOUND:                -0.122
REMARK SMILES CC1=CCC[C@H](C)C(=O)C[C@H](C(C)C)C(=O)C1
REMARK SMILES IDX 8 1 9 2 6 3 7 4 5 5 4 6 3 7 2 8 1 9 10 11 11 12 15 13 16 14
REMARK SMILES IDX 17 15 12 17 13 18 14 19
REMARK H PARENT
REMARK Flexibility Score: 70.00
ROOT
ATOM      1  C   UNL     1       0.660  78.500 -19.646  1.00  0.00     0.136 C 
ATOM      2  O   UNL     1       0.850  79.345 -18.781  1.00  0.00    -0.299 OA
ENDROOT
BRANCH   1   3
ATOM      3  C   UNL     1       1.569  77.273 -19.721  1.00  0.00     0.053 C 
ATOM      4  C   UNL     1       3.006  77.619 -19.285  1.00  0.00     0.016 C 
BRANCH   3   5
ATOM      5  C   UNL     1       1.028  76.087 -18.867  1.00  0.00     0.015 C 
BRANCH   5   6
ATOM      6  C   UNL     1      -0.001  75.200 -19.610  1.00  0.00     0.028 C 
BRANCH   6   7
ATOM      7  C   UNL     1       0.433  74.894 -21.025  1.00  0.00    -0.028 C 
ATOM      8  C   UNL     1      -0.049  75.470 -22.155  1.00  0.00    -0.070 CG0
ATOM      9  C   UNL     1       0.530  75.022 -23.473  1.00  0.00     0.039 C 
ATOM     10  G   UNL     1      -1.182  76.478 -22.175  1.00  0.00     0.000 G0
ENDBRANCH   6   7
ENDBRANCH   5   6
ENDBRANCH   3   5
ENDBRANCH   1   3
BRANCH   1  11
ATOM     11  C   UNL     1      -0.489  78.717 -20.607  1.00  0.00     0.087 C 
BRANCH  11  12
ATOM     12  C   UNL     1      -0.054  78.836 -22.094  1.00  0.00     0.066 C 
BRANCH  12  13
ATOM     13  C   UNL     1      -0.741  77.730 -22.870  1.00  0.00     0.140 C 
ATOM     14  O   UNL     1      -1.008  77.896 -24.053  1.00  0.00    -0.299 OA
BRANCH  13  15
ATOM     15  C   UNL     1      -1.194  76.467 -22.189  1.00  0.00     0.106 CG0
ATOM     16  G   UNL     1      -0.054  75.468 -22.139  1.00  0.00     0.000 G0
ENDBRANCH  13  15
ENDBRANCH  12  13
BRANCH  12  17
ATOM     17  C   UNL     1      -0.359  80.233 -22.719  1.00  0.00    -0.006 C 
ATOM     18  C   UNL     1      -1.708  80.797 -22.242  1.00  0.00     0.008 C 
ATOM     19  C   UNL     1       0.751  81.245 -22.384  1.00  0.00     0.008 C 
ENDBRANCH  12  17
ENDBRANCH  11  12
ENDBRANCH   1  11
TORSDOF 1
ENDMDL
MODEL 3
REMARK VINA RESULT:    -3.035      8.834     11.009
REMARK INTER + INTRA:          -4.754
REMARK INTER:                  -4.474
REMARK INTRA:                  -0.280
REMARK UNBOUND:                -0.122
REMARK SMILES CC1=CCC[C@H](C)C(=O)C[C@H](C(C)C)C(=O)C1
REMARK SMILES IDX 8 1 9 2 6 3 7 4 5 5 4 6 3 7 2 8 1 9 10 11 11 12 15 13 16 14
REMARK SMILES IDX 17 15 12 17 13 18 14 19
REMARK H PARENT
REMARK Flexibility Score: 70.00
ROOT
ATOM      1  C   UNL     1       2.498  75.668 -19.731  1.00  0.00     0.136 C 
ATOM      2  O   UNL     1       2.596  75.524 -20.942  1.00  0.00    -0.299 OA
ENDROOT
BRANCH   1   3
ATOM      3  C   UNL     1       1.133  75.972 -19.112  1.00  0.00     0.053 C 
ATOM      4  C   UNL     1       0.423  77.112 -19.867  1.00  0.00     0.016 C 
BRANCH   3   5
ATOM      5  C   UNL     1       0.214  74.714 -19.066  1.00  0.00     0.015 C 
BRANCH   5   6
ATOM      6  C   UNL     1       0.981  73.376 -19.202  1.00  0.00     0.028 C 
BRANCH   6   7
ATOM      7  C   UNL     1       1.049  72.626 -17.891  1.00  0.00    -0.028 C 
ATOM      8  C   UNL     1       2.145  72.483 -17.105  1.00  0.00    -0.070 CG0
ATOM      9  C   UNL     1       1.994  71.698 -15.826  1.00  0.00     0.039 C 
ATOM     10  G   UNL     1       3.523  73.001 -17.469  1.00  0.00     0.000 G0
ENDBRANCH   6   7
ENDBRANCH   5   6
ENDBRANCH   3   5
ENDBRANCH   1   3
BRANCH   1  11
ATOM     11  C   UNL     1       3.752  75.527 -18.897  1.00  0.00     0.087 C 
BRANCH  11  12
ATOM     12  C   UNL     1       3.506  75.623 -17.366  1.00  0.00     0.066 C 
BRANCH  12  13
ATOM     13  C   UNL     1       3.847  74.278 -16.754  1.00  0.00     0.140 C 
ATOM     14  O   UNL     1       4.459  74.232 -15.695  1.00  0.00    -0.299 OA
BRANCH  13  15
ATOM     15  C   UNL     1       3.535  72.995 -17.474  1.00  0.00     0.106 CG0
ATOM     16  G   UNL     1       2.145  72.515 -17.101  1.00  0.00     0.000 G0
ENDBRANCH  13  15
ENDBRANCH  12  13
BRANCH  12  17
ATOM     17  C   UNL     1       4.309  76.771 -16.680  1.00  0.00    -0.006 C 
ATOM     18  C   UNL     1       5.079  77.627 -17.699  1.00  0.00     0.008 C 
ATOM     19  C   UNL     1       3.379  77.686 -15.862  1.00  0.00     0.008 C 
ENDBRANCH  12  17
ENDBRANCH  11  12
ENDBRANCH   1  11
TORSDOF 1
ENDMDL
MODEL 4
REMARK VINA RESULT:    -2.994      6.223      7.670
REMARK INTER + INTRA:          -4.692
REMARK INTER:                  -4.424
REMARK INTRA:                  -0.268
REMARK UNBOUND:                -0.122
REMARK SMILES CC1=CCC[C@H](C)C(=O)C[C@H](C(C)C)C(=O)C1
REMARK SMILES IDX 8 1 9 2 6 3 7 4 5 5 4 6 3 7 2 8 1 9 10 11 11 12 15 13 16 14
REMARK SMILES IDX 17 15 12 17 13 18 14 19
REMARK H PARENT
REMARK Flexibility Score: 70.00
ROOT
ATOM      1  C   UNL     1       9.382  77.071 -28.419  1.00  0.00     0.136 C 
ATOM      2  O   UNL     1       9.294  76.718 -27.251  1.00  0.00    -0.299 OA
ENDROOT
BRANCH   1   3
ATOM      3  C   UNL     1      10.175  76.219 -29.411  1.00  0.00     0.053 C 
ATOM      4  C   UNL     1      11.682  76.255 -29.093  1.00  0.00     0.016 C 
BRANCH   3   5
ATOM      5  C   UNL     1       9.677  74.743 -29.448  1.00  0.00     0.015 C 
BRANCH   5   6
ATOM      6  C   UNL     1       8.608  74.471 -30.535  1.00  0.00     0.028 C 
BRANCH   6   7
ATOM      7  C   UNL     1       7.213  74.797 -30.050  1.00  0.00    -0.028 C 
ATOM      8  C   UNL     1       6.432  75.820 -30.480  1.00  0.00    -0.070 CG0
ATOM      9  C   UNL     1       5.062  75.962 -29.867  1.00  0.00     0.039 C 
ATOM     10  G   UNL     1       6.882  76.866 -31.482  1.00  0.00     0.000 G0
ENDBRANCH   6   7
ENDBRANCH   5   6
ENDBRANCH   3   5
ENDBRANCH   1   3
BRANCH   1  11
ATOM     11  C   UNL     1       8.681  78.349 -28.828  1.00  0.00     0.087 C 
BRANCH  11  12
ATOM     12  C   UNL     1       8.574  78.545 -30.365  1.00  0.00     0.066 C 
BRANCH  12  13
ATOM     13  C   UNL     1       7.162  78.182 -30.783  1.00  0.00     0.140 C 
ATOM     14  O   UNL     1       6.233  78.919 -30.482  1.00  0.00    -0.299 OA
BRANCH  13  15
ATOM     15  C   UNL     1       6.867  76.879 -31.476  1.00  0.00     0.106 CG0
ATOM     16  G   UNL     1       6.432  75.839 -30.461  1.00  0.00     0.000 G0
ENDBRANCH  13  15
ENDBRANCH  12  13
BRANCH  12  17
ATOM     17  C   UNL     1       8.944  79.985 -30.835  1.00  0.00    -0.006 C 
ATOM     18  C   UNL     1      10.078  80.594 -29.992  1.00  0.00     0.008 C 
ATOM     19  C   UNL     1       9.363  79.996 -32.316  1.00  0.00     0.008 C 
ENDBRANCH  12  17
ENDBRANCH  11  12
ENDBRANCH   1  11
TORSDOF 1
ENDMDL
MODEL 5
REMARK VINA RESULT:    -2.978      3.833      6.335
REMARK INTER + INTRA:          -4.668
REMARK INTER:                  -4.505
REMARK INTRA:                  -0.163
REMARK UNBOUND:                -0.122
REMARK SMILES CC1=CCC[C@H](C)C(=O)C[C@H](C(C)C)C(=O)C1
REMARK SMILES IDX 8 1 9 2 6 3 7 4 5 5 4 6 3 7 2 8 1 9 10 11 11 12 15 13 16 14
REMARK SMILES IDX 17 15 12 17 13 18 14 19
REMARK H PARENT
REMARK Flexibility Score: 70.00
ROOT
ATOM      1  C   UNL     1       2.798  72.821 -28.075  1.00  0.00     0.136 C 
ATOM      2  O   UNL     1       2.673  71.615 -27.908  1.00  0.00    -0.299 OA
ENDROOT
BRANCH   1   3
ATOM      3  C   UNL     1       1.604  73.649 -28.551  1.00  0.00     0.053 C 
ATOM      4  C   UNL     1       1.007  74.476 -27.397  1.00  0.00     0.016 C 
BRANCH   3   5
ATOM      5  C   UNL     1       1.975  74.588 -29.738  1.00  0.00     0.015 C 
BRANCH   5   6
ATOM      6  C   UNL     1       2.265  76.049 -29.312  1.00  0.00     0.028 C 
BRANCH   6   7
ATOM      7  C   UNL     1       3.370  76.670 -30.136  1.00  0.00    -0.028 C 
ATOM      8  C   UNL     1       4.702  76.561 -29.905  1.00  0.00    -0.070 CG0
ATOM      9  C   UNL     1       5.640  77.258 -30.859  1.00  0.00     0.039 C 
ATOM     10  G   UNL     1       5.299  75.845 -28.708  1.00  0.00     0.000 G0
ENDBRANCH   6   7
ENDBRANCH   5   6
ENDBRANCH   3   5
ENDBRANCH   1   3
BRANCH   1  11
ATOM     11  C   UNL     1       4.149  73.439 -27.789  1.00  0.00     0.087 C 
BRANCH  11  12
ATOM     12  C   UNL     1       5.190  73.233 -28.924  1.00  0.00     0.066 C 
BRANCH  12  13
ATOM     13  C   UNL     1       5.930  74.543 -29.120  1.00  0.00     0.140 C 
ATOM     14  O   UNL     1       7.079  74.532 -29.542  1.00  0.00    -0.299 OA
BRANCH  13  15
ATOM     15  C   UNL     1       5.314  75.853 -28.711  1.00  0.00     0.106 CG0
ATOM     16  G   UNL     1       4.707  76.541 -29.919  1.00  0.00     0.000 G0
ENDBRANCH  13  15
ENDBRANCH  12  13
BRANCH  12  17
ATOM     17  C   UNL     1       6.185  72.064 -28.648  1.00  0.00    -0.006 C 
ATOM     18  C   UNL     1       6.462  71.882 -27.147  1.00  0.00     0.008 C 
ATOM     19  C   UNL     1       5.654  70.737 -29.221  1.00  0.00     0.008 C 
ENDBRANCH  12  17
ENDBRANCH  11  12
ENDBRANCH   1  11
TORSDOF 1
ENDMDL
MODEL 6
REMARK VINA RESULT:    -2.955      6.405      8.516
REMARK INTER + INTRA:          -4.632
REMARK INTER:                  -4.281
REMARK INTRA:                  -0.351
REMARK UNBOUND:                -0.122
REMARK SMILES CC1=CCC[C@H](C)C(=O)C[C@H](C(C)C)C(=O)C1
REMARK SMILES IDX 8 1 9 2 6 3 7 4 5 5 4 6 3 7 2 8 1 9 10 11 11 12 15 13 16 14
REMARK SMILES IDX 17 15 12 17 13 18 14 19
REMARK H PARENT
REMARK Flexibility Score: 70.00
ROOT
ATOM      1  C   UNL     1       0.720  75.263 -19.463  1.00  0.00     0.136 C 
ATOM      2  O   UNL     1       0.298  74.369 -18.742  1.00  0.00    -0.299 OA
ENDROOT
BRANCH   1   3
ATOM      3  C   UNL     1       0.954  74.992 -20.950  1.00  0.00     0.053 C 
ATOM      4  C   UNL     1       1.707  73.664 -21.160  1.00  0.00     0.016 C 
BRANCH   3   5
ATOM      5  C   UNL     1      -0.376  74.981 -21.762  1.00  0.00     0.015 C 
BRANCH   5   6
ATOM      6  C   UNL     1      -1.250  76.241 -21.546  1.00  0.00     0.028 C 
BRANCH   6   7
ATOM      7  C   UNL     1      -0.759  77.417 -22.359  1.00  0.00    -0.028 C 
ATOM      8  C   UNL     1      -0.149  78.528 -21.875  1.00  0.00    -0.070 CG0
ATOM      9  C   UNL     1       0.271  79.585 -22.865  1.00  0.00     0.039 C 
ATOM     10  G   UNL     1       0.069  78.801 -20.399  1.00  0.00     0.000 G0
ENDBRANCH   6   7
ENDBRANCH   5   6
ENDBRANCH   3   5
ENDBRANCH   1   3
BRANCH   1  11
ATOM     11  C   UNL     1       0.986  76.614 -18.835  1.00  0.00     0.087 C 
BRANCH  11  12
ATOM     12  C   UNL     1       2.127  77.415 -19.519  1.00  0.00     0.066 C 
BRANCH  12  13
ATOM     13  C   UNL     1       1.537  78.709 -20.045  1.00  0.00     0.140 C 
ATOM     14  O   UNL     1       2.237  79.710 -20.113  1.00  0.00    -0.299 OA
BRANCH  13  15
ATOM     15  C   UNL     1       0.076  78.814 -20.392  1.00  0.00     0.106 CG0
ATOM     16  G   UNL     1      -0.129  78.524 -21.866  1.00  0.00     0.000 G0
ENDBRANCH  13  15
ENDBRANCH  12  13
BRANCH  12  17
ATOM     17  C   UNL     1       3.340  77.693 -18.579  1.00  0.00    -0.006 C 
ATOM     18  C   UNL     1       2.894  78.074 -17.158  1.00  0.00     0.008 C 
ATOM     19  C   UNL     1       4.271  76.470 -18.499  1.00  0.00     0.008 C 
ENDBRANCH  12  17
ENDBRANCH  11  12
ENDBRANCH   1  11
TORSDOF 1
ENDMDL
MODEL 7
REMARK VINA RESULT:    -2.871      5.876      7.593
REMARK INTER + INTRA:          -4.504
REMARK INTER:                  -4.497
REMARK INTRA:                  -0.008
REMARK UNBOUND:                -0.122
REMARK SMILES CC1=CCC[C@H](C)C(=O)C[C@H](C(C)C)C(=O)C1
REMARK SMILES IDX 8 1 9 2 6 3 7 4 5 5 4 6 3 7 2 8 1 9 10 11 11 12 15 13 16 14
REMARK SMILES IDX 17 15 12 17 13 18 14 19
REMARK H PARENT
REMARK Flexibility Score: 70.00
ROOT
ATOM      1  C   UNL     1       7.303  73.976 -30.137  1.00  0.00     0.136 C 
ATOM      2  O   UNL     1       6.553  73.015 -30.037  1.00  0.00    -0.299 OA
ENDROOT
BRANCH   1   3
ATOM      3  C   UNL     1       8.804  73.796 -29.906  1.00  0.00     0.053 C 
ATOM      4  C   UNL     1       9.243  72.352 -30.215  1.00  0.00     0.016 C 
BRANCH   3   5
ATOM      5  C   UNL     1       9.653  74.798 -30.745  1.00  0.00     0.015 C 
BRANCH   5   6
ATOM      6  C   UNL     1      10.265  75.949 -29.910  1.00  0.00     0.028 C 
BRANCH   6   7
ATOM      7  C   UNL     1      10.099  77.291 -30.587  1.00  0.00    -0.028 C 
ATOM      8  C   UNL     1       9.234  78.271 -30.225  1.00  0.00    -0.070 CG0
ATOM      9  C   UNL     1       9.235  79.542 -31.037  1.00  0.00     0.039 C 
ATOM     10  G   UNL     1       8.222  78.136 -29.104  1.00  0.00     0.000 G0
ENDBRANCH   6   7
ENDBRANCH   5   6
ENDBRANCH   3   5
ENDBRANCH   1   3
BRANCH   1  11
ATOM     11  C   UNL     1       6.695  75.314 -30.499  1.00  0.00     0.087 C 
BRANCH  11  12
ATOM     12  C   UNL     1       6.412  76.229 -29.276  1.00  0.00     0.066 C 
BRANCH  12  13
ATOM     13  C   UNL     1       6.902  77.624 -29.616  1.00  0.00     0.140 C 
ATOM     14  O   UNL     1       6.267  78.315 -30.401  1.00  0.00    -0.299 OA
BRANCH  13  15
ATOM     15  C   UNL     1       8.211  78.140 -29.083  1.00  0.00     0.106 CG0
ATOM     16  G   UNL     1       9.217  78.267 -30.211  1.00  0.00     0.000 G0
ENDBRANCH  13  15
ENDBRANCH  12  13
BRANCH  12  17
ATOM     17  C   UNL     1       4.912  76.251 -28.851  1.00  0.00    -0.006 C 
ATOM     18  C   UNL     1       4.039  75.378 -29.767  1.00  0.00     0.008 C 
ATOM     19  C   UNL     1       4.741  75.775 -27.397  1.00  0.00     0.008 C 
ENDBRANCH  12  17
ENDBRANCH  11  12
ENDBRANCH   1  11
TORSDOF 1
ENDMDL
MODEL 8
REMARK VINA RESULT:    -2.868      9.620     11.829
REMARK INTER + INTRA:          -4.499
REMARK INTER:                  -4.141
REMARK INTRA:                  -0.358
REMARK UNBOUND:                -0.122
REMARK SMILES CC1=CCC[C@H](C)C(=O)C[C@H](C(C)C)C(=O)C1
REMARK SMILES IDX 8 1 9 2 6 3 7 4 5 5 4 6 3 7 2 8 1 9 10 11 11 12 15 13 16 14
REMARK SMILES IDX 17 15 12 17 13 18 14 19
REMARK H PARENT
REMARK Flexibility Score: 70.00
ROOT
ATOM      1  C   UNL     1       4.079  80.249 -17.155  1.00  0.00     0.136 C 
ATOM      2  O   UNL     1       3.926  81.224 -16.432  1.00  0.00    -0.299 OA
ENDROOT
BRANCH   1   3
ATOM      3  C   UNL     1       5.156  80.270 -18.240  1.00  0.00     0.053 C 
ATOM      4  C   UNL     1       4.770  81.225 -19.386  1.00  0.00     0.016 C 
BRANCH   3   5
ATOM      5  C   UNL     1       6.554  80.662 -17.674  1.00  0.00     0.015 C 
BRANCH   5   6
ATOM      6  C   UNL     1       7.073  79.704 -16.574  1.00  0.00     0.028 C 
BRANCH   6   7
ATOM      7  C   UNL     1       7.351  78.319 -17.113  1.00  0.00    -0.028 C 
ATOM      8  C   UNL     1       6.643  77.195 -16.840  1.00  0.00    -0.070 CG0
ATOM      9  C   UNL     1       7.087  75.910 -17.493  1.00  0.00     0.039 C 
ATOM     10  G   UNL     1       5.482  77.140 -15.866  1.00  0.00     0.000 G0
ENDBRANCH   6   7
ENDBRANCH   5   6
ENDBRANCH   3   5
ENDBRANCH   1   3
BRANCH   1  11
ATOM     11  C   UNL     1       3.184  79.051 -16.926  1.00  0.00     0.087 C 
BRANCH  11  12
ATOM     12  C   UNL     1       3.653  77.764 -17.659  1.00  0.00     0.066 C 
BRANCH  12  13
ATOM     13  C   UNL     1       4.202  76.809 -16.617  1.00  0.00     0.140 C 
ATOM     14  O   UNL     1       3.565  75.808 -16.316  1.00  0.00    -0.299 OA
BRANCH  13  15
ATOM     15  C   UNL     1       5.471  77.118 -15.870  1.00  0.00     0.106 CG0
ATOM     16  G   UNL     1       6.637  77.193 -16.837  1.00  0.00     0.000 G0
ENDBRANCH  13  15
ENDBRANCH  12  13
BRANCH  12  17
ATOM     17  C   UNL     1       2.530  77.087 -18.503  1.00  0.00    -0.006 C 
ATOM     18  C   UNL     1       1.483  78.102 -18.993  1.00  0.00     0.008 C 
ATOM     19  C   UNL     1       3.119  76.351 -19.721  1.00  0.00     0.008 C 
ENDBRANCH  12  17
ENDBRANCH  11  12
ENDBRANCH   1  11
TORSDOF 1
ENDMDL
MODEL 9
REMARK VINA RESULT:    -2.769      2.749      4.952
REMARK INTER + INTRA:          -4.348
REMARK INTER:                  -4.051
REMARK INTRA:                  -0.297
REMARK UNBOUND:                -0.122
REMARK SMILES CC1=CCC[C@H](C)C(=O)C[C@H](C(C)C)C(=O)C1
REMARK SMILES IDX 8 1 9 2 6 3 7 4 5 5 4 6 3 7 2 8 1 9 10 11 11 12 15 13 16 14
REMARK SMILES IDX 17 15 12 17 13 18 14 19
REMARK H PARENT
REMARK Flexibility Score: 70.00
ROOT
ATOM      1  C   UNL     1       0.990  75.174 -24.509  1.00  0.00     0.136 C 
ATOM      2  O   UNL     1       1.298  74.739 -23.407  1.00  0.00    -0.299 OA
ENDROOT
BRANCH   1   3
ATOM      3  C   UNL     1       1.763  74.719 -25.747  1.00  0.00     0.053 C 
ATOM      4  C   UNL     1       0.804  74.268 -26.865  1.00  0.00     0.016 C 
BRANCH   3   5
ATOM      5  C   UNL     1       2.717  75.828 -26.284  1.00  0.00     0.015 C 
BRANCH   5   6
ATOM      6  C   UNL     1       2.148  76.612 -27.493  1.00  0.00     0.028 C 
BRANCH   6   7
ATOM      7  C   UNL     1       2.242  78.107 -27.293  1.00  0.00    -0.028 C 
ATOM      8  C   UNL     1       1.286  78.907 -26.759  1.00  0.00    -0.070 CG0
ATOM      9  C   UNL     1       1.588  80.380 -26.642  1.00  0.00     0.039 C 
ATOM     10  G   UNL     1      -0.089  78.422 -26.341  1.00  0.00     0.000 G0
ENDBRANCH   6   7
ENDBRANCH   5   6
ENDBRANCH   3   5
ENDBRANCH   1   3
BRANCH   1  11
ATOM     11  C   UNL     1      -0.165  76.149 -24.588  1.00  0.00     0.087 C 
BRANCH  11  12
ATOM     12  C   UNL     1       0.109  77.509 -23.891  1.00  0.00     0.066 C 
BRANCH  12  13
ATOM     13  C   UNL     1      -0.272  78.614 -24.858  1.00  0.00     0.140 C 
ATOM     14  O   UNL     1      -0.808  79.630 -24.437  1.00  0.00    -0.299 OA
BRANCH  13  15
ATOM     15  C   UNL     1      -0.095  78.442 -26.342  1.00  0.00     0.106 CG0
ATOM     16  G   UNL     1       1.286  78.912 -26.758  1.00  0.00     0.000 G0
ENDBRANCH  13  15
ENDBRANCH  12  13
BRANCH  12  17
ATOM     17  C   UNL     1      -0.639  77.672 -22.531  1.00  0.00    -0.006 C 
ATOM     18  C   UNL     1      -1.624  76.521 -22.273  1.00  0.00     0.008 C 
ATOM     19  C   UNL     1       0.354  77.752 -21.358  1.00  0.00     0.008 C 
ENDBRANCH  12  17
ENDBRANCH  11  12
ENDBRANCH   1  11
TORSDOF 1
ENDMDL
