MODEL 1
REMARK VINA RESULT:    -5.009      0.000      0.000
REMARK INTER + INTRA:          -9.144
REMARK INTER:                  -7.645
REMARK INTRA:                  -1.499
REMARK UNBOUND:                -1.499
REMARK SMILES OC[C@@H]1O[C@](CO)(O[C@H]2O[C@H](CO)[C@@H](O)[C@@H](O)[C@H]2O)[C@@H](O)[C@H]1O
REMARK SMILES IDX 8 1 9 2 11 3 14 4 10 5 16 6 18 7 12 8 13 9 15 11 17 13 19 15
REMARK SMILES IDX 5 17 20 18 4 19 22 20 3 21 6 22 7 23 21 25 23 27 2 29 1 30
REMARK H PARENT 13 10 15 12 17 14 19 16 7 24 21 26 23 28 1 31
REMARK Flexibility Score: inf
ROOT
ATOM      1  O   UNL     1     104.403  56.111  -2.961  1.00  0.00    -0.313 OA
ENDROOT
BRANCH   1   2
ATOM      2  C   UNL     1     105.501  56.738  -2.307  1.00  0.00     0.285 C 
ATOM      3  C   UNL     1     104.448  56.598  -0.204  1.00  0.00     0.178 C 
ATOM      4  C   UNL     1     105.450  55.551   0.331  1.00  0.00     0.177 C 
ATOM      5  O   UNL     1     105.075  57.448  -1.152  1.00  0.00    -0.341 OA
ATOM      6  C   UNL     1     106.029  54.732  -0.836  1.00  0.00     0.179 C 
ATOM      7  C   UNL     1     106.563  55.687  -1.923  1.00  0.00     0.202 C 
BRANCH   3   8
ATOM      8  C   UNL     1     103.910  57.468   0.942  1.00  0.00     0.191 C 
BRANCH   8   9
ATOM      9  O   UNL     1     104.708  57.319   2.086  1.00  0.00    -0.394 OA
ATOM     10  H   UNL     1     104.736  58.206   2.530  1.00  0.00     0.210 HD
ENDBRANCH   8   9
ENDBRANCH   3   8
BRANCH   4  11
ATOM     11  O   UNL     1     104.812  54.697   1.246  1.00  0.00    -0.387 OA
ATOM     12  H   UNL     1     104.190  55.261   1.776  1.00  0.00     0.211 HD
ENDBRANCH   4  11
BRANCH   6  13
ATOM     13  O   UNL     1     105.035  53.885  -1.360  1.00  0.00    -0.387 OA
ATOM     14  H   UNL     1     104.625  53.409  -0.593  1.00  0.00     0.211 HD
ENDBRANCH   6  13
BRANCH   7  15
ATOM     15  O   UNL     1     106.955  54.968  -3.062  1.00  0.00    -0.385 OA
ATOM     16  H   UNL     1     106.902  54.005  -2.825  1.00  0.00     0.211 HD
ENDBRANCH   7  15
ENDBRANCH   1   2
BRANCH   1  17
ATOM     17  C   UNL     1     104.050  56.671  -4.228  1.00  0.00     0.224 C 
ATOM     18  C   UNL     1     102.610  56.176  -4.518  1.00  0.00     0.208 C 
ATOM     19  O   UNL     1     104.895  56.157  -5.250  1.00  0.00    -0.337 OA
ATOM     20  C   UNL     1     102.858  54.910  -5.303  1.00  0.00     0.180 C 
ATOM     21  C   UNL     1     104.153  55.248  -6.035  1.00  0.00     0.179 C 
BRANCH  17  22
ATOM     22  C   UNL     1     104.135  58.224  -4.199  1.00  0.00     0.225 C 
BRANCH  22  23
ATOM     23  O   UNL     1     103.954  58.759  -5.482  1.00  0.00    -0.391 OA
ATOM     24  H   UNL     1     104.633  59.475  -5.583  1.00  0.00     0.210 HD
ENDBRANCH  22  23
ENDBRANCH  17  22
BRANCH  18  25
ATOM     25  O   UNL     1     101.821  57.099  -5.239  1.00  0.00    -0.385 OA
ATOM     26  H   UNL     1     102.366  57.910  -5.417  1.00  0.00     0.211 HD
ENDBRANCH  18  25
BRANCH  20  27
ATOM     27  O   UNL     1     101.807  54.636  -6.195  1.00  0.00    -0.387 OA
ATOM     28  H   UNL     1     101.070  54.256  -5.651  1.00  0.00     0.211 HD
ENDBRANCH  20  27
BRANCH  21  29
ATOM     29  C   UNL     1     104.995  54.009  -6.359  1.00  0.00     0.191 C 
BRANCH  29  30
ATOM     30  O   UNL     1     105.767  53.634  -5.253  1.00  0.00    -0.394 OA
ATOM     31  H   UNL     1     106.681  53.979  -5.425  1.00  0.00     0.210 HD
ENDBRANCH  29  30
ENDBRANCH  21  29
ENDBRANCH   1  17
TORSDOF 13
ENDMDL
MODEL 2
REMARK VINA RESULT:    -4.592      1.011      2.708
REMARK INTER + INTRA:          -8.508
REMARK INTER:                  -7.704
REMARK INTRA:                  -0.804
REMARK UNBOUND:                -1.499
REMARK SMILES OC[C@@H]1O[C@](CO)(O[C@H]2O[C@H](CO)[C@@H](O)[C@@H](O)[C@H]2O)[C@@H](O)[C@H]1O
REMARK SMILES IDX 8 1 9 2 11 3 14 4 10 5 16 6 18 7 12 8 13 9 15 11 17 13 19 15
REMARK SMILES IDX 5 17 20 18 4 19 22 20 3 21 6 22 7 23 21 25 23 27 2 29 1 30
REMARK H PARENT 13 10 15 12 17 14 19 16 7 24 21 26 23 28 1 31
REMARK Flexibility Score: inf
ROOT
ATOM      1  O   UNL     1     104.670  55.266  -3.100  1.00  0.00    -0.313 OA
ENDROOT
BRANCH   1   2
ATOM      2  C   UNL     1     105.707  56.065  -2.542  1.00  0.00     0.285 C 
ATOM      3  C   UNL     1     104.546  56.316  -0.507  1.00  0.00     0.178 C 
ATOM      4  C   UNL     1     105.554  55.450   0.281  1.00  0.00     0.177 C 
ATOM      5  O   UNL     1     105.193  56.979  -1.583  1.00  0.00    -0.341 OA
ATOM      6  C   UNL     1     106.225  54.435  -0.661  1.00  0.00     0.179 C 
ATOM      7  C   UNL     1     106.783  55.167  -1.899  1.00  0.00     0.202 C 
BRANCH   3   8
ATOM      8  C   UNL     1     103.915  57.379   0.405  1.00  0.00     0.191 C 
BRANCH   8   9
ATOM      9  O   UNL     1     104.602  57.446   1.626  1.00  0.00    -0.394 OA
ATOM     10  H   UNL     1     104.746  58.409   1.818  1.00  0.00     0.210 HD
ENDBRANCH   8   9
ENDBRANCH   3   8
BRANCH   4  11
ATOM     11  O   UNL     1     104.898  54.776   1.324  1.00  0.00    -0.387 OA
ATOM     12  H   UNL     1     103.968  55.121   1.347  1.00  0.00     0.211 HD
ENDBRANCH   4  11
BRANCH   6  13
ATOM     13  O   UNL     1     105.293  53.453  -1.041  1.00  0.00    -0.387 OA
ATOM     14  H   UNL     1     105.796  52.607  -1.164  1.00  0.00     0.211 HD
ENDBRANCH   6  13
BRANCH   7  15
ATOM     15  O   UNL     1     107.263  54.247  -2.842  1.00  0.00    -0.385 OA
ATOM     16  H   UNL     1     106.617  54.247  -3.596  1.00  0.00     0.211 HD
ENDBRANCH   7  15
ENDBRANCH   1   2
BRANCH   1  17
ATOM     17  C   UNL     1     104.587  55.286  -4.528  1.00  0.00     0.224 C 
ATOM     18  C   UNL     1     105.001  56.718  -4.951  1.00  0.00     0.208 C 
ATOM     19  O   UNL     1     103.245  55.082  -4.949  1.00  0.00    -0.337 OA
ATOM     20  C   UNL     1     103.671  57.433  -5.004  1.00  0.00     0.180 C 
ATOM     21  C   UNL     1     102.732  56.309  -5.427  1.00  0.00     0.179 C 
BRANCH  17  22
ATOM     22  C   UNL     1     105.512  54.204  -5.157  1.00  0.00     0.225 C 
BRANCH  22  23
ATOM     23  O   UNL     1     105.280  54.090  -6.536  1.00  0.00    -0.391 OA
ATOM     24  H   UNL     1     106.129  54.349  -6.982  1.00  0.00     0.210 HD
ENDBRANCH  22  23
ENDBRANCH  17  22
BRANCH  18  25
ATOM     25  O   UNL     1     105.681  56.776  -6.187  1.00  0.00    -0.385 OA
ATOM     26  H   UNL     1     105.232  57.447  -6.765  1.00  0.00     0.211 HD
ENDBRANCH  18  25
BRANCH  20  27
ATOM     27  O   UNL     1     103.683  58.485  -5.934  1.00  0.00    -0.387 OA
ATOM     28  H   UNL     1     104.574  58.916  -5.859  1.00  0.00     0.211 HD
ENDBRANCH  20  27
BRANCH  21  29
ATOM     29  C   UNL     1     101.295  56.515  -4.934  1.00  0.00     0.191 C 
BRANCH  29  30
ATOM     30  O   UNL     1     100.807  57.761  -5.346  1.00  0.00    -0.394 OA
ATOM     31  H   UNL     1     100.830  58.345  -4.543  1.00  0.00     0.210 HD
ENDBRANCH  29  30
ENDBRANCH  21  29
ENDBRANCH   1  17
TORSDOF 13
ENDMDL
MODEL 3
REMARK VINA RESULT:    -4.535      2.818      6.128
REMARK INTER + INTRA:          -8.421
REMARK INTER:                  -7.187
REMARK INTRA:                  -1.234
REMARK UNBOUND:                -1.499
REMARK SMILES OC[C@@H]1O[C@](CO)(O[C@H]2O[C@H](CO)[C@@H](O)[C@@H](O)[C@H]2O)[C@@H](O)[C@H]1O
REMARK SMILES IDX 8 1 9 2 11 3 14 4 10 5 16 6 18 7 12 8 13 9 15 11 17 13 19 15
REMARK SMILES IDX 5 17 20 18 4 19 22 20 3 21 6 22 7 23 21 25 23 27 2 29 1 30
REMARK H PARENT 13 10 15 12 17 14 19 16 7 24 21 26 23 28 1 31
REMARK Flexibility Score: inf
ROOT
ATOM      1  O   UNL     1     101.561  56.945  -5.101  1.00  0.00    -0.313 OA
ENDROOT
BRANCH   1   2
ATOM      2  C   UNL     1     100.695  57.013  -6.228  1.00  0.00     0.285 C 
ATOM      3  C   UNL     1     100.390  54.677  -6.251  1.00  0.00     0.178 C 
ATOM      4  C   UNL     1      98.911  54.773  -5.813  1.00  0.00     0.177 C 
ATOM      5  O   UNL     1     100.762  55.823  -7.001  1.00  0.00    -0.341 OA
ATOM      6  C   UNL     1      98.687  56.057  -4.996  1.00  0.00     0.179 C 
ATOM      7  C   UNL     1      99.244  57.268  -5.770  1.00  0.00     0.202 C 
BRANCH   3   8
ATOM      8  C   UNL     1     100.616  53.434  -7.125  1.00  0.00     0.191 C 
BRANCH   8   9
ATOM      9  O   UNL     1     100.794  52.298  -6.322  1.00  0.00    -0.394 OA
ATOM     10  H   UNL     1     101.764  52.242  -6.120  1.00  0.00     0.210 HD
ENDBRANCH   8   9
ENDBRANCH   3   8
BRANCH   4  11
ATOM     11  O   UNL     1      98.561  53.649  -5.047  1.00  0.00    -0.387 OA
ATOM     12  H   UNL     1      98.389  52.910  -5.687  1.00  0.00     0.211 HD
ENDBRANCH   4  11
BRANCH   6  13
ATOM     13  O   UNL     1      99.314  55.936  -3.742  1.00  0.00    -0.387 OA
ATOM     14  H   UNL     1      98.876  55.182  -3.270  1.00  0.00     0.211 HD
ENDBRANCH   6  13
BRANCH   7  15
ATOM     15  O   UNL     1      99.190  58.427  -4.981  1.00  0.00    -0.385 OA
ATOM     16  H   UNL     1      98.348  58.896  -5.218  1.00  0.00     0.211 HD
ENDBRANCH   7  15
ENDBRANCH   1   2
BRANCH   1  17
ATOM     17  C   UNL     1     102.741  57.748  -5.191  1.00  0.00     0.224 C 
ATOM     18  C   UNL     1     103.511  57.221  -6.429  1.00  0.00     0.208 C 
ATOM     19  O   UNL     1     103.567  57.544  -4.052  1.00  0.00    -0.337 OA
ATOM     20  C   UNL     1     104.429  56.188  -5.820  1.00  0.00     0.180 C 
ATOM     21  C   UNL     1     104.690  56.781  -4.439  1.00  0.00     0.179 C 
BRANCH  17  22
ATOM     22  C   UNL     1     102.385  59.256  -5.327  1.00  0.00     0.225 C 
BRANCH  22  23
ATOM     23  O   UNL     1     103.531  60.054  -5.200  1.00  0.00    -0.391 OA
ATOM     24  H   UNL     1     103.368  60.864  -5.750  1.00  0.00     0.210 HD
ENDBRANCH  22  23
ENDBRANCH  17  22
BRANCH  18  25
ATOM     25  O   UNL     1     104.228  58.220  -7.124  1.00  0.00    -0.385 OA
ATOM     26  H   UNL     1     103.740  59.080  -7.037  1.00  0.00     0.211 HD
ENDBRANCH  18  25
BRANCH  20  27
ATOM     27  O   UNL     1     105.613  56.042  -6.561  1.00  0.00    -0.387 OA
ATOM     28  H   UNL     1     106.309  56.563  -6.083  1.00  0.00     0.211 HD
ENDBRANCH  20  27
BRANCH  21  29
ATOM     29  C   UNL     1     105.003  55.716  -3.382  1.00  0.00     0.191 C 
BRANCH  29  30
ATOM     30  O   UNL     1     105.419  54.525  -3.990  1.00  0.00    -0.394 OA
ATOM     31  H   UNL     1     105.397  53.831  -3.281  1.00  0.00     0.210 HD
ENDBRANCH  29  30
ENDBRANCH  21  29
ENDBRANCH   1  17
TORSDOF 13
ENDMDL
MODEL 4
REMARK VINA RESULT:    -3.900      5.079      7.131
REMARK INTER + INTRA:          -7.450
REMARK INTER:                  -6.793
REMARK INTRA:                  -0.657
REMARK UNBOUND:                -1.499
REMARK SMILES OC[C@@H]1O[C@](CO)(O[C@H]2O[C@H](CO)[C@@H](O)[C@@H](O)[C@H]2O)[C@@H](O)[C@H]1O
REMARK SMILES IDX 8 1 9 2 11 3 14 4 10 5 16 6 18 7 12 8 13 9 15 11 17 13 19 15
REMARK SMILES IDX 5 17 20 18 4 19 22 20 3 21 6 22 7 23 21 25 23 27 2 29 1 30
REMARK H PARENT 13 10 15 12 17 14 19 16 7 24 21 26 23 28 1 31
REMARK Flexibility Score: inf
ROOT
ATOM      1  O   UNL     1     108.926  51.866  -3.416  1.00  0.00    -0.313 OA
ENDROOT
BRANCH   1   2
ATOM      2  C   UNL     1     108.168  51.073  -2.509  1.00  0.00     0.285 C 
ATOM      3  C   UNL     1     109.933  51.003  -0.951  1.00  0.00     0.178 C 
ATOM      4  C   UNL     1     109.187  51.888   0.073  1.00  0.00     0.177 C 
ATOM      5  O   UNL     1     109.011  50.246  -1.719  1.00  0.00    -0.341 OA
ATOM      6  C   UNL     1     108.195  52.812  -0.654  1.00  0.00     0.179 C 
ATOM      7  C   UNL     1     107.309  51.977  -1.602  1.00  0.00     0.202 C 
BRANCH   3   8
ATOM      8  C   UNL     1     110.880  50.028  -0.235  1.00  0.00     0.191 C 
BRANCH   8   9
ATOM      9  O   UNL     1     110.659  50.058   1.150  1.00  0.00    -0.394 OA
ATOM     10  H   UNL     1     110.352  49.151   1.408  1.00  0.00     0.210 HD
ENDBRANCH   8   9
ENDBRANCH   3   8
BRANCH   4  11
ATOM     11  O   UNL     1     110.106  52.655   0.809  1.00  0.00    -0.387 OA
ATOM     12  H   UNL     1     109.581  53.344   1.292  1.00  0.00     0.211 HD
ENDBRANCH   4  11
BRANCH   6  13
ATOM     13  O   UNL     1     108.901  53.796  -1.370  1.00  0.00    -0.387 OA
ATOM     14  H   UNL     1     109.707  53.359  -1.748  1.00  0.00     0.211 HD
ENDBRANCH   6  13
BRANCH   7  15
ATOM     15  O   UNL     1     106.503  52.813  -2.387  1.00  0.00    -0.385 OA
ATOM     16  H   UNL     1     106.036  52.229  -3.041  1.00  0.00     0.211 HD
ENDBRANCH   7  15
ENDBRANCH   1   2
BRANCH   1  17
ATOM     17  C   UNL     1     108.552  51.742  -4.791  1.00  0.00     0.224 C 
ATOM     18  C   UNL     1     108.473  50.219  -5.068  1.00  0.00     0.208 C 
ATOM     19  O   UNL     1     109.565  52.281  -5.630  1.00  0.00    -0.337 OA
ATOM     20  C   UNL     1     109.866  49.911  -5.565  1.00  0.00     0.180 C 
ATOM     21  C   UNL     1     110.241  51.215  -6.263  1.00  0.00     0.179 C 
BRANCH  17  22
ATOM     22  C   UNL     1     107.197  52.454  -5.069  1.00  0.00     0.225 C 
BRANCH  22  23
ATOM     23  O   UNL     1     106.977  52.589  -6.447  1.00  0.00    -0.391 OA
ATOM     24  H   UNL     1     107.834  52.356  -6.890  1.00  0.00     0.210 HD
ENDBRANCH  22  23
ENDBRANCH  17  22
BRANCH  18  25
ATOM     25  O   UNL     1     107.485  49.859  -6.011  1.00  0.00    -0.385 OA
ATOM     26  H   UNL     1     107.821  50.076  -6.920  1.00  0.00     0.211 HD
ENDBRANCH  18  25
BRANCH  20  27
ATOM     27  O   UNL     1     109.874  48.821  -6.450  1.00  0.00    -0.387 OA
ATOM     28  H   UNL     1     110.304  48.070  -5.965  1.00  0.00     0.211 HD
ENDBRANCH  20  27
BRANCH  21  29
ATOM     29  C   UNL     1     111.752  51.472  -6.275  1.00  0.00     0.191 C 
BRANCH  29  30
ATOM     30  O   UNL     1     112.441  50.338  -6.723  1.00  0.00    -0.394 OA
ATOM     31  H   UNL     1     112.708  49.839  -5.908  1.00  0.00     0.210 HD
ENDBRANCH  29  30
ENDBRANCH  21  29
ENDBRANCH   1  17
TORSDOF 13
ENDMDL
MODEL 5
REMARK VINA RESULT:    -3.851      4.413      8.185
REMARK INTER + INTRA:          -7.376
REMARK INTER:                  -6.198
REMARK INTRA:                  -1.178
REMARK UNBOUND:                -1.499
REMARK SMILES OC[C@@H]1O[C@](CO)(O[C@H]2O[C@H](CO)[C@@H](O)[C@@H](O)[C@H]2O)[C@@H](O)[C@H]1O
REMARK SMILES IDX 8 1 9 2 11 3 14 4 10 5 16 6 18 7 12 8 13 9 15 11 17 13 19 15
REMARK SMILES IDX 5 17 20 18 4 19 22 20 3 21 6 22 7 23 21 25 23 27 2 29 1 30
REMARK H PARENT 13 10 15 12 17 14 19 16 7 24 21 26 23 28 1 31
REMARK Flexibility Score: inf
ROOT
ATOM      1  O   UNL     1     106.869  53.638   1.635  1.00  0.00    -0.313 OA
ENDROOT
BRANCH   1   2
ATOM      2  C   UNL     1     107.880  54.204   0.808  1.00  0.00     0.285 C 
ATOM      3  C   UNL     1     108.432  52.107  -0.112  1.00  0.00     0.178 C 
ATOM      4  C   UNL     1     107.873  52.469  -1.507  1.00  0.00     0.177 C 
ATOM      5  O   UNL     1     108.915  53.267   0.547  1.00  0.00    -0.341 OA
ATOM      6  C   UNL     1     106.760  53.523  -1.370  1.00  0.00     0.179 C 
ATOM      7  C   UNL     1     107.266  54.703  -0.516  1.00  0.00     0.202 C 
BRANCH   3   8
ATOM      8  C   UNL     1     109.589  51.105  -0.237  1.00  0.00     0.191 C 
BRANCH   8   9
ATOM      9  O   UNL     1     110.237  50.950   0.997  1.00  0.00    -0.394 OA
ATOM     10  H   UNL     1     110.290  49.975   1.170  1.00  0.00     0.210 HD
ENDBRANCH   8   9
ENDBRANCH   3   8
BRANCH   4  11
ATOM     11  O   UNL     1     107.370  51.319  -2.138  1.00  0.00    -0.387 OA
ATOM     12  H   UNL     1     107.440  51.477  -3.116  1.00  0.00     0.211 HD
ENDBRANCH   4  11
BRANCH   6  13
ATOM     13  O   UNL     1     105.622  52.938  -0.787  1.00  0.00    -0.387 OA
ATOM     14  H   UNL     1     105.876  52.020  -0.509  1.00  0.00     0.211 HD
ENDBRANCH   6  13
BRANCH   7  15
ATOM     15  O   UNL     1     106.224  55.603  -0.249  1.00  0.00    -0.385 OA
ATOM     16  H   UNL     1     105.815  55.321   0.610  1.00  0.00     0.211 HD
ENDBRANCH   7  15
ENDBRANCH   1   2
BRANCH   1  17
ATOM     17  C   UNL     1     106.836  54.129   2.978  1.00  0.00     0.224 C 
ATOM     18  C   UNL     1     108.159  54.913   3.170  1.00  0.00     0.208 C 
ATOM     19  O   UNL     1     106.839  53.047   3.901  1.00  0.00    -0.337 OA
ATOM     20  C   UNL     1     109.082  53.855   3.728  1.00  0.00     0.180 C 
ATOM     21  C   UNL     1     108.110  52.980   4.514  1.00  0.00     0.179 C 
BRANCH  17  22
ATOM     22  C   UNL     1     105.589  55.027   3.216  1.00  0.00     0.225 C 
BRANCH  22  23
ATOM     23  O   UNL     1     105.691  56.226   2.497  1.00  0.00    -0.391 OA
ATOM     24  H   UNL     1     105.703  55.974   1.537  1.00  0.00     0.210 HD
ENDBRANCH  22  23
ENDBRANCH  17  22
BRANCH  18  25
ATOM     25  O   UNL     1     108.046  56.024   4.035  1.00  0.00    -0.385 OA
ATOM     26  H   UNL     1     107.982  55.693   4.969  1.00  0.00     0.211 HD
ENDBRANCH  18  25
BRANCH  20  27
ATOM     27  O   UNL     1     110.073  54.411   4.553  1.00  0.00    -0.387 OA
ATOM     28  H   UNL     1     110.174  53.795   5.324  1.00  0.00     0.211 HD
ENDBRANCH  20  27
BRANCH  21  29
ATOM     29  C   UNL     1     108.575  51.524   4.625  1.00  0.00     0.191 C 
BRANCH  29  30
ATOM     30  O   UNL     1     109.774  51.335   3.929  1.00  0.00    -0.394 OA
ATOM     31  H   UNL     1     109.708  51.892   3.110  1.00  0.00     0.210 HD
ENDBRANCH  29  30
ENDBRANCH  21  29
ENDBRANCH   1  17
TORSDOF 13
ENDMDL
MODEL 6
REMARK VINA RESULT:    -3.686      3.436      7.605
REMARK INTER + INTRA:          -7.125
REMARK INTER:                  -6.194
REMARK INTRA:                  -0.930
REMARK UNBOUND:                -1.499
REMARK SMILES OC[C@@H]1O[C@](CO)(O[C@H]2O[C@H](CO)[C@@H](O)[C@@H](O)[C@H]2O)[C@@H](O)[C@H]1O
REMARK SMILES IDX 8 1 9 2 11 3 14 4 10 5 16 6 18 7 12 8 13 9 15 11 17 13 19 15
REMARK SMILES IDX 5 17 20 18 4 19 22 20 3 21 6 22 7 23 21 25 23 27 2 29 1 30
REMARK H PARENT 13 10 15 12 17 14 19 16 7 24 21 26 23 28 1 31
REMARK Flexibility Score: inf
ROOT
ATOM      1  O   UNL     1     107.742  54.365   1.382  1.00  0.00    -0.313 OA
ENDROOT
BRANCH   1   2
ATOM      2  C   UNL     1     106.635  53.695   0.789  1.00  0.00     0.285 C 
ATOM      3  C   UNL     1     106.024  55.605  -0.448  1.00  0.00     0.178 C 
ATOM      4  C   UNL     1     106.417  54.969  -1.800  1.00  0.00     0.177 C 
ATOM      5  O   UNL     1     105.595  54.608   0.466  1.00  0.00    -0.341 OA
ATOM      6  C   UNL     1     107.518  53.916  -1.585  1.00  0.00     0.179 C 
ATOM      7  C   UNL     1     107.087  52.936  -0.475  1.00  0.00     0.202 C 
BRANCH   3   8
ATOM      8  C   UNL     1     104.880  56.613  -0.636  1.00  0.00     0.191 C 
BRANCH   8   9
ATOM      9  O   UNL     1     104.371  57.014   0.608  1.00  0.00    -0.394 OA
ATOM     10  H   UNL     1     103.558  56.468   0.772  1.00  0.00     0.210 HD
ENDBRANCH   8   9
ENDBRANCH   3   8
BRANCH   4  11
ATOM     11  O   UNL     1     106.868  55.961  -2.687  1.00  0.00    -0.387 OA
ATOM     12  H   UNL     1     106.121  56.605  -2.798  1.00  0.00     0.211 HD
ENDBRANCH   4  11
BRANCH   6  13
ATOM     13  O   UNL     1     108.725  54.554  -1.247  1.00  0.00    -0.387 OA
ATOM     14  H   UNL     1     108.694  54.737  -0.273  1.00  0.00     0.211 HD
ENDBRANCH   6  13
BRANCH   7  15
ATOM     15  O   UNL     1     108.135  52.061  -0.155  1.00  0.00    -0.385 OA
ATOM     16  H   UNL     1     108.951  52.617  -0.047  1.00  0.00     0.211 HD
ENDBRANCH   7  15
ENDBRANCH   1   2
BRANCH   1  17
ATOM     17  C   UNL     1     107.953  54.082   2.768  1.00  0.00     0.224 C 
ATOM     18  C   UNL     1     106.548  53.788   3.353  1.00  0.00     0.208 C 
ATOM     19  O   UNL     1     108.466  55.227   3.435  1.00  0.00    -0.337 OA
ATOM     20  C   UNL     1     106.113  55.149   3.842  1.00  0.00     0.180 C 
ATOM     21  C   UNL     1     107.444  55.775   4.242  1.00  0.00     0.179 C 
BRANCH  17  22
ATOM     22  C   UNL     1     108.922  52.880   2.953  1.00  0.00     0.225 C 
BRANCH  22  23
ATOM     23  O   UNL     1     109.800  52.773   1.865  1.00  0.00    -0.391 OA
ATOM     24  H   UNL     1     109.244  52.522   1.083  1.00  0.00     0.210 HD
ENDBRANCH  22  23
ENDBRANCH  17  22
BRANCH  18  25
ATOM     25  O   UNL     1     106.549  52.830   4.392  1.00  0.00    -0.385 OA
ATOM     26  H   UNL     1     105.919  53.129   5.099  1.00  0.00     0.211 HD
ENDBRANCH  18  25
BRANCH  20  27
ATOM     27  O   UNL     1     105.229  55.054   4.929  1.00  0.00    -0.387 OA
ATOM     28  H   UNL     1     104.361  55.420   4.618  1.00  0.00     0.211 HD
ENDBRANCH  20  27
BRANCH  21  29
ATOM     29  C   UNL     1     107.441  57.304   4.137  1.00  0.00     0.191 C 
BRANCH  29  30
ATOM     30  O   UNL     1     106.132  57.799   4.191  1.00  0.00    -0.394 OA
ATOM     31  H   UNL     1     106.206  58.740   4.497  1.00  0.00     0.210 HD
ENDBRANCH  29  30
ENDBRANCH  21  29
ENDBRANCH   1  17
TORSDOF 13
ENDMDL
MODEL 7
REMARK VINA RESULT:    -3.420      2.221      6.098
REMARK INTER + INTRA:          -6.718
REMARK INTER:                  -5.620
REMARK INTRA:                  -1.098
REMARK UNBOUND:                -1.499
REMARK SMILES OC[C@@H]1O[C@](CO)(O[C@H]2O[C@H](CO)[C@@H](O)[C@@H](O)[C@H]2O)[C@@H](O)[C@H]1O
REMARK SMILES IDX 8 1 9 2 11 3 14 4 10 5 16 6 18 7 12 8 13 9 15 11 17 13 19 15
REMARK SMILES IDX 5 17 20 18 4 19 22 20 3 21 6 22 7 23 21 25 23 27 2 29 1 30
REMARK H PARENT 13 10 15 12 17 14 19 16 7 24 21 26 23 28 1 31
REMARK Flexibility Score: inf
ROOT
ATOM      1  O   UNL     1     102.774  55.989  -5.452  1.00  0.00    -0.313 OA
ENDROOT
BRANCH   1   2
ATOM      2  C   UNL     1     102.119  55.883  -6.711  1.00  0.00     0.285 C 
ATOM      3  C   UNL     1     100.099  55.201  -5.708  1.00  0.00     0.178 C 
ATOM      4  C   UNL     1      99.369  56.514  -6.068  1.00  0.00     0.177 C 
ATOM      5  O   UNL     1     101.092  54.901  -6.677  1.00  0.00    -0.341 OA
ATOM      6  C   UNL     1     100.384  57.665  -6.184  1.00  0.00     0.179 C 
ATOM      7  C   UNL     1     101.534  57.249  -7.123  1.00  0.00     0.202 C 
BRANCH   3   8
ATOM      8  C   UNL     1      99.109  54.028  -5.654  1.00  0.00     0.191 C 
BRANCH   8   9
ATOM      9  O   UNL     1      98.517  53.945  -4.385  1.00  0.00    -0.394 OA
ATOM     10  H   UNL     1      98.012  54.788  -4.252  1.00  0.00     0.210 HD
ENDBRANCH   8   9
ENDBRANCH   3   8
BRANCH   4  11
ATOM     11  O   UNL     1      98.409  56.816  -5.088  1.00  0.00    -0.387 OA
ATOM     12  H   UNL     1      97.928  57.626  -5.401  1.00  0.00     0.211 HD
ENDBRANCH   4  11
BRANCH   6  13
ATOM     13  O   UNL     1     100.876  57.993  -4.907  1.00  0.00    -0.387 OA
ATOM     14  H   UNL     1     100.093  58.060  -4.302  1.00  0.00     0.211 HD
ENDBRANCH   6  13
BRANCH   7  15
ATOM     15  O   UNL     1     102.546  58.220  -7.124  1.00  0.00    -0.385 OA
ATOM     16  H   UNL     1     102.318  58.872  -6.411  1.00  0.00     0.211 HD
ENDBRANCH   7  15
ENDBRANCH   1   2
BRANCH   1  17
ATOM     17  C   UNL     1     104.201  55.903  -5.500  1.00  0.00     0.224 C 
ATOM     18  C   UNL     1     104.569  54.613  -4.725  1.00  0.00     0.208 C 
ATOM     19  O   UNL     1     104.786  57.001  -4.811  1.00  0.00    -0.337 OA
ATOM     20  C   UNL     1     104.786  55.131  -3.323  1.00  0.00     0.180 C 
ATOM     21  C   UNL     1     105.323  56.533  -3.591  1.00  0.00     0.179 C 
BRANCH  17  22
ATOM     22  C   UNL     1     104.711  55.864  -6.968  1.00  0.00     0.225 C 
BRANCH  22  23
ATOM     23  O   UNL     1     105.931  56.545  -7.092  1.00  0.00    -0.391 OA
ATOM     24  H   UNL     1     105.712  57.513  -7.069  1.00  0.00     0.210 HD
ENDBRANCH  22  23
ENDBRANCH  17  22
BRANCH  18  25
ATOM     25  O   UNL     1     105.711  53.950  -5.225  1.00  0.00    -0.385 OA
ATOM     26  H   UNL     1     105.775  53.059  -4.793  1.00  0.00     0.211 HD
ENDBRANCH  18  25
BRANCH  20  27
ATOM     27  O   UNL     1     105.707  54.343  -2.614  1.00  0.00    -0.387 OA
ATOM     28  H   UNL     1     106.384  54.967  -2.244  1.00  0.00     0.211 HD
ENDBRANCH  20  27
BRANCH  21  29
ATOM     29  C   UNL     1     105.013  57.518  -2.458  1.00  0.00     0.191 C 
BRANCH  29  30
ATOM     30  O   UNL     1     105.222  56.916  -1.211  1.00  0.00    -0.394 OA
ATOM     31  H   UNL     1     105.615  56.024  -1.399  1.00  0.00     0.210 HD
ENDBRANCH  29  30
ENDBRANCH  21  29
ENDBRANCH   1  17
TORSDOF 13
ENDMDL
MODEL 8
REMARK VINA RESULT:    -3.314     11.307     13.984
REMARK INTER + INTRA:          -6.557
REMARK INTER:                  -6.162
REMARK INTRA:                  -0.394
REMARK UNBOUND:                -1.499
REMARK SMILES OC[C@@H]1O[C@](CO)(O[C@H]2O[C@H](CO)[C@@H](O)[C@@H](O)[C@H]2O)[C@@H](O)[C@H]1O
REMARK SMILES IDX 8 1 9 2 11 3 14 4 10 5 16 6 18 7 12 8 13 9 15 11 17 13 19 15
REMARK SMILES IDX 5 17 20 18 4 19 22 20 3 21 6 22 7 23 21 25 23 27 2 29 1 30
REMARK H PARENT 13 10 15 12 17 14 19 16 7 24 21 26 23 28 1 31
REMARK Flexibility Score: inf
ROOT
ATOM      1  O   UNL     1     115.610  49.214  -5.024  1.00  0.00    -0.313 OA
ENDROOT
BRANCH   1   2
ATOM      2  C   UNL     1     115.691  49.383  -6.435  1.00  0.00     0.285 C 
ATOM      3  C   UNL     1     113.579  50.423  -6.525  1.00  0.00     0.178 C 
ATOM      4  C   UNL     1     114.172  51.803  -6.889  1.00  0.00     0.177 C 
ATOM      5  O   UNL     1     114.400  49.380  -7.029  1.00  0.00    -0.341 OA
ATOM      6  C   UNL     1     115.604  51.922  -6.338  1.00  0.00     0.179 C 
ATOM      7  C   UNL     1     116.430  50.694  -6.772  1.00  0.00     0.202 C 
BRANCH   3   8
ATOM      8  C   UNL     1     112.174  50.263  -7.125  1.00  0.00     0.191 C 
BRANCH   8   9
ATOM      9  O   UNL     1     111.216  50.863  -6.295  1.00  0.00    -0.394 OA
ATOM     10  H   UNL     1     111.091  51.789  -6.629  1.00  0.00     0.210 HD
ENDBRANCH   8   9
ENDBRANCH   3   8
BRANCH   4  11
ATOM     11  O   UNL     1     113.368  52.827  -6.361  1.00  0.00    -0.387 OA
ATOM     12  H   UNL     1     112.524  52.400  -6.060  1.00  0.00     0.211 HD
ENDBRANCH   4  11
BRANCH   6  13
ATOM     13  O   UNL     1     115.565  52.025  -4.935  1.00  0.00    -0.387 OA
ATOM     14  H   UNL     1     114.716  52.481  -4.701  1.00  0.00     0.211 HD
ENDBRANCH   6  13
BRANCH   7  15
ATOM     15  O   UNL     1     117.690  50.703  -6.157  1.00  0.00    -0.385 OA
ATOM     16  H   UNL     1     118.338  51.028  -6.835  1.00  0.00     0.211 HD
ENDBRANCH   7  15
ENDBRANCH   1   2
BRANCH   1  17
ATOM     17  C   UNL     1     115.936  47.905  -4.548  1.00  0.00     0.224 C 
ATOM     18  C   UNL     1     117.155  47.447  -5.387  1.00  0.00     0.208 C 
ATOM     19  O   UNL     1     114.869  47.003  -4.809  1.00  0.00    -0.337 OA
ATOM     20  C   UNL     1     116.499  46.713  -6.533  1.00  0.00     0.180 C 
ATOM     21  C   UNL     1     115.253  46.143  -5.862  1.00  0.00     0.179 C 
BRANCH  17  22
ATOM     22  C   UNL     1     116.254  47.926  -3.025  1.00  0.00     0.225 C 
BRANCH  22  23
ATOM     23  O   UNL     1     117.292  48.826  -2.743  1.00  0.00    -0.391 OA
ATOM     24  H   UNL     1     117.958  48.719  -3.472  1.00  0.00     0.210 HD
ENDBRANCH  22  23
ENDBRANCH  17  22
BRANCH  18  25
ATOM     25  O   UNL     1     118.059  46.622  -4.682  1.00  0.00    -0.385 OA
ATOM     26  H   UNL     1     117.604  45.766  -4.465  1.00  0.00     0.211 HD
ENDBRANCH  18  25
BRANCH  20  27
ATOM     27  O   UNL     1     117.327  45.703  -7.047  1.00  0.00    -0.387 OA
ATOM     28  H   UNL     1     116.790  45.219  -7.726  1.00  0.00     0.211 HD
ENDBRANCH  20  27
BRANCH  21  29
ATOM     29  C   UNL     1     114.089  45.941  -6.839  1.00  0.00     0.191 C 
BRANCH  29  30
ATOM     30  O   UNL     1     112.924  46.541  -6.348  1.00  0.00    -0.394 OA
ATOM     31  H   UNL     1     113.205  47.409  -5.955  1.00  0.00     0.210 HD
ENDBRANCH  29  30
ENDBRANCH  21  29
ENDBRANCH   1  17
TORSDOF 13
ENDMDL
