MODEL 1
REMARK VINA RESULT:    -4.633      0.000      0.000
REMARK INTER + INTRA:          -4.633
REMARK INTER:                  -4.633
REMARK INTRA:                   0.000
REMARK UNBOUND:                 0.000
REMARK SMILES CC1=CC(=O)[C@H]2C[C@@H]1C2(C)C
REMARK SMILES IDX 1 1 2 2 3 3 4 4 5 5 6 6 7 7 8 8 9 9 10 10 11 11
REMARK H PARENT
REMARK Flexibility Score: inf
ROOT
ATOM      1  C   UNL     1       0.106  17.066  22.022  1.00  0.00     0.040 C 
ATOM      2  C   UNL     1       1.356  16.279  21.789  1.00  0.00    -0.066 C 
ATOM      3  C   UNL     1       1.721  15.882  20.539  1.00  0.00     0.047 C 
ATOM      4  C   UNL     1       2.979  15.074  20.441  1.00  0.00     0.159 C 
ATOM      5  O   UNL     1       3.400  14.615  19.347  1.00  0.00    -0.295 OA
ATOM      6  C   UNL     1       3.714  14.843  21.762  1.00  0.00     0.067 C 
ATOM      7  C   UNL     1       3.722  16.232  22.437  1.00  0.00     0.021 C 
ATOM      8  C   UNL     1       2.302  15.895  22.947  1.00  0.00     0.022 C 
ATOM      9  C   UNL     1       2.679  14.390  22.831  1.00  0.00    -0.019 C 
ATOM     10  C   UNL     1       3.356  13.850  24.116  1.00  0.00     0.012 C 
ATOM     11  C   UNL     1       1.570  13.385  22.407  1.00  0.00     0.012 C 
ENDROOT
TORSDOF 0
ENDMDL
MODEL 2
REMARK VINA RESULT:    -4.548      5.732      7.344
REMARK INTER + INTRA:          -4.548
REMARK INTER:                  -4.548
REMARK INTRA:                   0.000
REMARK UNBOUND:                 0.000
REMARK SMILES CC1=CC(=O)[C@H]2C[C@@H]1C2(C)C
REMARK SMILES IDX 1 1 2 2 3 3 4 4 5 5 6 6 7 7 8 8 9 9 10 10 11 11
REMARK H PARENT
REMARK Flexibility Score: inf
ROOT
ATOM      1  C   UNL     1      -0.153   8.348  18.847  1.00  0.00     0.040 C 
ATOM      2  C   UNL     1       1.049   9.154  18.472  1.00  0.00    -0.066 C 
ATOM      3  C   UNL     1       1.744   9.866  19.402  1.00  0.00     0.047 C 
ATOM      4  C   UNL     1       2.911  10.657  18.895  1.00  0.00     0.159 C 
ATOM      5  O   UNL     1       3.608  11.385  19.648  1.00  0.00    -0.295 OA
ATOM      6  C   UNL     1       3.195  10.520  17.399  1.00  0.00     0.067 C 
ATOM      7  C   UNL     1       3.100   9.002  17.134  1.00  0.00     0.021 C 
ATOM      8  C   UNL     1       1.571   9.206  17.020  1.00  0.00     0.022 C 
ATOM      9  C   UNL     1       1.857  10.684  16.624  1.00  0.00    -0.019 C 
ATOM     10  C   UNL     1       2.074  10.855  15.099  1.00  0.00     0.012 C 
ATOM     11  C   UNL     1       0.858  11.777  17.098  1.00  0.00     0.012 C 
ENDROOT
TORSDOF 0
ENDMDL
MODEL 3
REMARK VINA RESULT:    -4.286      1.796      3.296
REMARK INTER + INTRA:          -4.286
REMARK INTER:                  -4.286
REMARK INTRA:                   0.000
REMARK UNBOUND:                 0.000
REMARK SMILES CC1=CC(=O)[C@H]2C[C@@H]1C2(C)C
REMARK SMILES IDX 1 1 2 2 3 3 4 4 5 5 6 6 7 7 8 8 9 9 10 10 11 11
REMARK H PARENT
REMARK Flexibility Score: inf
ROOT
ATOM      1  C   UNL     1       3.994  14.035  19.475  1.00  0.00     0.040 C 
ATOM      2  C   UNL     1       3.518  14.465  20.826  1.00  0.00    -0.066 C 
ATOM      3  C   UNL     1       3.732  13.698  21.931  1.00  0.00     0.047 C 
ATOM      4  C   UNL     1       3.179  14.224  23.220  1.00  0.00     0.159 C 
ATOM      5  O   UNL     1       3.278  13.589  24.302  1.00  0.00    -0.295 OA
ATOM      6  C   UNL     1       2.485  15.584  23.129  1.00  0.00     0.067 C 
ATOM      7  C   UNL     1       3.446  16.441  22.277  1.00  0.00     0.021 C 
ATOM      8  C   UNL     1       2.777  15.803  21.038  1.00  0.00     0.022 C 
ATOM      9  C   UNL     1       1.514  15.563  21.915  1.00  0.00    -0.019 C 
ATOM     10  C   UNL     1       0.552  16.778  21.908  1.00  0.00     0.012 C 
ATOM     11  C   UNL     1       0.676  14.278  21.660  1.00  0.00     0.012 C 
ENDROOT
TORSDOF 0
ENDMDL
MODEL 4
REMARK VINA RESULT:    -4.283      5.759      7.255
REMARK INTER + INTRA:          -4.283
REMARK INTER:                  -4.283
REMARK INTRA:                   0.000
REMARK UNBOUND:                 0.000
REMARK SMILES CC1=CC(=O)[C@H]2C[C@@H]1C2(C)C
REMARK SMILES IDX 1 1 2 2 3 3 4 4 5 5 6 6 7 7 8 8 9 9 10 10 11 11
REMARK H PARENT
REMARK Flexibility Score: inf
ROOT
ATOM      1  C   UNL     1       2.883   8.857  17.328  1.00  0.00     0.040 C 
ATOM      2  C   UNL     1       1.693   9.193  18.170  1.00  0.00    -0.066 C 
ATOM      3  C   UNL     1       1.120  10.428  18.126  1.00  0.00     0.047 C 
ATOM      4  C   UNL     1      -0.047  10.649  19.039  1.00  0.00     0.159 C 
ATOM      5  O   UNL     1      -0.637  11.758  19.119  1.00  0.00    -0.295 OA
ATOM      6  C   UNL     1      -0.470   9.436  19.868  1.00  0.00     0.067 C 
ATOM      7  C   UNL     1      -0.474   8.270  18.856  1.00  0.00     0.021 C 
ATOM      8  C   UNL     1       1.047   8.157  19.114  1.00  0.00     0.022 C 
ATOM      9  C   UNL     1       0.801   8.806  20.506  1.00  0.00    -0.019 C 
ATOM     10  C   UNL     1       0.456   7.757  21.594  1.00  0.00     0.012 C 
ATOM     11  C   UNL     1       1.891   9.758  21.076  1.00  0.00     0.012 C 
ENDROOT
TORSDOF 0
ENDMDL
MODEL 5
REMARK VINA RESULT:    -4.229      5.803      7.513
REMARK INTER + INTRA:          -4.229
REMARK INTER:                  -4.229
REMARK INTRA:                   0.000
REMARK UNBOUND:                 0.000
REMARK SMILES CC1=CC(=O)[C@H]2C[C@@H]1C2(C)C
REMARK SMILES IDX 1 1 2 2 3 3 4 4 5 5 6 6 7 7 8 8 9 9 10 10 11 11
REMARK H PARENT
REMARK Flexibility Score: inf
ROOT
ATOM      1  C   UNL     1      -1.705   9.854  21.705  1.00  0.00     0.040 C 
ATOM      2  C   UNL     1      -0.631   9.166  20.924  1.00  0.00    -0.066 C 
ATOM      3  C   UNL     1       0.201   8.261  21.508  1.00  0.00     0.047 C 
ATOM      4  C   UNL     1       1.255   7.664  20.626  1.00  0.00     0.159 C 
ATOM      5  O   UNL     1       2.108   6.846  21.057  1.00  0.00    -0.295 OA
ATOM      6  C   UNL     1       1.223   8.120  19.167  1.00  0.00     0.067 C 
ATOM      7  C   UNL     1      -0.269   8.036  18.777  1.00  0.00     0.021 C 
ATOM      8  C   UNL     1      -0.425   9.434  19.418  1.00  0.00     0.022 C 
ATOM      9  C   UNL     1       1.087   9.669  19.135  1.00  0.00    -0.019 C 
ATOM     10  C   UNL     1       1.339  10.255  17.723  1.00  0.00     0.012 C 
ATOM     11  C   UNL     1       1.905  10.503  20.161  1.00  0.00     0.012 C 
ENDROOT
TORSDOF 0
ENDMDL
MODEL 6
REMARK VINA RESULT:    -4.106      5.754      7.110
REMARK INTER + INTRA:          -4.106
REMARK INTER:                  -4.106
REMARK INTRA:                   0.000
REMARK UNBOUND:                 0.000
REMARK SMILES CC1=CC(=O)[C@H]2C[C@@H]1C2(C)C
REMARK SMILES IDX 1 1 2 2 3 3 4 4 5 5 6 6 7 7 8 8 9 9 10 10 11 11
REMARK H PARENT
REMARK Flexibility Score: inf
ROOT
ATOM      1  C   UNL     1       4.430  11.654  18.798  1.00  0.00     0.040 C 
ATOM      2  C   UNL     1       3.421  11.021  17.894  1.00  0.00    -0.066 C 
ATOM      3  C   UNL     1       3.037  11.617  16.731  1.00  0.00     0.047 C 
ATOM      4  C   UNL     1       1.997  10.896  15.929  1.00  0.00     0.159 C 
ATOM      5  O   UNL     1       1.532  11.364  14.857  1.00  0.00    -0.295 OA
ATOM      6  C   UNL     1       1.538   9.556  16.504  1.00  0.00     0.067 C 
ATOM      7  C   UNL     1       2.851   8.849  16.906  1.00  0.00     0.021 C 
ATOM      8  C   UNL     1       2.779   9.655  18.223  1.00  0.00     0.022 C 
ATOM      9  C   UNL     1       1.239   9.743  18.018  1.00  0.00    -0.019 C 
ATOM     10  C   UNL     1       0.493   8.529  18.627  1.00  0.00     0.012 C 
ATOM     11  C   UNL     1       0.511  11.040  18.473  1.00  0.00     0.012 C 
ENDROOT
TORSDOF 0
ENDMDL
MODEL 7
REMARK VINA RESULT:    -4.100      2.011      3.142
REMARK INTER + INTRA:          -4.100
REMARK INTER:                  -4.100
REMARK INTRA:                   0.000
REMARK UNBOUND:                 0.000
REMARK SMILES CC1=CC(=O)[C@H]2C[C@@H]1C2(C)C
REMARK SMILES IDX 1 1 2 2 3 3 4 4 5 5 6 6 7 7 8 8 9 9 10 10 11 11
REMARK H PARENT
REMARK Flexibility Score: inf
ROOT
ATOM      1  C   UNL     1       3.026  16.760  18.556  1.00  0.00     0.040 C 
ATOM      2  C   UNL     1       2.260  16.306  19.757  1.00  0.00    -0.066 C 
ATOM      3  C   UNL     1       1.384  17.132  20.394  1.00  0.00     0.047 C 
ATOM      4  C   UNL     1       0.701  16.569  21.603  1.00  0.00     0.159 C 
ATOM      5  O   UNL     1      -0.099  17.245  22.299  1.00  0.00    -0.295 OA
ATOM      6  C   UNL     1       1.046  15.116  21.933  1.00  0.00     0.067 C 
ATOM      7  C   UNL     1       0.963  14.390  20.573  1.00  0.00     0.021 C 
ATOM      8  C   UNL     1       2.409  14.877  20.323  1.00  0.00     0.022 C 
ATOM      9  C   UNL     1       2.591  14.948  21.866  1.00  0.00    -0.019 C 
ATOM     10  C   UNL     1       3.064  13.599  22.466  1.00  0.00     0.012 C 
ATOM     11  C   UNL     1       3.484  16.079  22.450  1.00  0.00     0.012 C 
ENDROOT
TORSDOF 0
ENDMDL
MODEL 8
REMARK VINA RESULT:    -3.997      1.603      3.438
REMARK INTER + INTRA:          -3.997
REMARK INTER:                  -3.997
REMARK INTRA:                   0.000
REMARK UNBOUND:                 0.000
REMARK SMILES CC1=CC(=O)[C@H]2C[C@@H]1C2(C)C
REMARK SMILES IDX 1 1 2 2 3 3 4 4 5 5 6 6 7 7 8 8 9 9 10 10 11 11
REMARK H PARENT
REMARK Flexibility Score: inf
ROOT
ATOM      1  C   UNL     1       3.779  14.506  23.769  1.00  0.00     0.040 C 
ATOM      2  C   UNL     1       2.657  14.713  22.804  1.00  0.00    -0.066 C 
ATOM      3  C   UNL     1       1.692  13.769  22.624  1.00  0.00     0.047 C 
ATOM      4  C   UNL     1       0.638  14.083  21.606  1.00  0.00     0.159 C 
ATOM      5  O   UNL     1      -0.283  13.275  21.321  1.00  0.00    -0.295 OA
ATOM      6  C   UNL     1       0.762  15.452  20.936  1.00  0.00     0.067 C 
ATOM      7  C   UNL     1       1.039  16.421  22.106  1.00  0.00     0.021 C 
ATOM      8  C   UNL     1       2.525  16.012  21.978  1.00  0.00     0.022 C 
ATOM      9  C   UNL     1       2.239  15.654  20.491  1.00  0.00    -0.019 C 
ATOM     10  C   UNL     1       2.410  16.872  19.548  1.00  0.00     0.012 C 
ATOM     11  C   UNL     1       2.994  14.446  19.868  1.00  0.00     0.012 C 
ENDROOT
TORSDOF 0
ENDMDL
MODEL 9
REMARK VINA RESULT:    -3.993      1.646      2.503
REMARK INTER + INTRA:          -3.993
REMARK INTER:                  -3.993
REMARK INTRA:                   0.000
REMARK UNBOUND:                 0.000
REMARK SMILES CC1=CC(=O)[C@H]2C[C@@H]1C2(C)C
REMARK SMILES IDX 1 1 2 2 3 3 4 4 5 5 6 6 7 7 8 8 9 9 10 10 11 11
REMARK H PARENT
REMARK Flexibility Score: inf
ROOT
ATOM      1  C   UNL     1       2.488  16.390  22.727  1.00  0.00     0.040 C 
ATOM      2  C   UNL     1       3.111  15.032  22.792  1.00  0.00    -0.066 C 
ATOM      3  C   UNL     1       3.622  14.432  21.681  1.00  0.00     0.047 C 
ATOM      4  C   UNL     1       4.191  13.059  21.871  1.00  0.00     0.159 C 
ATOM      5  O   UNL     1       4.657  12.386  20.915  1.00  0.00    -0.295 OA
ATOM      6  C   UNL     1       4.164  12.532  23.306  1.00  0.00     0.067 C 
ATOM      7  C   UNL     1       4.672  13.718  24.154  1.00  0.00     0.021 C 
ATOM      8  C   UNL     1       3.221  14.251  24.119  1.00  0.00     0.022 C 
ATOM      9  C   UNL     1       2.749  12.785  23.900  1.00  0.00    -0.019 C 
ATOM     10  C   UNL     1       2.526  12.031  25.235  1.00  0.00     0.012 C 
ATOM     11  C   UNL     1       1.512  12.540  22.990  1.00  0.00     0.012 C 
ENDROOT
TORSDOF 0
ENDMDL
