MODEL 1
REMARK VINA RESULT:    -4.833      0.000      0.000
REMARK INTER + INTRA:          -5.623
REMARK INTER:                  -5.539
REMARK INTRA:                  -0.083
REMARK UNBOUND:                -0.083
REMARK SMILES COc1cc(C(=O)[O-])ccc1O
REMARK SMILES IDX 5 1 9 2 4 3 10 4 3 5 11 6 6 7 7 8 8 9 2 10 1 11 12 12
REMARK H PARENT 12 13
REMARK Flexibility Score: inf
ROOT
ATOM      1  C   UNL     1      -7.177  -1.856  -0.683  1.00  0.00     0.001 A 
ATOM      2  C   UNL     1      -6.287  -2.714  -1.347  1.00  0.00     0.014 A 
ATOM      3  C   UNL     1      -7.181  -1.830   0.725  1.00  0.00     0.060 A 
ATOM      4  C   UNL     1      -5.418  -3.531  -0.622  1.00  0.00     0.051 A 
ATOM      5  C   UNL     1      -6.305  -2.653   1.460  1.00  0.00     0.161 A 
ATOM      6  C   UNL     1      -5.424  -3.503   0.778  1.00  0.00     0.157 A 
ENDROOT
BRANCH   1   7
ATOM      7  C   UNL     1      -8.097  -0.991  -1.456  1.00  0.00     0.072 C 
ATOM      8  O   UNL     1      -8.934  -0.256  -0.867  1.00  0.00    -0.545 OA
ATOM      9  O   UNL     1      -8.049  -0.979  -2.846  1.00  0.00    -0.545 OA
ENDBRANCH   1   7
BRANCH   5  10
ATOM     10  O   UNL     1      -6.281  -2.654   2.864  1.00  0.00    -0.493 OA
ATOM     11  C   UNL     1      -7.347  -2.199   3.690  1.00  0.00     0.278 C 
ENDBRANCH   5  10
BRANCH   6  12
ATOM     12  O   UNL     1      -4.555  -4.319   1.501  1.00  0.00    -0.504 OA
ATOM     13  H   UNL     1      -4.811  -5.264   1.766  1.00  0.00     0.293 HD
ENDBRANCH   6  12
TORSDOF 3
ENDMDL
MODEL 2
REMARK VINA RESULT:    -4.782      1.944      3.745
REMARK INTER + INTRA:          -5.564
REMARK INTER:                  -5.479
REMARK INTRA:                  -0.085
REMARK UNBOUND:                -0.083
REMARK SMILES COc1cc(C(=O)[O-])ccc1O
REMARK SMILES IDX 5 1 9 2 4 3 10 4 3 5 11 6 6 7 7 8 8 9 2 10 1 11 12 12
REMARK H PARENT 12 13
REMARK Flexibility Score: inf
ROOT
ATOM      1  C   UNL     1      -6.445  -2.819   0.498  1.00  0.00     0.001 A 
ATOM      2  C   UNL     1      -7.296  -2.247  -0.462  1.00  0.00     0.014 A 
ATOM      3  C   UNL     1      -6.527  -2.381   1.833  1.00  0.00     0.060 A 
ATOM      4  C   UNL     1      -8.208  -1.256  -0.095  1.00  0.00     0.051 A 
ATOM      5  C   UNL     1      -7.447  -1.382   2.206  1.00  0.00     0.161 A 
ATOM      6  C   UNL     1      -8.287  -0.822   1.233  1.00  0.00     0.157 A 
ENDROOT
BRANCH   1   7
ATOM      7  C   UNL     1      -5.479  -3.869   0.106  1.00  0.00     0.072 C 
ATOM      8  O   UNL     1      -4.263  -3.591  -0.068  1.00  0.00    -0.545 OA
ATOM      9  O   UNL     1      -5.902  -5.182  -0.077  1.00  0.00    -0.545 OA
ENDBRANCH   1   7
BRANCH   5  10
ATOM     10  O   UNL     1      -7.556  -0.920   3.527  1.00  0.00    -0.493 OA
ATOM     11  C   UNL     1      -7.673  -1.761   4.669  1.00  0.00     0.278 C 
ENDBRANCH   5  10
BRANCH   6  12
ATOM     12  O   UNL     1      -9.200   0.167   1.597  1.00  0.00    -0.504 OA
ATOM     13  H   UNL     1     -10.199  -0.007   1.596  1.00  0.00     0.293 HD
ENDBRANCH   6  12
TORSDOF 3
ENDMDL
MODEL 3
REMARK VINA RESULT:    -4.561      1.573      4.562
REMARK INTER + INTRA:          -5.311
REMARK INTER:                  -5.236
REMARK INTRA:                  -0.075
REMARK UNBOUND:                -0.083
REMARK SMILES COc1cc(C(=O)[O-])ccc1O
REMARK SMILES IDX 5 1 9 2 4 3 10 4 3 5 11 6 6 7 7 8 8 9 2 10 1 11 12 12
REMARK H PARENT 12 13
REMARK Flexibility Score: inf
ROOT
ATOM      1  C   UNL     1      -6.448  -2.837   0.654  1.00  0.00     0.001 A 
ATOM      2  C   UNL     1      -6.691  -2.542   2.005  1.00  0.00     0.014 A 
ATOM      3  C   UNL     1      -7.134  -2.114  -0.339  1.00  0.00     0.060 A 
ATOM      4  C   UNL     1      -7.603  -1.545   2.357  1.00  0.00     0.051 A 
ATOM      5  C   UNL     1      -8.055  -1.106   0.013  1.00  0.00     0.161 A 
ATOM      6  C   UNL     1      -8.284  -0.827   1.367  1.00  0.00     0.157 A 
ENDROOT
BRANCH   1   7
ATOM      7  C   UNL     1      -5.480  -3.895   0.285  1.00  0.00     0.072 C 
ATOM      8  O   UNL     1      -4.303  -3.599  -0.053  1.00  0.00    -0.545 OA
ATOM      9  O   UNL     1      -5.859  -5.233   0.305  1.00  0.00    -0.545 OA
ENDBRANCH   1   7
BRANCH   5  10
ATOM     10  O   UNL     1      -8.758  -0.365  -0.950  1.00  0.00    -0.493 OA
ATOM     11  C   UNL     1      -8.638  -0.549  -2.356  1.00  0.00     0.278 C 
ENDBRANCH   5  10
BRANCH   6  12
ATOM     12  O   UNL     1      -9.193   0.168   1.721  1.00  0.00    -0.504 OA
ATOM     13  H   UNL     1     -10.154  -0.051   1.962  1.00  0.00     0.293 HD
ENDBRANCH   6  12
TORSDOF 3
ENDMDL
MODEL 4
REMARK VINA RESULT:    -4.545     14.947     15.664
REMARK INTER + INTRA:          -5.293
REMARK INTER:                  -5.277
REMARK INTRA:                  -0.016
REMARK UNBOUND:                -0.083
REMARK SMILES COc1cc(C(=O)[O-])ccc1O
REMARK SMILES IDX 5 1 9 2 4 3 10 4 3 5 11 6 6 7 7 8 8 9 2 10 1 11 12 12
REMARK H PARENT 12 13
REMARK Flexibility Score: inf
ROOT
ATOM      1  C   UNL     1       1.789  10.146   4.963  1.00  0.00     0.001 A 
ATOM      2  C   UNL     1       2.743   9.214   4.524  1.00  0.00     0.014 A 
ATOM      3  C   UNL     1       0.803  10.591   4.063  1.00  0.00     0.060 A 
ATOM      4  C   UNL     1       2.713   8.737   3.212  1.00  0.00     0.051 A 
ATOM      5  C   UNL     1       0.770  10.112   2.738  1.00  0.00     0.161 A 
ATOM      6  C   UNL     1       1.731   9.183   2.319  1.00  0.00     0.157 A 
ENDROOT
BRANCH   1   7
ATOM      7  C   UNL     1       1.824  10.649   6.354  1.00  0.00     0.072 C 
ATOM      8  O   UNL     1       2.917  10.755   6.972  1.00  0.00    -0.545 OA
ATOM      9  O   UNL     1       0.647  11.013   7.001  1.00  0.00    -0.545 OA
ENDBRANCH   1   7
BRANCH   5  10
ATOM     10  O   UNL     1      -0.198  10.534   1.813  1.00  0.00    -0.493 OA
ATOM     11  C   UNL     1      -1.375   9.802   1.486  1.00  0.00     0.278 C 
ENDBRANCH   5  10
BRANCH   6  12
ATOM     12  O   UNL     1       1.703   8.704   1.010  1.00  0.00    -0.504 OA
ATOM     13  H   UNL     1       2.070   7.790   0.771  1.00  0.00     0.293 HD
ENDBRANCH   6  12
TORSDOF 3
ENDMDL
MODEL 5
REMARK VINA RESULT:    -4.481      1.726      3.695
REMARK INTER + INTRA:          -5.220
REMARK INTER:                  -5.141
REMARK INTRA:                  -0.079
REMARK UNBOUND:                -0.083
REMARK SMILES COc1cc(C(=O)[O-])ccc1O
REMARK SMILES IDX 5 1 9 2 4 3 10 4 3 5 11 6 6 7 7 8 8 9 2 10 1 11 12 12
REMARK H PARENT 12 13
REMARK Flexibility Score: inf
ROOT
ATOM      1  C   UNL     1      -7.265  -1.860   1.432  1.00  0.00     0.001 A 
ATOM      2  C   UNL     1      -6.327  -2.775   1.936  1.00  0.00     0.014 A 
ATOM      3  C   UNL     1      -7.337  -1.648   0.042  1.00  0.00     0.060 A 
ATOM      4  C   UNL     1      -5.477  -3.464   1.069  1.00  0.00     0.051 A 
ATOM      5  C   UNL     1      -6.481  -2.343  -0.835  1.00  0.00     0.161 A 
ATOM      6  C   UNL     1      -5.551  -3.251  -0.313  1.00  0.00     0.157 A 
ENDROOT
BRANCH   1   7
ATOM      7  C   UNL     1      -8.165  -1.130   2.354  1.00  0.00     0.072 C 
ATOM      8  O   UNL     1      -7.721  -0.626   3.420  1.00  0.00    -0.545 OA
ATOM      9  O   UNL     1      -9.517  -0.992   2.055  1.00  0.00    -0.545 OA
ENDBRANCH   1   7
BRANCH   5  10
ATOM     10  O   UNL     1      -6.523  -2.157  -2.226  1.00  0.00    -0.493 OA
ATOM     11  C   UNL     1      -7.615  -1.573  -2.929  1.00  0.00     0.278 C 
ENDBRANCH   5  10
BRANCH   6  12
ATOM     12  O   UNL     1      -4.702  -3.942  -1.176  1.00  0.00    -0.504 OA
ATOM     13  H   UNL     1      -4.200  -4.771  -0.877  1.00  0.00     0.293 HD
ENDBRANCH   6  12
TORSDOF 3
ENDMDL
MODEL 6
REMARK VINA RESULT:    -4.385      1.800      2.926
REMARK INTER + INTRA:          -5.109
REMARK INTER:                  -5.011
REMARK INTRA:                  -0.098
REMARK UNBOUND:                -0.083
REMARK SMILES COc1cc(C(=O)[O-])ccc1O
REMARK SMILES IDX 5 1 9 2 4 3 10 4 3 5 11 6 6 7 7 8 8 9 2 10 1 11 12 12
REMARK H PARENT 12 13
REMARK Flexibility Score: inf
ROOT
ATOM      1  C   UNL     1      -6.666  -2.368  -0.823  1.00  0.00     0.001 A 
ATOM      2  C   UNL     1      -7.713  -1.434  -0.771  1.00  0.00     0.014 A 
ATOM      3  C   UNL     1      -6.111  -2.841   0.381  1.00  0.00     0.060 A 
ATOM      4  C   UNL     1      -8.194  -0.979   0.458  1.00  0.00     0.051 A 
ATOM      5  C   UNL     1      -6.595  -2.385   1.623  1.00  0.00     0.161 A 
ATOM      6  C   UNL     1      -7.640  -1.451   1.654  1.00  0.00     0.157 A 
ENDROOT
BRANCH   1   7
ATOM      7  C   UNL     1      -6.159  -2.848  -2.128  1.00  0.00     0.072 C 
ATOM      8  O   UNL     1      -5.792  -2.031  -3.014  1.00  0.00    -0.545 OA
ATOM      9  O   UNL     1      -6.079  -4.211  -2.394  1.00  0.00    -0.545 OA
ENDBRANCH   1   7
BRANCH   5  10
ATOM     10  O   UNL     1      -6.066  -2.834   2.844  1.00  0.00    -0.493 OA
ATOM     11  C   UNL     1      -6.299  -4.124   3.399  1.00  0.00     0.278 C 
ENDBRANCH   5  10
BRANCH   6  12
ATOM     12  O   UNL     1      -8.123  -0.997   2.880  1.00  0.00    -0.504 OA
ATOM     13  H   UNL     1      -7.510  -0.575   3.568  1.00  0.00     0.293 HD
ENDBRANCH   6  12
TORSDOF 3
ENDMDL
MODEL 7
REMARK VINA RESULT:    -4.368      1.604      4.109
REMARK INTER + INTRA:          -5.090
REMARK INTER:                  -5.015
REMARK INTRA:                  -0.075
REMARK UNBOUND:                -0.083
REMARK SMILES COc1cc(C(=O)[O-])ccc1O
REMARK SMILES IDX 5 1 9 2 4 3 10 4 3 5 11 6 6 7 7 8 8 9 2 10 1 11 12 12
REMARK H PARENT 12 13
REMARK Flexibility Score: inf
ROOT
ATOM      1  C   UNL     1      -6.412  -2.876  -0.468  1.00  0.00     0.001 A 
ATOM      2  C   UNL     1      -6.468  -2.672  -1.856  1.00  0.00     0.014 A 
ATOM      3  C   UNL     1      -7.205  -2.075   0.375  1.00  0.00     0.060 A 
ATOM      4  C   UNL     1      -7.299  -1.685  -2.392  1.00  0.00     0.051 A 
ATOM      5  C   UNL     1      -8.045  -1.079  -0.163  1.00  0.00     0.161 A 
ATOM      6  C   UNL     1      -8.086  -0.890  -1.551  1.00  0.00     0.157 A 
ENDROOT
BRANCH   1   7
ATOM      7  C   UNL     1      -5.530  -3.922   0.096  1.00  0.00     0.072 C 
ATOM      8  O   UNL     1      -4.277  -3.806   0.038  1.00  0.00    -0.545 OA
ATOM      9  O   UNL     1      -6.074  -5.051   0.700  1.00  0.00    -0.545 OA
ENDBRANCH   1   7
BRANCH   5  10
ATOM     10  O   UNL     1      -8.849  -0.261   0.646  1.00  0.00    -0.493 OA
ATOM     11  C   UNL     1      -8.881  -0.314   2.068  1.00  0.00     0.278 C 
ENDBRANCH   5  10
BRANCH   6  12
ATOM     12  O   UNL     1      -8.915   0.093  -2.088  1.00  0.00    -0.504 OA
ATOM     13  H   UNL     1      -9.650   0.526  -1.540  1.00  0.00     0.293 HD
ENDBRANCH   6  12
TORSDOF 3
ENDMDL
MODEL 8
REMARK VINA RESULT:    -4.364      1.154      4.981
REMARK INTER + INTRA:          -5.085
REMARK INTER:                  -5.004
REMARK INTRA:                  -0.082
REMARK UNBOUND:                -0.083
REMARK SMILES COc1cc(C(=O)[O-])ccc1O
REMARK SMILES IDX 5 1 9 2 4 3 10 4 3 5 11 6 6 7 7 8 8 9 2 10 1 11 12 12
REMARK H PARENT 12 13
REMARK Flexibility Score: inf
ROOT
ATOM      1  C   UNL     1      -6.653  -2.561   0.669  1.00  0.00     0.001 A 
ATOM      2  C   UNL     1      -7.594  -1.661   1.194  1.00  0.00     0.014 A 
ATOM      3  C   UNL     1      -6.432  -2.588  -0.721  1.00  0.00     0.060 A 
ATOM      4  C   UNL     1      -8.303  -0.807   0.347  1.00  0.00     0.051 A 
ATOM      5  C   UNL     1      -7.145  -1.725  -1.578  1.00  0.00     0.161 A 
ATOM      6  C   UNL     1      -8.081  -0.835  -1.034  1.00  0.00     0.157 A 
ENDROOT
BRANCH   1   7
ATOM      7  C   UNL     1      -5.904  -3.466   1.570  1.00  0.00     0.072 C 
ATOM      8  O   UNL     1      -5.202  -4.402   1.101  1.00  0.00    -0.545 OA
ATOM      9  O   UNL     1      -5.966  -3.296   2.949  1.00  0.00    -0.545 OA
ENDBRANCH   1   7
BRANCH   5  10
ATOM     10  O   UNL     1      -6.951  -1.724  -2.968  1.00  0.00    -0.493 OA
ATOM     11  C   UNL     1      -6.001  -2.535  -3.652  1.00  0.00     0.278 C 
ENDBRANCH   5  10
BRANCH   6  12
ATOM     12  O   UNL     1      -8.788   0.020  -1.877  1.00  0.00    -0.504 OA
ATOM     13  H   UNL     1      -8.391   0.895  -2.201  1.00  0.00     0.293 HD
ENDBRANCH   6  12
TORSDOF 3
ENDMDL
MODEL 9
REMARK VINA RESULT:    -4.286     13.985     15.316
REMARK INTER + INTRA:          -4.995
REMARK INTER:                  -4.916
REMARK INTRA:                  -0.079
REMARK UNBOUND:                -0.083
REMARK SMILES COc1cc(C(=O)[O-])ccc1O
REMARK SMILES IDX 5 1 9 2 4 3 10 4 3 5 11 6 6 7 7 8 8 9 2 10 1 11 12 12
REMARK H PARENT 12 13
REMARK Flexibility Score: inf
ROOT
ATOM      1  C   UNL     1       4.606   2.393   7.911  1.00  0.00     0.001 A 
ATOM      2  C   UNL     1       5.714   2.101   7.100  1.00  0.00     0.014 A 
ATOM      3  C   UNL     1       4.097   3.705   7.928  1.00  0.00     0.060 A 
ATOM      4  C   UNL     1       6.304   3.101   6.323  1.00  0.00     0.051 A 
ATOM      5  C   UNL     1       4.689   4.716   7.145  1.00  0.00     0.161 A 
ATOM      6  C   UNL     1       5.796   4.405   6.343  1.00  0.00     0.157 A 
ENDROOT
BRANCH   1   7
ATOM      7  C   UNL     1       3.983   1.331   8.733  1.00  0.00     0.072 C 
ATOM      8  O   UNL     1       4.542   0.923   9.785  1.00  0.00    -0.545 OA
ATOM      9  O   UNL     1       2.769   0.768   8.353  1.00  0.00    -0.545 OA
ENDBRANCH   1   7
BRANCH   5  10
ATOM     10  O   UNL     1       4.210   6.035   7.138  1.00  0.00    -0.493 OA
ATOM     11  C   UNL     1       4.620   7.048   8.051  1.00  0.00     0.278 C 
ENDBRANCH   5  10
BRANCH   6  12
ATOM     12  O   UNL     1       6.385   5.401   5.566  1.00  0.00    -0.504 OA
ATOM     13  H   UNL     1       6.746   5.207   4.639  1.00  0.00     0.293 HD
ENDBRANCH   6  12
TORSDOF 3
ENDMDL
