MODEL 1
REMARK VINA RESULT:    -3.088      0.000      0.000
REMARK INTER + INTRA:          -4.934
REMARK INTER:                  -4.712
REMARK INTRA:                  -0.222
REMARK UNBOUND:                -0.222
REMARK SMILES CC1=CCC[C@@H](C)C(=O)C[C@H](C(C)C)C(=O)C1
REMARK SMILES IDX 8 1 9 2 6 3 7 4 5 5 4 6 3 7 2 8 1 9 10 11 11 12 15 13 16 14
REMARK SMILES IDX 17 15 12 17 13 18 14 19
REMARK H PARENT
REMARK Flexibility Score: 70.00
ROOT
ATOM      1  C   UNL     1      -6.635  -4.993   2.852  1.00  0.00     0.136 C 
ATOM      2  O   UNL     1      -6.593  -4.496   1.735  1.00  0.00    -0.299 OA
ENDROOT
BRANCH   1   3
ATOM      3  C   UNL     1      -7.969  -5.387   3.445  1.00  0.00     0.053 C 
ATOM      4  C   UNL     1      -8.999  -5.691   2.350  1.00  0.00     0.016 C 
BRANCH   3   5
ATOM      5  C   UNL     1      -8.457  -4.259   4.387  1.00  0.00     0.015 C 
BRANCH   5   6
ATOM      6  C   UNL     1      -8.350  -4.547   5.897  1.00  0.00     0.028 C 
BRANCH   6   7
ATOM      7  C   UNL     1      -7.706  -3.481   6.759  1.00  0.00    -0.028 C 
ATOM      8  C   UNL     1      -6.380  -3.267   6.936  1.00  0.00    -0.070 CG0
ATOM      9  C   UNL     1      -5.969  -2.067   7.753  1.00  0.00     0.039 C 
ATOM     10  G   UNL     1      -5.290  -4.201   6.440  1.00  0.00     0.000 G0
ENDBRANCH   6   7
ENDBRANCH   5   6
ENDBRANCH   3   5
ENDBRANCH   1   3
BRANCH   1  11
ATOM     11  C   UNL     1      -5.358  -5.133   3.647  1.00  0.00     0.087 C 
BRANCH  11  12
ATOM     12  C   UNL     1      -4.665  -3.765   3.908  1.00  0.00     0.066 C 
BRANCH  12  13
ATOM     13  C   UNL     1      -4.415  -3.548   5.394  1.00  0.00     0.140 C 
ATOM     14  O   UNL     1      -3.510  -2.806   5.745  1.00  0.00    -0.299 OA
BRANCH  13  15
ATOM     15  C   UNL     1      -5.271  -4.207   6.458  1.00  0.00     0.106 CG0
ATOM     16  G   UNL     1      -6.364  -3.265   6.932  1.00  0.00     0.000 G0
ENDBRANCH  13  15
ENDBRANCH  12  13
BRANCH  12  17
ATOM     17  C   UNL     1      -3.365  -3.599   3.061  1.00  0.00    -0.006 C 
ATOM     18  C   UNL     1      -2.720  -4.959   2.748  1.00  0.00     0.008 C 
ATOM     19  C   UNL     1      -3.557  -2.792   1.765  1.00  0.00     0.008 C 
ENDBRANCH  12  17
ENDBRANCH  11  12
ENDBRANCH   1  11
TORSDOF 1
ENDMDL
MODEL 2
REMARK VINA RESULT:    -2.694      1.798      3.948
REMARK INTER + INTRA:          -4.334
REMARK INTER:                  -4.690
REMARK INTRA:                   0.356
REMARK UNBOUND:                -0.222
REMARK SMILES CC1=CCC[C@@H](C)C(=O)C[C@H](C(C)C)C(=O)C1
REMARK SMILES IDX 8 1 9 2 6 3 7 4 5 5 4 6 3 7 2 8 1 9 10 11 11 12 15 13 16 14
REMARK SMILES IDX 17 15 12 17 13 18 14 19
REMARK H PARENT
REMARK Flexibility Score: 70.00
ROOT
ATOM      1  C   UNL     1      -5.489  -3.369   6.716  1.00  0.00     0.136 C 
ATOM      2  O   UNL     1      -4.857  -3.936   7.597  1.00  0.00    -0.299 OA
ENDROOT
BRANCH   1   3
ATOM      3  C   UNL     1      -6.918  -2.947   6.973  1.00  0.00     0.053 C 
ATOM      4  C   UNL     1      -7.170  -2.714   8.468  1.00  0.00     0.016 C 
BRANCH   3   5
ATOM      5  C   UNL     1      -7.873  -4.021   6.397  1.00  0.00     0.015 C 
BRANCH   5   6
ATOM      6  C   UNL     1      -8.486  -3.708   5.018  1.00  0.00     0.028 C 
BRANCH   6   7
ATOM      7  C   UNL     1      -8.553  -4.843   4.018  1.00  0.00    -0.028 C 
ATOM      8  C   UNL     1      -7.540  -5.313   3.250  1.00  0.00    -0.070 CG0
ATOM      9  C   UNL     1      -7.812  -6.535   2.408  1.00  0.00     0.039 C 
ATOM     10  G   UNL     1      -6.185  -4.641   3.119  1.00  0.00     0.000 G0
ENDBRANCH   6   7
ENDBRANCH   5   6
ENDBRANCH   3   5
ENDBRANCH   1   3
BRANCH   1  11
ATOM     11  C   UNL     1      -4.850  -3.170   5.361  1.00  0.00     0.087 C 
BRANCH  11  12
ATOM     12  C   UNL     1      -4.167  -4.462   4.828  1.00  0.00     0.066 C 
BRANCH  12  13
ATOM     13  C   UNL     1      -5.131  -5.287   3.985  1.00  0.00     0.140 C 
ATOM     14  O   UNL     1      -5.079  -6.507   4.041  1.00  0.00    -0.299 OA
BRANCH  13  15
ATOM     15  C   UNL     1      -6.172  -4.642   3.091  1.00  0.00     0.106 CG0
ATOM     16  G   UNL     1      -7.522  -5.317   3.261  1.00  0.00     0.000 G0
ENDBRANCH  13  15
ENDBRANCH  12  13
BRANCH  12  17
ATOM     17  C   UNL     1      -2.839  -4.150   4.071  1.00  0.00    -0.006 C 
ATOM     18  C   UNL     1      -1.814  -5.284   4.242  1.00  0.00     0.008 C 
ATOM     19  C   UNL     1      -3.027  -3.827   2.578  1.00  0.00     0.008 C 
ENDBRANCH  12  17
ENDBRANCH  11  12
ENDBRANCH   1  11
TORSDOF 1
ENDMDL
MODEL 3
REMARK VINA RESULT:    -2.693      2.238      4.948
REMARK INTER + INTRA:          -4.332
REMARK INTER:                  -4.560
REMARK INTRA:                   0.228
REMARK UNBOUND:                -0.222
REMARK SMILES CC1=CCC[C@@H](C)C(=O)C[C@H](C(C)C)C(=O)C1
REMARK SMILES IDX 8 1 9 2 6 3 7 4 5 5 4 6 3 7 2 8 1 9 10 11 11 12 15 13 16 14
REMARK SMILES IDX 17 15 12 17 13 18 14 19
REMARK H PARENT
REMARK Flexibility Score: 70.00
ROOT
ATOM      1  C   UNL     1      -6.161  -4.363   5.669  1.00  0.00     0.136 C 
ATOM      2  O   UNL     1      -7.332  -4.023   5.761  1.00  0.00    -0.299 OA
ENDROOT
BRANCH   1   3
ATOM      3  C   UNL     1      -5.134  -3.770   6.606  1.00  0.00     0.053 C 
ATOM      4  C   UNL     1      -5.796  -2.897   7.679  1.00  0.00     0.016 C 
BRANCH   3   5
ATOM      5  C   UNL     1      -4.099  -2.967   5.779  1.00  0.00     0.015 C 
BRANCH   5   6
ATOM      6  C   UNL     1      -2.999  -3.795   5.089  1.00  0.00     0.028 C 
BRANCH   6   7
ATOM      7  C   UNL     1      -2.532  -3.323   3.727  1.00  0.00    -0.028 C 
ATOM      8  C   UNL     1      -2.966  -3.761   2.520  1.00  0.00    -0.070 CG0
ATOM      9  C   UNL     1      -2.439  -3.060   1.293  1.00  0.00     0.039 C 
ATOM     10  G   UNL     1      -3.875  -4.961   2.324  1.00  0.00     0.000 G0
ENDBRANCH   6   7
ENDBRANCH   5   6
ENDBRANCH   3   5
ENDBRANCH   1   3
BRANCH   1  11
ATOM     11  C   UNL     1      -5.753  -5.317   4.570  1.00  0.00     0.087 C 
BRANCH  11  12
ATOM     12  C   UNL     1      -6.392  -4.954   3.199  1.00  0.00     0.066 C 
BRANCH  12  13
ATOM     13  C   UNL     1      -5.330  -4.535   2.190  1.00  0.00     0.140 C 
ATOM     14  O   UNL     1      -5.647  -3.813   1.256  1.00  0.00    -0.299 OA
BRANCH  13  15
ATOM     15  C   UNL     1      -3.883  -4.966   2.319  1.00  0.00     0.106 CG0
ATOM     16  G   UNL     1      -2.977  -3.764   2.520  1.00  0.00     0.000 G0
ENDBRANCH  13  15
ENDBRANCH  12  13
BRANCH  12  17
ATOM     17  C   UNL     1      -7.300  -6.102   2.657  1.00  0.00    -0.006 C 
ATOM     18  C   UNL     1      -6.629  -7.475   2.822  1.00  0.00     0.008 C 
ATOM     19  C   UNL     1      -8.713  -6.126   3.265  1.00  0.00     0.008 C 
ENDBRANCH  12  17
ENDBRANCH  11  12
ENDBRANCH   1  11
TORSDOF 1
ENDMDL
MODEL 4
REMARK VINA RESULT:    -2.626      1.861      4.013
REMARK INTER + INTRA:          -4.229
REMARK INTER:                  -4.120
REMARK INTRA:                  -0.109
REMARK UNBOUND:                -0.222
REMARK SMILES CC1=CCC[C@@H](C)C(=O)C[C@H](C(C)C)C(=O)C1
REMARK SMILES IDX 8 1 9 2 6 3 7 4 5 5 4 6 3 7 2 8 1 9 10 11 11 12 15 13 16 14
REMARK SMILES IDX 17 15 12 17 13 18 14 19
REMARK H PARENT
REMARK Flexibility Score: 70.00
ROOT
ATOM      1  C   UNL     1      -4.374  -4.030   1.969  1.00  0.00     0.136 C 
ATOM      2  O   UNL     1      -3.643  -4.943   1.613  1.00  0.00    -0.299 OA
ENDROOT
BRANCH   1   3
ATOM      3  C   UNL     1      -3.796  -2.650   2.190  1.00  0.00     0.053 C 
ATOM      4  C   UNL     1      -3.316  -2.029   0.873  1.00  0.00     0.016 C 
BRANCH   3   5
ATOM      5  C   UNL     1      -2.649  -2.743   3.226  1.00  0.00     0.015 C 
BRANCH   5   6
ATOM      6  C   UNL     1      -2.945  -3.575   4.488  1.00  0.00     0.028 C 
BRANCH   6   7
ATOM      7  C   UNL     1      -3.912  -2.983   5.493  1.00  0.00    -0.028 C 
ATOM      8  C   UNL     1      -4.924  -3.624   6.126  1.00  0.00    -0.070 CG0
ATOM      9  C   UNL     1      -5.687  -2.858   7.178  1.00  0.00     0.039 C 
ATOM     10  G   UNL     1      -5.392  -5.028   5.784  1.00  0.00     0.000 G0
ENDBRANCH   6   7
ENDBRANCH   5   6
ENDBRANCH   3   5
ENDBRANCH   1   3
BRANCH   1  11
ATOM     11  C   UNL     1      -5.831  -4.318   2.251  1.00  0.00     0.087 C 
BRANCH  11  12
ATOM     12  C   UNL     1      -6.023  -5.514   3.228  1.00  0.00     0.066 C 
BRANCH  12  13
ATOM     13  C   UNL     1      -6.384  -5.030   4.627  1.00  0.00     0.140 C 
ATOM     14  O   UNL     1      -7.521  -4.637   4.847  1.00  0.00    -0.299 OA
BRANCH  13  15
ATOM     15  C   UNL     1      -5.384  -5.040   5.766  1.00  0.00     0.106 CG0
ATOM     16  G   UNL     1      -4.952  -3.628   6.119  1.00  0.00     0.000 G0
ENDBRANCH  13  15
ENDBRANCH  12  13
BRANCH  12  17
ATOM     17  C   UNL     1      -7.048  -6.555   2.681  1.00  0.00    -0.006 C 
ATOM     18  C   UNL     1      -7.960  -5.936   1.609  1.00  0.00     0.008 C 
ATOM     19  C   UNL     1      -6.407  -7.849   2.150  1.00  0.00     0.008 C 
ENDBRANCH  12  17
ENDBRANCH  11  12
ENDBRANCH   1  11
TORSDOF 1
ENDMDL
MODEL 5
REMARK VINA RESULT:    -2.599      1.807      4.569
REMARK INTER + INTRA:          -4.188
REMARK INTER:                  -4.192
REMARK INTRA:                   0.004
REMARK UNBOUND:                -0.222
REMARK SMILES CC1=CCC[C@@H](C)C(=O)C[C@H](C(C)C)C(=O)C1
REMARK SMILES IDX 8 1 9 2 6 3 7 4 5 5 4 6 3 7 2 8 1 9 10 11 11 12 15 13 16 14
REMARK SMILES IDX 17 15 12 17 13 18 14 19
REMARK H PARENT
REMARK Flexibility Score: 70.00
ROOT
ATOM      1  C   UNL     1      -4.229  -4.010   5.056  1.00  0.00     0.136 C 
ATOM      2  O   UNL     1      -4.137  -2.863   4.644  1.00  0.00    -0.299 OA
ENDROOT
BRANCH   1   3
ATOM      3  C   UNL     1      -3.721  -5.154   4.207  1.00  0.00     0.053 C 
ATOM      4  C   UNL     1      -2.247  -4.957   3.833  1.00  0.00     0.016 C 
BRANCH   3   5
ATOM      5  C   UNL     1      -4.613  -5.284   2.948  1.00  0.00     0.015 C 
BRANCH   5   6
ATOM      6  C   UNL     1      -5.918  -6.084   3.126  1.00  0.00     0.028 C 
BRANCH   6   7
ATOM      7  C   UNL     1      -7.217  -5.308   3.060  1.00  0.00    -0.028 C 
ATOM      8  C   UNL     1      -7.902  -4.777   4.102  1.00  0.00    -0.070 CG0
ATOM      9  C   UNL     1      -9.118  -3.941   3.784  1.00  0.00     0.039 C 
ATOM     10  G   UNL     1      -7.576  -5.039   5.562  1.00  0.00     0.000 G0
ENDBRANCH   6   7
ENDBRANCH   5   6
ENDBRANCH   3   5
ENDBRANCH   1   3
BRANCH   1  11
ATOM     11  C   UNL     1      -4.919  -4.268   6.376  1.00  0.00     0.087 C 
BRANCH  11  12
ATOM     12  C   UNL     1      -6.010  -3.206   6.695  1.00  0.00     0.066 C 
BRANCH  12  13
ATOM     13  C   UNL     1      -7.399  -3.718   6.338  1.00  0.00     0.140 C 
ATOM     14  O   UNL     1      -8.377  -3.051   6.643  1.00  0.00    -0.299 OA
BRANCH  13  15
ATOM     15  C   UNL     1      -7.610  -5.022   5.594  1.00  0.00     0.106 CG0
ATOM     16  G   UNL     1      -7.891  -4.766   4.125  1.00  0.00     0.000 G0
ENDBRANCH  13  15
ENDBRANCH  12  13
BRANCH  12  17
ATOM     17  C   UNL     1      -5.926  -2.710   8.172  1.00  0.00    -0.006 C 
ATOM     18  C   UNL     1      -4.692  -3.283   8.888  1.00  0.00     0.008 C 
ATOM     19  C   UNL     1      -5.964  -1.179   8.324  1.00  0.00     0.008 C 
ENDBRANCH  12  17
ENDBRANCH  11  12
ENDBRANCH   1  11
TORSDOF 1
ENDMDL
MODEL 6
REMARK VINA RESULT:    -2.448     11.942     13.765
REMARK INTER + INTRA:          -3.959
REMARK INTER:                  -4.429
REMARK INTRA:                   0.471
REMARK UNBOUND:                -0.222
REMARK SMILES CC1=CCC[C@@H](C)C(=O)C[C@H](C(C)C)C(=O)C1
REMARK SMILES IDX 8 1 9 2 6 3 7 4 5 5 4 6 3 7 2 8 1 9 10 11 11 12 15 13 16 14
REMARK SMILES IDX 17 15 12 17 13 18 14 19
REMARK H PARENT
REMARK Flexibility Score: 70.00
ROOT
ATOM      1  C   UNL     1       4.305  -8.109  -5.618  1.00  0.00     0.136 C 
ATOM      2  O   UNL     1       4.706  -7.292  -6.435  1.00  0.00    -0.299 OA
ENDROOT
BRANCH   1   3
ATOM      3  C   UNL     1       5.133  -8.403  -4.387  1.00  0.00     0.053 C 
ATOM      4  C   UNL     1       4.297  -9.104  -3.309  1.00  0.00     0.016 C 
BRANCH   3   5
ATOM      5  C   UNL     1       5.746  -7.082  -3.862  1.00  0.00     0.015 C 
BRANCH   5   6
ATOM      6  C   UNL     1       4.808  -6.188  -3.028  1.00  0.00     0.028 C 
BRANCH   6   7
ATOM      7  C   UNL     1       4.182  -5.001  -3.729  1.00  0.00    -0.028 C 
ATOM      8  C   UNL     1       2.875  -4.839  -4.047  1.00  0.00    -0.070 CG0
ATOM      9  C   UNL     1       2.460  -3.516  -4.642  1.00  0.00     0.039 C 
ATOM     10  G   UNL     1       1.824  -5.928  -3.924  1.00  0.00     0.000 G0
ENDBRANCH   6   7
ENDBRANCH   5   6
ENDBRANCH   3   5
ENDBRANCH   1   3
BRANCH   1  11
ATOM     11  C   UNL     1       3.025  -8.863  -5.895  1.00  0.00     0.087 C 
BRANCH  11  12
ATOM     12  C   UNL     1       1.821  -8.313  -5.077  1.00  0.00     0.066 C 
BRANCH  12  13
ATOM     13  C   UNL     1       1.752  -6.793  -5.154  1.00  0.00     0.140 C 
ATOM     14  O   UNL     1       1.621  -6.256  -6.244  1.00  0.00    -0.299 OA
BRANCH  13  15
ATOM     15  C   UNL     1       1.818  -5.920  -3.916  1.00  0.00     0.106 CG0
ATOM     16  G   UNL     1       2.864  -4.832  -4.077  1.00  0.00     0.000 G0
ENDBRANCH  13  15
ENDBRANCH  12  13
BRANCH  12  17
ATOM     17  C   UNL     1       0.477  -8.986  -5.494  1.00  0.00    -0.006 C 
ATOM     18  C   UNL     1      -0.727  -8.293  -4.835  1.00  0.00     0.008 C 
ATOM     19  C   UNL     1       0.267  -9.082  -7.015  1.00  0.00     0.008 C 
ENDBRANCH  12  17
ENDBRANCH  11  12
ENDBRANCH   1  11
TORSDOF 1
ENDMDL
MODEL 7
REMARK VINA RESULT:    -2.273     13.761     14.842
REMARK INTER + INTRA:          -3.691
REMARK INTER:                  -3.666
REMARK INTRA:                  -0.025
REMARK UNBOUND:                -0.222
REMARK SMILES CC1=CCC[C@@H](C)C(=O)C[C@H](C(C)C)C(=O)C1
REMARK SMILES IDX 8 1 9 2 6 3 7 4 5 5 4 6 3 7 2 8 1 9 10 11 11 12 15 13 16 14
REMARK SMILES IDX 17 15 12 17 13 18 14 19
REMARK H PARENT
REMARK Flexibility Score: 70.00
ROOT
ATOM      1  C   UNL     1       7.785  -3.651   4.088  1.00  0.00     0.136 C 
ATOM      2  O   UNL     1       7.854  -2.959   3.083  1.00  0.00    -0.299 OA
ENDROOT
BRANCH   1   3
ATOM      3  C   UNL     1       7.906  -3.007   5.451  1.00  0.00     0.053 C 
ATOM      4  C   UNL     1       7.673  -1.493   5.374  1.00  0.00     0.016 C 
BRANCH   3   5
ATOM      5  C   UNL     1       9.298  -3.338   6.044  1.00  0.00     0.015 C 
BRANCH   5   6
ATOM      6  C   UNL     1       9.296  -4.067   7.402  1.00  0.00     0.028 C 
BRANCH   6   7
ATOM      7  C   UNL     1       8.158  -5.030   7.667  1.00  0.00    -0.028 C 
ATOM      8  C   UNL     1       8.132  -6.357   7.392  1.00  0.00    -0.070 CG0
ATOM      9  C   UNL     1       6.929  -7.142   7.854  1.00  0.00     0.039 C 
ATOM     10  G   UNL     1       9.190  -7.081   6.580  1.00  0.00     0.000 G0
ENDBRANCH   6   7
ENDBRANCH   5   6
ENDBRANCH   3   5
ENDBRANCH   1   3
BRANCH   1  11
ATOM     11  C   UNL     1       7.653  -5.150   3.946  1.00  0.00     0.087 C 
BRANCH  11  12
ATOM     12  C   UNL     1       8.997  -5.893   4.195  1.00  0.00     0.066 C 
BRANCH  12  13
ATOM     13  C   UNL     1       8.799  -7.100   5.104  1.00  0.00     0.140 C 
ATOM     14  O   UNL     1       8.329  -8.127   4.637  1.00  0.00    -0.299 OA
BRANCH  13  15
ATOM     15  C   UNL     1       9.189  -7.077   6.568  1.00  0.00     0.106 CG0
ATOM     16  G   UNL     1       8.133  -6.370   7.398  1.00  0.00     0.000 G0
ENDBRANCH  13  15
ENDBRANCH  12  13
BRANCH  12  17
ATOM     17  C   UNL     1       9.711  -6.270   2.861  1.00  0.00    -0.006 C 
ATOM     18  C   UNL     1       8.697  -6.613   1.757  1.00  0.00     0.008 C 
ATOM     19  C   UNL     1      10.704  -5.208   2.357  1.00  0.00     0.008 C 
ENDBRANCH  12  17
ENDBRANCH  11  12
ENDBRANCH   1  11
TORSDOF 1
ENDMDL
MODEL 8
REMARK VINA RESULT:    -2.256     12.621     14.755
REMARK INTER + INTRA:          -3.665
REMARK INTER:                  -3.678
REMARK INTRA:                   0.014
REMARK UNBOUND:                -0.222
REMARK SMILES CC1=CCC[C@@H](C)C(=O)C[C@H](C(C)C)C(=O)C1
REMARK SMILES IDX 8 1 9 2 6 3 7 4 5 5 4 6 3 7 2 8 1 9 10 11 11 12 15 13 16 14
REMARK SMILES IDX 17 15 12 17 13 18 14 19
REMARK H PARENT
REMARK Flexibility Score: 70.00
ROOT
ATOM      1  C   UNL     1       8.379  -3.573   5.047  1.00  0.00     0.136 C 
ATOM      2  O   UNL     1       7.280  -3.166   5.397  1.00  0.00    -0.299 OA
ENDROOT
BRANCH   1   3
ATOM      3  C   UNL     1       9.528  -3.564   6.029  1.00  0.00     0.053 C 
ATOM      4  C   UNL     1      10.786  -4.195   5.420  1.00  0.00     0.016 C 
BRANCH   3   5
ATOM      5  C   UNL     1       9.094  -4.297   7.322  1.00  0.00     0.015 C 
BRANCH   5   6
ATOM      6  C   UNL     1       8.933  -5.825   7.210  1.00  0.00     0.028 C 
BRANCH   6   7
ATOM      7  C   UNL     1       7.520  -6.366   7.140  1.00  0.00    -0.028 C 
ATOM      8  C   UNL     1       6.999  -7.161   6.174  1.00  0.00    -0.070 CG0
ATOM      9  C   UNL     1       5.594  -7.675   6.375  1.00  0.00     0.039 C 
ATOM     10  G   UNL     1       7.701  -7.493   4.870  1.00  0.00     0.000 G0
ENDBRANCH   6   7
ENDBRANCH   5   6
ENDBRANCH   3   5
ENDBRANCH   1   3
BRANCH   1  11
ATOM     11  C   UNL     1       8.583  -4.008   3.614  1.00  0.00     0.087 C 
BRANCH  11  12
ATOM     12  C   UNL     1       8.857  -5.535   3.489  1.00  0.00     0.066 C 
BRANCH  12  13
ATOM     13  C   UNL     1       7.626  -6.348   3.869  1.00  0.00     0.140 C 
ATOM     14  O   UNL     1       6.549  -6.071   3.362  1.00  0.00    -0.299 OA
BRANCH  13  15
ATOM     15  C   UNL     1       7.697  -7.509   4.841  1.00  0.00     0.106 CG0
ATOM     16  G   UNL     1       7.009  -7.160   6.149  1.00  0.00     0.000 G0
ENDBRANCH  13  15
ENDBRANCH  12  13
BRANCH  12  17
ATOM     17  C   UNL     1       9.403  -5.916   2.078  1.00  0.00    -0.006 C 
ATOM     18  C   UNL     1      10.772  -5.270   1.811  1.00  0.00     0.008 C 
ATOM     19  C   UNL     1       9.471  -7.431   1.817  1.00  0.00     0.008 C 
ENDBRANCH  12  17
ENDBRANCH  11  12
ENDBRANCH   1  11
TORSDOF 1
ENDMDL
MODEL 9
REMARK VINA RESULT:    -2.233     12.374     14.230
REMARK INTER + INTRA:          -3.631
REMARK INTER:                  -4.517
REMARK INTRA:                   0.886
REMARK UNBOUND:                -0.222
REMARK SMILES CC1=CCC[C@@H](C)C(=O)C[C@H](C(C)C)C(=O)C1
REMARK SMILES IDX 8 1 9 2 6 3 7 4 5 5 4 6 3 7 2 8 1 9 10 11 11 12 15 13 16 14
REMARK SMILES IDX 17 15 12 17 13 18 14 19
REMARK H PARENT
REMARK Flexibility Score: 70.00
ROOT
ATOM      1  C   UNL     1       2.085  -5.506  -4.422  1.00  0.00     0.136 C 
ATOM      2  O   UNL     1       1.044  -5.932  -3.942  1.00  0.00    -0.299 OA
ENDROOT
BRANCH   1   3
ATOM      3  C   UNL     1       2.929  -4.531  -3.633  1.00  0.00     0.053 C 
ATOM      4  C   UNL     1       2.505  -3.082  -3.901  1.00  0.00     0.016 C 
BRANCH   3   5
ATOM      5  C   UNL     1       4.421  -4.760  -3.979  1.00  0.00     0.015 C 
BRANCH   5   6
ATOM      6  C   UNL     1       5.213  -5.647  -2.999  1.00  0.00     0.028 C 
BRANCH   6   7
ATOM      7  C   UNL     1       5.869  -6.888  -3.567  1.00  0.00    -0.028 C 
ATOM      8  C   UNL     1       5.264  -8.059  -3.882  1.00  0.00    -0.070 CG0
ATOM      9  C   UNL     1       6.103  -9.122  -4.547  1.00  0.00     0.039 C 
ATOM     10  G   UNL     1       3.826  -8.399  -3.531  1.00  0.00     0.000 G0
ENDBRANCH   6   7
ENDBRANCH   5   6
ENDBRANCH   3   5
ENDBRANCH   1   3
BRANCH   1  11
ATOM     11  C   UNL     1       2.468  -5.907  -5.828  1.00  0.00     0.087 C 
BRANCH  11  12
ATOM     12  C   UNL     1       3.307  -7.217  -5.866  1.00  0.00     0.066 C 
BRANCH  12  13
ATOM     13  C   UNL     1       2.915  -8.154  -4.731  1.00  0.00     0.140 C 
ATOM     14  O   UNL     1       1.843  -8.738  -4.783  1.00  0.00    -0.299 OA
BRANCH  13  15
ATOM     15  C   UNL     1       3.826  -8.407  -3.546  1.00  0.00     0.106 CG0
ATOM     16  G   UNL     1       5.263  -8.051  -3.883  1.00  0.00     0.000 G0
ENDBRANCH  13  15
ENDBRANCH  12  13
BRANCH  12  17
ATOM     17  C   UNL     1       3.234  -7.915  -7.259  1.00  0.00    -0.006 C 
ATOM     18  C   UNL     1       2.028  -7.421  -8.075  1.00  0.00     0.008 C 
ATOM     19  C   UNL     1       4.523  -7.793  -8.092  1.00  0.00     0.008 C 
ENDBRANCH  12  17
ENDBRANCH  11  12
ENDBRANCH   1  11
TORSDOF 1
ENDMDL
