MODEL 1
REMARK VINA RESULT:    -5.012      0.000      0.000
REMARK INTER + INTRA:          -6.429
REMARK INTER:                  -6.184
REMARK INTRA:                  -0.244
REMARK UNBOUND:                -0.244
REMARK SMILES CCCCC=CC(C)=O
REMARK SMILES IDX 4 1 3 2 2 3 1 4 5 5 6 6 7 7 9 8 8 9
REMARK H PARENT
REMARK Flexibility Score: inf
ROOT
ATOM      1  C   UNL     1      -5.779 -13.668  28.757  1.00  0.00     0.027 C 
ENDROOT
BRANCH   1   2
ATOM      2  C   UNL     1      -6.385 -14.675  29.744  1.00  0.00     0.004 C 
BRANCH   2   3
ATOM      3  C   UNL     1      -7.178 -15.758  29.004  1.00  0.00    -0.003 C 
ATOM      4  C   UNL     1      -8.596 -15.289  28.693  1.00  0.00     0.004 C 
ENDBRANCH   2   3
ENDBRANCH   1   2
BRANCH   1   5
ATOM      5  C   UNL     1      -5.228 -14.352  27.535  1.00  0.00    -0.023 C 
ATOM      6  C   UNL     1      -4.117 -14.001  26.868  1.00  0.00     0.042 C 
BRANCH   6   7
ATOM      7  C   UNL     1      -3.266 -12.823  27.141  1.00  0.00     0.152 C 
ATOM      8  O   UNL     1      -2.479 -12.867  28.123  1.00  0.00    -0.295 OA
ATOM      9  C   UNL     1      -3.251 -11.611  26.262  1.00  0.00     0.093 C 
ENDBRANCH   6   7
ENDBRANCH   1   5
TORSDOF 4
ENDMDL
MODEL 2
REMARK VINA RESULT:    -4.922      1.199      1.477
REMARK INTER + INTRA:          -6.317
REMARK INTER:                  -6.123
REMARK INTRA:                  -0.194
REMARK UNBOUND:                -0.244
REMARK SMILES CCCCC=CC(C)=O
REMARK SMILES IDX 4 1 3 2 2 3 1 4 5 5 6 6 7 7 9 8 8 9
REMARK H PARENT
REMARK Flexibility Score: inf
ROOT
ATOM      1  C   UNL     1      -5.022 -13.936  29.178  1.00  0.00     0.027 C 
ENDROOT
BRANCH   1   2
ATOM      2  C   UNL     1      -6.317 -14.648  29.588  1.00  0.00     0.004 C 
BRANCH   2   3
ATOM      3  C   UNL     1      -7.283 -14.756  28.402  1.00  0.00    -0.003 C 
ATOM      4  C   UNL     1      -8.573 -15.464  28.805  1.00  0.00     0.004 C 
ENDBRANCH   2   3
ENDBRANCH   1   2
BRANCH   1   5
ATOM      5  C   UNL     1      -5.172 -12.438  29.230  1.00  0.00    -0.023 C 
ATOM      6  C   UNL     1      -4.429 -11.547  28.556  1.00  0.00     0.042 C 
BRANCH   6   7
ATOM      7  C   UNL     1      -3.261 -11.847  27.701  1.00  0.00     0.152 C 
ATOM      8  O   UNL     1      -2.191 -12.212  28.255  1.00  0.00    -0.295 OA
ATOM      9  C   UNL     1      -3.317 -11.803  26.205  1.00  0.00     0.093 C 
ENDBRANCH   6   7
ENDBRANCH   1   5
TORSDOF 4
ENDMDL
MODEL 3
REMARK VINA RESULT:    -4.757      1.542      2.379
REMARK INTER + INTRA:          -6.114
REMARK INTER:                  -5.850
REMARK INTRA:                  -0.264
REMARK UNBOUND:                -0.244
REMARK SMILES CCCCC=CC(C)=O
REMARK SMILES IDX 4 1 3 2 2 3 1 4 5 5 6 6 7 7 9 8 8 9
REMARK H PARENT
REMARK Flexibility Score: inf
ROOT
ATOM      1  C   UNL     1      -5.513 -13.664  28.664  1.00  0.00     0.027 C 
ENDROOT
BRANCH   1   2
ATOM      2  C   UNL     1      -5.962 -14.513  29.861  1.00  0.00     0.004 C 
BRANCH   2   3
ATOM      3  C   UNL     1      -5.081 -14.243  31.086  1.00  0.00    -0.003 C 
ATOM      4  C   UNL     1      -5.664 -14.890  32.338  1.00  0.00     0.004 C 
ENDBRANCH   2   3
ENDBRANCH   1   2
BRANCH   1   5
ATOM      5  C   UNL     1      -5.232 -12.241  29.069  1.00  0.00    -0.023 C 
ATOM      6  C   UNL     1      -4.241 -11.468  28.596  1.00  0.00     0.042 C 
BRANCH   6   7
ATOM      7  C   UNL     1      -3.177 -11.883  27.659  1.00  0.00     0.152 C 
ATOM      8  O   UNL     1      -2.225 -12.578  28.102  1.00  0.00    -0.295 OA
ATOM      9  C   UNL     1      -3.218 -11.571  26.195  1.00  0.00     0.093 C 
ENDBRANCH   6   7
ENDBRANCH   1   5
TORSDOF 4
ENDMDL
MODEL 4
REMARK VINA RESULT:    -4.740      2.847      3.468
REMARK INTER + INTRA:          -6.093
REMARK INTER:                  -5.822
REMARK INTRA:                  -0.271
REMARK UNBOUND:                -0.244
REMARK SMILES CCCCC=CC(C)=O
REMARK SMILES IDX 4 1 3 2 2 3 1 4 5 5 6 6 7 7 9 8 8 9
REMARK H PARENT
REMARK Flexibility Score: inf
ROOT
ATOM      1  C   UNL     1      -4.868 -13.362  29.469  1.00  0.00     0.027 C 
ENDROOT
BRANCH   1   2
ATOM      2  C   UNL     1      -6.012 -13.919  28.611  1.00  0.00     0.004 C 
BRANCH   2   3
ATOM      3  C   UNL     1      -6.808 -14.979  29.381  1.00  0.00    -0.003 C 
ATOM      4  C   UNL     1      -8.158 -15.242  28.721  1.00  0.00     0.004 C 
ENDBRANCH   2   3
ENDBRANCH   1   2
BRANCH   1   5
ATOM      5  C   UNL     1      -4.792 -14.050  30.806  1.00  0.00    -0.023 C 
ATOM      6  C   UNL     1      -3.876 -13.819  31.761  1.00  0.00     0.042 C 
BRANCH   6   7
ATOM      7  C   UNL     1      -2.711 -12.916  31.658  1.00  0.00     0.152 C 
ATOM      8  O   UNL     1      -2.858 -11.709  31.986  1.00  0.00    -0.295 OA
ATOM      9  C   UNL     1      -1.351 -13.388  31.246  1.00  0.00     0.093 C 
ENDBRANCH   6   7
ENDBRANCH   1   5
TORSDOF 4
ENDMDL
MODEL 5
REMARK VINA RESULT:    -4.724      1.336      1.627
REMARK INTER + INTRA:          -6.073
REMARK INTER:                  -5.825
REMARK INTRA:                  -0.248
REMARK UNBOUND:                -0.244
REMARK SMILES CCCCC=CC(C)=O
REMARK SMILES IDX 4 1 3 2 2 3 1 4 5 5 6 6 7 7 9 8 8 9
REMARK H PARENT
REMARK Flexibility Score: inf
ROOT
ATOM      1  C   UNL     1      -5.039 -13.999  29.599  1.00  0.00     0.027 C 
ENDROOT
BRANCH   1   2
ATOM      2  C   UNL     1      -6.371 -14.722  29.834  1.00  0.00     0.004 C 
BRANCH   2   3
ATOM      3  C   UNL     1      -7.219 -14.739  28.558  1.00  0.00    -0.003 C 
ATOM      4  C   UNL     1      -8.553 -15.442  28.791  1.00  0.00     0.004 C 
ENDBRANCH   2   3
ENDBRANCH   1   2
BRANCH   1   5
ATOM      5  C   UNL     1      -4.703 -13.919  28.134  1.00  0.00    -0.023 C 
ATOM      6  C   UNL     1      -3.523 -13.542  27.614  1.00  0.00     0.042 C 
BRANCH   6   7
ATOM      7  C   UNL     1      -2.353 -13.045  28.368  1.00  0.00     0.152 C 
ATOM      8  O   UNL     1      -2.393 -11.876  28.836  1.00  0.00    -0.295 OA
ATOM      9  C   UNL     1      -1.153 -13.893  28.656  1.00  0.00     0.093 C 
ENDBRANCH   6   7
ENDBRANCH   1   5
TORSDOF 4
ENDMDL
MODEL 6
REMARK VINA RESULT:    -4.639      2.331      2.882
REMARK INTER + INTRA:          -5.968
REMARK INTER:                  -5.687
REMARK INTRA:                  -0.281
REMARK UNBOUND:                -0.244
REMARK SMILES CCCCC=CC(C)=O
REMARK SMILES IDX 4 1 3 2 2 3 1 4 5 5 6 6 7 7 9 8 8 9
REMARK H PARENT
REMARK Flexibility Score: inf
ROOT
ATOM      1  C   UNL     1      -5.157 -13.914  29.874  1.00  0.00     0.027 C 
ENDROOT
BRANCH   1   2
ATOM      2  C   UNL     1      -6.367 -14.857  29.897  1.00  0.00     0.004 C 
BRANCH   2   3
ATOM      3  C   UNL     1      -7.178 -14.741  28.601  1.00  0.00    -0.003 C 
ATOM      4  C   UNL     1      -8.545 -15.402  28.744  1.00  0.00     0.004 C 
ENDBRANCH   2   3
ENDBRANCH   1   2
BRANCH   1   5
ATOM      5  C   UNL     1      -5.400 -12.723  28.986  1.00  0.00    -0.023 C 
ATOM      6  C   UNL     1      -4.914 -11.486  29.176  1.00  0.00     0.042 C 
BRANCH   6   7
ATOM      7  C   UNL     1      -4.123 -11.023  30.336  1.00  0.00     0.152 C 
ATOM      8  O   UNL     1      -2.878 -10.890  30.199  1.00  0.00    -0.295 OA
ATOM      9  C   UNL     1      -4.746 -10.642  31.644  1.00  0.00     0.093 C 
ENDBRANCH   6   7
ENDBRANCH   1   5
TORSDOF 4
ENDMDL
MODEL 7
REMARK VINA RESULT:    -4.617      1.351      2.243
REMARK INTER + INTRA:          -5.941
REMARK INTER:                  -5.490
REMARK INTRA:                  -0.451
REMARK UNBOUND:                -0.244
REMARK SMILES CCCCC=CC(C)=O
REMARK SMILES IDX 4 1 3 2 2 3 1 4 5 5 6 6 7 7 9 8 8 9
REMARK H PARENT
REMARK Flexibility Score: inf
ROOT
ATOM      1  C   UNL     1      -5.824 -13.572  28.730  1.00  0.00     0.027 C 
ENDROOT
BRANCH   1   2
ATOM      2  C   UNL     1      -5.737 -14.357  30.045  1.00  0.00     0.004 C 
BRANCH   2   3
ATOM      3  C   UNL     1      -4.553 -13.878  30.892  1.00  0.00    -0.003 C 
ATOM      4  C   UNL     1      -4.443 -12.356  30.877  1.00  0.00     0.004 C 
ENDBRANCH   2   3
ENDBRANCH   1   2
BRANCH   1   5
ATOM      5  C   UNL     1      -5.250 -14.354  27.578  1.00  0.00    -0.023 C 
ATOM      6  C   UNL     1      -4.131 -14.053  26.899  1.00  0.00     0.042 C 
BRANCH   6   7
ATOM      7  C   UNL     1      -3.292 -12.851  27.083  1.00  0.00     0.152 C 
ATOM      8  O   UNL     1      -2.455 -12.842  28.024  1.00  0.00    -0.295 OA
ATOM      9  C   UNL     1      -3.346 -11.674  26.159  1.00  0.00     0.093 C 
ENDBRANCH   6   7
ENDBRANCH   1   5
TORSDOF 4
ENDMDL
MODEL 8
REMARK VINA RESULT:    -4.599      2.535      3.181
REMARK INTER + INTRA:          -5.919
REMARK INTER:                  -5.615
REMARK INTRA:                  -0.304
REMARK UNBOUND:                -0.244
REMARK SMILES CCCCC=CC(C)=O
REMARK SMILES IDX 4 1 3 2 2 3 1 4 5 5 6 6 7 7 9 8 8 9
REMARK H PARENT
REMARK Flexibility Score: inf
ROOT
ATOM      1  C   UNL     1      -4.822 -13.926  28.353  1.00  0.00     0.027 C 
ENDROOT
BRANCH   1   2
ATOM      2  C   UNL     1      -6.125 -14.629  27.950  1.00  0.00     0.004 C 
BRANCH   2   3
ATOM      3  C   UNL     1      -7.012 -14.884  29.174  1.00  0.00    -0.003 C 
ATOM      4  C   UNL     1      -8.416 -15.310  28.758  1.00  0.00     0.004 C 
ENDBRANCH   2   3
ENDBRANCH   1   2
BRANCH   1   5
ATOM      5  C   UNL     1      -5.087 -12.709  29.198  1.00  0.00    -0.023 C 
ATOM      6  C   UNL     1      -4.579 -12.470  30.418  1.00  0.00     0.042 C 
BRANCH   6   7
ATOM      7  C   UNL     1      -3.736 -13.388  31.212  1.00  0.00     0.152 C 
ATOM      8  O   UNL     1      -4.289 -14.356  31.797  1.00  0.00    -0.295 OA
ATOM      9  C   UNL     1      -2.246 -13.256  31.293  1.00  0.00     0.093 C 
ENDBRANCH   6   7
ENDBRANCH   1   5
TORSDOF 4
ENDMDL
MODEL 9
REMARK VINA RESULT:    -4.586      1.627      2.345
REMARK INTER + INTRA:          -5.903
REMARK INTER:                  -5.516
REMARK INTRA:                  -0.387
REMARK UNBOUND:                -0.244
REMARK SMILES CCCCC=CC(C)=O
REMARK SMILES IDX 4 1 3 2 2 3 1 4 5 5 6 6 7 7 9 8 8 9
REMARK H PARENT
REMARK Flexibility Score: inf
ROOT
ATOM      1  C   UNL     1      -3.982 -14.032  27.724  1.00  0.00     0.027 C 
ENDROOT
BRANCH   1   2
ATOM      2  C   UNL     1      -5.439 -14.439  27.469  1.00  0.00     0.004 C 
BRANCH   2   3
ATOM      3  C   UNL     1      -6.320 -14.114  28.681  1.00  0.00    -0.003 C 
ATOM      4  C   UNL     1      -7.563 -14.999  28.713  1.00  0.00     0.004 C 
ENDBRANCH   2   3
ENDBRANCH   1   2
BRANCH   1   5
ATOM      5  C   UNL     1      -3.569 -12.877  26.853  1.00  0.00    -0.023 C 
ATOM      6  C   UNL     1      -3.348 -11.617  27.265  1.00  0.00     0.042 C 
BRANCH   6   7
ATOM      7  C   UNL     1      -3.554 -11.094  28.631  1.00  0.00     0.152 C 
ATOM      8  O   UNL     1      -2.550 -10.954  29.378  1.00  0.00    -0.295 OA
ATOM      9  C   UNL     1      -4.894 -10.659  29.141  1.00  0.00     0.093 C 
ENDBRANCH   6   7
ENDBRANCH   1   5
TORSDOF 4
ENDMDL
