MODEL 1
REMARK VINA RESULT:    -3.432      0.000      0.000
REMARK INTER + INTRA:          -5.504
REMARK INTER:                  -5.037
REMARK INTRA:                  -0.467
REMARK UNBOUND:                -0.467
REMARK SMILES C=C1C=C[C@H](C(C)C)CCC(C)=CCC1
REMARK SMILES IDX 3 1 4 2 5 3 9 4 10 5 11 6 12 7 13 8 6 10 7 11 8 12 2 13 1 14
REMARK SMILES IDX 15 15 14 16
REMARK H PARENT
REMARK Flexibility Score: 70.00
ROOT
ATOM      1  C   UNL     1      11.346  19.202  27.749  1.00  0.00    -0.001 C 
ATOM      2  C   UNL     1      10.397  18.817  26.879  1.00  0.00    -0.023 C 
ENDROOT
BRANCH   2   3
ATOM      3  C   UNL     1       9.576  19.722  25.982  1.00  0.00     0.014 C 
BRANCH   3   4
ATOM      4  C   UNL     1      10.072  19.640  24.514  1.00  0.00     0.012 C 
BRANCH   4   5
ATOM      5  C   UNL     1      11.467  18.997  24.332  1.00  0.00     0.031 C 
BRANCH   5   6
ATOM      6  C   UNL     1      12.500  19.977  23.806  1.00  0.00    -0.077 C 
ATOM      7  C   UNL     1      12.473  20.329  22.339  1.00  0.00     0.039 C 
ATOM      8  C   UNL     1      13.468  20.536  24.571  1.00  0.00    -0.028 CG0
ATOM      9  G   UNL     1      13.616  20.409  26.070  1.00  0.00     0.000 G0
ENDBRANCH   5   6
ENDBRANCH   4   5
ENDBRANCH   3   4
BRANCH   3  10
ATOM     10  C   UNL     1       8.052  19.407  26.095  1.00  0.00    -0.010 C 
ATOM     11  C   UNL     1       7.398  19.326  24.706  1.00  0.00     0.008 C 
ATOM     12  C   UNL     1       7.267  20.384  26.989  1.00  0.00     0.008 C 
ENDBRANCH   3  10
ENDBRANCH   2   3
BRANCH   1  13
ATOM     13  C   UNL     1      11.865  20.577  27.960  1.00  0.00    -0.055 C 
ATOM     14  C   UNL     1      11.638  21.140  29.152  1.00  0.00     0.012 C 
BRANCH  13  15
ATOM     15  C   UNL     1      12.738  21.309  26.946  1.00  0.00     0.039 C 
BRANCH  15  16
ATOM     16  C   UNL     1      13.628  20.409  26.066  1.00  0.00     0.032 CG0
ATOM     17  G   UNL     1      13.448  20.532  24.569  1.00  0.00     0.000 G0
ENDBRANCH  15  16
ENDBRANCH  13  15
ENDBRANCH   1  13
TORSDOF 1
ENDMDL
MODEL 2
REMARK VINA RESULT:    -3.289      1.816      2.613
REMARK INTER + INTRA:          -5.294
REMARK INTER:                  -4.810
REMARK INTRA:                  -0.484
REMARK UNBOUND:                -0.467
REMARK SMILES C=C1C=C[C@H](C(C)C)CCC(C)=CCC1
REMARK SMILES IDX 3 1 4 2 5 3 9 4 10 5 11 6 12 7 13 8 6 10 7 11 8 12 2 13 1 14
REMARK SMILES IDX 15 15 14 16
REMARK H PARENT
REMARK Flexibility Score: 70.00
ROOT
ATOM      1  C   UNL     1       8.408  19.018  26.856  1.00  0.00    -0.001 C 
ATOM      2  C   UNL     1       7.620  19.238  25.790  1.00  0.00    -0.023 C 
ENDROOT
BRANCH   2   3
ATOM      3  C   UNL     1       7.958  20.081  24.578  1.00  0.00     0.014 C 
BRANCH   3   4
ATOM      4  C   UNL     1       8.787  19.264  23.552  1.00  0.00     0.012 C 
BRANCH   4   5
ATOM      5  C   UNL     1      10.311  19.527  23.587  1.00  0.00     0.031 C 
BRANCH   5   6
ATOM      6  C   UNL     1      10.652  21.005  23.547  1.00  0.00    -0.077 C 
ATOM      7  C   UNL     1      10.375  21.771  22.277  1.00  0.00     0.039 C 
ATOM      8  C   UNL     1      11.219  21.677  24.578  1.00  0.00    -0.028 CG0
ATOM      9  G   UNL     1      11.482  21.139  25.966  1.00  0.00     0.000 G0
ENDBRANCH   5   6
ENDBRANCH   4   5
ENDBRANCH   3   4
BRANCH   3  10
ATOM     10  C   UNL     1       6.676  20.690  23.929  1.00  0.00    -0.010 C 
ATOM     11  C   UNL     1       6.040  19.709  22.930  1.00  0.00     0.008 C 
ATOM     12  C   UNL     1       6.892  22.057  23.257  1.00  0.00     0.008 C 
ENDBRANCH   3  10
ENDBRANCH   2   3
BRANCH   1  13
ATOM     13  C   UNL     1       9.809  19.471  27.045  1.00  0.00    -0.055 C 
ATOM     14  C   UNL     1      10.734  18.529  27.259  1.00  0.00     0.012 C 
BRANCH  13  15
ATOM     15  C   UNL     1      10.250  20.922  26.881  1.00  0.00     0.039 C 
BRANCH  15  16
ATOM     16  C   UNL     1      11.484  21.142  25.984  1.00  0.00     0.032 CG0
ATOM     17  G   UNL     1      11.224  21.665  24.588  1.00  0.00     0.000 G0
ENDBRANCH  15  16
ENDBRANCH  13  15
ENDBRANCH   1  13
TORSDOF 1
ENDMDL
MODEL 3
REMARK VINA RESULT:    -3.196      2.269      5.220
REMARK INTER + INTRA:          -5.158
REMARK INTER:                  -4.731
REMARK INTRA:                  -0.427
REMARK UNBOUND:                -0.467
REMARK SMILES C=C1C=C[C@H](C(C)C)CCC(C)=CCC1
REMARK SMILES IDX 3 1 4 2 5 3 9 4 10 5 11 6 12 7 13 8 6 10 7 11 8 12 2 13 1 14
REMARK SMILES IDX 15 15 14 16
REMARK H PARENT
REMARK Flexibility Score: 70.00
ROOT
ATOM      1  C   UNL     1       9.586  18.984  22.915  1.00  0.00    -0.001 C 
ATOM      2  C   UNL     1      10.797  19.059  23.493  1.00  0.00    -0.023 C 
ENDROOT
BRANCH   2   3
ATOM      3  C   UNL     1      11.153  19.843  24.740  1.00  0.00     0.014 C 
BRANCH   3   4
ATOM      4  C   UNL     1      11.078  18.939  25.999  1.00  0.00     0.012 C 
BRANCH   4   5
ATOM      5  C   UNL     1       9.856  19.192  26.912  1.00  0.00     0.031 C 
BRANCH   5   6
ATOM      6  C   UNL     1       9.625  20.667  27.190  1.00  0.00    -0.077 C 
ATOM      7  C   UNL     1      10.519  21.356  28.191  1.00  0.00     0.039 C 
ATOM      8  C   UNL     1       8.644  21.398  26.611  1.00  0.00    -0.028 CG0
ATOM      9  G   UNL     1       7.711  20.944  25.512  1.00  0.00     0.000 G0
ENDBRANCH   5   6
ENDBRANCH   4   5
ENDBRANCH   3   4
BRANCH   3  10
ATOM     10  C   UNL     1      12.547  20.529  24.604  1.00  0.00    -0.010 C 
ATOM     11  C   UNL     1      13.357  19.916  23.449  1.00  0.00     0.008 C 
ATOM     12  C   UNL     1      13.386  20.524  25.894  1.00  0.00     0.008 C 
ENDBRANCH   3  10
ENDBRANCH   2   3
BRANCH   1  13
ATOM     13  C   UNL     1       8.316  19.572  23.412  1.00  0.00    -0.055 C 
ATOM     14  C   UNL     1       7.226  18.798  23.371  1.00  0.00     0.012 C 
BRANCH  13  15
ATOM     15  C   UNL     1       8.230  20.944  24.071  1.00  0.00     0.039 C 
BRANCH  15  16
ATOM     16  C   UNL     1       7.688  20.954  25.514  1.00  0.00     0.032 CG0
ATOM     17  G   UNL     1       8.646  21.398  26.596  1.00  0.00     0.000 G0
ENDBRANCH  15  16
ENDBRANCH  13  15
ENDBRANCH   1  13
TORSDOF 1
ENDMDL
MODEL 4
REMARK VINA RESULT:    -3.183      1.274      1.866
REMARK INTER + INTRA:          -5.139
REMARK INTER:                  -4.585
REMARK INTRA:                  -0.554
REMARK UNBOUND:                -0.467
REMARK SMILES C=C1C=C[C@H](C(C)C)CCC(C)=CCC1
REMARK SMILES IDX 3 1 4 2 5 3 9 4 10 5 11 6 12 7 13 8 6 10 7 11 8 12 2 13 1 14
REMARK SMILES IDX 15 15 14 16
REMARK H PARENT
REMARK Flexibility Score: 70.00
ROOT
ATOM      1  C   UNL     1      10.769  19.181  27.424  1.00  0.00    -0.001 C 
ATOM      2  C   UNL     1      10.093  18.949  26.286  1.00  0.00    -0.023 C 
ENDROOT
BRANCH   2   3
ATOM      3  C   UNL     1      10.276  19.669  24.966  1.00  0.00     0.014 C 
BRANCH   3   4
ATOM      4  C   UNL     1      11.413  19.017  24.135  1.00  0.00     0.012 C 
BRANCH   4   5
ATOM      5  C   UNL     1      12.687  19.880  23.983  1.00  0.00     0.031 C 
BRANCH   5   6
ATOM      6  C   UNL     1      12.379  21.356  23.810  1.00  0.00    -0.077 C 
ATOM      7  C   UNL     1      11.866  21.830  22.473  1.00  0.00     0.039 C 
ATOM      8  C   UNL     1      12.563  22.284  24.780  1.00  0.00    -0.028 CG0
ATOM      9  G   UNL     1      12.963  22.020  26.214  1.00  0.00     0.000 G0
ENDBRANCH   5   6
ENDBRANCH   4   5
ENDBRANCH   3   4
BRANCH   3  10
ATOM     10  C   UNL     1       8.940  19.736  24.162  1.00  0.00    -0.010 C 
ATOM     11  C   UNL     1       7.745  19.321  25.037  1.00  0.00     0.008 C 
ATOM     12  C   UNL     1       8.943  18.923  22.856  1.00  0.00     0.008 C 
ENDBRANCH   3  10
ENDBRANCH   2   3
BRANCH   1  13
ATOM     13  C   UNL     1      11.899  20.125  27.620  1.00  0.00    -0.055 C 
ATOM     14  C   UNL     1      13.045  19.619  28.089  1.00  0.00     0.012 C 
BRANCH  13  15
ATOM     15  C   UNL     1      11.851  21.589  27.196  1.00  0.00     0.039 C 
BRANCH  15  16
ATOM     16  C   UNL     1      12.964  22.036  26.228  1.00  0.00     0.032 CG0
ATOM     17  G   UNL     1      12.560  22.270  24.790  1.00  0.00     0.000 G0
ENDBRANCH  15  16
ENDBRANCH  13  15
ENDBRANCH   1  13
TORSDOF 1
ENDMDL
MODEL 5
REMARK VINA RESULT:    -3.171      1.956      3.468
REMARK INTER + INTRA:          -5.121
REMARK INTER:                  -4.494
REMARK INTRA:                  -0.627
REMARK UNBOUND:                -0.467
REMARK SMILES C=C1C=C[C@H](C(C)C)CCC(C)=CCC1
REMARK SMILES IDX 3 1 4 2 5 3 9 4 10 5 11 6 12 7 13 8 6 10 7 11 8 12 2 13 1 14
REMARK SMILES IDX 15 15 14 16
REMARK H PARENT
REMARK Flexibility Score: 70.00
ROOT
ATOM      1  C   UNL     1       7.640  19.304  25.778  1.00  0.00    -0.001 C 
ATOM      2  C   UNL     1       7.680  18.904  24.496  1.00  0.00    -0.023 C 
ENDROOT
BRANCH   2   3
ATOM      3  C   UNL     1       7.751  19.798  23.275  1.00  0.00     0.014 C 
BRANCH   3   4
ATOM      4  C   UNL     1       9.106  19.622  22.541  1.00  0.00     0.012 C 
BRANCH   4   5
ATOM      5  C   UNL     1      10.302  19.267  23.455  1.00  0.00     0.031 C 
BRANCH   5   6
ATOM      6  C   UNL     1      11.117  20.484  23.854  1.00  0.00    -0.077 C 
ATOM      7  C   UNL     1      11.946  21.170  22.797  1.00  0.00     0.039 C 
ATOM      8  C   UNL     1      11.168  20.978  25.114  1.00  0.00    -0.028 CG0
ATOM      9  G   UNL     1      10.343  20.518  26.295  1.00  0.00     0.000 G0
ENDBRANCH   5   6
ENDBRANCH   4   5
ENDBRANCH   3   4
BRANCH   3  10
ATOM     10  C   UNL     1       6.541  19.555  22.319  1.00  0.00    -0.010 C 
ATOM     11  C   UNL     1       5.484  20.661  22.470  1.00  0.00     0.008 C 
ATOM     12  C   UNL     1       5.881  18.173  22.470  1.00  0.00     0.008 C 
ENDBRANCH   3  10
ENDBRANCH   2   3
BRANCH   1  13
ATOM     13  C   UNL     1       7.746  20.695  26.288  1.00  0.00    -0.055 C 
ATOM     14  C   UNL     1       6.605  21.327  26.585  1.00  0.00     0.012 C 
BRANCH  13  15
ATOM     15  C   UNL     1       9.076  21.373  26.602  1.00  0.00     0.039 C 
BRANCH  15  16
ATOM     16  C   UNL     1      10.334  20.538  26.296  1.00  0.00     0.032 CG0
ATOM     17  G   UNL     1      11.172  20.979  25.117  1.00  0.00     0.000 G0
ENDBRANCH  15  16
ENDBRANCH  13  15
ENDBRANCH   1  13
TORSDOF 1
ENDMDL
MODEL 6
REMARK VINA RESULT:    -3.125      4.193      7.177
REMARK INTER + INTRA:          -5.054
REMARK INTER:                  -4.437
REMARK INTRA:                  -0.618
REMARK UNBOUND:                -0.467
REMARK SMILES C=C1C=C[C@H](C(C)C)CCC(C)=CCC1
REMARK SMILES IDX 3 1 4 2 5 3 9 4 10 5 11 6 12 7 13 8 6 10 7 11 8 12 2 13 1 14
REMARK SMILES IDX 15 15 14 16
REMARK H PARENT
REMARK Flexibility Score: 70.00
ROOT
ATOM      1  C   UNL     1       5.381  18.527  22.442  1.00  0.00    -0.001 C 
ATOM      2  C   UNL     1       6.608  18.502  22.991  1.00  0.00    -0.023 C 
ENDROOT
BRANCH   2   3
ATOM      3  C   UNL     1       7.400  19.697  23.481  1.00  0.00     0.014 C 
BRANCH   3   4
ATOM      4  C   UNL     1       6.927  20.130  24.894  1.00  0.00     0.012 C 
BRANCH   4   5
ATOM      5  C   UNL     1       6.071  21.417  24.930  1.00  0.00     0.031 C 
BRANCH   5   6
ATOM      6  C   UNL     1       6.599  22.499  24.005  1.00  0.00    -0.077 C 
ATOM      7  C   UNL     1       7.886  23.194  24.376  1.00  0.00     0.039 C 
ATOM      8  C   UNL     1       5.969  22.900  22.876  1.00  0.00    -0.028 CG0
ATOM      9  G   UNL     1       4.735  22.275  22.263  1.00  0.00     0.000 G0
ENDBRANCH   5   6
ENDBRANCH   4   5
ENDBRANCH   3   4
BRANCH   3  10
ATOM     10  C   UNL     1       8.935  19.417  23.447  1.00  0.00    -0.010 C 
ATOM     11  C   UNL     1       9.561  19.587  24.841  1.00  0.00     0.008 C 
ATOM     12  C   UNL     1       9.710  20.257  22.417  1.00  0.00     0.008 C 
ENDBRANCH   3  10
ENDBRANCH   2   3
BRANCH   1  13
ATOM     13  C   UNL     1       4.496  19.708  22.276  1.00  0.00    -0.055 C 
ATOM     14  C   UNL     1       3.336  19.702  22.942  1.00  0.00     0.012 C 
BRANCH  13  15
ATOM     15  C   UNL     1       4.901  20.956  21.499  1.00  0.00     0.039 C 
BRANCH  15  16
ATOM     16  C   UNL     1       4.731  22.290  22.252  1.00  0.00     0.032 CG0
ATOM     17  G   UNL     1       5.977  22.888  22.865  1.00  0.00     0.000 G0
ENDBRANCH  15  16
ENDBRANCH  13  15
ENDBRANCH   1  13
TORSDOF 1
ENDMDL
MODEL 7
REMARK VINA RESULT:    -3.067      2.190      4.609
REMARK INTER + INTRA:          -4.968
REMARK INTER:                  -4.411
REMARK INTRA:                  -0.557
REMARK UNBOUND:                -0.467
REMARK SMILES C=C1C=C[C@H](C(C)C)CCC(C)=CCC1
REMARK SMILES IDX 3 1 4 2 5 3 9 4 10 5 11 6 12 7 13 8 6 10 7 11 8 12 2 13 1 14
REMARK SMILES IDX 15 15 14 16
REMARK H PARENT
REMARK Flexibility Score: 70.00
ROOT
ATOM      1  C   UNL     1      11.497  19.324  24.398  1.00  0.00    -0.001 C 
ATOM      2  C   UNL     1      10.803  18.966  25.491  1.00  0.00    -0.023 C 
ENDROOT
BRANCH   2   3
ATOM      3  C   UNL     1      10.122  19.899  26.472  1.00  0.00     0.014 C 
BRANCH   3   4
ATOM      4  C   UNL     1       8.615  19.555  26.603  1.00  0.00     0.012 C 
BRANCH   4   5
ATOM      5  C   UNL     1       7.877  19.332  25.262  1.00  0.00     0.031 C 
BRANCH   5   6
ATOM      6  C   UNL     1       7.448  20.631  24.605  1.00  0.00    -0.077 C 
ATOM      7  C   UNL     1       6.270  21.373  25.186  1.00  0.00     0.039 C 
ATOM      8  C   UNL     1       8.043  21.154  23.507  1.00  0.00    -0.028 CG0
ATOM      9  G   UNL     1       9.293  20.639  22.830  1.00  0.00     0.000 G0
ENDBRANCH   5   6
ENDBRANCH   4   5
ENDBRANCH   3   4
BRANCH   3  10
ATOM     10  C   UNL     1      10.838  19.891  27.858  1.00  0.00    -0.010 C 
ATOM     11  C   UNL     1      10.754  21.270  28.534  1.00  0.00     0.008 C 
ATOM     12  C   UNL     1      12.302  19.418  27.814  1.00  0.00     0.008 C 
ENDBRANCH   3  10
ENDBRANCH   2   3
BRANCH   1  13
ATOM     13  C   UNL     1      11.676  20.696  23.858  1.00  0.00    -0.055 C 
ATOM     14  C   UNL     1      12.884  21.255  23.994  1.00  0.00     0.012 C 
BRANCH  13  15
ATOM     15  C   UNL     1      10.604  21.428  23.058  1.00  0.00     0.039 C 
BRANCH  15  16
ATOM     16  C   UNL     1       9.301  20.639  22.819  1.00  0.00     0.032 CG0
ATOM     17  G   UNL     1       8.060  21.150  23.515  1.00  0.00     0.000 G0
ENDBRANCH  15  16
ENDBRANCH  13  15
ENDBRANCH   1  13
TORSDOF 1
ENDMDL
MODEL 8
REMARK VINA RESULT:    -3.060      4.254      6.680
REMARK INTER + INTRA:          -4.958
REMARK INTER:                  -4.584
REMARK INTRA:                  -0.374
REMARK UNBOUND:                -0.467
REMARK SMILES C=C1C=C[C@H](C(C)C)CCC(C)=CCC1
REMARK SMILES IDX 3 1 4 2 5 3 9 4 10 5 11 6 12 7 13 8 6 10 7 11 8 12 2 13 1 14
REMARK SMILES IDX 15 15 14 16
REMARK H PARENT
REMARK Flexibility Score: 70.00
ROOT
ATOM      1  C   UNL     1       6.812  18.528  22.511  1.00  0.00    -0.001 C 
ATOM      2  C   UNL     1       5.570  18.894  22.150  1.00  0.00    -0.023 C 
ENDROOT
BRANCH   2   3
ATOM      3  C   UNL     1       4.721  19.966  22.802  1.00  0.00     0.014 C 
BRANCH   3   4
ATOM      4  C   UNL     1       5.103  21.372  22.269  1.00  0.00     0.012 C 
BRANCH   4   5
ATOM      5  C   UNL     1       6.012  22.200  23.207  1.00  0.00     0.031 C 
BRANCH   5   6
ATOM      6  C   UNL     1       5.513  22.220  24.641  1.00  0.00    -0.077 C 
ATOM      7  C   UNL     1       4.241  22.970  24.947  1.00  0.00     0.039 C 
ATOM      8  C   UNL     1       6.159  21.626  25.672  1.00  0.00    -0.028 CG0
ATOM      9  G   UNL     1       7.381  20.740  25.579  1.00  0.00     0.000 G0
ENDBRANCH   5   6
ENDBRANCH   4   5
ENDBRANCH   3   4
BRANCH   3  10
ATOM     10  C   UNL     1       3.199  19.675  22.623  1.00  0.00    -0.010 C 
ATOM     11  C   UNL     1       2.825  19.570  21.135  1.00  0.00     0.008 C 
ATOM     12  C   UNL     1       2.272  20.683  23.327  1.00  0.00     0.008 C 
ENDBRANCH   3  10
ENDBRANCH   2   3
BRANCH   1  13
ATOM     13  C   UNL     1       7.660  19.147  23.562  1.00  0.00    -0.055 C 
ATOM     14  C   UNL     1       8.833  19.663  23.177  1.00  0.00     0.012 C 
BRANCH  13  15
ATOM     15  C   UNL     1       7.205  19.331  25.006  1.00  0.00     0.039 C 
BRANCH  15  16
ATOM     16  C   UNL     1       7.393  20.746  25.585  1.00  0.00     0.032 CG0
ATOM     17  G   UNL     1       6.159  21.617  25.665  1.00  0.00     0.000 G0
ENDBRANCH  15  16
ENDBRANCH  13  15
ENDBRANCH   1  13
TORSDOF 1
ENDMDL
MODEL 9
REMARK VINA RESULT:    -2.940      1.640      2.382
REMARK INTER + INTRA:          -4.782
REMARK INTER:                  -4.259
REMARK INTRA:                  -0.522
REMARK UNBOUND:                -0.467
REMARK SMILES C=C1C=C[C@H](C(C)C)CCC(C)=CCC1
REMARK SMILES IDX 3 1 4 2 5 3 9 4 10 5 11 6 12 7 13 8 6 10 7 11 8 12 2 13 1 14
REMARK SMILES IDX 15 15 14 16
REMARK H PARENT
REMARK Flexibility Score: 70.00
ROOT
ATOM      1  C   UNL     1      10.783  18.972  27.005  1.00  0.00    -0.001 C 
ATOM      2  C   UNL     1      10.446  19.110  25.712  1.00  0.00    -0.023 C 
ENDROOT
BRANCH   2   3
ATOM      3  C   UNL     1      10.795  20.276  24.809  1.00  0.00     0.014 C 
BRANCH   3   4
ATOM      4  C   UNL     1      12.151  20.034  24.096  1.00  0.00     0.012 C 
BRANCH   4   5
ATOM      5  C   UNL     1      13.262  21.052  24.444  1.00  0.00     0.031 C 
BRANCH   5   6
ATOM      6  C   UNL     1      14.548  20.385  24.899  1.00  0.00    -0.077 C 
ATOM      7  C   UNL     1      15.522  19.913  23.848  1.00  0.00     0.039 C 
ATOM      8  C   UNL     1      14.863  20.161  26.197  1.00  0.00    -0.028 CG0
ATOM      9  G   UNL     1      14.091  20.641  27.406  1.00  0.00     0.000 G0
ENDBRANCH   5   6
ENDBRANCH   4   5
ENDBRANCH   3   4
BRANCH   3  10
ATOM     10  C   UNL     1       9.651  20.571  23.790  1.00  0.00    -0.010 C 
ATOM     11  C   UNL     1       9.212  19.289  23.062  1.00  0.00     0.008 C 
ATOM     12  C   UNL     1       9.982  21.670  22.765  1.00  0.00     0.008 C 
ENDBRANCH   3  10
ENDBRANCH   2   3
BRANCH   1  13
ATOM     13  C   UNL     1      11.641  19.877  27.811  1.00  0.00    -0.055 C 
ATOM     14  C   UNL     1      11.042  20.899  28.430  1.00  0.00     0.012 C 
BRANCH  13  15
ATOM     15  C   UNL     1      13.124  19.622  28.061  1.00  0.00     0.039 C 
BRANCH  15  16
ATOM     16  C   UNL     1      14.089  20.637  27.416  1.00  0.00     0.032 CG0
ATOM     17  G   UNL     1      14.862  20.164  26.206  1.00  0.00     0.000 G0
ENDBRANCH  15  16
ENDBRANCH  13  15
ENDBRANCH   1  13
TORSDOF 1
ENDMDL
