MODEL 1
REMARK VINA RESULT:     0.028      0.000      0.000
REMARK INTER + INTRA:          -0.464
REMARK INTER:                   0.045
REMARK INTRA:                  -0.509
REMARK UNBOUND:                -0.509
REMARK SMILES CCCCCCCCCCCC(=O)[O-]
REMARK SMILES IDX 7 1 8 2 9 3 10 4 11 5 12 6 13 7 14 8 6 9 5 10 4 11 3 12 2 13
REMARK SMILES IDX 1 14
REMARK H PARENT
REMARK Flexibility Score: inf
ROOT
ATOM      1  C   UNL     1       6.755 -28.532 -17.231  1.00  0.00     0.000 C 
ENDROOT
BRANCH   1   2
ATOM      2  C   UNL     1       8.069 -29.207 -16.800  1.00  0.00     0.000 C 
BRANCH   2   3
ATOM      3  C   UNL     1       8.216 -29.287 -15.272  1.00  0.00     0.000 C 
BRANCH   3   4
ATOM      4  C   UNL     1       9.022 -30.515 -14.816  1.00  0.00     0.006 C 
BRANCH   4   5
ATOM      5  C   UNL     1       9.784 -31.170 -15.977  1.00  0.00     0.053 C 
BRANCH   5   6
ATOM      6  C   UNL     1       9.261 -32.539 -16.287  1.00  0.00     0.041 C 
ATOM      7  O   UNL     1       9.227 -32.949 -17.476  1.00  0.00    -0.550 OA
ATOM      8  O   UNL     1       8.841 -33.373 -15.259  1.00  0.00    -0.550 OA
ENDBRANCH   5   6
ENDBRANCH   4   5
ENDBRANCH   3   4
ENDBRANCH   2   3
ENDBRANCH   1   2
BRANCH   1   9
ATOM      9  C   UNL     1       6.516 -28.611 -18.749  1.00  0.00     0.000 C 
BRANCH   9  10
ATOM     10  C   UNL     1       7.747 -29.016 -19.584  1.00  0.00    -0.000 C 
BRANCH  10  11
ATOM     11  C   UNL     1       7.432 -29.272 -21.073  1.00  0.00    -0.000 C 
BRANCH  11  12
ATOM     12  C   UNL     1       6.004 -28.837 -21.449  1.00  0.00    -0.000 C 
BRANCH  12  13
ATOM     13  C   UNL     1       5.882 -28.431 -22.925  1.00  0.00    -0.003 C 
ATOM     14  C   UNL     1       5.942 -26.917 -23.125  1.00  0.00     0.004 C 
ENDBRANCH  12  13
ENDBRANCH  11  12
ENDBRANCH  10  11
ENDBRANCH   9  10
ENDBRANCH   1   9
TORSDOF 10
ENDMDL
MODEL 2
REMARK VINA RESULT:     1.838      3.197      6.737
REMARK INTER + INTRA:           2.404
REMARK INTER:                   3.151
REMARK INTRA:                  -0.747
REMARK UNBOUND:                -0.509
REMARK SMILES CCCCCCCCCCCC(=O)[O-]
REMARK SMILES IDX 7 1 8 2 9 3 10 4 11 5 12 6 13 7 14 8 6 9 5 10 4 11 3 12 2 13
REMARK SMILES IDX 1 14
REMARK H PARENT
REMARK Flexibility Score: inf
ROOT
ATOM      1  C   UNL     1       6.964 -28.638 -17.086  1.00  0.00     0.000 C 
ENDROOT
BRANCH   1   2
ATOM      2  C   UNL     1       7.012 -28.387 -18.604  1.00  0.00     0.000 C 
BRANCH   2   3
ATOM      3  C   UNL     1       7.819 -29.459 -19.353  1.00  0.00     0.000 C 
BRANCH   3   4
ATOM      4  C   UNL     1       7.218 -29.805 -20.726  1.00  0.00     0.006 C 
BRANCH   4   5
ATOM      5  C   UNL     1       6.197 -28.758 -21.191  1.00  0.00     0.053 C 
BRANCH   5   6
ATOM      6  C   UNL     1       6.727 -27.921 -22.314  1.00  0.00     0.041 C 
ATOM      7  O   UNL     1       5.933 -27.368 -23.119  1.00  0.00    -0.550 OA
ATOM      8  O   UNL     1       8.094 -27.726 -22.452  1.00  0.00    -0.550 OA
ENDBRANCH   5   6
ENDBRANCH   4   5
ENDBRANCH   3   4
ENDBRANCH   2   3
ENDBRANCH   1   2
BRANCH   1   9
ATOM      9  C   UNL     1       8.357 -28.889 -16.481  1.00  0.00     0.000 C 
BRANCH   9  10
ATOM     10  C   UNL     1       8.354 -29.513 -15.071  1.00  0.00    -0.000 C 
BRANCH  10  11
ATOM     11  C   UNL     1       9.310 -30.714 -14.919  1.00  0.00    -0.000 C 
BRANCH  11  12
ATOM     12  C   UNL     1       9.662 -31.352 -16.275  1.00  0.00    -0.000 C 
BRANCH  12  13
ATOM     13  C   UNL     1       9.091 -32.770 -16.425  1.00  0.00    -0.003 C 
ATOM     14  C   UNL     1       8.838 -33.446 -15.078  1.00  0.00     0.004 C 
ENDBRANCH  12  13
ENDBRANCH  11  12
ENDBRANCH  10  11
ENDBRANCH   9  10
ENDBRANCH   1   9
TORSDOF 10
ENDMDL
MODEL 3
REMARK VINA RESULT:     2.556      1.957      2.680
REMARK INTER + INTRA:           3.542
REMARK INTER:                   3.518
REMARK INTRA:                   0.025
REMARK UNBOUND:                -0.509
REMARK SMILES CCCCCCCCCCCC(=O)[O-]
REMARK SMILES IDX 7 1 8 2 9 3 10 4 11 5 12 6 13 7 14 8 6 9 5 10 4 11 3 12 2 13
REMARK SMILES IDX 1 14
REMARK H PARENT
REMARK Flexibility Score: inf
ROOT
ATOM      1  C   UNL     1       9.006 -29.954 -18.763  1.00  0.00     0.000 C 
ENDROOT
BRANCH   1   2
ATOM      2  C   UNL     1       9.892 -30.521 -17.640  1.00  0.00     0.000 C 
BRANCH   2   3
ATOM      3  C   UNL     1       9.329 -31.821 -17.045  1.00  0.00     0.000 C 
BRANCH   3   4
ATOM      4  C   UNL     1       9.319 -31.814 -15.506  1.00  0.00     0.006 C 
BRANCH   4   5
ATOM      5  C   UNL     1       9.618 -30.423 -14.932  1.00  0.00     0.053 C 
BRANCH   5   6
ATOM      6  C   UNL     1       8.365 -29.679 -14.586  1.00  0.00     0.041 C 
ATOM      7  O   UNL     1       7.920 -29.702 -13.409  1.00  0.00    -0.550 OA
ATOM      8  O   UNL     1       7.705 -28.937 -15.557  1.00  0.00    -0.550 OA
ENDBRANCH   5   6
ENDBRANCH   4   5
ENDBRANCH   3   4
ENDBRANCH   2   3
ENDBRANCH   1   2
BRANCH   1   9
ATOM      9  C   UNL     1       8.068 -28.836 -18.273  1.00  0.00     0.000 C 
BRANCH   9  10
ATOM     10  C   UNL     1       6.631 -28.899 -18.829  1.00  0.00    -0.000 C 
BRANCH  10  11
ATOM     11  C   UNL     1       6.444 -28.141 -20.160  1.00  0.00    -0.000 C 
BRANCH  11  12
ATOM     12  C   UNL     1       6.347 -29.096 -21.364  1.00  0.00    -0.000 C 
BRANCH  12  13
ATOM     13  C   UNL     1       5.879 -28.385 -22.642  1.00  0.00    -0.003 C 
ATOM     14  C   UNL     1       6.873 -27.329 -23.125  1.00  0.00     0.004 C 
ENDBRANCH  12  13
ENDBRANCH  11  12
ENDBRANCH  10  11
ENDBRANCH   9  10
ENDBRANCH   1   9
TORSDOF 10
ENDMDL
MODEL 4
REMARK VINA RESULT:     2.951      2.903      6.818
REMARK INTER + INTRA:           4.168
REMARK INTER:                   4.585
REMARK INTRA:                  -0.417
REMARK UNBOUND:                -0.509
REMARK SMILES CCCCCCCCCCCC(=O)[O-]
REMARK SMILES IDX 7 1 8 2 9 3 10 4 11 5 12 6 13 7 14 8 6 9 5 10 4 11 3 12 2 13
REMARK SMILES IDX 1 14
REMARK H PARENT
REMARK Flexibility Score: inf
ROOT
ATOM      1  C   UNL     1       9.388 -29.572 -17.209  1.00  0.00     0.000 C 
ENDROOT
BRANCH   1   2
ATOM      2  C   UNL     1       8.531 -29.522 -18.486  1.00  0.00     0.000 C 
BRANCH   2   3
ATOM      3  C   UNL     1       7.212 -28.760 -18.281  1.00  0.00     0.000 C 
BRANCH   3   4
ATOM      4  C   UNL     1       6.246 -28.913 -19.468  1.00  0.00     0.006 C 
BRANCH   4   5
ATOM      5  C   UNL     1       6.529 -27.892 -20.579  1.00  0.00     0.053 C 
BRANCH   5   6
ATOM      6  C   UNL     1       6.801 -28.557 -21.893  1.00  0.00     0.041 C 
ATOM      7  O   UNL     1       7.302 -29.711 -21.926  1.00  0.00    -0.550 OA
ATOM      8  O   UNL     1       6.474 -27.915 -23.080  1.00  0.00    -0.550 OA
ENDBRANCH   5   6
ENDBRANCH   4   5
ENDBRANCH   3   4
ENDBRANCH   2   3
ENDBRANCH   1   2
BRANCH   1   9
ATOM      9  C   UNL     1       8.555 -29.401 -15.927  1.00  0.00     0.000 C 
BRANCH   9  10
ATOM     10  C   UNL     1       8.874 -30.404 -14.801  1.00  0.00    -0.000 C 
BRANCH  10  11
ATOM     11  C   UNL     1       9.894 -31.490 -15.205  1.00  0.00    -0.000 C 
BRANCH  11  12
ATOM     12  C   UNL     1       9.271 -32.562 -16.117  1.00  0.00    -0.000 C 
BRANCH  12  13
ATOM     13  C   UNL     1       8.421 -33.576 -15.338  1.00  0.00    -0.003 C 
ATOM     14  C   UNL     1       9.101 -34.051 -14.054  1.00  0.00     0.004 C 
ENDBRANCH  12  13
ENDBRANCH  11  12
ENDBRANCH  10  11
ENDBRANCH   9  10
ENDBRANCH   1   9
TORSDOF 10
ENDMDL
