MODEL 1
REMARK VINA RESULT:    -4.403      0.000      0.000
REMARK INTER + INTRA:          -7.050
REMARK INTER:                  -5.947
REMARK INTRA:                  -1.103
REMARK UNBOUND:                -1.103
REMARK SMILES CC(=O)CCC=C(C)CCC=C(C)C
REMARK SMILES IDX 7 1 6 2 8 3 9 4 10 5 11 6 13 7 12 8 14 9 5 10 4 11 2 12 3 13
REMARK SMILES IDX 1 14
REMARK H PARENT
REMARK Flexibility Score: inf
ROOT
ATOM      1  C   UNL     1     -14.900  12.080 -31.413  1.00  0.00    -0.077 C 
ATOM      2  C   UNL     1     -14.126  12.934 -30.706  1.00  0.00    -0.028 C 
ATOM      3  C   UNL     1     -15.448  12.440 -32.774  1.00  0.00     0.039 C 
ENDROOT
BRANCH   1   4
ATOM      4  C   UNL     1     -15.240  10.733 -30.815  1.00  0.00     0.034 C 
BRANCH   4   5
ATOM      5  C   UNL     1     -16.100  10.901 -29.557  1.00  0.00     0.032 C 
BRANCH   5   6
ATOM      6  C   UNL     1     -17.540  11.159 -29.924  1.00  0.00    -0.028 C 
ATOM      7  C   UNL     1     -17.521  13.490 -29.008  1.00  0.00     0.039 C 
ATOM      8  C   UNL     1     -18.200  12.309 -29.661  1.00  0.00    -0.080 C 
ATOM      9  C   UNL     1     -19.652  12.409 -30.052  1.00  0.00     0.039 C 
ENDBRANCH   5   6
ENDBRANCH   4   5
ENDBRANCH   1   4
BRANCH   2  10
ATOM     10  C   UNL     1     -13.637  14.269 -31.214  1.00  0.00     0.035 C 
BRANCH  10  11
ATOM     11  C   UNL     1     -12.105  14.318 -31.287  1.00  0.00     0.079 C 
BRANCH  11  12
ATOM     12  C   UNL     1     -11.595  13.789 -32.603  1.00  0.00     0.130 C 
ATOM     13  O   UNL     1     -11.406  14.562 -33.531  1.00  0.00    -0.300 OA
ATOM     14  C   UNL     1     -11.307  12.330 -32.797  1.00  0.00     0.087 C 
ENDBRANCH  11  12
ENDBRANCH  10  11
ENDBRANCH   2  10
TORSDOF 6
ENDMDL
MODEL 2
REMARK VINA RESULT:    -4.384      2.747      5.708
REMARK INTER + INTRA:          -7.025
REMARK INTER:                  -5.901
REMARK INTRA:                  -1.123
REMARK UNBOUND:                -1.103
REMARK SMILES CC(=O)CCC=C(C)CCC=C(C)C
REMARK SMILES IDX 7 1 6 2 8 3 9 4 10 5 11 6 13 7 12 8 14 9 5 10 4 11 2 12 3 13
REMARK SMILES IDX 1 14
REMARK H PARENT
REMARK Flexibility Score: inf
ROOT
ATOM      1  C   UNL     1     -16.039  13.967 -30.945  1.00  0.00    -0.077 C 
ATOM      2  C   UNL     1     -16.500  13.623 -29.721  1.00  0.00    -0.028 C 
ATOM      3  C   UNL     1     -16.549  13.307 -32.205  1.00  0.00     0.039 C 
ENDROOT
BRANCH   1   4
ATOM      4  C   UNL     1     -14.971  15.033 -31.052  1.00  0.00     0.034 C 
BRANCH   4   5
ATOM      5  C   UNL     1     -13.638  14.521 -30.493  1.00  0.00     0.032 C 
BRANCH   5   6
ATOM      6  C   UNL     1     -12.699  14.143 -31.611  1.00  0.00    -0.028 C 
ATOM      7  C   UNL     1     -13.188  11.695 -31.408  1.00  0.00     0.039 C 
ATOM      8  C   UNL     1     -12.466  12.875 -32.017  1.00  0.00    -0.080 C 
ATOM      9  C   UNL     1     -11.469  12.645 -33.122  1.00  0.00     0.039 C 
ENDBRANCH   5   6
ENDBRANCH   4   5
ENDBRANCH   1   4
BRANCH   2  10
ATOM     10  C   UNL     1     -17.622  12.643 -29.472  1.00  0.00     0.035 C 
BRANCH  10  11
ATOM     11  C   UNL     1     -17.085  11.242 -29.152  1.00  0.00     0.079 C 
BRANCH  11  12
ATOM     12  C   UNL     1     -16.153  11.263 -27.967  1.00  0.00     0.130 C 
ATOM     13  O   UNL     1     -16.589  11.547 -26.861  1.00  0.00    -0.300 OA
ATOM     14  C   UNL     1     -14.697  10.935 -28.116  1.00  0.00     0.087 C 
ENDBRANCH  11  12
ENDBRANCH  10  11
ENDBRANCH   2  10
TORSDOF 6
ENDMDL
MODEL 3
REMARK VINA RESULT:    -4.359      3.004      5.778
REMARK INTER + INTRA:          -6.991
REMARK INTER:                  -5.753
REMARK INTRA:                  -1.238
REMARK UNBOUND:                -1.103
REMARK SMILES CC(=O)CCC=C(C)CCC=C(C)C
REMARK SMILES IDX 7 1 6 2 8 3 9 4 10 5 11 6 13 7 12 8 14 9 5 10 4 11 2 12 3 13
REMARK SMILES IDX 1 14
REMARK H PARENT
REMARK Flexibility Score: inf
ROOT
ATOM      1  C   UNL     1     -17.223  12.575 -30.703  1.00  0.00    -0.077 C 
ATOM      2  C   UNL     1     -17.686  11.317 -30.523  1.00  0.00    -0.028 C 
ATOM      3  C   UNL     1     -16.932  13.492 -29.538  1.00  0.00     0.039 C 
ENDROOT
BRANCH   1   4
ATOM      4  C   UNL     1     -17.007  13.082 -32.112  1.00  0.00     0.034 C 
BRANCH   4   5
ATOM      5  C   UNL     1     -15.769  12.429 -32.737  1.00  0.00     0.032 C 
BRANCH   5   6
ATOM      6  C   UNL     1     -14.538  13.264 -32.485  1.00  0.00    -0.028 C 
ATOM      7  C   UNL     1     -13.611  11.671 -30.789  1.00  0.00     0.039 C 
ATOM      8  C   UNL     1     -13.572  12.949 -31.594  1.00  0.00    -0.080 C 
ATOM      9  C   UNL     1     -12.417  13.901 -31.420  1.00  0.00     0.039 C 
ENDBRANCH   5   6
ENDBRANCH   4   5
ENDBRANCH   1   4
BRANCH   2  10
ATOM     10  C   UNL     1     -17.863  10.653 -29.179  1.00  0.00     0.035 C 
BRANCH  10  11
ATOM     11  C   UNL     1     -16.570   9.974 -28.711  1.00  0.00     0.079 C 
BRANCH  11  12
ATOM     12  C   UNL     1     -16.150  10.460 -27.347  1.00  0.00     0.130 C 
ATOM     13  O   UNL     1     -16.864  10.235 -26.381  1.00  0.00    -0.300 OA
ATOM     14  C   UNL     1     -14.867  11.211 -27.149  1.00  0.00     0.087 C 
ENDBRANCH  11  12
ENDBRANCH  10  11
ENDBRANCH   2  10
TORSDOF 6
ENDMDL
MODEL 4
REMARK VINA RESULT:    -4.342      1.594      2.323
REMARK INTER + INTRA:          -6.968
REMARK INTER:                  -6.121
REMARK INTRA:                  -0.847
REMARK UNBOUND:                -1.103
REMARK SMILES CC(=O)CCC=C(C)CCC=C(C)C
REMARK SMILES IDX 7 1 6 2 8 3 9 4 10 5 11 6 13 7 12 8 14 9 5 10 4 11 2 12 3 13
REMARK SMILES IDX 1 14
REMARK H PARENT
REMARK Flexibility Score: inf
ROOT
ATOM      1  C   UNL     1     -15.916  13.224 -31.539  1.00  0.00    -0.077 C 
ATOM      2  C   UNL     1     -15.178  14.262 -31.085  1.00  0.00    -0.028 C 
ATOM      3  C   UNL     1     -15.585  12.514 -32.831  1.00  0.00     0.039 C 
ENDROOT
BRANCH   1   4
ATOM      4  C   UNL     1     -17.117  12.773 -30.736  1.00  0.00     0.034 C 
BRANCH   4   5
ATOM      5  C   UNL     1     -17.060  13.339 -29.313  1.00  0.00     0.032 C 
BRANCH   5   6
ATOM      6  C   UNL     1     -17.262  12.246 -28.293  1.00  0.00    -0.028 C 
ATOM      7  C   UNL     1     -14.838  11.616 -28.254  1.00  0.00     0.039 C 
ATOM      8  C   UNL     1     -16.277  11.446 -27.827  1.00  0.00    -0.080 C 
ATOM      9  C   UNL     1     -16.635  10.368 -26.837  1.00  0.00     0.039 C 
ENDBRANCH   5   6
ENDBRANCH   4   5
ENDBRANCH   1   4
BRANCH   2  10
ATOM     10  C   UNL     1     -13.909  14.760 -31.734  1.00  0.00     0.035 C 
BRANCH  10  11
ATOM     11  C   UNL     1     -12.670  14.059 -31.159  1.00  0.00     0.079 C 
BRANCH  11  12
ATOM     12  C   UNL     1     -11.686  13.698 -32.242  1.00  0.00     0.130 C 
ATOM     13  O   UNL     1     -12.052  13.013 -33.186  1.00  0.00    -0.300 OA
ATOM     14  C   UNL     1     -10.262  14.167 -32.188  1.00  0.00     0.087 C 
ENDBRANCH  11  12
ENDBRANCH  10  11
ENDBRANCH   2  10
TORSDOF 6
ENDMDL
MODEL 5
REMARK VINA RESULT:    -4.324      2.724      6.446
REMARK INTER + INTRA:          -6.944
REMARK INTER:                  -6.260
REMARK INTRA:                  -0.684
REMARK UNBOUND:                -1.103
REMARK SMILES CC(=O)CCC=C(C)CCC=C(C)C
REMARK SMILES IDX 7 1 6 2 8 3 9 4 10 5 11 6 13 7 12 8 14 9 5 10 4 11 2 12 3 13
REMARK SMILES IDX 1 14
REMARK H PARENT
REMARK Flexibility Score: inf
ROOT
ATOM      1  C   UNL     1     -15.264  13.473 -31.026  1.00  0.00    -0.077 C 
ATOM      2  C   UNL     1     -15.197  12.825 -29.841  1.00  0.00    -0.028 C 
ATOM      3  C   UNL     1     -16.155  12.993 -32.148  1.00  0.00     0.039 C 
ENDROOT
BRANCH   1   4
ATOM      4  C   UNL     1     -14.409  14.703 -31.238  1.00  0.00     0.034 C 
BRANCH   4   5
ATOM      5  C   UNL     1     -12.933  14.387 -30.974  1.00  0.00     0.032 C 
BRANCH   5   6
ATOM      6  C   UNL     1     -12.375  13.494 -32.054  1.00  0.00    -0.028 C 
ATOM      7  C   UNL     1     -10.056  14.417 -31.842  1.00  0.00     0.039 C 
ATOM      8  C   UNL     1     -11.090  13.513 -32.472  1.00  0.00    -0.080 C 
ATOM      9  C   UNL     1     -10.684  12.588 -33.590  1.00  0.00     0.039 C 
ENDBRANCH   5   6
ENDBRANCH   4   5
ENDBRANCH   1   4
BRANCH   2  10
ATOM     10  C   UNL     1     -16.055  11.642 -29.461  1.00  0.00     0.035 C 
BRANCH  10  11
ATOM     11  C   UNL     1     -17.359  12.085 -28.785  1.00  0.00     0.079 C 
BRANCH  11  12
ATOM     12  C   UNL     1     -18.568  11.521 -29.488  1.00  0.00     0.130 C 
ATOM     13  O   UNL     1     -18.735  10.311 -29.523  1.00  0.00    -0.300 OA
ATOM     14  C   UNL     1     -19.575  12.418 -30.144  1.00  0.00     0.087 C 
ENDBRANCH  11  12
ENDBRANCH  10  11
ENDBRANCH   2  10
TORSDOF 6
ENDMDL
MODEL 6
REMARK VINA RESULT:    -4.236      1.291      1.975
REMARK INTER + INTRA:          -6.825
REMARK INTER:                  -6.082
REMARK INTRA:                  -0.743
REMARK UNBOUND:                -1.103
REMARK SMILES CC(=O)CCC=C(C)CCC=C(C)C
REMARK SMILES IDX 7 1 6 2 8 3 9 4 10 5 11 6 13 7 12 8 14 9 5 10 4 11 2 12 3 13
REMARK SMILES IDX 1 14
REMARK H PARENT
REMARK Flexibility Score: inf
ROOT
ATOM      1  C   UNL     1     -15.265  13.492 -31.114  1.00  0.00    -0.077 C 
ATOM      2  C   UNL     1     -13.945  13.668 -30.881  1.00  0.00    -0.028 C 
ATOM      3  C   UNL     1     -15.767  12.637 -32.254  1.00  0.00     0.039 C 
ENDROOT
BRANCH   1   4
ATOM      4  C   UNL     1     -16.266  14.185 -30.216  1.00  0.00     0.034 C 
BRANCH   4   5
ATOM      5  C   UNL     1     -16.780  13.225 -29.136  1.00  0.00     0.032 C 
BRANCH   5   6
ATOM      6  C   UNL     1     -18.205  12.817 -29.417  1.00  0.00    -0.028 C 
ATOM      7  C   UNL     1     -17.614  10.409 -29.772  1.00  0.00     0.039 C 
ATOM      8  C   UNL     1     -18.591  11.561 -29.729  1.00  0.00    -0.080 C 
ATOM      9  C   UNL     1     -20.048  11.309 -30.023  1.00  0.00     0.039 C 
ENDBRANCH   5   6
ENDBRANCH   4   5
ENDBRANCH   1   4
BRANCH   2  10
ATOM     10  C   UNL     1     -12.841  12.970 -31.638  1.00  0.00     0.035 C 
BRANCH  10  11
ATOM     11  C   UNL     1     -12.246  13.875 -32.726  1.00  0.00     0.079 C 
BRANCH  11  12
ATOM     12  C   UNL     1     -10.743  13.768 -32.775  1.00  0.00     0.130 C 
ATOM     13  O   UNL     1     -10.211  13.165 -33.696  1.00  0.00    -0.300 OA
ATOM     14  C   UNL     1      -9.883  14.393 -31.717  1.00  0.00     0.087 C 
ENDBRANCH  11  12
ENDBRANCH  10  11
ENDBRANCH   2  10
TORSDOF 6
ENDMDL
MODEL 7
REMARK VINA RESULT:    -4.204      2.346      6.411
REMARK INTER + INTRA:          -6.783
REMARK INTER:                  -6.166
REMARK INTRA:                  -0.617
REMARK UNBOUND:                -1.103
REMARK SMILES CC(=O)CCC=C(C)CCC=C(C)C
REMARK SMILES IDX 7 1 6 2 8 3 9 4 10 5 11 6 13 7 12 8 14 9 5 10 4 11 2 12 3 13
REMARK SMILES IDX 1 14
REMARK H PARENT
REMARK Flexibility Score: inf
ROOT
ATOM      1  C   UNL     1     -15.248  11.684 -31.225  1.00  0.00    -0.077 C 
ATOM      2  C   UNL     1     -15.669  10.682 -30.421  1.00  0.00    -0.028 C 
ATOM      3  C   UNL     1     -16.207  12.474 -32.085  1.00  0.00     0.039 C 
ENDROOT
BRANCH   1   4
ATOM      4  C   UNL     1     -13.772  12.011 -31.277  1.00  0.00     0.034 C 
BRANCH   4   5
ATOM      5  C   UNL     1     -13.519  13.230 -32.171  1.00  0.00     0.032 C 
BRANCH   5   6
ATOM      6  C   UNL     1     -12.267  13.956 -31.745  1.00  0.00    -0.028 C 
ATOM      7  C   UNL     1     -10.834  12.818 -33.454  1.00  0.00     0.039 C 
ATOM      8  C   UNL     1     -11.048  13.763 -32.295  1.00  0.00    -0.080 C 
ATOM      9  C   UNL     1      -9.878  14.532 -31.739  1.00  0.00     0.039 C 
ENDBRANCH   5   6
ENDBRANCH   4   5
ENDBRANCH   1   4
BRANCH   2  10
ATOM     10  C   UNL     1     -17.115  10.307 -30.204  1.00  0.00     0.035 C 
BRANCH  10  11
ATOM     11  C   UNL     1     -17.704  11.015 -28.977  1.00  0.00     0.079 C 
BRANCH  11  12
ATOM     12  C   UNL     1     -18.398  12.299 -29.357  1.00  0.00     0.130 C 
ATOM     13  O   UNL     1     -17.911  13.369 -29.023  1.00  0.00    -0.300 OA
ATOM     14  C   UNL     1     -19.675  12.289 -30.144  1.00  0.00     0.087 C 
ENDBRANCH  11  12
ENDBRANCH  10  11
ENDBRANCH   2  10
TORSDOF 6
ENDMDL
MODEL 8
REMARK VINA RESULT:    -4.171      2.735      5.699
REMARK INTER + INTRA:          -6.737
REMARK INTER:                  -5.577
REMARK INTRA:                  -1.160
REMARK UNBOUND:                -1.103
REMARK SMILES CC(=O)CCC=C(C)CCC=C(C)C
REMARK SMILES IDX 7 1 6 2 8 3 9 4 10 5 11 6 13 7 12 8 14 9 5 10 4 11 2 12 3 13
REMARK SMILES IDX 1 14
REMARK H PARENT
REMARK Flexibility Score: inf
ROOT
ATOM      1  C   UNL     1     -15.175  10.894 -29.339  1.00  0.00    -0.077 C 
ATOM      2  C   UNL     1     -16.190  10.317 -30.021  1.00  0.00    -0.028 C 
ATOM      3  C   UNL     1     -15.397  11.596 -28.020  1.00  0.00     0.039 C 
ENDROOT
BRANCH   1   4
ATOM      4  C   UNL     1     -13.780  10.847 -29.924  1.00  0.00     0.034 C 
BRANCH   4   5
ATOM      5  C   UNL     1     -13.709  11.663 -31.220  1.00  0.00     0.032 C 
BRANCH   5   6
ATOM      6  C   UNL     1     -13.668  13.141 -30.920  1.00  0.00    -0.028 C 
ATOM      7  C   UNL     1     -15.974  13.547 -31.809  1.00  0.00     0.039 C 
ATOM      8  C   UNL     1     -14.668  14.005 -31.202  1.00  0.00    -0.080 C 
ATOM      9  C   UNL     1     -14.470  15.464 -30.882  1.00  0.00     0.039 C 
ENDBRANCH   5   6
ENDBRANCH   4   5
ENDBRANCH   1   4
BRANCH   2  10
ATOM     10  C   UNL     1     -17.610  10.212 -29.518  1.00  0.00     0.035 C 
BRANCH  10  11
ATOM     11  C   UNL     1     -18.603  10.850 -30.498  1.00  0.00     0.079 C 
BRANCH  11  12
ATOM     12  C   UNL     1     -19.127  12.165 -29.978  1.00  0.00     0.130 C 
ATOM     13  O   UNL     1     -18.387  12.899 -29.339  1.00  0.00    -0.300 OA
ATOM     14  C   UNL     1     -20.541  12.595 -30.233  1.00  0.00     0.087 C 
ENDBRANCH  11  12
ENDBRANCH  10  11
ENDBRANCH   2  10
TORSDOF 6
ENDMDL
MODEL 9
REMARK VINA RESULT:    -4.103      2.550      5.525
REMARK INTER + INTRA:          -6.645
REMARK INTER:                  -5.734
REMARK INTRA:                  -0.911
REMARK UNBOUND:                -1.103
REMARK SMILES CC(=O)CCC=C(C)CCC=C(C)C
REMARK SMILES IDX 7 1 6 2 8 3 9 4 10 5 11 6 13 7 12 8 14 9 5 10 4 11 2 12 3 13
REMARK SMILES IDX 1 14
REMARK H PARENT
REMARK Flexibility Score: inf
ROOT
ATOM      1  C   UNL     1     -15.024  10.649 -28.932  1.00  0.00    -0.077 C 
ATOM      2  C   UNL     1     -16.032  10.030 -29.587  1.00  0.00    -0.028 C 
ATOM      3  C   UNL     1     -15.247  11.374 -27.626  1.00  0.00     0.039 C 
ENDROOT
BRANCH   1   4
ATOM      4  C   UNL     1     -13.637  10.627 -29.535  1.00  0.00     0.034 C 
BRANCH   4   5
ATOM      5  C   UNL     1     -13.621  11.360 -30.882  1.00  0.00     0.032 C 
BRANCH   5   6
ATOM      6  C   UNL     1     -14.249  12.726 -30.755  1.00  0.00    -0.028 C 
ATOM      7  C   UNL     1     -12.252  13.907 -31.698  1.00  0.00     0.039 C 
ATOM      8  C   UNL     1     -13.637  13.882 -31.094  1.00  0.00    -0.080 C 
ATOM      9  C   UNL     1     -14.375  15.177 -30.875  1.00  0.00     0.039 C 
ENDBRANCH   5   6
ENDBRANCH   4   5
ENDBRANCH   1   4
BRANCH   2  10
ATOM     10  C   UNL     1     -17.441   9.897 -29.061  1.00  0.00     0.035 C 
BRANCH  10  11
ATOM     11  C   UNL     1     -18.458  10.557 -30.002  1.00  0.00     0.079 C 
BRANCH  11  12
ATOM     12  C   UNL     1     -18.125  12.006 -30.251  1.00  0.00     0.130 C 
ATOM     13  O   UNL     1     -18.129  12.794 -29.318  1.00  0.00    -0.300 OA
ATOM     14  C   UNL     1     -17.781  12.500 -31.625  1.00  0.00     0.087 C 
ENDBRANCH  11  12
ENDBRANCH  10  11
ENDBRANCH   2  10
TORSDOF 6
ENDMDL
