MODEL 1
REMARK VINA RESULT:    -4.588      0.000      0.000
REMARK INTER + INTRA:          -7.235
REMARK INTER:                  -6.332
REMARK INTRA:                  -0.903
REMARK UNBOUND:                -0.903
REMARK SMILES CCCCc1cccc(O)c1CCCC
REMARK SMILES IDX 5 1 11 2 9 3 8 4 7 5 6 6 4 7 3 8 2 9 1 10 12 11 13 12 14 13
REMARK SMILES IDX 15 14 10 15
REMARK H PARENT 10 16
REMARK Flexibility Score: inf
ROOT
ATOM      1  C   UNL     1     127.894 145.425 106.805  1.00  0.00    -0.041 A 
ATOM      2  C   UNL     1     129.263 145.673 107.125  1.00  0.00    -0.003 A 
ATOM      3  C   UNL     1     129.614 145.918 108.482  1.00  0.00     0.119 A 
ATOM      4  C   UNL     1     128.643 145.834 109.482  1.00  0.00     0.046 A 
ATOM      5  C   UNL     1     127.320 145.552 109.166  1.00  0.00     0.004 A 
ATOM      6  C   UNL     1     126.946 145.360 107.841  1.00  0.00     0.004 A 
ENDROOT
BRANCH   1   7
ATOM      7  C   UNL     1     127.384 145.220 105.387  1.00  0.00     0.036 C 
BRANCH   7   8
ATOM      8  C   UNL     1     127.672 143.805 104.860  1.00  0.00     0.004 C 
BRANCH   8   9
ATOM      9  C   UNL     1     127.308 142.711 105.870  1.00  0.00    -0.003 C 
ATOM     10  C   UNL     1     128.488 141.774 106.114  1.00  0.00     0.004 C 
ENDBRANCH   8   9
ENDBRANCH   7   8
ENDBRANCH   1   7
BRANCH   2  11
ATOM     11  C   UNL     1     130.329 145.721 106.046  1.00  0.00     0.040 C 
BRANCH  11  12
ATOM     12  C   UNL     1     131.140 144.418 106.021  1.00  0.00     0.005 C 
BRANCH  12  13
ATOM     13  C   UNL     1     132.653 144.666 105.913  1.00  0.00    -0.003 C 
ATOM     14  C   UNL     1     133.007 146.152 105.904  1.00  0.00     0.004 C 
ENDBRANCH  12  13
ENDBRANCH  11  12
ENDBRANCH   2  11
BRANCH   3  15
ATOM     15  O   UNL     1     130.911 146.259 108.878  1.00  0.00    -0.508 OA
ATOM     16  H   UNL     1     131.749 145.829 108.512  1.00  0.00     0.293 HD
ENDBRANCH   3  15
TORSDOF 7
ENDMDL
MODEL 2
REMARK VINA RESULT:    -4.459      1.799      2.838
REMARK INTER + INTRA:          -7.056
REMARK INTER:                  -6.318
REMARK INTRA:                  -0.738
REMARK UNBOUND:                -0.903
REMARK SMILES CCCCc1cccc(O)c1CCCC
REMARK SMILES IDX 5 1 11 2 9 3 8 4 7 5 6 6 4 7 3 8 2 9 1 10 12 11 13 12 14 13
REMARK SMILES IDX 15 14 10 15
REMARK H PARENT 10 16
REMARK Flexibility Score: inf
ROOT
ATOM      1  C   UNL     1     130.539 145.667 107.104  1.00  0.00    -0.041 A 
ATOM      2  C   UNL     1     131.866 146.194 107.093  1.00  0.00    -0.003 A 
ATOM      3  C   UNL     1     132.529 146.402 108.335  1.00  0.00     0.119 A 
ATOM      4  C   UNL     1     131.916 146.018 109.529  1.00  0.00     0.046 A 
ATOM      5  C   UNL     1     130.640 145.469 109.527  1.00  0.00     0.004 A 
ATOM      6  C   UNL     1     129.953 145.304 108.329  1.00  0.00     0.004 A 
ENDROOT
BRANCH   1   7
ATOM      7  C   UNL     1     129.701 145.468 105.851  1.00  0.00     0.036 C 
BRANCH   7   8
ATOM      8  C   UNL     1     129.105 144.053 105.764  1.00  0.00     0.004 C 
BRANCH   8   9
ATOM      9  C   UNL     1     127.692 144.042 105.169  1.00  0.00    -0.003 C 
ATOM     10  C   UNL     1     127.163 145.462 104.984  1.00  0.00     0.004 C 
ENDBRANCH   8   9
ENDBRANCH   7   8
ENDBRANCH   1   7
BRANCH   2  11
ATOM     11  C   UNL     1     132.554 146.573 105.794  1.00  0.00     0.040 C 
BRANCH  11  12
ATOM     12  C   UNL     1     133.544 145.480 105.364  1.00  0.00     0.005 C 
BRANCH  12  13
ATOM     13  C   UNL     1     134.838 146.058 104.768  1.00  0.00    -0.003 C 
ATOM     14  C   UNL     1     135.984 146.100 105.779  1.00  0.00     0.004 C 
ENDBRANCH  12  13
ENDBRANCH  11  12
ENDBRANCH   2  11
BRANCH   3  15
ATOM     15  O   UNL     1     133.792 146.996 108.428  1.00  0.00    -0.508 OA
ATOM     16  H   UNL     1     134.572 146.599 108.933  1.00  0.00     0.293 HD
ENDBRANCH   3  15
TORSDOF 7
ENDMDL
MODEL 3
REMARK VINA RESULT:    -4.439      2.279      4.259
REMARK INTER + INTRA:          -7.030
REMARK INTER:                  -6.075
REMARK INTRA:                  -0.954
REMARK UNBOUND:                -0.903
REMARK SMILES CCCCc1cccc(O)c1CCCC
REMARK SMILES IDX 5 1 11 2 9 3 8 4 7 5 6 6 4 7 3 8 2 9 1 10 12 11 13 12 14 13
REMARK SMILES IDX 15 14 10 15
REMARK H PARENT 10 16
REMARK Flexibility Score: inf
ROOT
ATOM      1  C   UNL     1     127.432 144.248 107.706  1.00  0.00    -0.041 A 
ATOM      2  C   UNL     1     127.476 142.853 108.009  1.00  0.00    -0.003 A 
ATOM      3  C   UNL     1     127.780 142.453 109.340  1.00  0.00     0.119 A 
ATOM      4  C   UNL     1     127.950 143.414 110.339  1.00  0.00     0.046 A 
ATOM      5  C   UNL     1     127.866 144.769 110.042  1.00  0.00     0.004 A 
ATOM      6  C   UNL     1     127.621 145.183 108.738  1.00  0.00     0.004 A 
ENDROOT
BRANCH   1   7
ATOM      7  C   UNL     1     127.190 144.799 106.310  1.00  0.00     0.036 C 
BRANCH   7   8
ATOM      8  C   UNL     1     128.355 145.671 105.814  1.00  0.00     0.004 C 
BRANCH   8   9
ATOM      9  C   UNL     1     129.715 144.977 105.953  1.00  0.00    -0.003 C 
ATOM     10  C   UNL     1     130.790 145.962 106.405  1.00  0.00     0.004 C 
ENDBRANCH   8   9
ENDBRANCH   7   8
ENDBRANCH   1   7
BRANCH   2  11
ATOM     11  C   UNL     1     127.249 141.804 106.936  1.00  0.00     0.040 C 
BRANCH  11  12
ATOM     12  C   UNL     1     128.571 141.431 106.250  1.00  0.00     0.005 C 
BRANCH  12  13
ATOM     13  C   UNL     1     128.923 139.944 106.417  1.00  0.00    -0.003 C 
ATOM     14  C   UNL     1     127.794 139.017 105.968  1.00  0.00     0.004 C 
ENDBRANCH  12  13
ENDBRANCH  11  12
ENDBRANCH   2  11
BRANCH   3  15
ATOM     15  O   UNL     1     127.934 141.113 109.711  1.00  0.00    -0.508 OA
ATOM     16  H   UNL     1     128.415 140.421 109.153  1.00  0.00     0.293 HD
ENDBRANCH   3  15
TORSDOF 7
ENDMDL
MODEL 4
REMARK VINA RESULT:    -4.419      2.186      4.180
REMARK INTER + INTRA:          -7.001
REMARK INTER:                  -5.812
REMARK INTRA:                  -1.189
REMARK UNBOUND:                -0.903
REMARK SMILES CCCCc1cccc(O)c1CCCC
REMARK SMILES IDX 5 1 11 2 9 3 8 4 7 5 6 6 4 7 3 8 2 9 1 10 12 11 13 12 14 13
REMARK SMILES IDX 15 14 10 15
REMARK H PARENT 10 16
REMARK Flexibility Score: inf
ROOT
ATOM      1  C   UNL     1     127.453 143.571 107.072  1.00  0.00    -0.041 A 
ATOM      2  C   UNL     1     127.722 143.112 108.397  1.00  0.00    -0.003 A 
ATOM      3  C   UNL     1     127.745 141.711 108.644  1.00  0.00     0.119 A 
ATOM      4  C   UNL     1     127.587 140.812 107.587  1.00  0.00     0.046 A 
ATOM      5  C   UNL     1     127.365 141.267 106.294  1.00  0.00     0.004 A 
ATOM      6  C   UNL     1     127.288 142.631 106.039  1.00  0.00     0.004 A 
ENDROOT
BRANCH   1   7
ATOM      7  C   UNL     1     127.331 145.039 106.697  1.00  0.00     0.036 C 
BRANCH   7   8
ATOM      8  C   UNL     1     128.436 145.489 105.727  1.00  0.00     0.004 C 
BRANCH   8   9
ATOM      9  C   UNL     1     129.826 144.991 106.141  1.00  0.00    -0.003 C 
ATOM     10  C   UNL     1     130.843 146.128 106.128  1.00  0.00     0.004 C 
ENDBRANCH   8   9
ENDBRANCH   7   8
ENDBRANCH   1   7
BRANCH   2  11
ATOM     11  C   UNL     1     127.938 144.087 109.540  1.00  0.00     0.040 C 
BRANCH  11  12
ATOM     12  C   UNL     1     129.436 144.315 109.786  1.00  0.00     0.005 C 
BRANCH  12  13
ATOM     13  C   UNL     1     129.805 145.806 109.839  1.00  0.00    -0.003 C 
ATOM     14  C   UNL     1     131.315 146.038 109.881  1.00  0.00     0.004 C 
ENDBRANCH  12  13
ENDBRANCH  11  12
ENDBRANCH   2  11
BRANCH   3  15
ATOM     15  O   UNL     1     127.910 141.171 109.923  1.00  0.00    -0.508 OA
ATOM     16  H   UNL     1     127.197 140.651 110.417  1.00  0.00     0.293 HD
ENDBRANCH   3  15
TORSDOF 7
ENDMDL
MODEL 5
REMARK VINA RESULT:    -4.341      1.919      4.639
REMARK INTER + INTRA:          -6.893
REMARK INTER:                  -5.766
REMARK INTRA:                  -1.127
REMARK UNBOUND:                -0.903
REMARK SMILES CCCCc1cccc(O)c1CCCC
REMARK SMILES IDX 5 1 11 2 9 3 8 4 7 5 6 6 4 7 3 8 2 9 1 10 12 11 13 12 14 13
REMARK SMILES IDX 15 14 10 15
REMARK H PARENT 10 16
REMARK Flexibility Score: inf
ROOT
ATOM      1  C   UNL     1     128.620 144.779 105.904  1.00  0.00    -0.041 A 
ATOM      2  C   UNL     1     128.879 143.375 105.852  1.00  0.00    -0.003 A 
ATOM      3  C   UNL     1     130.230 142.930 105.838  1.00  0.00     0.119 A 
ATOM      4  C   UNL     1     131.272 143.851 105.956  1.00  0.00     0.046 A 
ATOM      5  C   UNL     1     131.011 145.212 106.045  1.00  0.00     0.004 A 
ATOM      6  C   UNL     1     129.699 145.674 106.009  1.00  0.00     0.004 A 
ENDROOT
BRANCH   1   7
ATOM      7  C   UNL     1     127.225 145.381 105.852  1.00  0.00     0.036 C 
BRANCH   7   8
ATOM      8  C   UNL     1     126.890 146.192 107.115  1.00  0.00     0.004 C 
BRANCH   8   9
ATOM      9  C   UNL     1     127.000 145.360 108.399  1.00  0.00    -0.003 C 
ATOM     10  C   UNL     1     128.118 145.882 109.297  1.00  0.00     0.004 C 
ENDBRANCH   8   9
ENDBRANCH   7   8
ENDBRANCH   1   7
BRANCH   2  11
ATOM     11  C   UNL     1     127.747 142.368 105.769  1.00  0.00     0.040 C 
BRANCH  11  12
ATOM     12  C   UNL     1     127.320 141.911 107.172  1.00  0.00     0.005 C 
BRANCH  12  13
ATOM     13  C   UNL     1     127.751 140.469 107.480  1.00  0.00    -0.003 C 
ATOM     14  C   UNL     1     127.739 139.573 106.241  1.00  0.00     0.004 C 
ENDBRANCH  12  13
ENDBRANCH  11  12
ENDBRANCH   2  11
BRANCH   3  15
ATOM     15  O   UNL     1     130.580 141.583 105.698  1.00  0.00    -0.508 OA
ATOM     16  H   UNL     1     130.438 140.881 106.412  1.00  0.00     0.293 HD
ENDBRANCH   3  15
TORSDOF 7
ENDMDL
MODEL 6
REMARK VINA RESULT:    -4.320      2.600      4.475
REMARK INTER + INTRA:          -6.865
REMARK INTER:                  -5.386
REMARK INTRA:                  -1.478
REMARK UNBOUND:                -0.903
REMARK SMILES CCCCc1cccc(O)c1CCCC
REMARK SMILES IDX 5 1 11 2 9 3 8 4 7 5 6 6 4 7 3 8 2 9 1 10 12 11 13 12 14 13
REMARK SMILES IDX 15 14 10 15
REMARK H PARENT 10 16
REMARK Flexibility Score: inf
ROOT
ATOM      1  C   UNL     1     128.799 143.887 108.690  1.00  0.00    -0.041 A 
ATOM      2  C   UNL     1     127.870 143.081 107.964  1.00  0.00    -0.003 A 
ATOM      3  C   UNL     1     127.777 141.697 108.277  1.00  0.00     0.119 A 
ATOM      4  C   UNL     1     128.524 141.164 109.330  1.00  0.00     0.046 A 
ATOM      5  C   UNL     1     129.396 141.965 110.057  1.00  0.00     0.004 A 
ATOM      6  C   UNL     1     129.542 143.309 109.735  1.00  0.00     0.004 A 
ENDROOT
BRANCH   1   7
ATOM      7  C   UNL     1     129.043 145.359 108.400  1.00  0.00     0.036 C 
BRANCH   7   8
ATOM      8  C   UNL     1     130.494 145.640 107.974  1.00  0.00     0.004 C 
BRANCH   8   9
ATOM      9  C   UNL     1     130.673 145.644 106.451  1.00  0.00    -0.003 C 
ATOM     10  C   UNL     1     131.371 144.372 105.978  1.00  0.00     0.004 C 
ENDBRANCH   8   9
ENDBRANCH   7   8
ENDBRANCH   1   7
BRANCH   2  11
ATOM     11  C   UNL     1     127.024 143.664 106.847  1.00  0.00     0.040 C 
BRANCH  11  12
ATOM     12  C   UNL     1     127.736 143.526 105.494  1.00  0.00     0.005 C 
BRANCH  12  13
ATOM     13  C   UNL     1     127.615 144.791 104.631  1.00  0.00    -0.003 C 
ATOM     14  C   UNL     1     126.877 145.923 105.345  1.00  0.00     0.004 C 
ENDBRANCH  12  13
ENDBRANCH  11  12
ENDBRANCH   2  11
BRANCH   3  15
ATOM     15  O   UNL     1     126.963 140.813 107.561  1.00  0.00    -0.508 OA
ATOM     16  H   UNL     1     126.232 140.251 107.974  1.00  0.00     0.293 HD
ENDBRANCH   3  15
TORSDOF 7
ENDMDL
MODEL 7
REMARK VINA RESULT:    -4.297      1.654      3.650
REMARK INTER + INTRA:          -6.833
REMARK INTER:                  -5.391
REMARK INTRA:                  -1.442
REMARK UNBOUND:                -0.903
REMARK SMILES CCCCc1cccc(O)c1CCCC
REMARK SMILES IDX 5 1 11 2 9 3 8 4 7 5 6 6 4 7 3 8 2 9 1 10 12 11 13 12 14 13
REMARK SMILES IDX 15 14 10 15
REMARK H PARENT 10 16
REMARK Flexibility Score: inf
ROOT
ATOM      1  C   UNL     1     129.918 145.551 107.998  1.00  0.00    -0.041 A 
ATOM      2  C   UNL     1     128.556 145.322 108.362  1.00  0.00    -0.003 A 
ATOM      3  C   UNL     1     128.245 145.095 109.731  1.00  0.00     0.119 A 
ATOM      4  C   UNL     1     129.246 145.178 110.701  1.00  0.00     0.046 A 
ATOM      5  C   UNL     1     130.562 145.441 110.342  1.00  0.00     0.004 A 
ATOM      6  C   UNL     1     130.898 145.615 109.004  1.00  0.00     0.004 A 
ENDROOT
BRANCH   1   7
ATOM      7  C   UNL     1     130.387 145.735 106.563  1.00  0.00     0.036 C 
BRANCH   7   8
ATOM      8  C   UNL     1     131.489 144.735 106.175  1.00  0.00     0.004 C 
BRANCH   8   9
ATOM      9  C   UNL     1     130.928 143.436 105.585  1.00  0.00    -0.003 C 
ATOM     10  C   UNL     1     130.896 142.326 106.632  1.00  0.00     0.004 C 
ENDBRANCH   8   9
ENDBRANCH   7   8
ENDBRANCH   1   7
BRANCH   2  11
ATOM     11  C   UNL     1     127.458 145.275 107.316  1.00  0.00     0.040 C 
BRANCH  11  12
ATOM     12  C   UNL     1     127.306 143.856 106.749  1.00  0.00     0.005 C 
BRANCH  12  13
ATOM     13  C   UNL     1     127.400 143.821 105.215  1.00  0.00    -0.003 C 
ATOM     14  C   UNL     1     127.320 145.212 104.588  1.00  0.00     0.004 C 
ENDBRANCH  12  13
ENDBRANCH  11  12
ENDBRANCH   2  11
BRANCH   3  15
ATOM     15  O   UNL     1     126.956 144.773 110.170  1.00  0.00    -0.508 OA
ATOM     16  H   UNL     1     126.418 143.990 109.826  1.00  0.00     0.293 HD
ENDBRANCH   3  15
TORSDOF 7
ENDMDL
MODEL 8
REMARK VINA RESULT:    -4.292     12.033     14.620
REMARK INTER + INTRA:          -6.827
REMARK INTER:                  -5.950
REMARK INTRA:                  -0.876
REMARK UNBOUND:                -0.903
REMARK SMILES CCCCc1cccc(O)c1CCCC
REMARK SMILES IDX 5 1 11 2 9 3 8 4 7 5 6 6 4 7 3 8 2 9 1 10 12 11 13 12 14 13
REMARK SMILES IDX 15 14 10 15
REMARK H PARENT 10 16
REMARK Flexibility Score: inf
ROOT
ATOM      1  C   UNL     1     143.391 145.630 107.267  1.00  0.00    -0.041 A 
ATOM      2  C   UNL     1     144.299 144.532 107.176  1.00  0.00    -0.003 A 
ATOM      3  C   UNL     1     144.779 143.941 108.378  1.00  0.00     0.119 A 
ATOM      4  C   UNL     1     144.302 144.382 109.614  1.00  0.00     0.046 A 
ATOM      5  C   UNL     1     143.388 145.425 109.691  1.00  0.00     0.004 A 
ATOM      6  C   UNL     1     142.945 146.051 108.532  1.00  0.00     0.004 A 
ENDROOT
BRANCH   1   7
ATOM      7  C   UNL     1     142.865 146.390 106.060  1.00  0.00     0.036 C 
BRANCH   7   8
ATOM      8  C   UNL     1     141.414 146.861 106.252  1.00  0.00     0.004 C 
BRANCH   8   9
ATOM      9  C   UNL     1     140.432 146.153 105.310  1.00  0.00    -0.003 C 
ATOM     10  C   UNL     1     140.704 144.652 105.262  1.00  0.00     0.004 C 
ENDBRANCH   8   9
ENDBRANCH   7   8
ENDBRANCH   1   7
BRANCH   2  11
ATOM     11  C   UNL     1     144.787 144.020 105.833  1.00  0.00     0.040 C 
BRANCH  11  12
ATOM     12  C   UNL     1     144.012 142.762 105.415  1.00  0.00     0.005 C 
BRANCH  12  13
ATOM     13  C   UNL     1     144.913 141.708 104.751  1.00  0.00    -0.003 C 
ATOM     14  C   UNL     1     145.460 140.688 105.749  1.00  0.00     0.004 C 
ENDBRANCH  12  13
ENDBRANCH  11  12
ENDBRANCH   2  11
BRANCH   3  15
ATOM     15  O   UNL     1     145.738 142.923 108.390  1.00  0.00    -0.508 OA
ATOM     16  H   UNL     1     145.643 142.058 108.905  1.00  0.00     0.293 HD
ENDBRANCH   3  15
TORSDOF 7
ENDMDL
MODEL 9
REMARK VINA RESULT:    -4.247      1.411      3.778
REMARK INTER + INTRA:          -6.765
REMARK INTER:                  -5.655
REMARK INTRA:                  -1.110
REMARK UNBOUND:                -0.903
REMARK SMILES CCCCc1cccc(O)c1CCCC
REMARK SMILES IDX 5 1 11 2 9 3 8 4 7 5 6 6 4 7 3 8 2 9 1 10 12 11 13 12 14 13
REMARK SMILES IDX 15 14 10 15
REMARK H PARENT 10 16
REMARK Flexibility Score: inf
ROOT
ATOM      1  C   UNL     1     129.012 145.543 106.743  1.00  0.00    -0.041 A 
ATOM      2  C   UNL     1     129.205 145.526 108.158  1.00  0.00    -0.003 A 
ATOM      3  C   UNL     1     130.528 145.635 108.668  1.00  0.00     0.119 A 
ATOM      4  C   UNL     1     131.601 145.836 107.796  1.00  0.00     0.046 A 
ATOM      5  C   UNL     1     131.399 145.890 106.423  1.00  0.00     0.004 A 
ATOM      6  C   UNL     1     130.120 145.734 105.899  1.00  0.00     0.004 A 
ENDROOT
BRANCH   1   7
ATOM      7  C   UNL     1     127.658 145.363 106.075  1.00  0.00     0.036 C 
BRANCH   7   8
ATOM      8  C   UNL     1     127.629 144.153 105.127  1.00  0.00     0.004 C 
BRANCH   8   9
ATOM      9  C   UNL     1     127.368 142.832 105.861  1.00  0.00    -0.003 C 
ATOM     10  C   UNL     1     128.661 142.043 106.048  1.00  0.00     0.004 C 
ENDBRANCH   8   9
ENDBRANCH   7   8
ENDBRANCH   1   7
BRANCH   2  11
ATOM     11  C   UNL     1     128.037 145.353 109.111  1.00  0.00     0.040 C 
BRANCH  11  12
ATOM     12  C   UNL     1     127.797 143.867 109.415  1.00  0.00     0.005 C 
BRANCH  12  13
ATOM     13  C   UNL     1     128.000 143.528 110.900  1.00  0.00    -0.003 C 
ATOM     14  C   UNL     1     127.142 144.392 111.824  1.00  0.00     0.004 C 
ENDBRANCH  12  13
ENDBRANCH  11  12
ENDBRANCH   2  11
BRANCH   3  15
ATOM     15  O   UNL     1     130.824 145.538 110.032  1.00  0.00    -0.508 OA
ATOM     16  H   UNL     1     130.196 145.823 110.771  1.00  0.00     0.293 HD
ENDBRANCH   3  15
TORSDOF 7
ENDMDL
