MODEL 1
REMARK VINA RESULT:    -4.022      0.000      0.000
REMARK INTER + INTRA:         -10.156
REMARK INTER:                  -7.548
REMARK INTRA:                  -2.608
REMARK UNBOUND:                -2.608
REMARK SMILES O=C([O-])CCCCCCCCCCCCCCC(=O)[O-]
REMARK SMILES IDX 10 1 9 2 8 3 7 4 6 5 5 6 4 7 2 8 1 9 3 10 11 11 12 12 13 13
REMARK SMILES IDX 14 14 15 15 16 16 17 17 18 18 19 19 20 20
REMARK H PARENT
REMARK Flexibility Score: inf
ROOT
ATOM      1  C   UNL     1       6.490 -17.053  23.946  1.00  0.00     0.000 C 
ENDROOT
BRANCH   1   2
ATOM      2  C   UNL     1       6.399 -18.565  23.699  1.00  0.00     0.000 C 
BRANCH   2   3
ATOM      3  C   UNL     1       7.233 -19.342  24.726  1.00  0.00     0.000 C 
BRANCH   3   4
ATOM      4  C   UNL     1       7.907 -18.388  25.723  1.00  0.00     0.000 C 
BRANCH   4   5
ATOM      5  C   UNL     1       9.440 -18.409  25.622  1.00  0.00     0.000 C 
BRANCH   5   6
ATOM      6  C   UNL     1      10.082 -17.092  26.083  1.00  0.00     0.006 C 
BRANCH   6   7
ATOM      7  C   UNL     1      10.857 -16.431  24.939  1.00  0.00     0.053 C 
BRANCH   7   8
ATOM      8  C   UNL     1      10.112 -15.243  24.416  1.00  0.00     0.041 C 
ATOM      9  O   UNL     1      10.480 -14.684  23.350  1.00  0.00    -0.550 OA
ATOM     10  O   UNL     1       8.982 -14.782  25.081  1.00  0.00    -0.550 OA
ENDBRANCH   7   8
ENDBRANCH   6   7
ENDBRANCH   5   6
ENDBRANCH   4   5
ENDBRANCH   3   4
ENDBRANCH   2   3
ENDBRANCH   1   2
BRANCH   1  11
ATOM     11  C   UNL     1       6.936 -16.276  22.697  1.00  0.00     0.000 C 
BRANCH  11  12
ATOM     12  C   UNL     1       7.426 -17.197  21.570  1.00  0.00     0.000 C 
BRANCH  12  13
ATOM     13  C   UNL     1       8.812 -16.767  21.073  1.00  0.00     0.000 C 
BRANCH  13  14
ATOM     14  C   UNL     1       9.689 -17.986  20.764  1.00  0.00     0.000 C 
BRANCH  14  15
ATOM     15  C   UNL     1      10.227 -18.619  22.053  1.00  0.00     0.000 C 
BRANCH  15  16
ATOM     16  C   UNL     1       9.731 -20.062  22.206  1.00  0.00     0.006 C 
BRANCH  16  17
ATOM     17  C   UNL     1       9.209 -20.608  20.874  1.00  0.00     0.053 C 
BRANCH  17  18
ATOM     18  C   UNL     1       7.974 -21.423  21.091  1.00  0.00     0.041 C 
ATOM     19  O   UNL     1       6.857 -20.859  21.229  1.00  0.00    -0.550 OA
ATOM     20  O   UNL     1       8.049 -22.811  21.095  1.00  0.00    -0.550 OA
ENDBRANCH  17  18
ENDBRANCH  16  17
ENDBRANCH  15  16
ENDBRANCH  14  15
ENDBRANCH  13  14
ENDBRANCH  12  13
ENDBRANCH  11  12
ENDBRANCH   1  11
TORSDOF 15
ENDMDL
MODEL 2
REMARK VINA RESULT:    -3.932      1.410      3.232
REMARK INTER + INTRA:          -9.988
REMARK INTER:                  -7.584
REMARK INTRA:                  -2.403
REMARK UNBOUND:                -2.608
REMARK SMILES O=C([O-])CCCCCCCCCCCCCCC(=O)[O-]
REMARK SMILES IDX 10 1 9 2 8 3 7 4 6 5 5 6 4 7 2 8 1 9 3 10 11 11 12 12 13 13
REMARK SMILES IDX 14 14 15 15 16 16 17 17 18 18 19 19 20 20
REMARK H PARENT
REMARK Flexibility Score: inf
ROOT
ATOM      1  C   UNL     1       7.073 -15.577  22.939  1.00  0.00     0.000 C 
ENDROOT
BRANCH   1   2
ATOM      2  C   UNL     1       6.912 -15.564  21.413  1.00  0.00     0.000 C 
BRANCH   2   3
ATOM      3  C   UNL     1       7.286 -16.923  20.808  1.00  0.00     0.000 C 
BRANCH   3   4
ATOM      4  C   UNL     1       8.709 -16.896  20.231  1.00  0.00     0.000 C 
BRANCH   4   5
ATOM      5  C   UNL     1       9.740 -17.547  21.166  1.00  0.00     0.000 C 
BRANCH   5   6
ATOM      6  C   UNL     1      10.585 -16.514  21.927  1.00  0.00     0.006 C 
BRANCH   6   7
ATOM      7  C   UNL     1      10.888 -16.995  23.348  1.00  0.00     0.053 C 
BRANCH   7   8
ATOM      8  C   UNL     1      10.558 -15.931  24.346  1.00  0.00     0.041 C 
ATOM      9  O   UNL     1      10.292 -14.762  23.960  1.00  0.00    -0.550 OA
ATOM     10  O   UNL     1      10.497 -16.240  25.700  1.00  0.00    -0.550 OA
ENDBRANCH   7   8
ENDBRANCH   6   7
ENDBRANCH   5   6
ENDBRANCH   4   5
ENDBRANCH   3   4
ENDBRANCH   2   3
ENDBRANCH   1   2
BRANCH   1  11
ATOM     11  C   UNL     1       6.261 -16.696  23.610  1.00  0.00     0.000 C 
BRANCH  11  12
ATOM     12  C   UNL     1       6.925 -17.222  24.891  1.00  0.00     0.000 C 
BRANCH  12  13
ATOM     13  C   UNL     1       7.823 -18.428  24.588  1.00  0.00     0.000 C 
BRANCH  13  14
ATOM     14  C   UNL     1       7.040 -19.529  23.862  1.00  0.00     0.000 C 
BRANCH  14  15
ATOM     15  C   UNL     1       7.867 -20.134  22.723  1.00  0.00     0.000 C 
BRANCH  15  16
ATOM     16  C   UNL     1       6.970 -20.548  21.550  1.00  0.00     0.006 C 
BRANCH  16  17
ATOM     17  C   UNL     1       7.411 -21.895  20.969  1.00  0.00     0.053 C 
BRANCH  17  18
ATOM     18  C   UNL     1       8.664 -21.733  20.167  1.00  0.00     0.041 C 
ATOM     19  O   UNL     1       9.747 -22.227  20.576  1.00  0.00    -0.550 OA
ATOM     20  O   UNL     1       8.625 -21.076  18.943  1.00  0.00    -0.550 OA
ENDBRANCH  17  18
ENDBRANCH  16  17
ENDBRANCH  15  16
ENDBRANCH  14  15
ENDBRANCH  13  14
ENDBRANCH  12  13
ENDBRANCH  11  12
ENDBRANCH   1  11
TORSDOF 15
ENDMDL
MODEL 3
REMARK VINA RESULT:    -3.899      2.254      3.443
REMARK INTER + INTRA:          -9.925
REMARK INTER:                  -7.551
REMARK INTRA:                  -2.374
REMARK UNBOUND:                -2.608
REMARK SMILES O=C([O-])CCCCCCCCCCCCCCC(=O)[O-]
REMARK SMILES IDX 10 1 9 2 8 3 7 4 6 5 5 6 4 7 2 8 1 9 3 10 11 11 12 12 13 13
REMARK SMILES IDX 14 14 15 15 16 16 17 17 18 18 19 19 20 20
REMARK H PARENT
REMARK Flexibility Score: inf
ROOT
ATOM      1  C   UNL     1       7.299 -16.464  22.098  1.00  0.00     0.000 C 
ENDROOT
BRANCH   1   2
ATOM      2  C   UNL     1       8.770 -16.086  22.320  1.00  0.00     0.000 C 
BRANCH   2   3
ATOM      3  C   UNL     1       8.902 -14.984  23.378  1.00  0.00     0.000 C 
BRANCH   3   4
ATOM      4  C   UNL     1      10.146 -15.205  24.252  1.00  0.00     0.000 C 
BRANCH   4   5
ATOM      5  C   UNL     1       9.833 -15.974  25.546  1.00  0.00     0.000 C 
BRANCH   5   6
ATOM      6  C   UNL     1      10.820 -17.121  25.806  1.00  0.00     0.006 C 
BRANCH   6   7
ATOM      7  C   UNL     1      11.082 -17.918  24.524  1.00  0.00     0.053 C 
BRANCH   7   8
ATOM      8  C   UNL     1      12.232 -18.856  24.714  1.00  0.00     0.041 C 
ATOM      9  O   UNL     1      12.442 -19.777  23.880  1.00  0.00    -0.550 OA
ATOM     10  O   UNL     1      13.099 -18.687  25.786  1.00  0.00    -0.550 OA
ENDBRANCH   7   8
ENDBRANCH   6   7
ENDBRANCH   5   6
ENDBRANCH   4   5
ENDBRANCH   3   4
ENDBRANCH   2   3
ENDBRANCH   1   2
BRANCH   1  11
ATOM     11  C   UNL     1       6.424 -16.182  23.330  1.00  0.00     0.000 C 
BRANCH  11  12
ATOM     12  C   UNL     1       5.911 -17.467  23.998  1.00  0.00     0.000 C 
BRANCH  12  13
ATOM     13  C   UNL     1       6.733 -17.802  25.248  1.00  0.00     0.000 C 
BRANCH  13  14
ATOM     14  C   UNL     1       7.604 -19.043  25.018  1.00  0.00     0.000 C 
BRANCH  14  15
ATOM     15  C   UNL     1       7.108 -19.848  23.812  1.00  0.00     0.000 C 
BRANCH  15  16
ATOM     16  C   UNL     1       8.207 -19.989  22.753  1.00  0.00     0.006 C 
BRANCH  16  17
ATOM     17  C   UNL     1       7.620 -20.412  21.403  1.00  0.00     0.053 C 
BRANCH  17  18
ATOM     18  C   UNL     1       8.601 -21.251  20.646  1.00  0.00     0.041 C 
ATOM     19  O   UNL     1       9.694 -21.583  21.176  1.00  0.00    -0.550 OA
ATOM     20  O   UNL     1       8.288 -21.706  19.371  1.00  0.00    -0.550 OA
ENDBRANCH  17  18
ENDBRANCH  16  17
ENDBRANCH  15  16
ENDBRANCH  14  15
ENDBRANCH  13  14
ENDBRANCH  12  13
ENDBRANCH  11  12
ENDBRANCH   1  11
TORSDOF 15
ENDMDL
MODEL 4
REMARK VINA RESULT:    -3.886      1.357      3.128
REMARK INTER + INTRA:          -9.902
REMARK INTER:                  -7.350
REMARK INTRA:                  -2.551
REMARK UNBOUND:                -2.608
REMARK SMILES O=C([O-])CCCCCCCCCCCCCCC(=O)[O-]
REMARK SMILES IDX 10 1 9 2 8 3 7 4 6 5 5 6 4 7 2 8 1 9 3 10 11 11 12 12 13 13
REMARK SMILES IDX 14 14 15 15 16 16 17 17 18 18 19 19 20 20
REMARK H PARENT
REMARK Flexibility Score: inf
ROOT
ATOM      1  C   UNL     1       7.883 -16.822  21.443  1.00  0.00     0.000 C 
ENDROOT
BRANCH   1   2
ATOM      2  C   UNL     1       9.383 -16.697  21.142  1.00  0.00     0.000 C 
BRANCH   2   3
ATOM      3  C   UNL     1      10.007 -18.073  20.878  1.00  0.00     0.000 C 
BRANCH   3   4
ATOM      4  C   UNL     1      11.192 -18.330  21.821  1.00  0.00     0.000 C 
BRANCH   4   5
ATOM      5  C   UNL     1      10.764 -18.453  23.291  1.00  0.00     0.000 C 
BRANCH   5   6
ATOM      6  C   UNL     1      11.619 -17.589  24.230  1.00  0.00     0.006 C 
BRANCH   6   7
ATOM      7  C   UNL     1      10.957 -16.231  24.479  1.00  0.00     0.053 C 
BRANCH   7   8
ATOM      8  C   UNL     1      10.072 -16.290  25.684  1.00  0.00     0.041 C 
ATOM      9  O   UNL     1      10.255 -17.175  26.561  1.00  0.00    -0.550 OA
ATOM     10  O   UNL     1       9.076 -15.339  25.864  1.00  0.00    -0.550 OA
ENDBRANCH   7   8
ENDBRANCH   6   7
ENDBRANCH   5   6
ENDBRANCH   4   5
ENDBRANCH   3   4
ENDBRANCH   2   3
ENDBRANCH   1   2
BRANCH   1  11
ATOM     11  C   UNL     1       7.507 -16.258  22.823  1.00  0.00     0.000 C 
BRANCH  11  12
ATOM     12  C   UNL     1       6.519 -17.157  23.580  1.00  0.00     0.000 C 
BRANCH  12  13
ATOM     13  C   UNL     1       7.259 -18.125  24.511  1.00  0.00     0.000 C 
BRANCH  13  14
ATOM     14  C   UNL     1       7.191 -19.561  23.978  1.00  0.00     0.000 C 
BRANCH  14  15
ATOM     15  C   UNL     1       6.041 -19.724  22.978  1.00  0.00     0.000 C 
BRANCH  15  16
ATOM     16  C   UNL     1       6.492 -20.517  21.745  1.00  0.00     0.006 C 
BRANCH  16  17
ATOM     17  C   UNL     1       8.003 -20.770  21.777  1.00  0.00     0.053 C 
BRANCH  17  18
ATOM     18  C   UNL     1       8.369 -21.865  20.826  1.00  0.00     0.041 C 
ATOM     19  O   UNL     1       8.135 -23.067  21.121  1.00  0.00    -0.550 OA
ATOM     20  O   UNL     1       8.928 -21.556  19.591  1.00  0.00    -0.550 OA
ENDBRANCH  17  18
ENDBRANCH  16  17
ENDBRANCH  15  16
ENDBRANCH  14  15
ENDBRANCH  13  14
ENDBRANCH  12  13
ENDBRANCH  11  12
ENDBRANCH   1  11
TORSDOF 15
ENDMDL
MODEL 5
REMARK VINA RESULT:    -3.871      2.920      4.387
REMARK INTER + INTRA:          -9.873
REMARK INTER:                  -7.309
REMARK INTRA:                  -2.564
REMARK UNBOUND:                -2.608
REMARK SMILES O=C([O-])CCCCCCCCCCCCCCC(=O)[O-]
REMARK SMILES IDX 10 1 9 2 8 3 7 4 6 5 5 6 4 7 2 8 1 9 3 10 11 11 12 12 13 13
REMARK SMILES IDX 14 14 15 15 16 16 17 17 18 18 19 19 20 20
REMARK H PARENT
REMARK Flexibility Score: inf
ROOT
ATOM      1  C   UNL     1       6.996 -20.426  21.416  1.00  0.00     0.000 C 
ENDROOT
BRANCH   1   2
ATOM      2  C   UNL     1       6.803 -20.129  22.910  1.00  0.00     0.000 C 
BRANCH   2   3
ATOM      3  C   UNL     1       6.888 -18.623  23.188  1.00  0.00     0.000 C 
BRANCH   3   4
ATOM      4  C   UNL     1       7.100 -17.835  21.887  1.00  0.00     0.000 C 
BRANCH   4   5
ATOM      5  C   UNL     1       7.714 -16.447  22.128  1.00  0.00     0.000 C 
BRANCH   5   6
ATOM      6  C   UNL     1       7.373 -15.882  23.515  1.00  0.00     0.006 C 
BRANCH   6   7
ATOM      7  C   UNL     1       8.588 -15.185  24.135  1.00  0.00     0.053 C 
BRANCH   7   8
ATOM      8  C   UNL     1       8.868 -15.731  25.499  1.00  0.00     0.041 C 
ATOM      9  O   UNL     1       7.919 -15.975  26.290  1.00  0.00    -0.550 OA
ATOM     10  O   UNL     1      10.173 -16.015  25.881  1.00  0.00    -0.550 OA
ENDBRANCH   7   8
ENDBRANCH   6   7
ENDBRANCH   5   6
ENDBRANCH   4   5
ENDBRANCH   3   4
ENDBRANCH   2   3
ENDBRANCH   1   2
BRANCH   1  11
ATOM     11  C   UNL     1       7.688 -21.775  21.165  1.00  0.00     0.000 C 
BRANCH  11  12
ATOM     12  C   UNL     1       9.201 -21.631  20.944  1.00  0.00     0.000 C 
BRANCH  12  13
ATOM     13  C   UNL     1       9.553 -20.219  20.461  1.00  0.00     0.000 C 
BRANCH  13  14
ATOM     14  C   UNL     1      10.733 -19.644  21.255  1.00  0.00     0.000 C 
BRANCH  14  15
ATOM     15  C   UNL     1      10.431 -19.630  22.757  1.00  0.00     0.000 C 
BRANCH  15  16
ATOM     16  C   UNL     1      10.977 -18.359  23.417  1.00  0.00     0.006 C 
BRANCH  16  17
ATOM     17  C   UNL     1      11.200 -17.254  22.380  1.00  0.00     0.053 C 
BRANCH  17  18
ATOM     18  C   UNL     1      12.219 -16.274  22.871  1.00  0.00     0.041 C 
ATOM     19  O   UNL     1      11.900 -15.073  23.070  1.00  0.00    -0.550 OA
ATOM     20  O   UNL     1      13.512 -16.699  23.153  1.00  0.00    -0.550 OA
ENDBRANCH  17  18
ENDBRANCH  16  17
ENDBRANCH  15  16
ENDBRANCH  14  15
ENDBRANCH  13  14
ENDBRANCH  12  13
ENDBRANCH  11  12
ENDBRANCH   1  11
TORSDOF 15
ENDMDL
MODEL 6
REMARK VINA RESULT:    -3.851      2.829      4.033
REMARK INTER + INTRA:          -9.836
REMARK INTER:                  -7.667
REMARK INTRA:                  -2.169
REMARK UNBOUND:                -2.608
REMARK SMILES O=C([O-])CCCCCCCCCCCCCCC(=O)[O-]
REMARK SMILES IDX 10 1 9 2 8 3 7 4 6 5 5 6 4 7 2 8 1 9 3 10 11 11 12 12 13 13
REMARK SMILES IDX 14 14 15 15 16 16 17 17 18 18 19 19 20 20
REMARK H PARENT
REMARK Flexibility Score: inf
ROOT
ATOM      1  C   UNL     1       7.723 -14.379  23.441  1.00  0.00     0.000 C 
ENDROOT
BRANCH   1   2
ATOM      2  C   UNL     1       8.827 -14.836  24.405  1.00  0.00     0.000 C 
BRANCH   2   3
ATOM      3  C   UNL     1      10.164 -15.003  23.672  1.00  0.00     0.000 C 
BRANCH   3   4
ATOM      4  C   UNL     1      10.995 -16.135  24.294  1.00  0.00     0.000 C 
BRANCH   4   5
ATOM      5  C   UNL     1      10.432 -16.614  25.641  1.00  0.00     0.000 C 
BRANCH   5   6
ATOM      6  C   UNL     1      10.786 -18.078  25.944  1.00  0.00     0.006 C 
BRANCH   6   7
ATOM      7  C   UNL     1      11.430 -18.747  24.726  1.00  0.00     0.053 C 
BRANCH   7   8
ATOM      8  C   UNL     1      12.799 -19.247  25.063  1.00  0.00     0.041 C 
ATOM      9  O   UNL     1      13.361 -20.099  24.326  1.00  0.00    -0.550 OA
ATOM     10  O   UNL     1      13.474 -18.737  26.165  1.00  0.00    -0.550 OA
ENDBRANCH   7   8
ENDBRANCH   6   7
ENDBRANCH   5   6
ENDBRANCH   4   5
ENDBRANCH   3   4
ENDBRANCH   2   3
ENDBRANCH   1   2
BRANCH   1  11
ATOM     11  C   UNL     1       6.941 -15.556  22.836  1.00  0.00     0.000 C 
BRANCH  11  12
ATOM     12  C   UNL     1       7.119 -15.664  21.314  1.00  0.00     0.000 C 
BRANCH  12  13
ATOM     13  C   UNL     1       8.139 -16.752  20.956  1.00  0.00     0.000 C 
BRANCH  13  14
ATOM     14  C   UNL     1       8.204 -17.826  22.049  1.00  0.00     0.000 C 
BRANCH  14  15
ATOM     15  C   UNL     1       7.155 -18.918  21.811  1.00  0.00     0.000 C 
BRANCH  15  16
ATOM     16  C   UNL     1       6.679 -19.523  23.138  1.00  0.00     0.006 C 
BRANCH  16  17
ATOM     17  C   UNL     1       7.705 -19.283  24.250  1.00  0.00     0.053 C 
BRANCH  17  18
ATOM     18  C   UNL     1       7.023 -18.819  25.498  1.00  0.00     0.041 C 
ATOM     19  O   UNL     1       6.395 -17.727  25.510  1.00  0.00    -0.550 OA
ATOM     20  O   UNL     1       7.041 -19.614  26.638  1.00  0.00    -0.550 OA
ENDBRANCH  17  18
ENDBRANCH  16  17
ENDBRANCH  15  16
ENDBRANCH  14  15
ENDBRANCH  13  14
ENDBRANCH  12  13
ENDBRANCH  11  12
ENDBRANCH   1  11
TORSDOF 15
ENDMDL
MODEL 7
REMARK VINA RESULT:    -3.851      1.617      5.683
REMARK INTER + INTRA:          -9.835
REMARK INTER:                  -7.423
REMARK INTRA:                  -2.412
REMARK UNBOUND:                -2.608
REMARK SMILES O=C([O-])CCCCCCCCCCCCCCC(=O)[O-]
REMARK SMILES IDX 10 1 9 2 8 3 7 4 6 5 5 6 4 7 2 8 1 9 3 10 11 11 12 12 13 13
REMARK SMILES IDX 14 14 15 15 16 16 17 17 18 18 19 19 20 20
REMARK H PARENT
REMARK Flexibility Score: inf
ROOT
ATOM      1  C   UNL     1       7.150 -20.141  21.388  1.00  0.00     0.000 C 
ENDROOT
BRANCH   1   2
ATOM      2  C   UNL     1       7.098 -18.712  20.829  1.00  0.00     0.000 C 
BRANCH   2   3
ATOM      3  C   UNL     1       8.493 -18.237  20.403  1.00  0.00     0.000 C 
BRANCH   3   4
ATOM      4  C   UNL     1       9.027 -17.165  21.364  1.00  0.00     0.000 C 
BRANCH   4   5
ATOM      5  C   UNL     1      10.267 -17.631  22.142  1.00  0.00     0.000 C 
BRANCH   5   6
ATOM      6  C   UNL     1      10.931 -18.866  21.514  1.00  0.00     0.006 C 
BRANCH   6   7
ATOM      7  C   UNL     1      10.821 -20.078  22.444  1.00  0.00     0.053 C 
BRANCH   7   8
ATOM      8  C   UNL     1      11.010 -21.348  21.677  1.00  0.00     0.041 C 
ATOM      9  O   UNL     1      11.833 -22.213  22.078  1.00  0.00    -0.550 OA
ATOM     10  O   UNL     1      10.244 -21.599  20.545  1.00  0.00    -0.550 OA
ENDBRANCH   7   8
ENDBRANCH   6   7
ENDBRANCH   5   6
ENDBRANCH   4   5
ENDBRANCH   3   4
ENDBRANCH   2   3
ENDBRANCH   1   2
BRANCH   1  11
ATOM     11  C   UNL     1       6.601 -20.235  22.821  1.00  0.00     0.000 C 
BRANCH  11  12
ATOM     12  C   UNL     1       7.438 -19.433  23.829  1.00  0.00     0.000 C 
BRANCH  12  13
ATOM     13  C   UNL     1       6.641 -18.245  24.382  1.00  0.00     0.000 C 
BRANCH  13  14
ATOM     14  C   UNL     1       7.344 -17.630  25.599  1.00  0.00     0.000 C 
BRANCH  14  15
ATOM     15  C   UNL     1       8.849 -17.916  25.569  1.00  0.00     0.000 C 
BRANCH  15  16
ATOM     16  C   UNL     1       9.658 -16.625  25.742  1.00  0.00     0.006 C 
BRANCH  16  17
ATOM     17  C   UNL     1       8.755 -15.393  25.641  1.00  0.00     0.053 C 
BRANCH  17  18
ATOM     18  C   UNL     1       8.865 -14.773  24.284  1.00  0.00     0.041 C 
ATOM     19  O   UNL     1       7.827 -14.496  23.627  1.00  0.00    -0.550 OA
ATOM     20  O   UNL     1      10.114 -14.457  23.763  1.00  0.00    -0.550 OA
ENDBRANCH  17  18
ENDBRANCH  16  17
ENDBRANCH  15  16
ENDBRANCH  14  15
ENDBRANCH  13  14
ENDBRANCH  12  13
ENDBRANCH  11  12
ENDBRANCH   1  11
TORSDOF 15
ENDMDL
MODEL 8
REMARK VINA RESULT:    -3.841      1.704      5.346
REMARK INTER + INTRA:          -9.816
REMARK INTER:                  -7.234
REMARK INTRA:                  -2.582
REMARK UNBOUND:                -2.608
REMARK SMILES O=C([O-])CCCCCCCCCCCCCCC(=O)[O-]
REMARK SMILES IDX 10 1 9 2 8 3 7 4 6 5 5 6 4 7 2 8 1 9 3 10 11 11 12 12 13 13
REMARK SMILES IDX 14 14 15 15 16 16 17 17 18 18 19 19 20 20
REMARK H PARENT
REMARK Flexibility Score: inf
ROOT
ATOM      1  C   UNL     1       7.294 -16.059  23.241  1.00  0.00     0.000 C 
ENDROOT
BRANCH   1   2
ATOM      2  C   UNL     1       6.414 -17.249  23.649  1.00  0.00     0.000 C 
BRANCH   2   3
ATOM      3  C   UNL     1       7.214 -18.269  24.468  1.00  0.00     0.000 C 
BRANCH   3   4
ATOM      4  C   UNL     1       7.529 -19.519  23.634  1.00  0.00     0.000 C 
BRANCH   4   5
ATOM      5  C   UNL     1       6.356 -19.946  22.737  1.00  0.00     0.000 C 
BRANCH   5   6
ATOM      6  C   UNL     1       6.799 -20.290  21.307  1.00  0.00     0.006 C 
BRANCH   6   7
ATOM      7  C   UNL     1       7.423 -21.688  21.249  1.00  0.00     0.053 C 
BRANCH   7   8
ATOM      8  C   UNL     1       8.630 -21.689  20.365  1.00  0.00     0.041 C 
ATOM      9  O   UNL     1       8.519 -21.404  19.143  1.00  0.00    -0.550 OA
ATOM     10  O   UNL     1       9.884 -21.959  20.899  1.00  0.00    -0.550 OA
ENDBRANCH   7   8
ENDBRANCH   6   7
ENDBRANCH   5   6
ENDBRANCH   4   5
ENDBRANCH   3   4
ENDBRANCH   2   3
ENDBRANCH   1   2
BRANCH   1  11
ATOM     11  C   UNL     1       7.116 -15.671  21.764  1.00  0.00     0.000 C 
BRANCH  11  12
ATOM     12  C   UNL     1       7.756 -16.685  20.805  1.00  0.00     0.000 C 
BRANCH  12  13
ATOM     13  C   UNL     1       9.273 -16.759  21.017  1.00  0.00     0.000 C 
BRANCH  13  14
ATOM     14  C   UNL     1       9.784 -18.195  20.845  1.00  0.00     0.000 C 
BRANCH  14  15
ATOM     15  C   UNL     1      10.687 -18.603  22.014  1.00  0.00     0.000 C 
BRANCH  15  16
ATOM     16  C   UNL     1      10.664 -17.544  23.123  1.00  0.00     0.006 C 
BRANCH  16  17
ATOM     17  C   UNL     1      12.083 -17.081  23.470  1.00  0.00     0.053 C 
BRANCH  17  18
ATOM     18  C   UNL     1      12.228 -15.613  23.224  1.00  0.00     0.041 C 
ATOM     19  O   UNL     1      11.220 -14.860  23.264  1.00  0.00    -0.550 OA
ATOM     20  O   UNL     1      13.486 -15.067  22.997  1.00  0.00    -0.550 OA
ENDBRANCH  17  18
ENDBRANCH  16  17
ENDBRANCH  15  16
ENDBRANCH  14  15
ENDBRANCH  13  14
ENDBRANCH  12  13
ENDBRANCH  11  12
ENDBRANCH   1  11
TORSDOF 15
ENDMDL
MODEL 9
REMARK VINA RESULT:    -3.787      2.687      4.268
REMARK INTER + INTRA:          -9.716
REMARK INTER:                  -7.244
REMARK INTRA:                  -2.472
REMARK UNBOUND:                -2.608
REMARK SMILES O=C([O-])CCCCCCCCCCCCCCC(=O)[O-]
REMARK SMILES IDX 10 1 9 2 8 3 7 4 6 5 5 6 4 7 2 8 1 9 3 10 11 11 12 12 13 13
REMARK SMILES IDX 14 14 15 15 16 16 17 17 18 18 19 19 20 20
REMARK H PARENT
REMARK Flexibility Score: inf
ROOT
ATOM      1  C   UNL     1       7.607 -21.584  21.374  1.00  0.00     0.000 C 
ENDROOT
BRANCH   1   2
ATOM      2  C   UNL     1       6.732 -20.329  21.500  1.00  0.00     0.000 C 
BRANCH   2   3
ATOM      3  C   UNL     1       6.514 -19.956  22.971  1.00  0.00     0.000 C 
BRANCH   3   4
ATOM      4  C   UNL     1       6.520 -18.431  23.159  1.00  0.00     0.000 C 
BRANCH   4   5
ATOM      5  C   UNL     1       7.136 -17.688  21.963  1.00  0.00     0.000 C 
BRANCH   5   6
ATOM      6  C   UNL     1       7.617 -16.276  22.329  1.00  0.00     0.006 C 
BRANCH   6   7
ATOM      7  C   UNL     1       7.119 -15.871  23.719  1.00  0.00     0.053 C 
BRANCH   7   8
ATOM      8  C   UNL     1       8.269 -15.507  24.605  1.00  0.00     0.041 C 
ATOM      9  O   UNL     1       9.123 -14.666  24.219  1.00  0.00    -0.550 OA
ATOM     10  O   UNL     1       8.371 -16.061  25.875  1.00  0.00    -0.550 OA
ENDBRANCH   7   8
ENDBRANCH   6   7
ENDBRANCH   5   6
ENDBRANCH   4   5
ENDBRANCH   3   4
ENDBRANCH   2   3
ENDBRANCH   1   2
BRANCH   1  11
ATOM     11  C   UNL     1       8.497 -21.562  20.120  1.00  0.00     0.000 C 
BRANCH  11  12
ATOM     12  C   UNL     1       8.990 -20.150  19.770  1.00  0.00     0.000 C 
BRANCH  12  13
ATOM     13  C   UNL     1      10.415 -19.922  20.289  1.00  0.00     0.000 C 
BRANCH  13  14
ATOM     14  C   UNL     1      10.426 -18.909  21.440  1.00  0.00     0.000 C 
BRANCH  14  15
ATOM     15  C   UNL     1      10.462 -19.619  22.798  1.00  0.00     0.000 C 
BRANCH  15  16
ATOM     16  C   UNL     1      10.054 -18.667  23.928  1.00  0.00     0.006 C 
BRANCH  16  17
ATOM     17  C   UNL     1      11.283 -18.012  24.566  1.00  0.00     0.053 C 
BRANCH  17  18
ATOM     18  C   UNL     1      11.661 -18.724  25.826  1.00  0.00     0.041 C 
ATOM     19  O   UNL     1      10.854 -18.777  26.791  1.00  0.00    -0.550 OA
ATOM     20  O   UNL     1      12.887 -19.371  25.918  1.00  0.00    -0.550 OA
ENDBRANCH  17  18
ENDBRANCH  16  17
ENDBRANCH  15  16
ENDBRANCH  14  15
ENDBRANCH  13  14
ENDBRANCH  12  13
ENDBRANCH  11  12
ENDBRANCH   1  11
TORSDOF 15
ENDMDL
