MODEL 1
REMARK VINA RESULT:    -3.663      0.000      0.000
REMARK INTER + INTRA:          -6.000
REMARK INTER:                  -5.590
REMARK INTRA:                  -0.410
REMARK UNBOUND:                -0.410
REMARK SMILES O=C([O-])CCCCCCCCC(=O)[O-]
REMARK SMILES IDX 7 1 6 2 5 3 4 4 2 5 1 6 3 7 8 8 9 9 10 10 11 11 12 12 13 13
REMARK SMILES IDX 14 14
REMARK H PARENT
REMARK Flexibility Score: inf
ROOT
ATOM      1  C   UNL     1      25.860  41.562   3.335  1.00  0.00     0.000 C 
ENDROOT
BRANCH   1   2
ATOM      2  C   UNL     1      26.061  42.893   4.074  1.00  0.00     0.000 C 
BRANCH   2   3
ATOM      3  C   UNL     1      25.589  42.791   5.529  1.00  0.00     0.006 C 
BRANCH   3   4
ATOM      4  C   UNL     1      24.912  44.088   5.982  1.00  0.00     0.053 C 
BRANCH   4   5
ATOM      5  C   UNL     1      25.907  45.203   6.048  1.00  0.00     0.041 C 
ATOM      6  O   UNL     1      25.749  46.235   5.343  1.00  0.00    -0.550 OA
ATOM      7  O   UNL     1      26.982  45.125   6.924  1.00  0.00    -0.550 OA
ENDBRANCH   4   5
ENDBRANCH   3   4
ENDBRANCH   2   3
ENDBRANCH   1   2
BRANCH   1   8
ATOM      8  C   UNL     1      24.385  41.136   3.268  1.00  0.00     0.000 C 
BRANCH   8   9
ATOM      9  C   UNL     1      24.029  40.442   1.944  1.00  0.00     0.000 C 
BRANCH   9  10
ATOM     10  C   UNL     1      25.296  40.117   1.138  1.00  0.00     0.006 C 
BRANCH  10  11
ATOM     11  C   UNL     1      24.973  39.455  -0.208  1.00  0.00     0.053 C 
BRANCH  11  12
ATOM     12  C   UNL     1      25.994  39.791  -1.252  1.00  0.00     0.041 C 
ATOM     13  O   UNL     1      25.749  40.670  -2.119  1.00  0.00    -0.550 OA
ATOM     14  O   UNL     1      27.230  39.157  -1.244  1.00  0.00    -0.550 OA
ENDBRANCH  11  12
ENDBRANCH  10  11
ENDBRANCH   9  10
ENDBRANCH   8   9
ENDBRANCH   1   8
TORSDOF 9
ENDMDL
MODEL 2
REMARK VINA RESULT:    -3.576      0.995      6.961
REMARK INTER + INTRA:          -5.868
REMARK INTER:                  -5.353
REMARK INTRA:                  -0.515
REMARK UNBOUND:                -0.410
REMARK SMILES O=C([O-])CCCCCCCCC(=O)[O-]
REMARK SMILES IDX 7 1 6 2 5 3 4 4 2 5 1 6 3 7 8 8 9 9 10 10 11 11 12 12 13 13
REMARK SMILES IDX 14 14
REMARK H PARENT
REMARK Flexibility Score: inf
ROOT
ATOM      1  C   UNL     1      25.488  41.605   3.237  1.00  0.00     0.000 C 
ENDROOT
BRANCH   1   2
ATOM      2  C   UNL     1      25.862  40.404   2.356  1.00  0.00     0.000 C 
BRANCH   2   3
ATOM      3  C   UNL     1      24.811  40.176   1.264  1.00  0.00     0.006 C 
BRANCH   3   4
ATOM      4  C   UNL     1      25.260  39.086   0.287  1.00  0.00     0.053 C 
BRANCH   4   5
ATOM      5  C   UNL     1      26.187  39.652  -0.741  1.00  0.00     0.041 C 
ATOM      6  O   UNL     1      25.736  40.355  -1.683  1.00  0.00    -0.550 OA
ATOM      7  O   UNL     1      27.557  39.445  -0.631  1.00  0.00    -0.550 OA
ENDBRANCH   4   5
ENDBRANCH   3   4
ENDBRANCH   2   3
ENDBRANCH   1   2
BRANCH   1   8
ATOM      8  C   UNL     1      24.051  41.523   3.775  1.00  0.00     0.000 C 
BRANCH   8   9
ATOM      9  C   UNL     1      23.980  41.682   5.302  1.00  0.00     0.000 C 
BRANCH   9  10
ATOM     10  C   UNL     1      25.180  42.486   5.825  1.00  0.00     0.006 C 
BRANCH  10  11
ATOM     11  C   UNL     1      24.827  43.958   6.078  1.00  0.00     0.053 C 
BRANCH  11  12
ATOM     12  C   UNL     1      25.842  44.883   5.478  1.00  0.00     0.041 C 
ATOM     13  O   UNL     1      26.851  44.419   4.885  1.00  0.00    -0.550 OA
ATOM     14  O   UNL     1      25.654  46.258   5.546  1.00  0.00    -0.550 OA
ENDBRANCH  11  12
ENDBRANCH  10  11
ENDBRANCH   9  10
ENDBRANCH   8   9
ENDBRANCH   1   8
TORSDOF 9
ENDMDL
MODEL 3
REMARK VINA RESULT:    -3.543      2.236      3.623
REMARK INTER + INTRA:          -5.818
REMARK INTER:                  -5.331
REMARK INTRA:                  -0.487
REMARK UNBOUND:                -0.410
REMARK SMILES O=C([O-])CCCCCCCCC(=O)[O-]
REMARK SMILES IDX 7 1 6 2 5 3 4 4 2 5 1 6 3 7 8 8 9 9 10 10 11 11 12 12 13 13
REMARK SMILES IDX 14 14
REMARK H PARENT
REMARK Flexibility Score: inf
ROOT
ATOM      1  C   UNL     1      25.381  40.040   0.924  1.00  0.00     0.000 C 
ENDROOT
BRANCH   1   2
ATOM      2  C   UNL     1      24.065  40.310   1.667  1.00  0.00     0.000 C 
BRANCH   2   3
ATOM      3  C   UNL     1      24.310  41.133   2.938  1.00  0.00     0.006 C 
BRANCH   3   4
ATOM      4  C   UNL     1      25.792  41.487   3.088  1.00  0.00     0.053 C 
BRANCH   4   5
ATOM      5  C   UNL     1      25.953  42.745   3.879  1.00  0.00     0.041 C 
ATOM      6  O   UNL     1      25.099  43.060   4.750  1.00  0.00    -0.550 OA
ATOM      7  O   UNL     1      27.072  43.547   3.691  1.00  0.00    -0.550 OA
ENDBRANCH   4   5
ENDBRANCH   3   4
ENDBRANCH   2   3
ENDBRANCH   1   2
BRANCH   1   8
ATOM      8  C   UNL     1      25.171  39.303  -0.408  1.00  0.00     0.000 C 
BRANCH   8   9
ATOM      9  C   UNL     1      25.822  40.028  -1.595  1.00  0.00     0.000 C 
BRANCH   9  10
ATOM     10  C   UNL     1      27.309  39.660  -1.715  1.00  0.00     0.006 C 
BRANCH  10  11
ATOM     11  C   UNL     1      27.537  38.144  -1.668  1.00  0.00     0.053 C 
BRANCH  11  12
ATOM     12  C   UNL     1      28.463  37.756  -0.555  1.00  0.00     0.041 C 
ATOM     13  O   UNL     1      28.912  38.633   0.230  1.00  0.00    -0.550 OA
ATOM     14  O   UNL     1      28.802  36.423  -0.366  1.00  0.00    -0.550 OA
ENDBRANCH  11  12
ENDBRANCH  10  11
ENDBRANCH   9  10
ENDBRANCH   8   9
ENDBRANCH   1   8
TORSDOF 9
ENDMDL
MODEL 4
REMARK VINA RESULT:    -3.526     19.197     21.236
REMARK INTER + INTRA:          -5.791
REMARK INTER:                  -5.384
REMARK INTRA:                  -0.407
REMARK UNBOUND:                -0.410
REMARK SMILES O=C([O-])CCCCCCCCC(=O)[O-]
REMARK SMILES IDX 7 1 6 2 5 3 4 4 2 5 1 6 3 7 8 8 9 9 10 10 11 11 12 12 13 13
REMARK SMILES IDX 14 14
REMARK H PARENT
REMARK Flexibility Score: inf
ROOT
ATOM      1  C   UNL     1      42.701  32.208   2.246  1.00  0.00     0.000 C 
ENDROOT
BRANCH   1   2
ATOM      2  C   UNL     1      43.957  32.285   1.365  1.00  0.00     0.000 C 
BRANCH   2   3
ATOM      3  C   UNL     1      43.682  33.080   0.084  1.00  0.00     0.006 C 
BRANCH   3   4
ATOM      4  C   UNL     1      42.203  33.464  -0.020  1.00  0.00     0.053 C 
BRANCH   4   5
ATOM      5  C   UNL     1      41.636  33.018  -1.330  1.00  0.00     0.041 C 
ATOM      6  O   UNL     1      41.932  31.886  -1.796  1.00  0.00    -0.550 OA
ATOM      7  O   UNL     1      40.741  33.831  -2.014  1.00  0.00    -0.550 OA
ENDBRANCH   4   5
ENDBRANCH   3   4
ENDBRANCH   2   3
ENDBRANCH   1   2
BRANCH   1   8
ATOM      8  C   UNL     1      42.779  31.088   3.295  1.00  0.00     0.000 C 
BRANCH   8   9
ATOM      9  C   UNL     1      44.017  31.206   4.196  1.00  0.00     0.000 C 
BRANCH   9  10
ATOM     10  C   UNL     1      43.893  30.287   5.421  1.00  0.00     0.006 C 
BRANCH  10  11
ATOM     11  C   UNL     1      42.539  29.567   5.473  1.00  0.00     0.053 C 
BRANCH  11  12
ATOM     12  C   UNL     1      42.481  28.574   6.594  1.00  0.00     0.041 C 
ATOM     13  O   UNL     1      42.378  27.344   6.346  1.00  0.00    -0.550 OA
ATOM     14  O   UNL     1      42.575  29.007   7.910  1.00  0.00    -0.550 OA
ENDBRANCH  11  12
ENDBRANCH  10  11
ENDBRANCH   9  10
ENDBRANCH   8   9
ENDBRANCH   1   8
TORSDOF 9
ENDMDL
MODEL 5
REMARK VINA RESULT:    -3.502      1.669      2.213
REMARK INTER + INTRA:          -5.755
REMARK INTER:                  -4.976
REMARK INTRA:                  -0.779
REMARK UNBOUND:                -0.410
REMARK SMILES O=C([O-])CCCCCCCCC(=O)[O-]
REMARK SMILES IDX 7 1 6 2 5 3 4 4 2 5 1 6 3 7 8 8 9 9 10 10 11 11 12 12 13 13
REMARK SMILES IDX 14 14
REMARK H PARENT
REMARK Flexibility Score: inf
ROOT
ATOM      1  C   UNL     1      25.477  39.548   3.978  1.00  0.00     0.000 C 
ENDROOT
BRANCH   1   2
ATOM      2  C   UNL     1      24.221  40.388   4.251  1.00  0.00     0.000 C 
BRANCH   2   3
ATOM      3  C   UNL     1      24.549  41.886   4.244  1.00  0.00     0.006 C 
BRANCH   3   4
ATOM      4  C   UNL     1      25.790  42.173   3.393  1.00  0.00     0.053 C 
BRANCH   4   5
ATOM      5  C   UNL     1      26.586  43.291   3.988  1.00  0.00     0.041 C 
ATOM      6  O   UNL     1      26.005  44.235   4.585  1.00  0.00    -0.550 OA
ATOM      7  O   UNL     1      27.974  43.265   3.928  1.00  0.00    -0.550 OA
ENDBRANCH   4   5
ENDBRANCH   3   4
ENDBRANCH   2   3
ENDBRANCH   1   2
BRANCH   1   8
ATOM      8  C   UNL     1      25.344  38.672   2.723  1.00  0.00     0.000 C 
BRANCH   8   9
ATOM      9  C   UNL     1      24.046  38.943   1.946  1.00  0.00     0.000 C 
BRANCH   9  10
ATOM     10  C   UNL     1      24.344  39.627   0.603  1.00  0.00     0.006 C 
BRANCH  10  11
ATOM     11  C   UNL     1      25.849  39.753   0.336  1.00  0.00     0.053 C 
BRANCH  11  12
ATOM     12  C   UNL     1      26.176  39.542  -1.111  1.00  0.00     0.041 C 
ATOM     13  O   UNL     1      25.882  40.422  -1.962  1.00  0.00    -0.550 OA
ATOM     14  O   UNL     1      26.835  38.387  -1.513  1.00  0.00    -0.550 OA
ENDBRANCH  11  12
ENDBRANCH  10  11
ENDBRANCH   9  10
ENDBRANCH   8   9
ENDBRANCH   1   8
TORSDOF 9
ENDMDL
MODEL 6
REMARK VINA RESULT:    -3.491     17.445     19.324
REMARK INTER + INTRA:          -5.739
REMARK INTER:                  -5.246
REMARK INTRA:                  -0.492
REMARK UNBOUND:                -0.410
REMARK SMILES O=C([O-])CCCCCCCCC(=O)[O-]
REMARK SMILES IDX 7 1 6 2 5 3 4 4 2 5 1 6 3 7 8 8 9 9 10 10 11 11 12 12 13 13
REMARK SMILES IDX 14 14
REMARK H PARENT
REMARK Flexibility Score: inf
ROOT
ATOM      1  C   UNL     1      42.536  32.490   1.092  1.00  0.00     0.000 C 
ENDROOT
BRANCH   1   2
ATOM      2  C   UNL     1      43.918  32.171   1.681  1.00  0.00     0.000 C 
BRANCH   2   3
ATOM      3  C   UNL     1      43.796  31.647   3.116  1.00  0.00     0.006 C 
BRANCH   3   4
ATOM      4  C   UNL     1      42.390  31.103   3.386  1.00  0.00     0.053 C 
BRANCH   4   5
ATOM      5  C   UNL     1      42.409  30.146   4.535  1.00  0.00     0.041 C 
ATOM      6  O   UNL     1      43.151  30.364   5.529  1.00  0.00    -0.550 OA
ATOM      7  O   UNL     1      41.572  29.037   4.531  1.00  0.00    -0.550 OA
ENDBRANCH   4   5
ENDBRANCH   3   4
ENDBRANCH   2   3
ENDBRANCH   1   2
BRANCH   1   8
ATOM      8  C   UNL     1      42.618  33.271  -0.229  1.00  0.00     0.000 C 
BRANCH   8   9
ATOM      9  C   UNL     1      42.215  32.422  -1.445  1.00  0.00     0.000 C 
BRANCH   9  10
ATOM     10  C   UNL     1      40.712  32.554  -1.731  1.00  0.00     0.006 C 
BRANCH  10  11
ATOM     11  C   UNL     1      40.216  33.998  -1.580  1.00  0.00     0.053 C 
BRANCH  11  12
ATOM     12  C   UNL     1      39.040  34.088  -0.656  1.00  0.00     0.041 C 
ATOM     13  O   UNL     1      37.930  34.502  -1.082  1.00  0.00    -0.550 OA
ATOM     14  O   UNL     1      39.163  33.682   0.666  1.00  0.00    -0.550 OA
ENDBRANCH  11  12
ENDBRANCH  10  11
ENDBRANCH   9  10
ENDBRANCH   8   9
ENDBRANCH   1   8
TORSDOF 9
ENDMDL
MODEL 7
REMARK VINA RESULT:    -3.452     18.843     20.436
REMARK INTER + INTRA:          -5.679
REMARK INTER:                  -5.239
REMARK INTRA:                  -0.440
REMARK UNBOUND:                -0.410
REMARK SMILES O=C([O-])CCCCCCCCC(=O)[O-]
REMARK SMILES IDX 7 1 6 2 5 3 4 4 2 5 1 6 3 7 8 8 9 9 10 10 11 11 12 12 13 13
REMARK SMILES IDX 14 14
REMARK H PARENT
REMARK Flexibility Score: inf
ROOT
ATOM      1  C   UNL     1      42.632  32.121   3.726  1.00  0.00     0.000 C 
ENDROOT
BRANCH   1   2
ATOM      2  C   UNL     1      43.891  31.358   4.164  1.00  0.00     0.000 C 
BRANCH   2   3
ATOM      3  C   UNL     1      43.537  30.226   5.135  1.00  0.00     0.006 C 
BRANCH   3   4
ATOM      4  C   UNL     1      42.183  29.602   4.784  1.00  0.00     0.053 C 
BRANCH   4   5
ATOM      5  C   UNL     1      41.818  28.547   5.779  1.00  0.00     0.041 C 
ATOM      6  O   UNL     1      42.607  27.593   6.009  1.00  0.00    -0.550 OA
ATOM      7  O   UNL     1      40.628  28.642   6.490  1.00  0.00    -0.550 OA
ENDBRANCH   4   5
ENDBRANCH   3   4
ENDBRANCH   2   3
ENDBRANCH   1   2
BRANCH   1   8
ATOM      8  C   UNL     1      42.466  32.168   2.199  1.00  0.00     0.000 C 
BRANCH   8   9
ATOM      9  C   UNL     1      43.792  32.422   1.467  1.00  0.00     0.000 C 
BRANCH   9  10
ATOM     10  C   UNL     1      43.542  32.872   0.019  1.00  0.00     0.006 C 
BRANCH  10  11
ATOM     11  C   UNL     1      42.123  33.419  -0.181  1.00  0.00     0.053 C 
BRANCH  11  12
ATOM     12  C   UNL     1      41.485  32.868  -1.421  1.00  0.00     0.041 C 
ATOM     13  O   UNL     1      41.893  31.784  -1.914  1.00  0.00    -0.550 OA
ATOM     14  O   UNL     1      40.420  33.537  -2.010  1.00  0.00    -0.550 OA
ENDBRANCH  11  12
ENDBRANCH  10  11
ENDBRANCH   9  10
ENDBRANCH   8   9
ENDBRANCH   1   8
TORSDOF 9
ENDMDL
MODEL 8
REMARK VINA RESULT:    -3.406      1.453      2.103
REMARK INTER + INTRA:          -5.609
REMARK INTER:                  -5.345
REMARK INTRA:                  -0.264
REMARK UNBOUND:                -0.410
REMARK SMILES O=C([O-])CCCCCCCCC(=O)[O-]
REMARK SMILES IDX 7 1 6 2 5 3 4 4 2 5 1 6 3 7 8 8 9 9 10 10 11 11 12 12 13 13
REMARK SMILES IDX 14 14
REMARK H PARENT
REMARK Flexibility Score: inf
ROOT
ATOM      1  C   UNL     1      24.245  40.719   2.374  1.00  0.00     0.000 C 
ENDROOT
BRANCH   1   2
ATOM      2  C   UNL     1      24.477  40.739   3.892  1.00  0.00     0.000 C 
BRANCH   2   3
ATOM      3  C   UNL     1      24.169  42.122   4.477  1.00  0.00     0.006 C 
BRANCH   3   4
ATOM      4  C   UNL     1      25.164  42.485   5.584  1.00  0.00     0.053 C 
BRANCH   4   5
ATOM      5  C   UNL     1      24.795  43.791   6.212  1.00  0.00     0.041 C 
ATOM      6  O   UNL     1      25.281  44.866   5.772  1.00  0.00    -0.550 OA
ATOM      7  O   UNL     1      23.875  43.827   7.253  1.00  0.00    -0.550 OA
ENDBRANCH   4   5
ENDBRANCH   3   4
ENDBRANCH   2   3
ENDBRANCH   1   2
BRANCH   1   8
ATOM      8  C   UNL     1      24.158  39.294   1.804  1.00  0.00     0.000 C 
BRANCH   8   9
ATOM      9  C   UNL     1      24.425  39.244   0.292  1.00  0.00     0.000 C 
BRANCH   9  10
ATOM     10  C   UNL     1      25.711  40.005  -0.063  1.00  0.00     0.006 C 
BRANCH  10  11
ATOM     11  C   UNL     1      26.042  39.918  -1.559  1.00  0.00     0.053 C 
BRANCH  11  12
ATOM     12  C   UNL     1      27.321  39.175  -1.802  1.00  0.00     0.041 C 
ATOM     13  O   UNL     1      28.395  39.804  -1.987  1.00  0.00    -0.550 OA
ATOM     14  O   UNL     1      27.329  37.786  -1.791  1.00  0.00    -0.550 OA
ENDBRANCH  11  12
ENDBRANCH  10  11
ENDBRANCH   9  10
ENDBRANCH   8   9
ENDBRANCH   1   8
TORSDOF 9
ENDMDL
MODEL 9
REMARK VINA RESULT:    -3.324      1.794      7.642
REMARK INTER + INTRA:          -5.483
REMARK INTER:                  -5.054
REMARK INTRA:                  -0.429
REMARK UNBOUND:                -0.410
REMARK SMILES O=C([O-])CCCCCCCCC(=O)[O-]
REMARK SMILES IDX 7 1 6 2 5 3 4 4 2 5 1 6 3 7 8 8 9 9 10 10 11 11 12 12 13 13
REMARK SMILES IDX 14 14
REMARK H PARENT
REMARK Flexibility Score: inf
ROOT
ATOM      1  C   UNL     1      24.861  41.834   4.238  1.00  0.00     0.000 C 
ENDROOT
BRANCH   1   2
ATOM      2  C   UNL     1      24.281  41.142   2.996  1.00  0.00     0.000 C 
BRANCH   2   3
ATOM      3  C   UNL     1      25.394  40.720   2.030  1.00  0.00     0.006 C 
BRANCH   3   4
ATOM      4  C   UNL     1      24.847  39.827   0.914  1.00  0.00     0.053 C 
BRANCH   4   5
ATOM      5  C   UNL     1      25.871  39.642  -0.160  1.00  0.00     0.041 C 
ATOM      6  O   UNL     1      27.077  39.444   0.141  1.00  0.00    -0.550 OA
ATOM      7  O   UNL     1      25.486  39.639  -1.495  1.00  0.00    -0.550 OA
ENDBRANCH   4   5
ENDBRANCH   3   4
ENDBRANCH   2   3
ENDBRANCH   1   2
BRANCH   1   8
ATOM      8  C   UNL     1      26.156  42.605   3.937  1.00  0.00     0.000 C 
BRANCH   8   9
ATOM      9  C   UNL     1      26.181  43.997   4.588  1.00  0.00     0.000 C 
BRANCH   9  10
ATOM     10  C   UNL     1      25.148  44.090   5.721  1.00  0.00     0.006 C 
BRANCH  10  11
ATOM     11  C   UNL     1      25.792  44.457   7.065  1.00  0.00     0.053 C 
BRANCH  11  12
ATOM     12  C   UNL     1      25.216  43.656   8.193  1.00  0.00     0.041 C 
ATOM     13  O   UNL     1      24.665  42.546   7.966  1.00  0.00    -0.550 OA
ATOM     14  O   UNL     1      25.319  44.120   9.498  1.00  0.00    -0.550 OA
ENDBRANCH  11  12
ENDBRANCH  10  11
ENDBRANCH   9  10
ENDBRANCH   8   9
ENDBRANCH   1   8
TORSDOF 9
ENDMDL
