MODEL 1
REMARK VINA RESULT:    -4.286      0.000      0.000
REMARK INTER + INTRA:          -9.328
REMARK INTER:                  -7.543
REMARK INTRA:                  -1.785
REMARK UNBOUND:                -1.785
REMARK SMILES CCCCCCC=CCCCCCCCC(=O)[O-]
REMARK SMILES IDX 10 1 11 2 12 3 13 4 14 5 15 6 16 7 17 8 18 9 9 10 8 11 7 12
REMARK SMILES IDX 6 13 5 14 4 15 3 16 2 17 1 18
REMARK H PARENT
REMARK Flexibility Score: inf
ROOT
ATOM      1  C   UNL     1     -12.480  -4.120  15.322  1.00  0.00     0.004 C 
ENDROOT
BRANCH   1   2
ATOM      2  C   UNL     1     -13.041  -5.207  14.388  1.00  0.00     0.000 C 
BRANCH   2   3
ATOM      3  C   UNL     1     -13.099  -4.819  12.897  1.00  0.00     0.000 C 
BRANCH   3   4
ATOM      4  C   UNL     1     -11.882  -5.254  12.061  1.00  0.00     0.000 C 
BRANCH   4   5
ATOM      5  C   UNL     1     -11.054  -6.358  12.739  1.00  0.00     0.006 C 
BRANCH   5   6
ATOM      6  C   UNL     1      -9.547  -6.167  12.526  1.00  0.00     0.053 C 
BRANCH   6   7
ATOM      7  C   UNL     1      -9.214  -5.942  11.083  1.00  0.00     0.041 C 
ATOM      8  O   UNL     1      -8.644  -4.880  10.720  1.00  0.00    -0.550 OA
ATOM      9  O   UNL     1      -9.560  -6.896  10.133  1.00  0.00    -0.550 OA
ENDBRANCH   6   7
ENDBRANCH   5   6
ENDBRANCH   4   5
ENDBRANCH   3   4
ENDBRANCH   2   3
ENDBRANCH   1   2
BRANCH   1  10
ATOM     10  C   UNL     1     -11.437  -4.665  16.309  1.00  0.00     0.027 C 
BRANCH  10  11
ATOM     11  C   UNL     1     -11.582  -4.004  17.655  1.00  0.00    -0.031 C 
ATOM     12  C   UNL     1     -10.952  -4.404  18.776  1.00  0.00    -0.031 C 
BRANCH  12  13
ATOM     13  C   UNL     1     -10.078  -5.630  18.878  1.00  0.00     0.027 C 
BRANCH  13  14
ATOM     14  C   UNL     1     -10.868  -6.870  19.331  1.00  0.00     0.004 C 
BRANCH  14  15
ATOM     15  C   UNL     1     -10.722  -8.087  18.400  1.00  0.00     0.000 C 
BRANCH  15  16
ATOM     16  C   UNL     1     -12.036  -8.456  17.691  1.00  0.00    -0.000 C 
BRANCH  16  17
ATOM     17  C   UNL     1     -11.954  -8.274  16.167  1.00  0.00    -0.003 C 
ATOM     18  C   UNL     1     -10.519  -8.327  15.644  1.00  0.00     0.004 C 
ENDBRANCH  16  17
ENDBRANCH  15  16
ENDBRANCH  14  15
ENDBRANCH  13  14
ENDBRANCH  12  13
ENDBRANCH  10  11
ENDBRANCH   1  10
TORSDOF 13
ENDMDL
MODEL 2
REMARK VINA RESULT:    -4.205      0.868      2.514
REMARK INTER + INTRA:          -9.186
REMARK INTER:                  -7.231
REMARK INTRA:                  -1.954
REMARK UNBOUND:                -1.785
REMARK SMILES CCCCCCC=CCCCCCCCC(=O)[O-]
REMARK SMILES IDX 10 1 11 2 12 3 13 4 14 5 15 6 16 7 17 8 18 9 9 10 8 11 7 12
REMARK SMILES IDX 6 13 5 14 4 15 3 16 2 17 1 18
REMARK H PARENT
REMARK Flexibility Score: inf
ROOT
ATOM      1  C   UNL     1     -12.363  -4.267  15.281  1.00  0.00     0.004 C 
ENDROOT
BRANCH   1   2
ATOM      2  C   UNL     1     -12.914  -5.315  14.298  1.00  0.00     0.000 C 
BRANCH   2   3
ATOM      3  C   UNL     1     -12.952  -4.869  12.822  1.00  0.00     0.000 C 
BRANCH   3   4
ATOM      4  C   UNL     1     -11.779  -5.366  11.959  1.00  0.00     0.000 C 
BRANCH   4   5
ATOM      5  C   UNL     1     -10.936  -6.445  12.659  1.00  0.00     0.006 C 
BRANCH   5   6
ATOM      6  C   UNL     1      -9.431  -6.215  12.473  1.00  0.00     0.053 C 
BRANCH   6   7
ATOM      7  C   UNL     1      -9.091  -5.881  11.053  1.00  0.00     0.041 C 
ATOM      8  O   UNL     1      -9.233  -6.742  10.146  1.00  0.00    -0.550 OA
ATOM      9  O   UNL     1      -8.589  -4.624  10.736  1.00  0.00    -0.550 OA
ENDBRANCH   6   7
ENDBRANCH   5   6
ENDBRANCH   4   5
ENDBRANCH   3   4
ENDBRANCH   2   3
ENDBRANCH   1   2
BRANCH   1  10
ATOM     10  C   UNL     1     -11.808  -4.893  16.569  1.00  0.00     0.027 C 
BRANCH  10  11
ATOM     11  C   UNL     1     -10.538  -5.654  16.287  1.00  0.00    -0.031 C 
ATOM     12  C   UNL     1     -10.437  -6.996  16.269  1.00  0.00    -0.031 C 
BRANCH  12  13
ATOM     13  C   UNL     1     -11.557  -7.945  16.621  1.00  0.00     0.027 C 
BRANCH  13  14
ATOM     14  C   UNL     1     -11.303  -8.676  17.951  1.00  0.00     0.004 C 
BRANCH  14  15
ATOM     15  C   UNL     1     -11.881  -7.961  19.186  1.00  0.00     0.000 C 
BRANCH  15  16
ATOM     16  C   UNL     1     -10.797  -7.532  20.189  1.00  0.00    -0.000 C 
BRANCH  16  17
ATOM     17  C   UNL     1     -10.469  -6.034  20.095  1.00  0.00    -0.003 C 
ATOM     18  C   UNL     1     -11.708  -5.150  20.225  1.00  0.00     0.004 C 
ENDBRANCH  16  17
ENDBRANCH  15  16
ENDBRANCH  14  15
ENDBRANCH  13  14
ENDBRANCH  12  13
ENDBRANCH  10  11
ENDBRANCH   1  10
TORSDOF 13
ENDMDL
MODEL 3
REMARK VINA RESULT:    -4.153      4.747      8.122
REMARK INTER + INTRA:          -9.094
REMARK INTER:                  -8.072
REMARK INTRA:                  -1.021
REMARK UNBOUND:                -1.785
REMARK SMILES CCCCCCC=CCCCCCCCC(=O)[O-]
REMARK SMILES IDX 10 1 11 2 12 3 13 4 14 5 15 6 16 7 17 8 18 9 9 10 8 11 7 12
REMARK SMILES IDX 6 13 5 14 4 15 3 16 2 17 1 18
REMARK H PARENT
REMARK Flexibility Score: inf
ROOT
ATOM      1  C   UNL     1     -11.623  -8.977  20.393  1.00  0.00     0.004 C 
ENDROOT
BRANCH   1   2
ATOM      2  C   UNL     1     -10.157  -8.816  20.833  1.00  0.00     0.000 C 
BRANCH   2   3
ATOM      3  C   UNL     1      -9.957  -8.089  22.179  1.00  0.00     0.000 C 
BRANCH   3   4
ATOM      4  C   UNL     1     -10.798  -6.815  22.365  1.00  0.00     0.000 C 
BRANCH   4   5
ATOM      5  C   UNL     1      -9.986  -5.525  22.154  1.00  0.00     0.006 C 
BRANCH   5   6
ATOM      6  C   UNL     1     -10.459  -4.387  23.067  1.00  0.00     0.053 C 
BRANCH   6   7
ATOM      7  C   UNL     1     -11.849  -3.944  22.728  1.00  0.00     0.041 C 
ATOM      8  O   UNL     1     -12.125  -3.553  21.564  1.00  0.00    -0.550 OA
ATOM      9  O   UNL     1     -12.834  -3.937  23.708  1.00  0.00    -0.550 OA
ENDBRANCH   6   7
ENDBRANCH   5   6
ENDBRANCH   4   5
ENDBRANCH   3   4
ENDBRANCH   2   3
ENDBRANCH   1   2
BRANCH   1  10
ATOM     10  C   UNL     1     -11.883  -8.431  18.981  1.00  0.00     0.027 C 
BRANCH  10  11
ATOM     11  C   UNL     1     -10.650  -7.760  18.434  1.00  0.00    -0.031 C 
ATOM     12  C   UNL     1     -10.344  -7.670  17.126  1.00  0.00    -0.031 C 
BRANCH  12  13
ATOM     13  C   UNL     1     -11.139  -8.308  16.013  1.00  0.00     0.027 C 
BRANCH  13  14
ATOM     14  C   UNL     1     -12.239  -7.376  15.476  1.00  0.00     0.004 C 
BRANCH  14  15
ATOM     15  C   UNL     1     -11.710  -6.162  14.691  1.00  0.00     0.000 C 
BRANCH  15  16
ATOM     16  C   UNL     1     -12.837  -5.304  14.090  1.00  0.00    -0.000 C 
BRANCH  16  17
ATOM     17  C   UNL     1     -12.631  -5.031  12.592  1.00  0.00    -0.003 C 
ATOM     18  C   UNL     1     -11.418  -5.762  12.020  1.00  0.00     0.004 C 
ENDBRANCH  16  17
ENDBRANCH  15  16
ENDBRANCH  14  15
ENDBRANCH  13  14
ENDBRANCH  12  13
ENDBRANCH  10  11
ENDBRANCH   1  10
TORSDOF 13
ENDMDL
MODEL 4
REMARK VINA RESULT:    -4.078      4.306      7.332
REMARK INTER + INTRA:          -8.962
REMARK INTER:                  -7.342
REMARK INTRA:                  -1.620
REMARK UNBOUND:                -1.785
REMARK SMILES CCCCCCC=CCCCCCCCC(=O)[O-]
REMARK SMILES IDX 10 1 11 2 12 3 13 4 14 5 15 6 16 7 17 8 18 9 9 10 8 11 7 12
REMARK SMILES IDX 6 13 5 14 4 15 3 16 2 17 1 18
REMARK H PARENT
REMARK Flexibility Score: inf
ROOT
ATOM      1  C   UNL     1     -11.328  -7.531  19.296  1.00  0.00     0.004 C 
ENDROOT
BRANCH   1   2
ATOM      2  C   UNL     1     -10.366  -6.365  19.004  1.00  0.00     0.000 C 
BRANCH   2   3
ATOM      3  C   UNL     1     -11.047  -5.002  18.766  1.00  0.00     0.000 C 
BRANCH   3   4
ATOM      4  C   UNL     1     -12.164  -4.647  19.763  1.00  0.00     0.000 C 
BRANCH   4   5
ATOM      5  C   UNL     1     -11.766  -3.518  20.730  1.00  0.00     0.006 C 
BRANCH   5   6
ATOM      6  C   UNL     1     -11.780  -3.977  22.193  1.00  0.00     0.053 C 
BRANCH   6   7
ATOM      7  C   UNL     1     -10.737  -5.019  22.460  1.00  0.00     0.041 C 
ATOM      8  O   UNL     1      -9.519  -4.760  22.276  1.00  0.00    -0.550 OA
ATOM      9  O   UNL     1     -11.115  -6.287  22.885  1.00  0.00    -0.550 OA
ENDBRANCH   6   7
ENDBRANCH   5   6
ENDBRANCH   4   5
ENDBRANCH   3   4
ENDBRANCH   2   3
ENDBRANCH   1   2
BRANCH   1  10
ATOM     10  C   UNL     1     -11.243  -8.649  18.246  1.00  0.00     0.027 C 
BRANCH  10  11
ATOM     11  C   UNL     1     -12.304  -8.471  17.191  1.00  0.00    -0.031 C 
ATOM     12  C   UNL     1     -12.060  -8.142  15.909  1.00  0.00    -0.031 C 
BRANCH  12  13
ATOM     13  C   UNL     1     -10.697  -7.810  15.352  1.00  0.00     0.027 C 
BRANCH  13  14
ATOM     14  C   UNL     1     -10.613  -6.358  14.851  1.00  0.00     0.004 C 
BRANCH  14  15
ATOM     15  C   UNL     1     -11.108  -6.158  13.406  1.00  0.00     0.000 C 
BRANCH  15  16
ATOM     16  C   UNL     1     -12.368  -5.281  13.324  1.00  0.00    -0.000 C 
BRANCH  16  17
ATOM     17  C   UNL     1     -13.024  -5.064  14.697  1.00  0.00    -0.003 C 
ATOM     18  C   UNL     1     -13.076  -3.591  15.099  1.00  0.00     0.004 C 
ENDBRANCH  16  17
ENDBRANCH  15  16
ENDBRANCH  14  15
ENDBRANCH  13  14
ENDBRANCH  12  13
ENDBRANCH  10  11
ENDBRANCH   1  10
TORSDOF 13
ENDMDL
MODEL 5
REMARK VINA RESULT:    -4.060      3.472      6.746
REMARK INTER + INTRA:          -8.930
REMARK INTER:                  -7.222
REMARK INTRA:                  -1.708
REMARK UNBOUND:                -1.785
REMARK SMILES CCCCCCC=CCCCCCCCC(=O)[O-]
REMARK SMILES IDX 10 1 11 2 12 3 13 4 14 5 15 6 16 7 17 8 18 9 9 10 8 11 7 12
REMARK SMILES IDX 6 13 5 14 4 15 3 16 2 17 1 18
REMARK H PARENT
REMARK Flexibility Score: inf
ROOT
ATOM      1  C   UNL     1     -12.069  -8.404  16.320  1.00  0.00     0.004 C 
ENDROOT
BRANCH   1   2
ATOM      2  C   UNL     1     -12.127  -8.218  17.846  1.00  0.00     0.000 C 
BRANCH   2   3
ATOM      3  C   UNL     1     -10.972  -8.876  18.627  1.00  0.00     0.000 C 
BRANCH   3   4
ATOM      4  C   UNL     1     -10.232  -7.947  19.607  1.00  0.00     0.000 C 
BRANCH   4   5
ATOM      5  C   UNL     1     -11.128  -6.826  20.160  1.00  0.00     0.006 C 
BRANCH   5   6
ATOM      6  C   UNL     1     -10.592  -5.432  19.813  1.00  0.00     0.053 C 
BRANCH   6   7
ATOM      7  C   UNL     1     -11.624  -4.369  20.033  1.00  0.00     0.041 C 
ATOM      8  O   UNL     1     -11.944  -4.025  21.201  1.00  0.00    -0.550 OA
ATOM      9  O   UNL     1     -12.254  -3.776  18.945  1.00  0.00    -0.550 OA
ENDBRANCH   6   7
ENDBRANCH   5   6
ENDBRANCH   4   5
ENDBRANCH   3   4
ENDBRANCH   2   3
ENDBRANCH   1   2
BRANCH   1  10
ATOM     10  C   UNL     1     -11.020  -7.503  15.650  1.00  0.00     0.027 C 
BRANCH  10  11
ATOM     11  C   UNL     1     -11.205  -6.068  16.071  1.00  0.00    -0.031 C 
ATOM     12  C   UNL     1     -12.108  -5.225  15.538  1.00  0.00    -0.031 C 
BRANCH  12  13
ATOM     13  C   UNL     1     -13.010  -5.557  14.374  1.00  0.00     0.027 C 
BRANCH  13  14
ATOM     14  C   UNL     1     -12.915  -4.513  13.248  1.00  0.00     0.004 C 
BRANCH  14  15
ATOM     15  C   UNL     1     -12.391  -5.071  11.912  1.00  0.00     0.000 C 
BRANCH  15  16
ATOM     16  C   UNL     1     -11.305  -6.144  12.100  1.00  0.00    -0.000 C 
BRANCH  16  17
ATOM     17  C   UNL     1      -9.904  -5.636  11.724  1.00  0.00    -0.003 C 
ATOM     18  C   UNL     1      -8.800  -6.284  12.557  1.00  0.00     0.004 C 
ENDBRANCH  16  17
ENDBRANCH  15  16
ENDBRANCH  14  15
ENDBRANCH  13  14
ENDBRANCH  12  13
ENDBRANCH  10  11
ENDBRANCH   1  10
TORSDOF 13
ENDMDL
MODEL 6
REMARK VINA RESULT:    -4.009      3.319      5.887
REMARK INTER + INTRA:          -8.841
REMARK INTER:                  -6.940
REMARK INTRA:                  -1.901
REMARK UNBOUND:                -1.785
REMARK SMILES CCCCCCC=CCCCCCCCC(=O)[O-]
REMARK SMILES IDX 10 1 11 2 12 3 13 4 14 5 15 6 16 7 17 8 18 9 9 10 8 11 7 12
REMARK SMILES IDX 6 13 5 14 4 15 3 16 2 17 1 18
REMARK H PARENT
REMARK Flexibility Score: inf
ROOT
ATOM      1  C   UNL     1      -9.854  -6.945  20.191  1.00  0.00     0.004 C 
ENDROOT
BRANCH   1   2
ATOM      2  C   UNL     1     -11.164  -7.745  20.298  1.00  0.00     0.000 C 
BRANCH   2   3
ATOM      3  C   UNL     1     -11.193  -9.058  19.489  1.00  0.00     0.000 C 
BRANCH   3   4
ATOM      4  C   UNL     1     -10.873  -8.910  17.991  1.00  0.00     0.000 C 
BRANCH   4   5
ATOM      5  C   UNL     1     -12.062  -8.373  17.175  1.00  0.00     0.006 C 
BRANCH   5   6
ATOM      6  C   UNL     1     -11.674  -8.057  15.725  1.00  0.00     0.053 C 
BRANCH   6   7
ATOM      7  C   UNL     1     -11.669  -6.583  15.459  1.00  0.00     0.041 C 
ATOM      8  O   UNL     1     -12.387  -6.100  14.545  1.00  0.00    -0.550 OA
ATOM      9  O   UNL     1     -10.848  -5.746  16.205  1.00  0.00    -0.550 OA
ENDBRANCH   6   7
ENDBRANCH   5   6
ENDBRANCH   4   5
ENDBRANCH   3   4
ENDBRANCH   2   3
ENDBRANCH   1   2
BRANCH   1  10
ATOM     10  C   UNL     1     -10.067  -5.526  19.642  1.00  0.00     0.027 C 
BRANCH  10  11
ATOM     11  C   UNL     1     -11.511  -5.116  19.773  1.00  0.00    -0.031 C 
ATOM     12  C   UNL     1     -11.942  -4.038  20.454  1.00  0.00    -0.031 C 
BRANCH  12  13
ATOM     13  C   UNL     1     -11.056  -3.128  21.270  1.00  0.00     0.027 C 
BRANCH  13  14
ATOM     14  C   UNL     1     -10.990  -3.551  22.747  1.00  0.00     0.004 C 
BRANCH  14  15
ATOM     15  C   UNL     1     -12.332  -4.038  23.325  1.00  0.00     0.000 C 
BRANCH  15  16
ATOM     16  C   UNL     1     -12.179  -5.283  24.215  1.00  0.00    -0.000 C 
BRANCH  16  17
ATOM     17  C   UNL     1     -11.158  -6.285  23.655  1.00  0.00    -0.003 C 
ATOM     18  C   UNL     1     -11.493  -7.732  24.017  1.00  0.00     0.004 C 
ENDBRANCH  16  17
ENDBRANCH  15  16
ENDBRANCH  14  15
ENDBRANCH  13  14
ENDBRANCH  12  13
ENDBRANCH  10  11
ENDBRANCH   1  10
TORSDOF 13
ENDMDL
MODEL 7
REMARK VINA RESULT:    -3.990     16.167     18.127
REMARK INTER + INTRA:          -8.807
REMARK INTER:                  -6.769
REMARK INTRA:                  -2.038
REMARK UNBOUND:                -1.785
REMARK SMILES CCCCCCC=CCCCCCCCC(=O)[O-]
REMARK SMILES IDX 10 1 11 2 12 3 13 4 14 5 15 6 16 7 17 8 18 9 9 10 8 11 7 12
REMARK SMILES IDX 6 13 5 14 4 15 3 16 2 17 1 18
REMARK H PARENT
REMARK Flexibility Score: inf
ROOT
ATOM      1  C   UNL     1       4.948  -6.469  13.648  1.00  0.00     0.004 C 
ENDROOT
BRANCH   1   2
ATOM      2  C   UNL     1       5.188  -7.591  14.674  1.00  0.00     0.000 C 
BRANCH   2   3
ATOM      3  C   UNL     1       6.624  -7.671  15.229  1.00  0.00     0.000 C 
BRANCH   3   4
ATOM      4  C   UNL     1       6.836  -8.710  16.345  1.00  0.00     0.000 C 
BRANCH   4   5
ATOM      5  C   UNL     1       6.117  -8.338  17.653  1.00  0.00     0.006 C 
BRANCH   5   6
ATOM      6  C   UNL     1       6.970  -7.425  18.544  1.00  0.00     0.053 C 
BRANCH   6   7
ATOM      7  C   UNL     1       6.397  -7.301  19.922  1.00  0.00     0.041 C 
ATOM      8  O   UNL     1       5.842  -8.289  20.471  1.00  0.00    -0.550 OA
ATOM      9  O   UNL     1       6.454  -6.085  20.591  1.00  0.00    -0.550 OA
ENDBRANCH   6   7
ENDBRANCH   5   6
ENDBRANCH   4   5
ENDBRANCH   3   4
ENDBRANCH   2   3
ENDBRANCH   1   2
BRANCH   1  10
ATOM     10  C   UNL     1       6.242  -5.744  13.247  1.00  0.00     0.027 C 
BRANCH  10  11
ATOM     11  C   UNL     1       5.980  -4.766  12.131  1.00  0.00    -0.031 C 
ATOM     12  C   UNL     1       5.579  -3.494  12.307  1.00  0.00    -0.031 C 
BRANCH  12  13
ATOM     13  C   UNL     1       5.239  -2.877  13.642  1.00  0.00     0.027 C 
BRANCH  13  14
ATOM     14  C   UNL     1       6.486  -2.353  14.374  1.00  0.00     0.004 C 
BRANCH  14  15
ATOM     15  C   UNL     1       6.418  -2.481  15.907  1.00  0.00     0.000 C 
BRANCH  15  16
ATOM     16  C   UNL     1       6.475  -3.941  16.387  1.00  0.00    -0.000 C 
BRANCH  16  17
ATOM     17  C   UNL     1       5.448  -4.237  17.492  1.00  0.00    -0.003 C 
ATOM     18  C   UNL     1       4.204  -4.949  16.963  1.00  0.00     0.004 C 
ENDBRANCH  16  17
ENDBRANCH  15  16
ENDBRANCH  14  15
ENDBRANCH  13  14
ENDBRANCH  12  13
ENDBRANCH  10  11
ENDBRANCH   1  10
TORSDOF 13
ENDMDL
MODEL 8
REMARK VINA RESULT:    -3.958     16.130     18.054
REMARK INTER + INTRA:          -8.752
REMARK INTER:                  -6.367
REMARK INTRA:                  -2.385
REMARK UNBOUND:                -1.785
REMARK SMILES CCCCCCC=CCCCCCCCC(=O)[O-]
REMARK SMILES IDX 10 1 11 2 12 3 13 4 14 5 15 6 16 7 17 8 18 9 9 10 8 11 7 12
REMARK SMILES IDX 6 13 5 14 4 15 3 16 2 17 1 18
REMARK H PARENT
REMARK Flexibility Score: inf
ROOT
ATOM      1  C   UNL     1       4.744  -7.035  14.778  1.00  0.00     0.004 C 
ENDROOT
BRANCH   1   2
ATOM      2  C   UNL     1       6.252  -7.025  14.474  1.00  0.00     0.000 C 
BRANCH   2   3
ATOM      3  C   UNL     1       7.095  -8.000  15.320  1.00  0.00     0.000 C 
BRANCH   3   4
ATOM      4  C   UNL     1       6.367  -8.611  16.530  1.00  0.00     0.000 C 
BRANCH   4   5
ATOM      5  C   UNL     1       6.703  -7.900  17.852  1.00  0.00     0.006 C 
BRANCH   5   6
ATOM      6  C   UNL     1       5.673  -8.199  18.949  1.00  0.00     0.053 C 
BRANCH   6   7
ATOM      7  C   UNL     1       5.986  -7.470  20.219  1.00  0.00     0.041 C 
ATOM      8  O   UNL     1       5.871  -8.050  21.330  1.00  0.00    -0.550 OA
ATOM      9  O   UNL     1       6.380  -6.137  20.177  1.00  0.00    -0.550 OA
ENDBRANCH   6   7
ENDBRANCH   5   6
ENDBRANCH   4   5
ENDBRANCH   3   4
ENDBRANCH   2   3
ENDBRANCH   1   2
BRANCH   1  10
ATOM     10  C   UNL     1       4.192  -5.637  15.095  1.00  0.00     0.027 C 
BRANCH  10  11
ATOM     11  C   UNL     1       4.321  -5.333  16.565  1.00  0.00    -0.031 C 
ATOM     12  C   UNL     1       5.275  -4.552  17.104  1.00  0.00    -0.031 C 
BRANCH  12  13
ATOM     13  C   UNL     1       6.417  -3.936  16.333  1.00  0.00     0.027 C 
BRANCH  13  14
ATOM     14  C   UNL     1       6.139  -2.472  15.953  1.00  0.00     0.004 C 
BRANCH  14  15
ATOM     15  C   UNL     1       6.281  -2.171  14.449  1.00  0.00     0.000 C 
BRANCH  15  16
ATOM     16  C   UNL     1       6.748  -3.392  13.639  1.00  0.00    -0.000 C 
BRANCH  16  17
ATOM     17  C   UNL     1       5.838  -3.681  12.434  1.00  0.00    -0.003 C 
ATOM     18  C   UNL     1       6.385  -4.791  11.537  1.00  0.00     0.004 C 
ENDBRANCH  16  17
ENDBRANCH  15  16
ENDBRANCH  14  15
ENDBRANCH  13  14
ENDBRANCH  12  13
ENDBRANCH  10  11
ENDBRANCH   1  10
TORSDOF 13
ENDMDL
MODEL 9
REMARK VINA RESULT:    -3.921      3.633      6.238
REMARK INTER + INTRA:          -8.686
REMARK INTER:                  -7.282
REMARK INTRA:                  -1.404
REMARK UNBOUND:                -1.785
REMARK SMILES CCCCCCC=CCCCCCCCC(=O)[O-]
REMARK SMILES IDX 10 1 11 2 12 3 13 4 14 5 15 6 16 7 17 8 18 9 9 10 8 11 7 12
REMARK SMILES IDX 6 13 5 14 4 15 3 16 2 17 1 18
REMARK H PARENT
REMARK Flexibility Score: inf
ROOT
ATOM      1  C   UNL     1     -10.571  -7.149  20.680  1.00  0.00     0.004 C 
ENDROOT
BRANCH   1   2
ATOM      2  C   UNL     1     -11.250  -8.464  20.262  1.00  0.00     0.000 C 
BRANCH   2   3
ATOM      3  C   UNL     1     -12.119  -8.375  18.990  1.00  0.00     0.000 C 
BRANCH   3   4
ATOM      4  C   UNL     1     -11.339  -8.391  17.664  1.00  0.00     0.000 C 
BRANCH   4   5
ATOM      5  C   UNL     1     -12.257  -8.374  16.430  1.00  0.00     0.006 C 
BRANCH   5   6
ATOM      6  C   UNL     1     -11.627  -7.624  15.250  1.00  0.00     0.053 C 
BRANCH   6   7
ATOM      7  C   UNL     1     -11.998  -6.173  15.251  1.00  0.00     0.041 C 
ATOM      8  O   UNL     1     -12.916  -5.751  14.500  1.00  0.00    -0.550 OA
ATOM      9  O   UNL     1     -11.310  -5.280  16.064  1.00  0.00    -0.550 OA
ENDBRANCH   6   7
ENDBRANCH   5   6
ENDBRANCH   4   5
ENDBRANCH   3   4
ENDBRANCH   2   3
ENDBRANCH   1   2
BRANCH   1  10
ATOM     10  C   UNL     1      -9.872  -7.247  22.044  1.00  0.00     0.027 C 
BRANCH  10  11
ATOM     11  C   UNL     1     -10.741  -7.977  23.035  1.00  0.00    -0.031 C 
ATOM     12  C   UNL     1     -11.368  -7.396  24.075  1.00  0.00    -0.031 C 
BRANCH  12  13
ATOM     13  C   UNL     1     -11.223  -5.945  24.464  1.00  0.00     0.027 C 
BRANCH  13  14
ATOM     14  C   UNL     1     -12.525  -5.154  24.251  1.00  0.00     0.004 C 
BRANCH  14  15
ATOM     15  C   UNL     1     -12.357  -3.876  23.408  1.00  0.00     0.000 C 
BRANCH  15  16
ATOM     16  C   UNL     1     -10.927  -3.701  22.869  1.00  0.00    -0.000 C 
BRANCH  16  17
ATOM     17  C   UNL     1     -10.903  -3.137  21.440  1.00  0.00    -0.003 C 
ATOM     18  C   UNL     1     -11.995  -3.733  20.552  1.00  0.00     0.004 C 
ENDBRANCH  16  17
ENDBRANCH  15  16
ENDBRANCH  14  15
ENDBRANCH  13  14
ENDBRANCH  12  13
ENDBRANCH  10  11
ENDBRANCH   1  10
TORSDOF 13
ENDMDL
