MODEL 1
REMARK VINA RESULT:    -5.658      0.000      0.000
REMARK INTER + INTRA:          -5.658
REMARK INTER:                  -5.658
REMARK INTRA:                   0.000
REMARK UNBOUND:                 0.000
REMARK SMILES CC1=CC[C@H]2[C@H](C1)C2(C)C
REMARK SMILES IDX 1 1 2 2 3 3 4 4 5 5 6 6 7 7 8 8 9 9 10 10
REMARK H PARENT
REMARK Flexibility Score: inf
ROOT
ATOM      1  C   UNL     1       4.147  13.921   3.487  1.00  0.00     0.039 C 
ATOM      2  C   UNL     1       2.992  13.629   4.402  1.00  0.00    -0.077 C 
ATOM      3  C   UNL     1       3.211  13.518   5.746  1.00  0.00    -0.028 C 
ATOM      4  C   UNL     1       2.074  13.248   6.731  1.00  0.00     0.031 C 
ATOM      5  C   UNL     1       0.767  13.705   6.075  1.00  0.00     0.003 C 
ATOM      6  C   UNL     1       0.706  12.754   4.820  1.00  0.00     0.003 C 
ATOM      7  C   UNL     1       1.578  13.523   3.821  1.00  0.00     0.034 C 
ATOM      8  C   UNL     1      -0.527  13.048   5.645  1.00  0.00    -0.029 C 
ATOM      9  C   UNL     1      -1.573  13.945   4.977  1.00  0.00     0.012 C 
ATOM     10  C   UNL     1      -1.035  11.927   6.557  1.00  0.00     0.012 C 
ENDROOT
TORSDOF 0
ENDMDL
MODEL 2
REMARK VINA RESULT:    -5.593      0.934      2.196
REMARK INTER + INTRA:          -5.593
REMARK INTER:                  -5.593
REMARK INTRA:                   0.000
REMARK UNBOUND:                 0.000
REMARK SMILES CC1=CC[C@H]2[C@H](C1)C2(C)C
REMARK SMILES IDX 1 1 2 2 3 3 4 4 5 5 6 6 7 7 8 8 9 9 10 10
REMARK H PARENT
REMARK Flexibility Score: inf
ROOT
ATOM      1  C   UNL     1       4.049  13.304   3.638  1.00  0.00     0.039 C 
ATOM      2  C   UNL     1       2.594  13.473   3.971  1.00  0.00    -0.077 C 
ATOM      3  C   UNL     1       1.752  14.023   3.046  1.00  0.00    -0.028 C 
ATOM      4  C   UNL     1       0.259  14.198   3.315  1.00  0.00     0.031 C 
ATOM      5  C   UNL     1      -0.144  13.193   4.399  1.00  0.00     0.003 C 
ATOM      6  C   UNL     1       0.740  13.680   5.609  1.00  0.00     0.003 C 
ATOM      7  C   UNL     1       2.065  12.967   5.317  1.00  0.00     0.034 C 
ATOM      8  C   UNL     1      -0.702  13.267   5.803  1.00  0.00    -0.029 C 
ATOM      9  C   UNL     1      -0.918  11.940   6.537  1.00  0.00     0.012 C 
ATOM     10  C   UNL     1      -1.717  14.387   6.054  1.00  0.00     0.012 C 
ENDROOT
TORSDOF 0
ENDMDL
MODEL 3
REMARK VINA RESULT:    -5.520      1.045      4.036
REMARK INTER + INTRA:          -5.520
REMARK INTER:                  -5.520
REMARK INTRA:                   0.000
REMARK UNBOUND:                 0.000
REMARK SMILES CC1=CC[C@H]2[C@H](C1)C2(C)C
REMARK SMILES IDX 1 1 2 2 3 3 4 4 5 5 6 6 7 7 8 8 9 9 10 10
REMARK H PARENT
REMARK Flexibility Score: inf
ROOT
ATOM      1  C   UNL     1      -1.050  12.120   6.470  1.00  0.00     0.039 C 
ATOM      2  C   UNL     1       0.295  12.566   5.970  1.00  0.00    -0.077 C 
ATOM      3  C   UNL     1       1.152  13.199   6.825  1.00  0.00    -0.028 C 
ATOM      4  C   UNL     1       2.542  13.654   6.385  1.00  0.00     0.031 C 
ATOM      5  C   UNL     1       2.953  12.807   5.176  1.00  0.00     0.003 C 
ATOM      6  C   UNL     1       1.839  13.203   4.134  1.00  0.00     0.003 C 
ATOM      7  C   UNL     1       0.707  12.248   4.529  1.00  0.00     0.034 C 
ATOM      8  C   UNL     1       3.288  13.067   3.724  1.00  0.00    -0.029 C 
ATOM      9  C   UNL     1       3.620  11.848   2.858  1.00  0.00     0.012 C 
ATOM     10  C   UNL     1       4.055  14.364   3.444  1.00  0.00     0.012 C 
ENDROOT
TORSDOF 0
ENDMDL
MODEL 4
REMARK VINA RESULT:    -5.273      1.728      4.184
REMARK INTER + INTRA:          -5.273
REMARK INTER:                  -5.273
REMARK INTRA:                   0.000
REMARK UNBOUND:                 0.000
REMARK SMILES CC1=CC[C@H]2[C@H](C1)C2(C)C
REMARK SMILES IDX 1 1 2 2 3 3 4 4 5 5 6 6 7 7 8 8 9 9 10 10
REMARK H PARENT
REMARK Flexibility Score: inf
ROOT
ATOM      1  C   UNL     1      -1.809  14.859   2.608  1.00  0.00     0.039 C 
ATOM      2  C   UNL     1      -0.394  14.394   2.807  1.00  0.00    -0.077 C 
ATOM      3  C   UNL     1       0.511  14.545   1.795  1.00  0.00    -0.028 C 
ATOM      4  C   UNL     1       1.970  14.117   1.945  1.00  0.00     0.031 C 
ATOM      5  C   UNL     1       2.301  14.094   3.441  1.00  0.00     0.003 C 
ATOM      6  C   UNL     1       1.301  12.992   3.957  1.00  0.00     0.003 C 
ATOM      7  C   UNL     1       0.026  13.818   4.163  1.00  0.00     0.034 C 
ATOM      8  C   UNL     1       2.730  13.050   4.448  1.00  0.00    -0.029 C 
ATOM      9  C   UNL     1       2.915  13.515   5.895  1.00  0.00     0.012 C 
ATOM     10  C   UNL     1       3.688  11.977   3.922  1.00  0.00     0.012 C 
ENDROOT
TORSDOF 0
ENDMDL
MODEL 5
REMARK VINA RESULT:    -5.246      1.802      4.033
REMARK INTER + INTRA:          -5.246
REMARK INTER:                  -5.246
REMARK INTRA:                   0.000
REMARK UNBOUND:                 0.000
REMARK SMILES CC1=CC[C@H]2[C@H](C1)C2(C)C
REMARK SMILES IDX 1 1 2 2 3 3 4 4 5 5 6 6 7 7 8 8 9 9 10 10
REMARK H PARENT
REMARK Flexibility Score: inf
ROOT
ATOM      1  C   UNL     1       0.594  12.772   6.513  1.00  0.00     0.039 C 
ATOM      2  C   UNL     1       1.299  13.233   5.269  1.00  0.00    -0.077 C 
ATOM      3  C   UNL     1       2.664  13.286   5.251  1.00  0.00    -0.028 C 
ATOM      4  C   UNL     1       3.440  13.721   4.009  1.00  0.00     0.031 C 
ATOM      5  C   UNL     1       2.541  13.493   2.790  1.00  0.00     0.003 C 
ATOM      6  C   UNL     1       1.340  14.461   3.112  1.00  0.00     0.003 C 
ATOM      7  C   UNL     1       0.479  13.577   4.021  1.00  0.00     0.034 C 
ATOM      8  C   UNL     1       1.916  14.358   1.717  1.00  0.00    -0.029 C 
ATOM      9  C   UNL     1       1.030  13.653   0.685  1.00  0.00     0.012 C 
ATOM     10  C   UNL     1       2.772  15.532   1.231  1.00  0.00     0.012 C 
ENDROOT
TORSDOF 0
ENDMDL
MODEL 6
REMARK VINA RESULT:    -5.184      1.690      3.828
REMARK INTER + INTRA:          -5.184
REMARK INTER:                  -5.184
REMARK INTRA:                   0.000
REMARK UNBOUND:                 0.000
REMARK SMILES CC1=CC[C@H]2[C@H](C1)C2(C)C
REMARK SMILES IDX 1 1 2 2 3 3 4 4 5 5 6 6 7 7 8 8 9 9 10 10
REMARK H PARENT
REMARK Flexibility Score: inf
ROOT
ATOM      1  C   UNL     1      -1.120  14.702   1.398  1.00  0.00     0.039 C 
ATOM      2  C   UNL     1      -0.308  14.266   2.585  1.00  0.00    -0.077 C 
ATOM      3  C   UNL     1      -0.918  14.120   3.799  1.00  0.00    -0.028 C 
ATOM      4  C   UNL     1      -0.154  13.655   5.037  1.00  0.00     0.031 C 
ATOM      5  C   UNL     1       1.084  12.887   4.563  1.00  0.00     0.003 C 
ATOM      6  C   UNL     1       1.856  14.010   3.773  1.00  0.00     0.003 C 
ATOM      7  C   UNL     1       1.176  13.932   2.402  1.00  0.00     0.034 C 
ATOM      8  C   UNL     1       2.583  13.049   4.687  1.00  0.00    -0.029 C 
ATOM      9  C   UNL     1       3.455  12.002   3.988  1.00  0.00     0.012 C 
ATOM     10  C   UNL     1       3.081  13.605   6.025  1.00  0.00     0.012 C 
ENDROOT
TORSDOF 0
ENDMDL
MODEL 7
REMARK VINA RESULT:    -5.134      2.171      4.001
REMARK INTER + INTRA:          -5.134
REMARK INTER:                  -5.134
REMARK INTRA:                   0.000
REMARK UNBOUND:                 0.000
REMARK SMILES CC1=CC[C@H]2[C@H](C1)C2(C)C
REMARK SMILES IDX 1 1 2 2 3 3 4 4 5 5 6 6 7 7 8 8 9 9 10 10
REMARK H PARENT
REMARK Flexibility Score: inf
ROOT
ATOM      1  C   UNL     1       4.009  17.089   1.453  1.00  0.00     0.039 C 
ATOM      2  C   UNL     1       3.235  15.904   1.956  1.00  0.00    -0.077 C 
ATOM      3  C   UNL     1       1.953  15.708   1.526  1.00  0.00    -0.028 C 
ATOM      4  C   UNL     1       1.123  14.509   1.979  1.00  0.00     0.031 C 
ATOM      5  C   UNL     1       2.092  13.408   2.424  1.00  0.00     0.003 C 
ATOM      6  C   UNL     1       2.824  14.115   3.627  1.00  0.00     0.003 C 
ATOM      7  C   UNL     1       3.916  14.901   2.892  1.00  0.00     0.034 C 
ATOM      8  C   UNL     1       2.388  12.669   3.711  1.00  0.00    -0.029 C 
ATOM      9  C   UNL     1       3.517  11.634   3.673  1.00  0.00     0.012 C 
ATOM     10  C   UNL     1       1.174  12.360   4.592  1.00  0.00     0.012 C 
ENDROOT
TORSDOF 0
ENDMDL
MODEL 8
REMARK VINA RESULT:    -4.861      1.779      4.143
REMARK INTER + INTRA:          -4.861
REMARK INTER:                  -4.861
REMARK INTRA:                   0.000
REMARK UNBOUND:                 0.000
REMARK SMILES CC1=CC[C@H]2[C@H](C1)C2(C)C
REMARK SMILES IDX 1 1 2 2 3 3 4 4 5 5 6 6 7 7 8 8 9 9 10 10
REMARK H PARENT
REMARK Flexibility Score: inf
ROOT
ATOM      1  C   UNL     1       1.408  13.138   6.870  1.00  0.00     0.039 C 
ATOM      2  C   UNL     1       1.214  13.436   5.411  1.00  0.00    -0.077 C 
ATOM      3  C   UNL     1      -0.052  13.550   4.911  1.00  0.00    -0.028 C 
ATOM      4  C   UNL     1      -0.315  13.877   3.442  1.00  0.00     0.031 C 
ATOM      5  C   UNL     1       0.928  14.581   2.888  1.00  0.00     0.003 C 
ATOM      6  C   UNL     1       2.018  13.457   3.062  1.00  0.00     0.003 C 
ATOM      7  C   UNL     1       2.439  13.671   4.520  1.00  0.00     0.034 C 
ATOM      8  C   UNL     1       1.952  14.302   1.809  1.00  0.00    -0.029 C 
ATOM      9  C   UNL     1       3.079  15.324   1.640  1.00  0.00     0.012 C 
ATOM     10  C   UNL     1       1.413  13.627   0.545  1.00  0.00     0.012 C 
ENDROOT
TORSDOF 0
ENDMDL
MODEL 9
REMARK VINA RESULT:    -4.730      2.528      4.183
REMARK INTER + INTRA:          -4.730
REMARK INTER:                  -4.730
REMARK INTRA:                   0.000
REMARK UNBOUND:                 0.000
REMARK SMILES CC1=CC[C@H]2[C@H](C1)C2(C)C
REMARK SMILES IDX 1 1 2 2 3 3 4 4 5 5 6 6 7 7 8 8 9 9 10 10
REMARK H PARENT
REMARK Flexibility Score: inf
ROOT
ATOM      1  C   UNL     1       0.500  15.989  -0.170  1.00  0.00     0.039 C 
ATOM      2  C   UNL     1       1.307  15.319   0.905  1.00  0.00    -0.077 C 
ATOM      3  C   UNL     1       2.519  15.841   1.258  1.00  0.00    -0.028 C 
ATOM      4  C   UNL     1       3.376  15.222   2.361  1.00  0.00     0.031 C 
ATOM      5  C   UNL     1       2.449  14.419   3.279  1.00  0.00     0.003 C 
ATOM      6  C   UNL     1       1.891  13.336   2.280  1.00  0.00     0.003 C 
ATOM      7  C   UNL     1       0.731  14.099   1.631  1.00  0.00     0.034 C 
ATOM      8  C   UNL     1       2.305  12.969   3.687  1.00  0.00    -0.029 C 
ATOM      9  C   UNL     1       1.160  12.628   4.646  1.00  0.00     0.012 C 
ATOM     10  C   UNL     1       3.615  12.192   3.846  1.00  0.00     0.012 C 
ENDROOT
TORSDOF 0
ENDMDL
