MODEL 1
REMARK VINA RESULT:    14.998      0.000      0.000
REMARK INTER + INTRA:          25.346
REMARK INTER:                  22.889
REMARK INTRA:                   2.456
REMARK UNBOUND:                 2.456
REMARK SMILES CC1=CCC[C@H](C)C(=O)C[C@@H](C(C)C)C(=O)C1
REMARK SMILES IDX 8 1 9 2 6 3 7 4 5 5 4 6 3 7 2 8 1 9 10 11 11 12 15 13 16 14
REMARK SMILES IDX 17 15 12 17 13 18 14 19
REMARK H PARENT
REMARK Flexibility Score: 70.00
ROOT
ATOM      1  C   UNL     1     -28.756  34.898 -12.160  1.00  0.00     0.136 C 
ATOM      2  O   UNL     1     -28.773  35.920 -12.833  1.00  0.00    -0.299 OA
ENDROOT
BRANCH   1   3
ATOM      3  C   UNL     1     -29.025  33.562 -12.828  1.00  0.00     0.053 C 
ATOM      4  C   UNL     1     -29.856  33.758 -14.103  1.00  0.00     0.016 C 
BRANCH   3   5
ATOM      5  C   UNL     1     -27.697  32.836 -13.140  1.00  0.00     0.015 C 
BRANCH   5   6
ATOM      6  C   UNL     1     -27.024  33.401 -14.407  1.00  0.00     0.028 C 
BRANCH   6   7
ATOM      7  C   UNL     1     -25.984  34.454 -14.111  1.00  0.00    -0.028 C 
ATOM      8  C   UNL     1     -25.382  34.653 -12.913  1.00  0.00    -0.070 CG0
ATOM      9  C   UNL     1     -24.289  35.690 -12.844  1.00  0.00     0.039 C 
ATOM     10  G   UNL     1     -25.781  33.926 -11.635  1.00  0.00     0.000 G0
ENDBRANCH   6   7
ENDBRANCH   5   6
ENDBRANCH   3   5
ENDBRANCH   1   3
BRANCH   1  11
ATOM     11  C   UNL     1     -28.473  35.001 -10.678  1.00  0.00     0.087 C 
BRANCH  11  12
ATOM     12  C   UNL     1     -27.156  35.762 -10.387  1.00  0.00     0.066 C 
BRANCH  12  13
ATOM     13  C   UNL     1     -25.956  34.825 -10.442  1.00  0.00     0.140 C 
ATOM     14  O   UNL     1     -25.135  34.812  -9.537  1.00  0.00    -0.299 OA
BRANCH  13  15
ATOM     15  C   UNL     1     -25.762  33.928 -11.640  1.00  0.00     0.106 CG0
ATOM     16  G   UNL     1     -25.400  34.671 -12.920  1.00  0.00     0.000 G0
ENDBRANCH  13  15
ENDBRANCH  12  13
BRANCH  12  17
ATOM     17  C   UNL     1     -27.237  36.620  -9.084  1.00  0.00    -0.006 C 
ATOM     18  C   UNL     1     -26.685  35.860  -7.869  1.00  0.00     0.008 C 
ATOM     19  C   UNL     1     -28.636  37.185  -8.774  1.00  0.00     0.008 C 
ENDBRANCH  12  17
ENDBRANCH  11  12
ENDBRANCH   1  11
TORSDOF 1
ENDMDL
MODEL 2
REMARK VINA RESULT:    16.128      1.644      3.391
REMARK INTER + INTRA:          27.070
REMARK INTER:                  25.528
REMARK INTRA:                   1.542
REMARK UNBOUND:                 2.456
REMARK SMILES CC1=CCC[C@H](C)C(=O)C[C@@H](C(C)C)C(=O)C1
REMARK SMILES IDX 8 1 9 2 6 3 7 4 5 5 4 6 3 7 2 8 1 9 10 11 11 12 15 13 16 14
REMARK SMILES IDX 17 15 12 17 13 18 14 19
REMARK H PARENT
REMARK Flexibility Score: 70.00
ROOT
ATOM      1  C   UNL     1     -25.488  34.268 -11.779  1.00  0.00     0.136 C 
ATOM      2  O   UNL     1     -25.538  33.056 -11.610  1.00  0.00    -0.299 OA
ENDROOT
BRANCH   1   3
ATOM      3  C   UNL     1     -25.511  34.823 -13.191  1.00  0.00     0.053 C 
ATOM      4  C   UNL     1     -24.100  35.246 -13.624  1.00  0.00     0.016 C 
BRANCH   3   5
ATOM      5  C   UNL     1     -26.101  33.784 -14.172  1.00  0.00     0.015 C 
BRANCH   5   6
ATOM      6  C   UNL     1     -27.570  34.099 -14.517  1.00  0.00     0.028 C 
BRANCH   6   7
ATOM      7  C   UNL     1     -28.533  33.748 -13.408  1.00  0.00    -0.028 C 
ATOM      8  C   UNL     1     -28.779  34.504 -12.310  1.00  0.00    -0.070 CG0
ATOM      9  C   UNL     1     -29.856  34.032 -11.365  1.00  0.00     0.039 C 
ATOM     10  G   UNL     1     -28.000  35.765 -11.959  1.00  0.00     0.000 G0
ENDBRANCH   6   7
ENDBRANCH   5   6
ENDBRANCH   3   5
ENDBRANCH   1   3
BRANCH   1  11
ATOM     11  C   UNL     1     -25.397  35.174 -10.572  1.00  0.00     0.087 C 
BRANCH  11  12
ATOM     12  C   UNL     1     -26.712  35.188  -9.753  1.00  0.00     0.066 C 
BRANCH  12  13
ATOM     13  C   UNL     1     -27.801  35.971 -10.476  1.00  0.00     0.140 C 
ATOM     14  O   UNL     1     -28.515  36.752  -9.865  1.00  0.00    -0.299 OA
BRANCH  13  15
ATOM     15  C   UNL     1     -28.021  35.756 -11.953  1.00  0.00     0.106 CG0
ATOM     16  G   UNL     1     -28.787  34.482 -12.289  1.00  0.00     0.000 G0
ENDBRANCH  13  15
ENDBRANCH  12  13
BRANCH  12  17
ATOM     17  C   UNL     1     -26.487  35.626  -8.271  1.00  0.00    -0.006 C 
ATOM     18  C   UNL     1     -25.056  36.134  -8.040  1.00  0.00     0.008 C 
ATOM     19  C   UNL     1     -26.854  34.558  -7.224  1.00  0.00     0.008 C 
ENDBRANCH  12  17
ENDBRANCH  11  12
ENDBRANCH   1  11
TORSDOF 1
ENDMDL
MODEL 3
REMARK VINA RESULT:    16.271      1.145      1.472
REMARK INTER + INTRA:          27.288
REMARK INTER:                  25.524
REMARK INTRA:                   1.764
REMARK UNBOUND:                 2.456
REMARK SMILES CC1=CCC[C@H](C)C(=O)C[C@@H](C(C)C)C(=O)C1
REMARK SMILES IDX 8 1 9 2 6 3 7 4 5 5 4 6 3 7 2 8 1 9 10 11 11 12 15 13 16 14
REMARK SMILES IDX 17 15 12 17 13 18 14 19
REMARK H PARENT
REMARK Flexibility Score: 70.00
ROOT
ATOM      1  C   UNL     1     -28.373  34.998 -11.714  1.00  0.00     0.136 C 
ATOM      2  O   UNL     1     -28.462  36.139 -12.148  1.00  0.00    -0.299 OA
ENDROOT
BRANCH   1   3
ATOM      3  C   UNL     1     -28.505  33.825 -12.669  1.00  0.00     0.053 C 
ATOM      4  C   UNL     1     -29.876  33.849 -13.360  1.00  0.00     0.016 C 
BRANCH   3   5
ATOM      5  C   UNL     1     -27.362  33.843 -13.709  1.00  0.00     0.015 C 
BRANCH   5   6
ATOM      6  C   UNL     1     -26.030  33.365 -13.097  1.00  0.00     0.028 C 
BRANCH   6   7
ATOM      7  C   UNL     1     -24.862  34.259 -13.435  1.00  0.00    -0.028 C 
ATOM      8  C   UNL     1     -24.581  35.446 -12.844  1.00  0.00    -0.070 CG0
ATOM      9  C   UNL     1     -23.306  36.143 -13.249  1.00  0.00     0.039 C 
ATOM     10  G   UNL     1     -25.501  36.129 -11.840  1.00  0.00     0.000 G0
ENDBRANCH   6   7
ENDBRANCH   5   6
ENDBRANCH   3   5
ENDBRANCH   1   3
BRANCH   1  11
ATOM     11  C   UNL     1     -28.142  34.792 -10.234  1.00  0.00     0.087 C 
BRANCH  11  12
ATOM     12  C   UNL     1     -26.960  35.643  -9.705  1.00  0.00     0.066 C 
BRANCH  12  13
ATOM     13  C   UNL     1     -25.700  35.405 -10.526  1.00  0.00     0.140 C 
ATOM     14  O   UNL     1     -24.831  34.643 -10.126  1.00  0.00    -0.299 OA
BRANCH  13  15
ATOM     15  C   UNL     1     -25.506  36.140 -11.830  1.00  0.00     0.106 CG0
ATOM     16  G   UNL     1     -24.584  35.430 -12.813  1.00  0.00     0.000 G0
ENDBRANCH  13  15
ENDBRANCH  12  13
BRANCH  12  17
ATOM     17  C   UNL     1     -26.757  35.490  -8.164  1.00  0.00    -0.006 C 
ATOM     18  C   UNL     1     -25.378  36.000  -7.720  1.00  0.00     0.008 C 
ATOM     19  C   UNL     1     -27.004  34.070  -7.622  1.00  0.00     0.008 C 
ENDBRANCH  12  17
ENDBRANCH  11  12
ENDBRANCH   1  11
TORSDOF 1
ENDMDL
MODEL 4
REMARK VINA RESULT:    16.345      1.867      5.263
REMARK INTER + INTRA:          27.401
REMARK INTER:                  23.159
REMARK INTRA:                   4.241
REMARK UNBOUND:                 2.456
REMARK SMILES CC1=CCC[C@H](C)C(=O)C[C@@H](C(C)C)C(=O)C1
REMARK SMILES IDX 8 1 9 2 6 3 7 4 5 5 4 6 3 7 2 8 1 9 10 11 11 12 15 13 16 14
REMARK SMILES IDX 17 15 12 17 13 18 14 19
REMARK H PARENT
REMARK Flexibility Score: 70.00
ROOT
ATOM      1  C   UNL     1     -25.542  35.190  -9.320  1.00  0.00     0.136 C 
ATOM      2  O   UNL     1     -24.790  35.928  -9.944  1.00  0.00    -0.299 OA
ENDROOT
BRANCH   1   3
ATOM      3  C   UNL     1     -25.509  35.206  -7.802  1.00  0.00     0.053 C 
ATOM      4  C   UNL     1     -25.084  36.588  -7.289  1.00  0.00     0.016 C 
BRANCH   3   5
ATOM      5  C   UNL     1     -26.886  34.802  -7.227  1.00  0.00     0.015 C 
BRANCH   5   6
ATOM      6  C   UNL     1     -27.924  35.930  -7.394  1.00  0.00     0.028 C 
BRANCH   6   7
ATOM      7  C   UNL     1     -27.542  36.943  -8.445  1.00  0.00    -0.028 C 
ATOM      8  C   UNL     1     -28.060  37.017  -9.695  1.00  0.00    -0.070 CG0
ATOM      9  C   UNL     1     -27.624  38.169 -10.566  1.00  0.00     0.039 C 
ATOM     10  G   UNL     1     -29.012  35.980 -10.278  1.00  0.00     0.000 G0
ENDBRANCH   6   7
ENDBRANCH   5   6
ENDBRANCH   3   5
ENDBRANCH   1   3
BRANCH   1  11
ATOM     11  C   UNL     1     -26.477  34.279 -10.084  1.00  0.00     0.087 C 
BRANCH  11  12
ATOM     12  C   UNL     1     -26.909  34.892 -11.440  1.00  0.00     0.066 C 
BRANCH  12  13
ATOM     13  C   UNL     1     -28.397  35.217 -11.446  1.00  0.00     0.140 C 
ATOM     14  O   UNL     1     -29.106  34.866 -12.378  1.00  0.00    -0.299 OA
BRANCH  13  15
ATOM     15  C   UNL     1     -28.995  36.008 -10.308  1.00  0.00     0.106 CG0
ATOM     16  G   UNL     1     -28.048  37.036  -9.701  1.00  0.00     0.000 G0
ENDBRANCH  13  15
ENDBRANCH  12  13
BRANCH  12  17
ATOM     17  C   UNL     1     -26.436  34.037 -12.658  1.00  0.00    -0.006 C 
ATOM     18  C   UNL     1     -25.069  34.504 -13.182  1.00  0.00     0.008 C 
ATOM     19  C   UNL     1     -27.452  33.948 -13.812  1.00  0.00     0.008 C 
ENDBRANCH  12  17
ENDBRANCH  11  12
ENDBRANCH   1  11
TORSDOF 1
ENDMDL
