MODEL 1
REMARK VINA RESULT:    -3.666      0.000      0.000
REMARK INTER + INTRA:          -5.866
REMARK INTER:                  -5.380
REMARK INTRA:                  -0.486
REMARK UNBOUND:                -0.486
REMARK SMILES O=C([O-])CCCCCCCC(=O)[O-]
REMARK SMILES IDX 7 1 6 2 5 3 4 4 2 5 1 6 3 7 8 8 9 9 10 10 11 11 12 12 13 13
REMARK H PARENT
REMARK Flexibility Score: inf
ROOT
ATOM      1  C   UNL     1      -7.326  -9.433  -0.340  1.00  0.00     0.000 C 
ENDROOT
BRANCH   1   2
ATOM      2  C   UNL     1      -7.606  -7.923  -0.314  1.00  0.00     0.000 C 
BRANCH   2   3
ATOM      3  C   UNL     1      -6.370  -7.095   0.086  1.00  0.00     0.006 C 
BRANCH   3   4
ATOM      4  C   UNL     1      -6.691  -5.843   0.920  1.00  0.00     0.053 C 
BRANCH   4   5
ATOM      5  C   UNL     1      -7.763  -6.102   1.934  1.00  0.00     0.041 C 
ATOM      6  O   UNL     1      -8.862  -5.490   1.864  1.00  0.00    -0.550 OA
ATOM      7  O   UNL     1      -7.560  -7.042   2.935  1.00  0.00    -0.550 OA
ENDBRANCH   4   5
ENDBRANCH   3   4
ENDBRANCH   2   3
ENDBRANCH   1   2
BRANCH   1   8
ATOM      8  C   UNL     1      -6.721  -9.901   0.990  1.00  0.00     0.000 C 
BRANCH   8   9
ATOM      9  C   UNL     1      -5.386 -10.622   0.764  1.00  0.00     0.006 C 
BRANCH   9  10
ATOM     10  C   UNL     1      -5.570 -11.853  -0.128  1.00  0.00     0.053 C 
BRANCH  10  11
ATOM     11  C   UNL     1      -5.790 -13.075   0.706  1.00  0.00     0.041 C 
ATOM     12  O   UNL     1      -6.407 -14.064   0.229  1.00  0.00    -0.550 OA
ATOM     13  O   UNL     1      -5.359 -13.103   2.026  1.00  0.00    -0.550 OA
ENDBRANCH  10  11
ENDBRANCH   9  10
ENDBRANCH   8   9
ENDBRANCH   1   8
TORSDOF 8
ENDMDL
MODEL 2
REMARK VINA RESULT:    -3.587      0.963      6.371
REMARK INTER + INTRA:          -5.751
REMARK INTER:                  -5.367
REMARK INTRA:                  -0.384
REMARK UNBOUND:                -0.486
REMARK SMILES O=C([O-])CCCCCCCC(=O)[O-]
REMARK SMILES IDX 7 1 6 2 5 3 4 4 2 5 1 6 3 7 8 8 9 9 10 10 11 11 12 12 13 13
REMARK H PARENT
REMARK Flexibility Score: inf
ROOT
ATOM      1  C   UNL     1      -7.154  -9.282   0.561  1.00  0.00     0.000 C 
ENDROOT
BRANCH   1   2
ATOM      2  C   UNL     1      -6.781 -10.512  -0.281  1.00  0.00     0.000 C 
BRANCH   2   3
ATOM      3  C   UNL     1      -5.455 -11.157   0.162  1.00  0.00     0.006 C 
BRANCH   3   4
ATOM      4  C   UNL     1      -5.340 -12.655  -0.166  1.00  0.00     0.053 C 
BRANCH   4   5
ATOM      5  C   UNL     1      -6.073 -13.505   0.826  1.00  0.00     0.041 C 
ATOM      6  O   UNL     1      -6.461 -14.660   0.505  1.00  0.00    -0.550 OA
ATOM      7  O   UNL     1      -6.297 -13.036   2.113  1.00  0.00    -0.550 OA
ENDBRANCH   4   5
ENDBRANCH   3   4
ENDBRANCH   2   3
ENDBRANCH   1   2
BRANCH   1   8
ATOM      8  C   UNL     1      -7.565  -8.108  -0.337  1.00  0.00     0.000 C 
BRANCH   8   9
ATOM      9  C   UNL     1      -6.708  -6.869  -0.049  1.00  0.00     0.006 C 
BRANCH   9  10
ATOM     10  C   UNL     1      -6.442  -6.720   1.451  1.00  0.00     0.053 C 
BRANCH  10  11
ATOM     11  C   UNL     1      -7.385  -5.729   2.055  1.00  0.00     0.041 C 
ATOM     12  O   UNL     1      -7.124  -4.498   2.010  1.00  0.00    -0.550 OA
ATOM     13  O   UNL     1      -8.527  -6.167   2.713  1.00  0.00    -0.550 OA
ENDBRANCH  10  11
ENDBRANCH   9  10
ENDBRANCH   8   9
ENDBRANCH   1   8
TORSDOF 8
ENDMDL
MODEL 3
REMARK VINA RESULT:    -3.474      2.685      6.354
REMARK INTER + INTRA:          -5.585
REMARK INTER:                  -5.135
REMARK INTRA:                  -0.451
REMARK UNBOUND:                -0.486
REMARK SMILES O=C([O-])CCCCCCCC(=O)[O-]
REMARK SMILES IDX 7 1 6 2 5 3 4 4 2 5 1 6 3 7 8 8 9 9 10 10 11 11 12 12 13 13
REMARK H PARENT
REMARK Flexibility Score: inf
ROOT
ATOM      1  C   UNL     1      -7.861  -6.574   0.601  1.00  0.00     0.000 C 
ENDROOT
BRANCH   1   2
ATOM      2  C   UNL     1      -7.037  -7.552  -0.250  1.00  0.00     0.000 C 
BRANCH   2   3
ATOM      3  C   UNL     1      -7.616  -8.979  -0.246  1.00  0.00     0.006 C 
BRANCH   3   4
ATOM      4  C   UNL     1      -6.568 -10.087  -0.445  1.00  0.00     0.053 C 
BRANCH   4   5
ATOM      5  C   UNL     1      -6.387 -10.917   0.788  1.00  0.00     0.041 C 
ATOM      6  O   UNL     1      -6.742 -10.471   1.911  1.00  0.00    -0.550 OA
ATOM      7  O   UNL     1      -5.856 -12.197   0.693  1.00  0.00    -0.550 OA
ENDBRANCH   4   5
ENDBRANCH   3   4
ENDBRANCH   2   3
ENDBRANCH   1   2
BRANCH   1   8
ATOM      8  C   UNL     1      -6.965  -5.822   1.594  1.00  0.00     0.000 C 
BRANCH   8   9
ATOM      9  C   UNL     1      -5.615  -5.467   0.958  1.00  0.00     0.006 C 
BRANCH   9  10
ATOM     10  C   UNL     1      -5.607  -4.020   0.457  1.00  0.00     0.053 C 
BRANCH  10  11
ATOM     11  C   UNL     1      -5.226  -3.968  -0.989  1.00  0.00     0.041 C 
ATOM     12  O   UNL     1      -4.875  -5.017  -1.590  1.00  0.00    -0.550 OA
ATOM     13  O   UNL     1      -5.211  -2.752  -1.660  1.00  0.00    -0.550 OA
ENDBRANCH  10  11
ENDBRANCH   9  10
ENDBRANCH   8   9
ENDBRANCH   1   8
TORSDOF 8
ENDMDL
MODEL 4
REMARK VINA RESULT:    -3.433     19.604     21.338
REMARK INTER + INTRA:          -5.524
REMARK INTER:                  -5.000
REMARK INTRA:                  -0.524
REMARK UNBOUND:                -0.486
REMARK SMILES O=C([O-])CCCCCCCC(=O)[O-]
REMARK SMILES IDX 7 1 6 2 5 3 4 4 2 5 1 6 3 7 8 8 9 9 10 10 11 11 12 12 13 13
REMARK H PARENT
REMARK Flexibility Score: inf
ROOT
ATOM      1  C   UNL     1     -20.665  -4.225 -12.923  1.00  0.00     0.000 C 
ENDROOT
BRANCH   1   2
ATOM      2  C   UNL     1     -19.923  -5.051 -13.984  1.00  0.00     0.000 C 
BRANCH   2   3
ATOM      3  C   UNL     1     -20.671  -6.342 -14.364  1.00  0.00     0.006 C 
BRANCH   3   4
ATOM      4  C   UNL     1     -19.828  -7.622 -14.241  1.00  0.00     0.053 C 
BRANCH   4   5
ATOM      5  C   UNL     1     -20.279  -8.486 -13.103  1.00  0.00     0.041 C 
ATOM      6  O   UNL     1     -20.825  -7.968 -12.093  1.00  0.00    -0.550 OA
ATOM      7  O   UNL     1     -20.126  -9.864 -13.174  1.00  0.00    -0.550 OA
ENDBRANCH   4   5
ENDBRANCH   3   4
ENDBRANCH   2   3
ENDBRANCH   1   2
BRANCH   1   8
ATOM      8  C   UNL     1     -22.127  -4.672 -12.804  1.00  0.00     0.000 C 
BRANCH   8   9
ATOM      9  C   UNL     1     -23.075  -3.466 -12.819  1.00  0.00     0.006 C 
BRANCH   9  10
ATOM     10  C   UNL     1     -22.307  -2.161 -12.592  1.00  0.00     0.053 C 
BRANCH  10  11
ATOM     11  C   UNL     1     -22.546  -1.646 -11.208  1.00  0.00     0.041 C 
ATOM     12  O   UNL     1     -21.694  -1.845 -10.302  1.00  0.00    -0.550 OA
ATOM     13  O   UNL     1     -23.732  -0.990 -10.905  1.00  0.00    -0.550 OA
ENDBRANCH  10  11
ENDBRANCH   9  10
ENDBRANCH   8   9
ENDBRANCH   1   8
TORSDOF 8
ENDMDL
MODEL 5
REMARK VINA RESULT:    -3.422     20.377     21.827
REMARK INTER + INTRA:          -5.509
REMARK INTER:                  -4.581
REMARK INTRA:                  -0.928
REMARK UNBOUND:                -0.486
REMARK SMILES O=C([O-])CCCCCCCC(=O)[O-]
REMARK SMILES IDX 7 1 6 2 5 3 4 4 2 5 1 6 3 7 8 8 9 9 10 10 11 11 12 12 13 13
REMARK H PARENT
REMARK Flexibility Score: inf
ROOT
ATOM      1  C   UNL     1     -22.647  -4.756 -12.689  1.00  0.00     0.000 C 
ENDROOT
BRANCH   1   2
ATOM      2  C   UNL     1     -23.630  -4.182 -13.719  1.00  0.00     0.000 C 
BRANCH   2   3
ATOM      3  C   UNL     1     -23.198  -4.454 -15.172  1.00  0.00     0.006 C 
BRANCH   3   4
ATOM      4  C   UNL     1     -23.633  -5.825 -15.715  1.00  0.00     0.053 C 
BRANCH   4   5
ATOM      5  C   UNL     1     -22.464  -6.653 -16.155  1.00  0.00     0.041 C 
ATOM      6  O   UNL     1     -21.362  -6.103 -16.419  1.00  0.00    -0.550 OA
ATOM      7  O   UNL     1     -22.584  -8.034 -16.242  1.00  0.00    -0.550 OA
ENDBRANCH   4   5
ENDBRANCH   3   4
ENDBRANCH   2   3
ENDBRANCH   1   2
BRANCH   1   8
ATOM      8  C   UNL     1     -21.219  -4.268 -12.962  1.00  0.00     0.000 C 
BRANCH   8   9
ATOM      9  C   UNL     1     -20.248  -5.449 -13.092  1.00  0.00     0.006 C 
BRANCH   9  10
ATOM     10  C   UNL     1     -20.944  -6.771 -12.757  1.00  0.00     0.053 C 
BRANCH  10  11
ATOM     11  C   UNL     1     -20.209  -7.920 -13.372  1.00  0.00     0.041 C 
ATOM     12  O   UNL     1     -19.378  -7.719 -14.295  1.00  0.00    -0.550 OA
ATOM     13  O   UNL     1     -20.481  -9.219 -12.960  1.00  0.00    -0.550 OA
ENDBRANCH  10  11
ENDBRANCH   9  10
ENDBRANCH   8   9
ENDBRANCH   1   8
TORSDOF 8
ENDMDL
MODEL 6
REMARK VINA RESULT:    -3.407     19.841     21.236
REMARK INTER + INTRA:          -5.487
REMARK INTER:                  -4.781
REMARK INTRA:                  -0.706
REMARK UNBOUND:                -0.486
REMARK SMILES O=C([O-])CCCCCCCC(=O)[O-]
REMARK SMILES IDX 7 1 6 2 5 3 4 4 2 5 1 6 3 7 8 8 9 9 10 10 11 11 12 12 13 13
REMARK H PARENT
REMARK Flexibility Score: inf
ROOT
ATOM      1  C   UNL     1     -19.895  -4.627 -14.347  1.00  0.00     0.000 C 
ENDROOT
BRANCH   1   2
ATOM      2  C   UNL     1     -20.905  -3.555 -13.912  1.00  0.00     0.000 C 
BRANCH   2   3
ATOM      3  C   UNL     1     -21.556  -3.865 -12.551  1.00  0.00     0.006 C 
BRANCH   3   4
ATOM      4  C   UNL     1     -22.872  -4.655 -12.645  1.00  0.00     0.053 C 
BRANCH   4   5
ATOM      5  C   UNL     1     -23.765  -4.135 -13.729  1.00  0.00     0.041 C 
ATOM      6  O   UNL     1     -24.332  -3.018 -13.601  1.00  0.00    -0.550 OA
ATOM      7  O   UNL     1     -23.942  -4.868 -14.895  1.00  0.00    -0.550 OA
ENDBRANCH   4   5
ENDBRANCH   3   4
ENDBRANCH   2   3
ENDBRANCH   1   2
BRANCH   1   8
ATOM      8  C   UNL     1     -20.494  -5.538 -15.426  1.00  0.00     0.000 C 
BRANCH   8   9
ATOM      9  C   UNL     1     -20.955  -6.873 -14.826  1.00  0.00     0.006 C 
BRANCH   9  10
ATOM     10  C   UNL     1     -19.822  -7.546 -14.047  1.00  0.00     0.053 C 
BRANCH  10  11
ATOM     11  C   UNL     1     -20.375  -8.494 -13.031  1.00  0.00     0.041 C 
ATOM     12  O   UNL     1     -20.957  -8.055 -12.005  1.00  0.00    -0.550 OA
ATOM     13  O   UNL     1     -20.202  -9.863 -13.192  1.00  0.00    -0.550 OA
ENDBRANCH  10  11
ENDBRANCH   9  10
ENDBRANCH   8   9
ENDBRANCH   1   8
TORSDOF 8
ENDMDL
MODEL 7
REMARK VINA RESULT:    -3.401      2.309      3.470
REMARK INTER + INTRA:          -5.477
REMARK INTER:                  -5.174
REMARK INTRA:                  -0.303
REMARK UNBOUND:                -0.486
REMARK SMILES O=C([O-])CCCCCCCC(=O)[O-]
REMARK SMILES IDX 7 1 6 2 5 3 4 4 2 5 1 6 3 7 8 8 9 9 10 10 11 11 12 12 13 13
REMARK H PARENT
REMARK Flexibility Score: inf
ROOT
ATOM      1  C   UNL     1      -7.874  -6.480   1.059  1.00  0.00     0.000 C 
ENDROOT
BRANCH   1   2
ATOM      2  C   UNL     1      -7.792  -5.636   2.339  1.00  0.00     0.000 C 
BRANCH   2   3
ATOM      3  C   UNL     1      -9.164  -5.433   3.009  1.00  0.00     0.006 C 
BRANCH   3   4
ATOM      4  C   UNL     1      -9.844  -4.097   2.665  1.00  0.00     0.053 C 
BRANCH   4   5
ATOM      5  C   UNL     1     -11.188  -4.296   2.033  1.00  0.00     0.041 C 
ATOM      6  O   UNL     1     -12.237  -4.059   2.689  1.00  0.00    -0.550 OA
ATOM      7  O   UNL     1     -11.280  -4.712   0.712  1.00  0.00    -0.550 OA
ENDBRANCH   4   5
ENDBRANCH   3   4
ENDBRANCH   2   3
ENDBRANCH   1   2
BRANCH   1   8
ATOM      8  C   UNL     1      -6.476  -6.902   0.590  1.00  0.00     0.000 C 
BRANCH   8   9
ATOM      9  C   UNL     1      -6.126  -8.308   1.097  1.00  0.00     0.006 C 
BRANCH   9  10
ATOM     10  C   UNL     1      -7.111  -9.348   0.556  1.00  0.00     0.053 C 
BRANCH  10  11
ATOM     11  C   UNL     1      -6.437 -10.673   0.393  1.00  0.00     0.041 C 
ATOM     12  O   UNL     1      -5.971 -11.014  -0.726  1.00  0.00    -0.550 OA
ATOM     13  O   UNL     1      -6.367 -11.553   1.465  1.00  0.00    -0.550 OA
ENDBRANCH  10  11
ENDBRANCH   9  10
ENDBRANCH   8   9
ENDBRANCH   1   8
TORSDOF 8
ENDMDL
MODEL 8
REMARK VINA RESULT:    -3.398      1.717      2.464
REMARK INTER + INTRA:          -5.473
REMARK INTER:                  -5.172
REMARK INTRA:                  -0.301
REMARK UNBOUND:                -0.486
REMARK SMILES O=C([O-])CCCCCCCC(=O)[O-]
REMARK SMILES IDX 7 1 6 2 5 3 4 4 2 5 1 6 3 7 8 8 9 9 10 10 11 11 12 12 13 13
REMARK H PARENT
REMARK Flexibility Score: inf
ROOT
ATOM      1  C   UNL     1      -6.356 -10.775  -0.283  1.00  0.00     0.000 C 
ENDROOT
BRANCH   1   2
ATOM      2  C   UNL     1      -6.621 -10.402   1.183  1.00  0.00     0.000 C 
BRANCH   2   3
ATOM      3  C   UNL     1      -6.871  -8.894   1.378  1.00  0.00     0.006 C 
BRANCH   3   4
ATOM      4  C   UNL     1      -7.182  -8.131   0.080  1.00  0.00     0.053 C 
BRANCH   4   5
ATOM      5  C   UNL     1      -6.851  -6.675   0.191  1.00  0.00     0.041 C 
ATOM      6  O   UNL     1      -7.437  -5.954   1.041  1.00  0.00    -0.550 OA
ATOM      7  O   UNL     1      -5.872  -6.121  -0.624  1.00  0.00    -0.550 OA
ENDBRANCH   4   5
ENDBRANCH   3   4
ENDBRANCH   2   3
ENDBRANCH   1   2
BRANCH   1   8
ATOM      8  C   UNL     1      -5.208 -11.786  -0.393  1.00  0.00     0.000 C 
BRANCH   8   9
ATOM      9  C   UNL     1      -5.311 -12.857   0.700  1.00  0.00     0.006 C 
BRANCH   9  10
ATOM     10  C   UNL     1      -6.293 -13.961   0.297  1.00  0.00     0.053 C 
BRANCH  10  11
ATOM     11  C   UNL     1      -6.344 -15.027   1.345  1.00  0.00     0.041 C 
ATOM     12  O   UNL     1      -6.286 -16.241   1.017  1.00  0.00    -0.550 OA
ATOM     13  O   UNL     1      -6.505 -14.681   2.680  1.00  0.00    -0.550 OA
ENDBRANCH  10  11
ENDBRANCH   9  10
ENDBRANCH   8   9
ENDBRANCH   1   8
TORSDOF 8
ENDMDL
