MODEL 1
REMARK VINA RESULT:    -3.242      0.000      0.000
REMARK INTER + INTRA:          -3.626
REMARK INTER:                  -3.621
REMARK INTRA:                  -0.006
REMARK UNBOUND:                -0.006
REMARK SMILES CCCC(=O)[O-]
REMARK SMILES IDX 3 1 4 2 5 3 6 4 2 5 1 6
REMARK H PARENT
REMARK Flexibility Score: inf
ROOT
ATOM      1  C   UNL     1      38.563  73.737  73.549  1.00  0.00     0.052 C 
ENDROOT
BRANCH   1   2
ATOM      2  C   UNL     1      37.256  73.745  72.821  1.00  0.00     0.041 C 
ATOM      3  O   UNL     1      36.190  74.020  73.434  1.00  0.00    -0.550 OA
ATOM      4  O   UNL     1      37.208  73.401  71.476  1.00  0.00    -0.550 OA
ENDBRANCH   1   2
BRANCH   1   5
ATOM      5  C   UNL     1      39.448  74.892  73.073  1.00  0.00     0.003 C 
ATOM      6  C   UNL     1      40.450  75.298  74.151  1.00  0.00     0.004 C 
ENDBRANCH   1   5
TORSDOF 2
ENDMDL
MODEL 2
REMARK VINA RESULT:    -3.120      2.206      3.103
REMARK INTER + INTRA:          -3.490
REMARK INTER:                  -3.457
REMARK INTRA:                  -0.034
REMARK UNBOUND:                -0.006
REMARK SMILES CCCC(=O)[O-]
REMARK SMILES IDX 3 1 4 2 5 3 6 4 2 5 1 6
REMARK H PARENT
REMARK Flexibility Score: inf
ROOT
ATOM      1  C   UNL     1      38.095  73.745  72.510  1.00  0.00     0.052 C 
ENDROOT
BRANCH   1   2
ATOM      2  C   UNL     1      39.191  74.691  72.888  1.00  0.00     0.041 C 
ATOM      3  O   UNL     1      39.576  74.769  74.085  1.00  0.00    -0.550 OA
ATOM      4  O   UNL     1      39.753  75.523  71.929  1.00  0.00    -0.550 OA
ENDBRANCH   1   2
BRANCH   1   5
ATOM      5  C   UNL     1      36.931  73.853  73.498  1.00  0.00     0.003 C 
ATOM      6  C   UNL     1      36.812  72.590  74.347  1.00  0.00     0.004 C 
ENDBRANCH   1   5
TORSDOF 2
ENDMDL
MODEL 3
REMARK VINA RESULT:    -3.037      2.349      3.452
REMARK INTER + INTRA:          -3.398
REMARK INTER:                  -3.433
REMARK INTRA:                   0.035
REMARK UNBOUND:                -0.006
REMARK SMILES CCCC(=O)[O-]
REMARK SMILES IDX 3 1 4 2 5 3 6 4 2 5 1 6
REMARK H PARENT
REMARK Flexibility Score: inf
ROOT
ATOM      1  C   UNL     1      38.539  73.791  73.517  1.00  0.00     0.052 C 
ENDROOT
BRANCH   1   2
ATOM      2  C   UNL     1      39.541  74.883  73.310  1.00  0.00     0.041 C 
ATOM      3  O   UNL     1      39.678  75.411  72.175  1.00  0.00    -0.550 OA
ATOM      4  O   UNL     1      40.358  75.284  74.360  1.00  0.00    -0.550 OA
ENDBRANCH   1   2
BRANCH   1   5
ATOM      5  C   UNL     1      37.315  74.012  72.625  1.00  0.00     0.003 C 
ATOM      6  C   UNL     1      37.384  73.145  71.371  1.00  0.00     0.004 C 
ENDBRANCH   1   5
TORSDOF 2
ENDMDL
MODEL 4
REMARK VINA RESULT:    -2.920      2.093      3.088
REMARK INTER + INTRA:          -3.267
REMARK INTER:                  -3.232
REMARK INTRA:                  -0.035
REMARK UNBOUND:                -0.006
REMARK SMILES CCCC(=O)[O-]
REMARK SMILES IDX 3 1 4 2 5 3 6 4 2 5 1 6
REMARK H PARENT
REMARK Flexibility Score: inf
ROOT
ATOM      1  C   UNL     1      38.028  73.412  72.420  1.00  0.00     0.052 C 
ENDROOT
BRANCH   1   2
ATOM      2  C   UNL     1      37.024  73.304  73.524  1.00  0.00     0.041 C 
ATOM      3  O   UNL     1      36.184  74.224  73.709  1.00  0.00    -0.550 OA
ATOM      4  O   UNL     1      37.048  72.211  74.380  1.00  0.00    -0.550 OA
ENDBRANCH   1   2
BRANCH   1   5
ATOM      5  C   UNL     1      37.324  73.495  71.063  1.00  0.00     0.003 C 
ATOM      6  C   UNL     1      37.276  72.130  70.383  1.00  0.00     0.004 C 
ENDBRANCH   1   5
TORSDOF 2
ENDMDL
MODEL 5
REMARK VINA RESULT:    -2.874      3.633      4.330
REMARK INTER + INTRA:          -3.216
REMARK INTER:                  -3.209
REMARK INTRA:                  -0.007
REMARK UNBOUND:                -0.006
REMARK SMILES CCCC(=O)[O-]
REMARK SMILES IDX 3 1 4 2 5 3 6 4 2 5 1 6
REMARK H PARENT
REMARK Flexibility Score: inf
ROOT
ATOM      1  C   UNL     1      36.668  72.109  75.461  1.00  0.00     0.052 C 
ENDROOT
BRANCH   1   2
ATOM      2  C   UNL     1      36.644  70.640  75.741  1.00  0.00     0.041 C 
ATOM      3  O   UNL     1      37.478  70.132  76.536  1.00  0.00    -0.550 OA
ATOM      4  O   UNL     1      35.731  69.823  75.086  1.00  0.00    -0.550 OA
ENDBRANCH   1   2
BRANCH   1   5
ATOM      5  C   UNL     1      37.024  72.369  73.995  1.00  0.00     0.003 C 
ATOM      6  C   UNL     1      36.704  73.808  73.598  1.00  0.00     0.004 C 
ENDBRANCH   1   5
TORSDOF 2
ENDMDL
MODEL 6
REMARK VINA RESULT:    -2.853     14.561     15.053
REMARK INTER + INTRA:          -3.192
REMARK INTER:                  -3.186
REMARK INTRA:                  -0.006
REMARK UNBOUND:                -0.006
REMARK SMILES CCCC(=O)[O-]
REMARK SMILES IDX 3 1 4 2 5 3 6 4 2 5 1 6
REMARK H PARENT
REMARK Flexibility Score: inf
ROOT
ATOM      1  C   UNL     1      25.944  67.718  75.981  1.00  0.00     0.052 C 
ENDROOT
BRANCH   1   2
ATOM      2  C   UNL     1      24.624  68.385  76.204  1.00  0.00     0.041 C 
ATOM      3  O   UNL     1      24.049  68.986  75.257  1.00  0.00    -0.550 OA
ATOM      4  O   UNL     1      24.051  68.387  77.469  1.00  0.00    -0.550 OA
ENDBRANCH   1   2
BRANCH   1   5
ATOM      5  C   UNL     1      25.757  66.210  75.799  1.00  0.00     0.003 C 
ATOM      6  C   UNL     1      26.918  65.601  75.016  1.00  0.00     0.004 C 
ENDBRANCH   1   5
TORSDOF 2
ENDMDL
MODEL 7
REMARK VINA RESULT:    -2.755      2.201      3.332
REMARK INTER + INTRA:          -3.083
REMARK INTER:                  -3.076
REMARK INTRA:                  -0.007
REMARK UNBOUND:                -0.006
REMARK SMILES CCCC(=O)[O-]
REMARK SMILES IDX 3 1 4 2 5 3 6 4 2 5 1 6
REMARK H PARENT
REMARK Flexibility Score: inf
ROOT
ATOM      1  C   UNL     1      36.627  73.101  73.932  1.00  0.00     0.052 C 
ENDROOT
BRANCH   1   2
ATOM      2  C   UNL     1      37.599  73.566  72.894  1.00  0.00     0.041 C 
ATOM      3  O   UNL     1      37.380  73.340  71.675  1.00  0.00    -0.550 OA
ATOM      4  O   UNL     1      38.771  74.205  73.277  1.00  0.00    -0.550 OA
ENDBRANCH   1   2
BRANCH   1   5
ATOM      5  C   UNL     1      37.330  72.219  74.967  1.00  0.00     0.003 C 
ATOM      6  C   UNL     1      36.415  71.093  75.443  1.00  0.00     0.004 C 
ENDBRANCH   1   5
TORSDOF 2
ENDMDL
MODEL 8
REMARK VINA RESULT:    -2.753     14.269     14.985
REMARK INTER + INTRA:          -3.081
REMARK INTER:                  -3.071
REMARK INTRA:                  -0.010
REMARK UNBOUND:                -0.006
REMARK SMILES CCCC(=O)[O-]
REMARK SMILES IDX 3 1 4 2 5 3 6 4 2 5 1 6
REMARK H PARENT
REMARK Flexibility Score: inf
ROOT
ATOM      1  C   UNL     1      26.020  67.412  75.908  1.00  0.00     0.052 C 
ENDROOT
BRANCH   1   2
ATOM      2  C   UNL     1      26.261  66.277  74.963  1.00  0.00     0.041 C 
ATOM      3  O   UNL     1      27.304  65.579  75.064  1.00  0.00    -0.550 OA
ATOM      4  O   UNL     1      25.357  66.021  73.940  1.00  0.00    -0.550 OA
ENDBRANCH   1   2
BRANCH   1   5
ATOM      5  C   UNL     1      24.686  67.229  76.636  1.00  0.00     0.003 C 
ATOM      6  C   UNL     1      24.152  68.563  77.151  1.00  0.00     0.004 C 
ENDBRANCH   1   5
TORSDOF 2
ENDMDL
MODEL 9
REMARK VINA RESULT:    -2.659     14.570     15.195
REMARK INTER + INTRA:          -2.975
REMARK INTER:                  -2.905
REMARK INTRA:                  -0.070
REMARK UNBOUND:                -0.006
REMARK SMILES CCCC(=O)[O-]
REMARK SMILES IDX 3 1 4 2 5 3 6 4 2 5 1 6
REMARK H PARENT
REMARK Flexibility Score: inf
ROOT
ATOM      1  C   UNL     1      26.950  65.722  75.121  1.00  0.00     0.052 C 
ENDROOT
BRANCH   1   2
ATOM      2  C   UNL     1      26.197  64.925  74.103  1.00  0.00     0.041 C 
ATOM      3  O   UNL     1      25.796  65.471  73.041  1.00  0.00    -0.550 OA
ATOM      4  O   UNL     1      25.894  63.592  74.349  1.00  0.00    -0.550 OA
ENDBRANCH   1   2
BRANCH   1   5
ATOM      5  C   UNL     1      26.147  66.957  75.535  1.00  0.00     0.003 C 
ATOM      6  C   UNL     1      24.917  66.567  76.350  1.00  0.00     0.004 C 
ENDBRANCH   1   5
TORSDOF 2
ENDMDL
