MODEL 1
REMARK VINA RESULT:    -8.373      0.000      0.000
REMARK INTER + INTRA:         -10.151
REMARK INTER:                  -9.841
REMARK INTRA:                  -0.310
REMARK UNBOUND:                -0.310
REMARK SMILES O=c1c(O)c(-c2ccc(O)c(O)c2)oc2cc(O)ccc12
REMARK SMILES IDX 5 1 3 2 2 3 1 4 21 5 15 6 14 7 16 8 17 9 19 10 20 11 6 12
REMARK SMILES IDX 7 13 8 14 9 15 13 16 11 17 10 18 12 20 4 22 18 24
REMARK H PARENT 10 19 12 21 4 23 18 25
REMARK Flexibility Score: inf
ROOT
ATOM      1  C   UNL     1      10.650  38.859  22.481  1.00  0.00     0.180 A 
ATOM      2  C   UNL     1      11.843  38.361  21.917  1.00  0.00     0.208 A 
ATOM      3  C   UNL     1      12.210  38.781  20.629  1.00  0.00     0.235 A 
ATOM      4  O   UNL     1      13.266  38.342  20.098  1.00  0.00    -0.285 OA
ATOM      5  C   UNL     1      11.395  39.698  19.945  1.00  0.00     0.069 A 
ATOM      6  C   UNL     1      10.230  40.168  20.588  1.00  0.00     0.142 A 
ATOM      7  O   UNL     1       9.914  39.738  21.804  1.00  0.00    -0.452 OA
ATOM      8  C   UNL     1       9.399  41.091  19.942  1.00  0.00     0.094 A 
ATOM      9  C   UNL     1       9.715  41.548  18.660  1.00  0.00     0.119 A 
ATOM     10  C   UNL     1      10.871  41.083  18.018  1.00  0.00     0.047 A 
ATOM     11  C   UNL     1      11.709  40.163  18.655  1.00  0.00     0.020 A 
ENDROOT
BRANCH   1  12
ATOM     12  C   UNL     1      10.186  38.450  23.826  1.00  0.00     0.025 A 
ATOM     13  C   UNL     1       9.456  37.260  23.972  1.00  0.00     0.016 A 
ATOM     14  C   UNL     1       9.025  36.844  25.235  1.00  0.00     0.051 A 
ATOM     15  C   UNL     1       9.329  37.601  26.370  1.00  0.00     0.157 A 
ATOM     16  C   UNL     1      10.508  39.200  24.971  1.00  0.00     0.062 A 
ATOM     17  C   UNL     1      10.078  38.783  26.240  1.00  0.00     0.158 A 
BRANCH  15  18
ATOM     18  O   UNL     1       8.884  37.163  27.617  1.00  0.00    -0.504 OA
ATOM     19  H   UNL     1       8.372  36.296  27.731  1.00  0.00     0.293 HD
ENDBRANCH  15  18
BRANCH  17  20
ATOM     20  O   UNL     1      10.397  39.535  27.369  1.00  0.00    -0.504 OA
ATOM     21  H   UNL     1      10.236  39.182  28.306  1.00  0.00     0.293 HD
ENDBRANCH  17  20
ENDBRANCH   1  12
BRANCH   2  22
ATOM     22  O   UNL     1      12.658  37.488  22.642  1.00  0.00    -0.502 OA
ATOM     23  H   UNL     1      13.309  37.813  23.346  1.00  0.00     0.293 HD
ENDBRANCH   2  22
BRANCH   9  24
ATOM     24  O   UNL     1       8.875  42.466  18.032  1.00  0.00    -0.508 OA
ATOM     25  H   UNL     1       8.953  43.461  18.208  1.00  0.00     0.293 HD
ENDBRANCH   9  24
TORSDOF 5
ENDMDL
MODEL 2
REMARK VINA RESULT:    -7.147      5.616      7.906
REMARK INTER + INTRA:          -8.711
REMARK INTER:                  -8.438
REMARK INTRA:                  -0.272
REMARK UNBOUND:                -0.310
REMARK SMILES O=c1c(O)c(-c2ccc(O)c(O)c2)oc2cc(O)ccc12
REMARK SMILES IDX 5 1 3 2 2 3 1 4 21 5 15 6 14 7 16 8 17 9 19 10 20 11 6 12
REMARK SMILES IDX 7 13 8 14 9 15 13 16 11 17 10 18 12 20 4 22 18 24
REMARK H PARENT 10 19 12 21 4 23 18 25
REMARK Flexibility Score: inf
ROOT
ATOM      1  C   UNL     1      12.520  44.097  21.186  1.00  0.00     0.180 A 
ATOM      2  C   UNL     1      12.136  45.441  21.377  1.00  0.00     0.208 A 
ATOM      3  C   UNL     1      13.061  46.336  21.936  1.00  0.00     0.235 A 
ATOM      4  O   UNL     1      12.738  47.541  22.127  1.00  0.00    -0.285 OA
ATOM      5  C   UNL     1      14.346  45.881  22.271  1.00  0.00     0.069 A 
ATOM      6  C   UNL     1      14.661  44.527  22.027  1.00  0.00     0.142 A 
ATOM      7  O   UNL     1      13.754  43.710  21.504  1.00  0.00    -0.452 OA
ATOM      8  C   UNL     1      15.935  44.038  22.338  1.00  0.00     0.094 A 
ATOM      9  C   UNL     1      16.899  44.884  22.893  1.00  0.00     0.119 A 
ATOM     10  C   UNL     1      16.590  46.229  23.138  1.00  0.00     0.047 A 
ATOM     11  C   UNL     1      15.321  46.728  22.830  1.00  0.00     0.020 A 
ENDROOT
BRANCH   1  12
ATOM     12  C   UNL     1      11.597  43.089  20.620  1.00  0.00     0.025 A 
ATOM     13  C   UNL     1      10.583  42.550  21.427  1.00  0.00     0.016 A 
ATOM     14  C   UNL     1       9.687  41.611  20.907  1.00  0.00     0.051 A 
ATOM     15  C   UNL     1       9.781  41.209  19.572  1.00  0.00     0.157 A 
ATOM     16  C   UNL     1      11.677  42.698  19.271  1.00  0.00     0.062 A 
ATOM     17  C   UNL     1      10.777  41.758  18.747  1.00  0.00     0.158 A 
BRANCH  15  18
ATOM     18  O   UNL     1       8.875  40.269  19.082  1.00  0.00    -0.504 OA
ATOM     19  H   UNL     1       8.063  40.537  18.537  1.00  0.00     0.293 HD
ENDBRANCH  15  18
BRANCH  17  20
ATOM     20  O   UNL     1      10.867  41.372  17.411  1.00  0.00    -0.504 OA
ATOM     21  H   UNL     1      10.484  40.492  17.084  1.00  0.00     0.293 HD
ENDBRANCH  17  20
ENDBRANCH   1  12
BRANCH   2  22
ATOM     22  O   UNL     1      10.867  45.876  20.988  1.00  0.00    -0.502 OA
ATOM     23  H   UNL     1      10.722  46.472  20.183  1.00  0.00     0.293 HD
ENDBRANCH   2  22
BRANCH   9  24
ATOM     24  O   UNL     1      18.162  44.380  23.198  1.00  0.00    -0.508 OA
ATOM     25  H   UNL     1      18.555  43.595  22.689  1.00  0.00     0.293 HD
ENDBRANCH   9  24
TORSDOF 5
ENDMDL
MODEL 3
REMARK VINA RESULT:    -6.926      2.385      6.993
REMARK INTER + INTRA:          -8.451
REMARK INTER:                  -8.137
REMARK INTRA:                  -0.313
REMARK UNBOUND:                -0.310
REMARK SMILES O=c1c(O)c(-c2ccc(O)c(O)c2)oc2cc(O)ccc12
REMARK SMILES IDX 5 1 3 2 2 3 1 4 21 5 15 6 14 7 16 8 17 9 19 10 20 11 6 12
REMARK SMILES IDX 7 13 8 14 9 15 13 16 11 17 10 18 12 20 4 22 18 24
REMARK H PARENT 10 19 12 21 4 23 18 25
REMARK Flexibility Score: inf
ROOT
ATOM      1  C   UNL     1      11.208  39.244  22.409  1.00  0.00     0.180 A 
ATOM      2  C   UNL     1      10.182  38.587  23.120  1.00  0.00     0.208 A 
ATOM      3  C   UNL     1      10.492  37.974  24.344  1.00  0.00     0.235 A 
ATOM      4  O   UNL     1       9.594  37.372  24.994  1.00  0.00    -0.285 OA
ATOM      5  C   UNL     1      11.804  38.046  24.838  1.00  0.00     0.069 A 
ATOM      6  C   UNL     1      12.769  38.742  24.078  1.00  0.00     0.142 A 
ATOM      7  O   UNL     1      12.436  39.301  22.920  1.00  0.00    -0.452 OA
ATOM      8  C   UNL     1      14.085  38.843  24.543  1.00  0.00     0.094 A 
ATOM      9  C   UNL     1      14.452  38.256  25.757  1.00  0.00     0.119 A 
ATOM     10  C   UNL     1      13.497  37.563  26.514  1.00  0.00     0.047 A 
ATOM     11  C   UNL     1      12.179  37.457  26.060  1.00  0.00     0.020 A 
ENDROOT
BRANCH   1  12
ATOM     12  C   UNL     1      10.965  39.898  21.104  1.00  0.00     0.025 A 
ATOM     13  C   UNL     1      10.796  41.291  21.050  1.00  0.00     0.016 A 
ATOM     14  C   UNL     1      10.586  41.931  19.826  1.00  0.00     0.051 A 
ATOM     15  C   UNL     1      10.558  41.195  18.638  1.00  0.00     0.157 A 
ATOM     16  C   UNL     1      10.956  39.161  19.905  1.00  0.00     0.062 A 
ATOM     17  C   UNL     1      10.748  39.803  18.676  1.00  0.00     0.158 A 
BRANCH  15  18
ATOM     18  O   UNL     1      10.344  41.862  17.432  1.00  0.00    -0.504 OA
ATOM     19  H   UNL     1      10.824  42.724  17.201  1.00  0.00     0.293 HD
ENDBRANCH  15  18
BRANCH  17  20
ATOM     20  O   UNL     1      10.735  39.065  17.494  1.00  0.00    -0.504 OA
ATOM     21  H   UNL     1      11.579  38.643  17.121  1.00  0.00     0.293 HD
ENDBRANCH  17  20
ENDBRANCH   1  12
BRANCH   2  22
ATOM     22  O   UNL     1       8.875  38.575  22.627  1.00  0.00    -0.502 OA
ATOM     23  H   UNL     1       8.669  38.483  21.640  1.00  0.00     0.293 HD
ENDBRANCH   2  22
BRANCH   9  24
ATOM     24  O   UNL     1      15.767  38.367  26.204  1.00  0.00    -0.508 OA
ATOM     25  H   UNL     1      16.096  39.200  26.679  1.00  0.00     0.293 HD
ENDBRANCH   9  24
TORSDOF 5
ENDMDL
MODEL 4
REMARK VINA RESULT:    -6.592      6.303      8.110
REMARK INTER + INTRA:          -8.058
REMARK INTER:                  -8.549
REMARK INTRA:                   0.491
REMARK UNBOUND:                -0.310
REMARK SMILES O=c1c(O)c(-c2ccc(O)c(O)c2)oc2cc(O)ccc12
REMARK SMILES IDX 5 1 3 2 2 3 1 4 21 5 15 6 14 7 16 8 17 9 19 10 20 11 6 12
REMARK SMILES IDX 7 13 8 14 9 15 13 16 11 17 10 18 12 20 4 22 18 24
REMARK H PARENT 10 19 12 21 4 23 18 25
REMARK Flexibility Score: inf
ROOT
ATOM      1  C   UNL     1      13.926  44.443  21.677  1.00  0.00     0.180 A 
ATOM      2  C   UNL     1      12.616  44.899  21.426  1.00  0.00     0.208 A 
ATOM      3  C   UNL     1      11.677  44.002  20.893  1.00  0.00     0.235 A 
ATOM      4  O   UNL     1      10.501  44.388  20.649  1.00  0.00    -0.285 OA
ATOM      5  C   UNL     1      12.058  42.674  20.642  1.00  0.00     0.069 A 
ATOM      6  C   UNL     1      13.382  42.289  20.944  1.00  0.00     0.142 A 
ATOM      7  O   UNL     1      14.242  43.172  21.439  1.00  0.00    -0.452 OA
ATOM      8  C   UNL     1      13.796  40.971  20.718  1.00  0.00     0.094 A 
ATOM      9  C   UNL     1      12.904  40.032  20.192  1.00  0.00     0.119 A 
ATOM     10  C   UNL     1      11.589  40.411  19.891  1.00  0.00     0.047 A 
ATOM     11  C   UNL     1      11.165  41.724  20.114  1.00  0.00     0.020 A 
ENDROOT
BRANCH   1  12
ATOM     12  C   UNL     1      14.977  45.332  22.221  1.00  0.00     0.025 A 
ATOM     13  C   UNL     1      14.761  46.719  22.252  1.00  0.00     0.016 A 
ATOM     14  C   UNL     1      15.731  47.575  22.780  1.00  0.00     0.051 A 
ATOM     15  C   UNL     1      16.922  47.060  23.298  1.00  0.00     0.157 A 
ATOM     16  C   UNL     1      16.168  44.814  22.761  1.00  0.00     0.062 A 
ATOM     17  C   UNL     1      17.142  45.672  23.294  1.00  0.00     0.158 A 
BRANCH  15  18
ATOM     18  O   UNL     1      17.873  47.939  23.815  1.00  0.00    -0.504 OA
ATOM     19  H   UNL     1      17.917  48.911  23.533  1.00  0.00     0.293 HD
ENDBRANCH  15  18
BRANCH  17  20
ATOM     20  O   UNL     1      18.321  45.150  23.822  1.00  0.00    -0.504 OA
ATOM     21  H   UNL     1      18.987  45.734  24.315  1.00  0.00     0.293 HD
ENDBRANCH  17  20
ENDBRANCH   1  12
BRANCH   2  22
ATOM     22  O   UNL     1      12.253  46.213  21.731  1.00  0.00    -0.502 OA
ATOM     23  H   UNL     1      12.724  47.014  21.328  1.00  0.00     0.293 HD
ENDBRANCH   2  22
BRANCH   9  24
ATOM     24  O   UNL     1      13.334  38.725  19.973  1.00  0.00    -0.508 OA
ATOM     25  H   UNL     1      14.035  38.508  19.273  1.00  0.00     0.293 HD
ENDBRANCH   9  24
TORSDOF 5
ENDMDL
MODEL 5
REMARK VINA RESULT:    -6.449      5.289      7.395
REMARK INTER + INTRA:          -7.890
REMARK INTER:                  -8.311
REMARK INTRA:                   0.421
REMARK UNBOUND:                -0.310
REMARK SMILES O=c1c(O)c(-c2ccc(O)c(O)c2)oc2cc(O)ccc12
REMARK SMILES IDX 5 1 3 2 2 3 1 4 21 5 15 6 14 7 16 8 17 9 19 10 20 11 6 12
REMARK SMILES IDX 7 13 8 14 9 15 13 16 11 17 10 18 12 20 4 22 18 24
REMARK H PARENT 10 19 12 21 4 23 18 25
REMARK Flexibility Score: inf
ROOT
ATOM      1  C   UNL     1      13.050  43.505  21.204  1.00  0.00     0.180 A 
ATOM      2  C   UNL     1      11.841  43.882  20.584  1.00  0.00     0.208 A 
ATOM      3  C   UNL     1      11.004  42.882  20.066  1.00  0.00     0.235 A 
ATOM      4  O   UNL     1       9.922  43.195  19.497  1.00  0.00    -0.285 OA
ATOM      5  C   UNL     1      11.378  41.534  20.194  1.00  0.00     0.069 A 
ATOM      6  C   UNL     1      12.592  41.237  20.850  1.00  0.00     0.142 A 
ATOM      7  O   UNL     1      13.360  42.215  21.318  1.00  0.00    -0.452 OA
ATOM      8  C   UNL     1      12.994  39.906  21.007  1.00  0.00     0.094 A 
ATOM      9  C   UNL     1      12.200  38.866  20.514  1.00  0.00     0.119 A 
ATOM     10  C   UNL     1      10.994  39.158  19.862  1.00  0.00     0.047 A 
ATOM     11  C   UNL     1      10.582  40.484  19.702  1.00  0.00     0.020 A 
ENDROOT
BRANCH   1  12
ATOM     12  C   UNL     1      13.994  44.500  21.758  1.00  0.00     0.025 A 
ATOM     13  C   UNL     1      15.324  44.127  22.007  1.00  0.00     0.016 A 
ATOM     14  C   UNL     1      16.238  45.057  22.511  1.00  0.00     0.051 A 
ATOM     15  C   UNL     1      15.842  46.374  22.758  1.00  0.00     0.157 A 
ATOM     16  C   UNL     1      13.603  45.832  21.988  1.00  0.00     0.062 A 
ATOM     17  C   UNL     1      14.519  46.767  22.492  1.00  0.00     0.158 A 
BRANCH  15  18
ATOM     18  O   UNL     1      16.775  47.279  23.263  1.00  0.00    -0.504 OA
ATOM     19  H   UNL     1      17.093  48.080  22.729  1.00  0.00     0.293 HD
ENDBRANCH  15  18
BRANCH  17  20
ATOM     20  O   UNL     1      14.122  48.083  22.722  1.00  0.00    -0.504 OA
ATOM     21  H   UNL     1      13.165  48.383  22.574  1.00  0.00     0.293 HD
ENDBRANCH  17  20
ENDBRANCH   1  12
BRANCH   2  22
ATOM     22  O   UNL     1      11.471  45.228  20.514  1.00  0.00    -0.502 OA
ATOM     23  H   UNL     1      11.021  45.625  19.699  1.00  0.00     0.293 HD
ENDBRANCH   2  22
BRANCH   9  24
ATOM     24  O   UNL     1      12.617  37.547  20.679  1.00  0.00    -0.508 OA
ATOM     25  H   UNL     1      13.600  37.300  20.690  1.00  0.00     0.293 HD
ENDBRANCH   9  24
TORSDOF 5
ENDMDL
MODEL 6
REMARK VINA RESULT:    -6.427      7.730     11.656
REMARK INTER + INTRA:          -7.864
REMARK INTER:                  -7.573
REMARK INTRA:                  -0.291
REMARK UNBOUND:                -0.310
REMARK SMILES O=c1c(O)c(-c2ccc(O)c(O)c2)oc2cc(O)ccc12
REMARK SMILES IDX 5 1 3 2 2 3 1 4 21 5 15 6 14 7 16 8 17 9 19 10 20 11 6 12
REMARK SMILES IDX 7 13 8 14 9 15 13 16 11 17 10 18 12 20 4 22 18 24
REMARK H PARENT 10 19 12 21 4 23 18 25
REMARK Flexibility Score: inf
ROOT
ATOM      1  C   UNL     1      13.080  32.446  28.535  1.00  0.00     0.180 A 
ATOM      2  C   UNL     1      12.983  31.332  27.677  1.00  0.00     0.208 A 
ATOM      3  C   UNL     1      13.341  30.067  28.167  1.00  0.00     0.235 A 
ATOM      4  O   UNL     1      13.274  29.055  27.415  1.00  0.00    -0.285 OA
ATOM      5  C   UNL     1      13.767  29.938  29.499  1.00  0.00     0.069 A 
ATOM      6  C   UNL     1      13.814  31.098  30.301  1.00  0.00     0.142 A 
ATOM      7  O   UNL     1      13.474  32.279  29.796  1.00  0.00    -0.452 OA
ATOM      8  C   UNL     1      14.223  31.008  31.637  1.00  0.00     0.094 A 
ATOM      9  C   UNL     1      14.589  29.774  32.182  1.00  0.00     0.119 A 
ATOM     10  C   UNL     1      14.544  28.620  31.387  1.00  0.00     0.047 A 
ATOM     11  C   UNL     1      14.135  28.698  30.053  1.00  0.00     0.020 A 
ENDROOT
BRANCH   1  12
ATOM     12  C   UNL     1      12.738  33.815  28.088  1.00  0.00     0.025 A 
ATOM     13  C   UNL     1      11.395  34.224  28.081  1.00  0.00     0.016 A 
ATOM     14  C   UNL     1      11.051  35.519  27.682  1.00  0.00     0.051 A 
ATOM     15  C   UNL     1      12.043  36.427  27.301  1.00  0.00     0.157 A 
ATOM     16  C   UNL     1      13.736  34.737  27.723  1.00  0.00     0.062 A 
ATOM     17  C   UNL     1      13.392  36.038  27.325  1.00  0.00     0.158 A 
BRANCH  15  18
ATOM     18  O   UNL     1      11.669  37.711  26.905  1.00  0.00    -0.504 OA
ATOM     19  H   UNL     1      11.877  38.529  27.466  1.00  0.00     0.293 HD
ENDBRANCH  15  18
BRANCH  17  20
ATOM     20  O   UNL     1      14.387  36.943  26.959  1.00  0.00    -0.504 OA
ATOM     21  H   UNL     1      15.124  37.211  27.602  1.00  0.00     0.293 HD
ENDBRANCH  17  20
ENDBRANCH   1  12
BRANCH   2  22
ATOM     22  O   UNL     1      12.509  31.483  26.371  1.00  0.00    -0.502 OA
ATOM     23  H   UNL     1      11.556  31.260  26.111  1.00  0.00     0.293 HD
ENDBRANCH   2  22
BRANCH   9  24
ATOM     24  O   UNL     1      14.994  29.704  33.513  1.00  0.00    -0.508 OA
ATOM     25  H   UNL     1      14.458  30.144  34.253  1.00  0.00     0.293 HD
ENDBRANCH   9  24
TORSDOF 5
ENDMDL
MODEL 7
REMARK VINA RESULT:    -6.359      2.112      6.858
REMARK INTER + INTRA:          -7.784
REMARK INTER:                  -7.588
REMARK INTRA:                  -0.196
REMARK UNBOUND:                -0.310
REMARK SMILES O=c1c(O)c(-c2ccc(O)c(O)c2)oc2cc(O)ccc12
REMARK SMILES IDX 5 1 3 2 2 3 1 4 21 5 15 6 14 7 16 8 17 9 19 10 20 11 6 12
REMARK SMILES IDX 7 13 8 14 9 15 13 16 11 17 10 18 12 20 4 22 18 24
REMARK H PARENT 10 19 12 21 4 23 18 25
REMARK Flexibility Score: inf
ROOT
ATOM      1  C   UNL     1      11.411  38.426  23.764  1.00  0.00     0.180 A 
ATOM      2  C   UNL     1      12.724  38.545  24.265  1.00  0.00     0.208 A 
ATOM      3  C   UNL     1      13.016  38.017  25.532  1.00  0.00     0.235 A 
ATOM      4  O   UNL     1      14.180  38.119  26.006  1.00  0.00    -0.285 OA
ATOM      5  C   UNL     1      12.004  37.369  26.259  1.00  0.00     0.069 A 
ATOM      6  C   UNL     1      10.721  37.270  25.678  1.00  0.00     0.142 A 
ATOM      7  O   UNL     1      10.484  37.791  24.480  1.00  0.00    -0.452 OA
ATOM      8  C   UNL     1       9.689  36.622  26.368  1.00  0.00     0.094 A 
ATOM      9  C   UNL     1       9.922  36.074  27.632  1.00  0.00     0.119 A 
ATOM     10  C   UNL     1      11.194  36.171  28.212  1.00  0.00     0.047 A 
ATOM     11  C   UNL     1      12.232  36.814  27.531  1.00  0.00     0.020 A 
ENDROOT
BRANCH   1  12
ATOM     12  C   UNL     1      11.020  38.972  22.446  1.00  0.00     0.025 A 
ATOM     13  C   UNL     1      11.500  38.363  21.275  1.00  0.00     0.016 A 
ATOM     14  C   UNL     1      11.128  38.850  20.019  1.00  0.00     0.051 A 
ATOM     15  C   UNL     1      10.259  39.940  19.913  1.00  0.00     0.157 A 
ATOM     16  C   UNL     1      10.130  40.057  22.337  1.00  0.00     0.062 A 
ATOM     17  C   UNL     1       9.753  40.545  21.077  1.00  0.00     0.158 A 
BRANCH  15  18
ATOM     18  O   UNL     1       9.907  40.406  18.647  1.00  0.00    -0.504 OA
ATOM     19  H   UNL     1      10.514  40.290  17.843  1.00  0.00     0.293 HD
ENDBRANCH  15  18
BRANCH  17  20
ATOM     20  O   UNL     1       8.875  41.623  20.978  1.00  0.00    -0.504 OA
ATOM     21  H   UNL     1       8.498  41.921  20.085  1.00  0.00     0.293 HD
ENDBRANCH  17  20
ENDBRANCH   1  12
BRANCH   2  22
ATOM     22  O   UNL     1      13.722  39.151  23.498  1.00  0.00    -0.502 OA
ATOM     23  H   UNL     1      14.658  39.304  23.850  1.00  0.00     0.293 HD
ENDBRANCH   2  22
BRANCH   9  24
ATOM     24  O   UNL     1       8.882  35.433  28.304  1.00  0.00    -0.508 OA
ATOM     25  H   UNL     1       8.849  35.398  29.317  1.00  0.00     0.293 HD
ENDBRANCH   9  24
TORSDOF 5
ENDMDL
MODEL 8
REMARK VINA RESULT:    -6.263      9.375     13.515
REMARK INTER + INTRA:          -7.671
REMARK INTER:                  -7.492
REMARK INTRA:                  -0.179
REMARK UNBOUND:                -0.310
REMARK SMILES O=c1c(O)c(-c2ccc(O)c(O)c2)oc2cc(O)ccc12
REMARK SMILES IDX 5 1 3 2 2 3 1 4 21 5 15 6 14 7 16 8 17 9 19 10 20 11 6 12
REMARK SMILES IDX 7 13 8 14 9 15 13 16 11 17 10 18 12 20 4 22 18 24
REMARK H PARENT 10 19 12 21 4 23 18 25
REMARK Flexibility Score: inf
ROOT
ATOM      1  C   UNL     1      13.824  31.418  30.321  1.00  0.00     0.180 A 
ATOM      2  C   UNL     1      13.366  30.152  29.903  1.00  0.00     0.208 A 
ATOM      3  C   UNL     1      13.726  29.021  30.653  1.00  0.00     0.235 A 
ATOM      4  O   UNL     1      13.337  27.875  30.294  1.00  0.00    -0.285 OA
ATOM      5  C   UNL     1      14.512  29.178  31.806  1.00  0.00     0.069 A 
ATOM      6  C   UNL     1      14.910  30.482  32.171  1.00  0.00     0.142 A 
ATOM      7  O   UNL     1      14.556  31.526  31.429  1.00  0.00    -0.452 OA
ATOM      8  C   UNL     1      15.685  30.681  33.319  1.00  0.00     0.094 A 
ATOM      9  C   UNL     1      16.071  29.593  34.107  1.00  0.00     0.119 A 
ATOM     10  C   UNL     1      15.677  28.296  33.747  1.00  0.00     0.047 A 
ATOM     11  C   UNL     1      14.902  28.087  32.603  1.00  0.00     0.020 A 
ENDROOT
BRANCH   1  12
ATOM     12  C   UNL     1      13.504  32.655  29.575  1.00  0.00     0.025 A 
ATOM     13  C   UNL     1      14.022  32.837  28.283  1.00  0.00     0.016 A 
ATOM     14  C   UNL     1      13.716  33.988  27.552  1.00  0.00     0.051 A 
ATOM     15  C   UNL     1      12.877  34.966  28.093  1.00  0.00     0.157 A 
ATOM     16  C   UNL     1      12.644  33.632  30.110  1.00  0.00     0.062 A 
ATOM     17  C   UNL     1      12.334  34.787  29.377  1.00  0.00     0.158 A 
BRANCH  15  18
ATOM     18  O   UNL     1      12.592  36.106  27.342  1.00  0.00    -0.504 OA
ATOM     19  H   UNL     1      11.672  36.277  26.952  1.00  0.00     0.293 HD
ENDBRANCH  15  18
BRANCH  17  20
ATOM     20  O   UNL     1      11.485  35.751  29.916  1.00  0.00    -0.504 OA
ATOM     21  H   UNL     1      10.494  35.577  30.044  1.00  0.00     0.293 HD
ENDBRANCH  17  20
ENDBRANCH   1  12
BRANCH   2  22
ATOM     22  O   UNL     1      12.545  30.031  28.780  1.00  0.00    -0.502 OA
ATOM     23  H   UNL     1      11.546  29.879  28.852  1.00  0.00     0.293 HD
ENDBRANCH   2  22
BRANCH   9  24
ATOM     24  O   UNL     1      16.843  29.810  35.246  1.00  0.00    -0.508 OA
ATOM     25  H   UNL     1      17.324  29.048  35.712  1.00  0.00     0.293 HD
ENDBRANCH   9  24
TORSDOF 5
ENDMDL
