MODEL 1
REMARK VINA RESULT:    -2.436      0.000      0.000
REMARK INTER + INTRA:          -2.436
REMARK INTER:                  -2.436
REMARK INTRA:                   0.000
REMARK UNBOUND:                 0.000
REMARK SMILES O=C1CCCCC1
REMARK SMILES IDX 5 1 4 2 3 3 2 4 1 5 7 6 6 7
REMARK H PARENT
REMARK Flexibility Score: inf
ROOT
ATOM      1  C   UNL     1     229.680 231.427 233.716  1.00  0.00     0.001 C 
ATOM      2  C   UNL     1     230.978 232.016 234.288  1.00  0.00     0.008 C 
ATOM      3  C   UNL     1     231.830 232.665 233.191  1.00  0.00     0.075 C 
ATOM      4  C   UNL     1     230.998 233.617 232.375  1.00  0.00     0.132 C 
ATOM      5  O   UNL     1     231.442 234.710 232.060  1.00  0.00    -0.300 OA
ATOM      6  C   UNL     1     229.651 233.171 231.875  1.00  0.00     0.075 C 
ATOM      7  C   UNL     1     228.854 232.509 233.006  1.00  0.00     0.008 C 
ENDROOT
TORSDOF 0
ENDMDL
MODEL 2
REMARK VINA RESULT:    -2.434      4.959      6.032
REMARK INTER + INTRA:          -2.434
REMARK INTER:                  -2.434
REMARK INTRA:                   0.000
REMARK UNBOUND:                 0.000
REMARK SMILES O=C1CCCCC1
REMARK SMILES IDX 5 1 4 2 3 3 2 4 1 5 7 6 6 7
REMARK H PARENT
REMARK Flexibility Score: inf
ROOT
ATOM      1  C   UNL     1     231.447 238.852 233.704  1.00  0.00     0.001 C 
ATOM      2  C   UNL     1     231.996 237.523 234.242  1.00  0.00     0.008 C 
ATOM      3  C   UNL     1     232.630 236.685 233.124  1.00  0.00     0.075 C 
ATOM      4  C   UNL     1     233.610 237.514 232.340  1.00  0.00     0.132 C 
ATOM      5  O   UNL     1     234.693 237.049 232.018  1.00  0.00    -0.300 OA
ATOM      6  C   UNL     1     233.204 238.886 231.876  1.00  0.00     0.075 C 
ATOM      7  C   UNL     1     232.557 239.668 233.025  1.00  0.00     0.008 C 
ENDROOT
TORSDOF 0
ENDMDL
MODEL 3
REMARK VINA RESULT:    -2.412      8.016      8.984
REMARK INTER + INTRA:          -2.412
REMARK INTER:                  -2.412
REMARK INTRA:                   0.000
REMARK UNBOUND:                 0.000
REMARK SMILES O=C1CCCCC1
REMARK SMILES IDX 5 1 4 2 3 3 2 4 1 5 7 6 6 7
REMARK H PARENT
REMARK Flexibility Score: inf
ROOT
ATOM      1  C   UNL     1     236.808 229.484 234.612  1.00  0.00     0.001 C 
ATOM      2  C   UNL     1     238.280 229.115 234.847  1.00  0.00     0.008 C 
ATOM      3  C   UNL     1     238.450 227.610 235.085  1.00  0.00     0.075 C 
ATOM      4  C   UNL     1     237.758 226.827 234.002  1.00  0.00     0.132 C 
ATOM      5  O   UNL     1     238.302 225.856 233.499  1.00  0.00    -0.300 OA
ATOM      6  C   UNL     1     236.353 227.197 233.613  1.00  0.00     0.075 C 
ATOM      7  C   UNL     1     236.236 228.713 233.413  1.00  0.00     0.008 C 
ENDROOT
TORSDOF 0
ENDMDL
MODEL 4
REMARK VINA RESULT:    -2.410      3.364      4.318
REMARK INTER + INTRA:          -2.410
REMARK INTER:                  -2.410
REMARK INTRA:                   0.000
REMARK UNBOUND:                 0.000
REMARK SMILES O=C1CCCCC1
REMARK SMILES IDX 5 1 4 2 3 3 2 4 1 5 7 6 6 7
REMARK H PARENT
REMARK Flexibility Score: inf
ROOT
ATOM      1  C   UNL     1     229.483 231.596 234.659  1.00  0.00     0.001 C 
ATOM      2  C   UNL     1     229.084 230.132 234.894  1.00  0.00     0.008 C 
ATOM      3  C   UNL     1     227.572 229.989 235.105  1.00  0.00     0.075 C 
ATOM      4  C   UNL     1     226.822 230.690 234.006  1.00  0.00     0.132 C 
ATOM      5  O   UNL     1     225.851 230.160 233.488  1.00  0.00    -0.300 OA
ATOM      6  C   UNL     1     227.223 232.086 233.618  1.00  0.00     0.075 C 
ATOM      7  C   UNL     1     228.744 232.176 233.444  1.00  0.00     0.008 C 
ENDROOT
TORSDOF 0
ENDMDL
MODEL 5
REMARK VINA RESULT:    -2.409      7.257      8.123
REMARK INTER + INTRA:          -2.409
REMARK INTER:                  -2.409
REMARK INTRA:                   0.000
REMARK UNBOUND:                 0.000
REMARK SMILES O=C1CCCCC1
REMARK SMILES IDX 5 1 4 2 3 3 2 4 1 5 7 6 6 7
REMARK H PARENT
REMARK Flexibility Score: inf
ROOT
ATOM      1  C   UNL     1     231.689 238.997 234.632  1.00  0.00     0.001 C 
ATOM      2  C   UNL     1     230.209 239.340 234.857  1.00  0.00     0.008 C 
ATOM      3  C   UNL     1     230.008 240.845 235.070  1.00  0.00     0.075 C 
ATOM      4  C   UNL     1     230.689 241.624 233.978  1.00  0.00     0.132 C 
ATOM      5  O   UNL     1     230.127 242.576 233.457  1.00  0.00    -0.300 OA
ATOM      6  C   UNL     1     232.102 241.277 233.599  1.00  0.00     0.075 C 
ATOM      7  C   UNL     1     232.250 239.761 233.423  1.00  0.00     0.008 C 
ENDROOT
TORSDOF 0
ENDMDL
MODEL 6
REMARK VINA RESULT:    -2.408      7.269      8.389
REMARK INTER + INTRA:          -2.408
REMARK INTER:                  -2.408
REMARK INTRA:                   0.000
REMARK UNBOUND:                 0.000
REMARK SMILES O=C1CCCCC1
REMARK SMILES IDX 5 1 4 2 3 3 2 4 1 5 7 6 6 7
REMARK H PARENT
REMARK Flexibility Score: inf
ROOT
ATOM      1  C   UNL     1     238.315 227.629 235.182  1.00  0.00     0.001 C 
ATOM      2  C   UNL     1     237.780 226.803 234.003  1.00  0.00     0.008 C 
ATOM      3  C   UNL     1     236.358 227.228 233.619  1.00  0.00     0.075 C 
ATOM      4  C   UNL     1     236.288 228.720 233.440  1.00  0.00     0.132 C 
ATOM      5  O   UNL     1     235.678 229.200 232.497  1.00  0.00    -0.300 OA
ATOM      6  C   UNL     1     236.897 229.614 234.485  1.00  0.00     0.075 C 
ATOM      7  C   UNL     1     238.306 229.128 234.848  1.00  0.00     0.008 C 
ENDROOT
TORSDOF 0
ENDMDL
MODEL 7
REMARK VINA RESULT:    -2.405     10.101     11.265
REMARK INTER + INTRA:          -2.405
REMARK INTER:                  -2.405
REMARK INTRA:                   0.000
REMARK UNBOUND:                 0.000
REMARK SMILES O=C1CCCCC1
REMARK SMILES IDX 5 1 4 2 3 3 2 4 1 5 7 6 6 7
REMARK H PARENT
REMARK Flexibility Score: inf
ROOT
ATOM      1  C   UNL     1     238.942 236.747 234.561  1.00  0.00     0.001 C 
ATOM      2  C   UNL     1     239.290 238.220 234.819  1.00  0.00     0.008 C 
ATOM      3  C   UNL     1     240.792 238.408 235.061  1.00  0.00     0.075 C 
ATOM      4  C   UNL     1     241.585 237.743 233.968  1.00  0.00     0.132 C 
ATOM      5  O   UNL     1     242.549 238.308 233.474  1.00  0.00    -0.300 OA
ATOM      6  C   UNL     1     241.235 236.339 233.558  1.00  0.00     0.075 C 
ATOM      7  C   UNL     1     239.721 236.203 233.355  1.00  0.00     0.008 C 
ENDROOT
TORSDOF 0
ENDMDL
MODEL 8
REMARK VINA RESULT:    -2.403      6.871      7.771
REMARK INTER + INTRA:          -2.403
REMARK INTER:                  -2.403
REMARK INTRA:                   0.000
REMARK UNBOUND:                 0.000
REMARK SMILES O=C1CCCCC1
REMARK SMILES IDX 5 1 4 2 3 3 2 4 1 5 7 6 6 7
REMARK H PARENT
REMARK Flexibility Score: inf
ROOT
ATOM      1  C   UNL     1     230.127 240.889 235.202  1.00  0.00     0.001 C 
ATOM      2  C   UNL     1     230.656 241.714 234.020  1.00  0.00     0.008 C 
ATOM      3  C   UNL     1     232.091 241.315 233.656  1.00  0.00     0.075 C 
ATOM      4  C   UNL     1     232.195 239.823 233.494  1.00  0.00     0.132 C 
ATOM      5  O   UNL     1     232.825 239.346 232.562  1.00  0.00    -0.300 OA
ATOM      6  C   UNL     1     231.593 238.928 234.542  1.00  0.00     0.075 C 
ATOM      7  C   UNL     1     230.171 239.387 234.884  1.00  0.00     0.008 C 
ENDROOT
TORSDOF 0
ENDMDL
MODEL 9
REMARK VINA RESULT:    -2.383      2.215      3.527
REMARK INTER + INTRA:          -2.383
REMARK INTER:                  -2.383
REMARK INTRA:                   0.000
REMARK UNBOUND:                 0.000
REMARK SMILES O=C1CCCCC1
REMARK SMILES IDX 5 1 4 2 3 3 2 4 1 5 7 6 6 7
REMARK H PARENT
REMARK Flexibility Score: inf
ROOT
ATOM      1  C   UNL     1     227.606 230.102 235.225  1.00  0.00     0.001 C 
ATOM      2  C   UNL     1     226.767 230.666 234.070  1.00  0.00     0.008 C 
ATOM      3  C   UNL     1     227.192 232.095 233.713  1.00  0.00     0.075 C 
ATOM      4  C   UNL     1     228.682 232.164 233.517  1.00  0.00     0.132 C 
ATOM      5  O   UNL     1     229.153 232.794 232.582  1.00  0.00    -0.300 OA
ATOM      6  C   UNL     1     229.587 231.528 234.536  1.00  0.00     0.075 C 
ATOM      7  C   UNL     1     229.101 230.113 234.873  1.00  0.00     0.008 C 
ENDROOT
TORSDOF 0
ENDMDL
