MODEL 1
REMARK VINA RESULT:    -3.548      0.000      0.000
REMARK INTER + INTRA:          -9.011
REMARK INTER:                  -6.452
REMARK INTRA:                  -2.559
REMARK UNBOUND:                -2.559
REMARK SMILES CCCCCC=CCC=CCCCCCCCC(=O)[O-]
REMARK SMILES IDX 11 1 12 2 13 3 14 4 15 5 16 6 17 7 18 8 19 9 20 10 10 11
REMARK SMILES IDX 9 12 8 13 7 14 6 15 5 16 4 17 3 18 2 19 1 20
REMARK H PARENT
REMARK Flexibility Score: inf
ROOT
ATOM      1  C   UNL     1      30.378   1.286 -36.527  1.00  0.00     0.027 C 
ENDROOT
BRANCH   1   2
ATOM      2  C   UNL     1      30.523   1.926 -35.142  1.00  0.00     0.004 C 
BRANCH   2   3
ATOM      3  C   UNL     1      31.080   0.917 -34.127  1.00  0.00     0.000 C 
BRANCH   3   4
ATOM      4  C   UNL     1      32.446   1.336 -33.555  1.00  0.00     0.000 C 
BRANCH   4   5
ATOM      5  C   UNL     1      32.782   2.835 -33.697  1.00  0.00     0.000 C 
BRANCH   5   6
ATOM      6  C   UNL     1      33.453   3.475 -32.465  1.00  0.00     0.006 C 
BRANCH   6   7
ATOM      7  C   UNL     1      34.408   4.632 -32.794  1.00  0.00     0.053 C 
BRANCH   7   8
ATOM      8  C   UNL     1      35.029   5.214 -31.561  1.00  0.00     0.041 C 
ATOM      9  O   UNL     1      34.804   4.699 -30.435  1.00  0.00    -0.550 OA
ATOM     10  O   UNL     1      35.883   6.306 -31.661  1.00  0.00    -0.550 OA
ENDBRANCH   7   8
ENDBRANCH   6   7
ENDBRANCH   5   6
ENDBRANCH   4   5
ENDBRANCH   3   4
ENDBRANCH   2   3
ENDBRANCH   1   2
BRANCH   1  11
ATOM     11  C   UNL     1      29.627  -0.018 -36.440  1.00  0.00    -0.031 C 
ATOM     12  C   UNL     1      29.576  -0.933 -37.424  1.00  0.00    -0.027 C 
BRANCH  12  13
ATOM     13  C   UNL     1      30.227  -0.746 -38.772  1.00  0.00     0.054 C 
BRANCH  13  14
ATOM     14  C   UNL     1      31.270  -1.805 -39.020  1.00  0.00    -0.027 C 
ATOM     15  C   UNL     1      32.583  -1.656 -38.767  1.00  0.00    -0.031 C 
BRANCH  15  16
ATOM     16  C   UNL     1      33.199  -0.435 -38.133  1.00  0.00     0.027 C 
BRANCH  16  17
ATOM     17  C   UNL     1      33.420  -0.598 -36.618  1.00  0.00     0.004 C 
BRANCH  17  18
ATOM     18  C   UNL     1      33.409  -2.065 -36.145  1.00  0.00     0.000 C 
BRANCH  18  19
ATOM     19  C   UNL     1      32.260  -2.365 -35.169  1.00  0.00    -0.003 C 
ATOM     20  C   UNL     1      31.432  -3.554 -35.645  1.00  0.00     0.004 C 
ENDBRANCH  18  19
ENDBRANCH  17  18
ENDBRANCH  16  17
ENDBRANCH  15  16
ENDBRANCH  13  14
ENDBRANCH  12  13
ENDBRANCH   1  11
TORSDOF 14
ENDMDL
MODEL 2
REMARK VINA RESULT:    -3.498      1.275      2.740
REMARK INTER + INTRA:          -8.920
REMARK INTER:                  -6.308
REMARK INTRA:                  -2.612
REMARK UNBOUND:                -2.559
REMARK SMILES CCCCCC=CCC=CCCCCCCCC(=O)[O-]
REMARK SMILES IDX 11 1 12 2 13 3 14 4 15 5 16 6 17 7 18 8 19 9 20 10 10 11
REMARK SMILES IDX 9 12 8 13 7 14 6 15 5 16 4 17 3 18 2 19 1 20
REMARK H PARENT
REMARK Flexibility Score: inf
ROOT
ATOM      1  C   UNL     1      33.208   0.226 -34.894  1.00  0.00     0.027 C 
ENDROOT
BRANCH   1   2
ATOM      2  C   UNL     1      32.495   0.001 -33.556  1.00  0.00     0.004 C 
BRANCH   2   3
ATOM      3  C   UNL     1      32.377   1.315 -32.769  1.00  0.00     0.000 C 
BRANCH   3   4
ATOM      4  C   UNL     1      32.040   2.520 -33.666  1.00  0.00     0.000 C 
BRANCH   4   5
ATOM      5  C   UNL     1      32.600   3.873 -33.182  1.00  0.00     0.000 C 
BRANCH   5   6
ATOM      6  C   UNL     1      34.138   3.956 -33.110  1.00  0.00     0.006 C 
BRANCH   6   7
ATOM      7  C   UNL     1      34.696   5.388 -33.132  1.00  0.00     0.053 C 
BRANCH   7   8
ATOM      8  C   UNL     1      34.654   6.027 -31.778  1.00  0.00     0.041 C 
ATOM      9  O   UNL     1      33.906   7.016 -31.567  1.00  0.00    -0.550 OA
ATOM     10  O   UNL     1      35.417   5.506 -30.739  1.00  0.00    -0.550 OA
ENDBRANCH   7   8
ENDBRANCH   6   7
ENDBRANCH   5   6
ENDBRANCH   4   5
ENDBRANCH   3   4
ENDBRANCH   2   3
ENDBRANCH   1   2
BRANCH   1  11
ATOM     11  C   UNL     1      33.276  -1.053 -35.688  1.00  0.00    -0.031 C 
ATOM     12  C   UNL     1      33.168  -1.124 -37.026  1.00  0.00    -0.027 C 
BRANCH  12  13
ATOM     13  C   UNL     1      32.913   0.074 -37.907  1.00  0.00     0.054 C 
BRANCH  13  14
ATOM     14  C   UNL     1      31.562  -0.019 -38.569  1.00  0.00    -0.027 C 
ATOM     15  C   UNL     1      30.423   0.471 -38.046  1.00  0.00    -0.031 C 
BRANCH  15  16
ATOM     16  C   UNL     1      30.337   1.247 -36.756  1.00  0.00     0.027 C 
BRANCH  16  17
ATOM     17  C   UNL     1      29.483   0.537 -35.690  1.00  0.00     0.004 C 
BRANCH  17  18
ATOM     18  C   UNL     1      29.032  -0.880 -36.101  1.00  0.00     0.000 C 
BRANCH  18  19
ATOM     19  C   UNL     1      29.736  -1.982 -35.295  1.00  0.00    -0.003 C 
ATOM     20  C   UNL     1      30.106  -3.163 -36.187  1.00  0.00     0.004 C 
ENDBRANCH  18  19
ENDBRANCH  17  18
ENDBRANCH  16  17
ENDBRANCH  15  16
ENDBRANCH  13  14
ENDBRANCH  12  13
ENDBRANCH   1  11
TORSDOF 14
ENDMDL
MODEL 3
REMARK VINA RESULT:    -3.426      6.064      8.012
REMARK INTER + INTRA:          -8.790
REMARK INTER:                  -6.374
REMARK INTRA:                  -2.416
REMARK UNBOUND:                -2.559
REMARK SMILES CCCCCC=CCC=CCCCCCCCC(=O)[O-]
REMARK SMILES IDX 11 1 12 2 13 3 14 4 15 5 16 6 17 7 18 8 19 9 20 10 10 11
REMARK SMILES IDX 9 12 8 13 7 14 6 15 5 16 4 17 3 18 2 19 1 20
REMARK H PARENT
REMARK Flexibility Score: inf
ROOT
ATOM      1  C   UNL     1      29.093  -2.719 -38.266  1.00  0.00     0.027 C 
ENDROOT
BRANCH   1   2
ATOM      2  C   UNL     1      28.322  -4.001 -37.933  1.00  0.00     0.004 C 
BRANCH   2   3
ATOM      3  C   UNL     1      27.876  -4.007 -36.464  1.00  0.00     0.000 C 
BRANCH   3   4
ATOM      4  C   UNL     1      26.399  -4.404 -36.290  1.00  0.00     0.000 C 
BRANCH   4   5
ATOM      5  C   UNL     1      25.409  -3.223 -36.218  1.00  0.00     0.000 C 
BRANCH   5   6
ATOM      6  C   UNL     1      24.951  -2.838 -34.797  1.00  0.00     0.006 C 
BRANCH   6   7
ATOM      7  C   UNL     1      25.419  -3.804 -33.697  1.00  0.00     0.053 C 
BRANCH   7   8
ATOM      8  C   UNL     1      24.270  -4.510 -33.045  1.00  0.00     0.041 C 
ATOM      9  O   UNL     1      23.089  -4.255 -33.395  1.00  0.00    -0.550 OA
ATOM     10  O   UNL     1      24.507  -5.475 -32.073  1.00  0.00    -0.550 OA
ENDBRANCH   7   8
ENDBRANCH   6   7
ENDBRANCH   5   6
ENDBRANCH   4   5
ENDBRANCH   3   4
ENDBRANCH   2   3
ENDBRANCH   1   2
BRANCH   1  11
ATOM     11  C   UNL     1      29.055  -1.754 -37.109  1.00  0.00    -0.031 C 
ATOM     12  C   UNL     1      29.535  -0.498 -37.150  1.00  0.00    -0.027 C 
BRANCH  12  13
ATOM     13  C   UNL     1      30.224   0.092 -38.355  1.00  0.00     0.054 C 
BRANCH  13  14
ATOM     14  C   UNL     1      31.655   0.447 -38.039  1.00  0.00    -0.027 C 
ATOM     15  C   UNL     1      32.706  -0.367 -38.251  1.00  0.00    -0.031 C 
BRANCH  15  16
ATOM     16  C   UNL     1      32.619  -1.726 -38.898  1.00  0.00     0.027 C 
BRANCH  16  17
ATOM     17  C   UNL     1      32.804  -2.877 -37.893  1.00  0.00     0.004 C 
BRANCH  17  18
ATOM     18  C   UNL     1      33.243  -2.410 -36.490  1.00  0.00     0.000 C 
BRANCH  18  19
ATOM     19  C   UNL     1      32.207  -2.740 -35.405  1.00  0.00    -0.003 C 
ATOM     20  C   UNL     1      31.553  -4.093 -35.663  1.00  0.00     0.004 C 
ENDBRANCH  18  19
ENDBRANCH  17  18
ENDBRANCH  16  17
ENDBRANCH  15  16
ENDBRANCH  13  14
ENDBRANCH  12  13
ENDBRANCH   1  11
TORSDOF 14
ENDMDL
MODEL 4
REMARK VINA RESULT:    -3.418      6.068      8.851
REMARK INTER + INTRA:          -8.776
REMARK INTER:                  -6.402
REMARK INTRA:                  -2.374
REMARK UNBOUND:                -2.559
REMARK SMILES CCCCCC=CCC=CCCCCCCCC(=O)[O-]
REMARK SMILES IDX 11 1 12 2 13 3 14 4 15 5 16 6 17 7 18 8 19 9 20 10 10 11
REMARK SMILES IDX 9 12 8 13 7 14 6 15 5 16 4 17 3 18 2 19 1 20
REMARK H PARENT
REMARK Flexibility Score: inf
ROOT
ATOM      1  C   UNL     1      34.406   6.816 -30.660  1.00  0.00     0.027 C 
ENDROOT
BRANCH   1   2
ATOM      2  C   UNL     1      33.953   8.190 -31.164  1.00  0.00     0.004 C 
BRANCH   2   3
ATOM      3  C   UNL     1      32.707   8.669 -30.406  1.00  0.00     0.000 C 
BRANCH   3   4
ATOM      4  C   UNL     1      32.257   7.683 -29.313  1.00  0.00     0.000 C 
BRANCH   4   5
ATOM      5  C   UNL     1      32.326   8.229 -27.872  1.00  0.00     0.000 C 
BRANCH   5   6
ATOM      6  C   UNL     1      32.048   9.739 -27.730  1.00  0.00     0.006 C 
BRANCH   6   7
ATOM      7  C   UNL     1      33.146  10.518 -26.990  1.00  0.00     0.053 C 
BRANCH   7   8
ATOM      8  C   UNL     1      32.801  10.744 -25.550  1.00  0.00     0.041 C 
ATOM      9  O   UNL     1      31.839  10.126 -25.025  1.00  0.00    -0.550 OA
ATOM     10  O   UNL     1      33.563  11.615 -24.780  1.00  0.00    -0.550 OA
ENDBRANCH   7   8
ENDBRANCH   6   7
ENDBRANCH   5   6
ENDBRANCH   4   5
ENDBRANCH   3   4
ENDBRANCH   2   3
ENDBRANCH   1   2
BRANCH   1  11
ATOM     11  C   UNL     1      35.508   6.262 -31.527  1.00  0.00    -0.031 C 
ATOM     12  C   UNL     1      35.308   5.479 -32.602  1.00  0.00    -0.027 C 
BRANCH  12  13
ATOM     13  C   UNL     1      33.946   5.010 -33.052  1.00  0.00     0.054 C 
BRANCH  13  14
ATOM     14  C   UNL     1      33.771   3.535 -32.797  1.00  0.00    -0.027 C 
ATOM     15  C   UNL     1      32.954   3.015 -31.863  1.00  0.00    -0.031 C 
BRANCH  15  16
ATOM     16  C   UNL     1      32.040   3.825 -30.979  1.00  0.00     0.027 C 
BRANCH  16  17
ATOM     17  C   UNL     1      32.593   4.001 -29.553  1.00  0.00     0.004 C 
BRANCH  17  18
ATOM     18  C   UNL     1      33.762   3.052 -29.221  1.00  0.00     0.000 C 
BRANCH  18  19
ATOM     19  C   UNL     1      34.995   3.796 -28.686  1.00  0.00    -0.003 C 
ATOM     20  C   UNL     1      34.607   4.791 -27.597  1.00  0.00     0.004 C 
ENDBRANCH  18  19
ENDBRANCH  17  18
ENDBRANCH  16  17
ENDBRANCH  15  16
ENDBRANCH  13  14
ENDBRANCH  12  13
ENDBRANCH   1  11
TORSDOF 14
ENDMDL
MODEL 5
REMARK VINA RESULT:    -3.415      1.364      3.415
REMARK INTER + INTRA:          -8.769
REMARK INTER:                  -6.680
REMARK INTRA:                  -2.089
REMARK UNBOUND:                -2.559
REMARK SMILES CCCCCC=CCC=CCCCCCCCC(=O)[O-]
REMARK SMILES IDX 11 1 12 2 13 3 14 4 15 5 16 6 17 7 18 8 19 9 20 10 10 11
REMARK SMILES IDX 9 12 8 13 7 14 6 15 5 16 4 17 3 18 2 19 1 20
REMARK H PARENT
REMARK Flexibility Score: inf
ROOT
ATOM      1  C   UNL     1      32.944  -1.202 -36.614  1.00  0.00     0.027 C 
ENDROOT
BRANCH   1   2
ATOM      2  C   UNL     1      33.393   0.123 -35.989  1.00  0.00     0.004 C 
BRANCH   2   3
ATOM      3  C   UNL     1      33.127   0.135 -34.477  1.00  0.00     0.000 C 
BRANCH   3   4
ATOM      4  C   UNL     1      31.793   0.810 -34.110  1.00  0.00     0.000 C 
BRANCH   4   5
ATOM      5  C   UNL     1      31.863   2.339 -33.924  1.00  0.00     0.000 C 
BRANCH   5   6
ATOM      6  C   UNL     1      33.200   2.870 -33.368  1.00  0.00     0.006 C 
BRANCH   6   7
ATOM      7  C   UNL     1      33.184   4.362 -32.999  1.00  0.00     0.053 C 
BRANCH   7   8
ATOM      8  C   UNL     1      34.525   4.837 -32.530  1.00  0.00     0.041 C 
ATOM      9  O   UNL     1      35.343   5.335 -33.346  1.00  0.00    -0.550 OA
ATOM     10  O   UNL     1      34.858   4.760 -31.182  1.00  0.00    -0.550 OA
ENDBRANCH   7   8
ENDBRANCH   6   7
ENDBRANCH   5   6
ENDBRANCH   4   5
ENDBRANCH   3   4
ENDBRANCH   2   3
ENDBRANCH   1   2
BRANCH   1  11
ATOM     11  C   UNL     1      33.126  -1.180 -38.110  1.00  0.00    -0.031 C 
ATOM     12  C   UNL     1      32.291  -1.765 -38.986  1.00  0.00    -0.027 C 
BRANCH  12  13
ATOM     13  C   UNL     1      31.081  -2.567 -38.577  1.00  0.00     0.054 C 
BRANCH  13  14
ATOM     14  C   UNL     1      30.156  -2.786 -39.747  1.00  0.00    -0.027 C 
ATOM     15  C   UNL     1      29.089  -2.016 -40.029  1.00  0.00    -0.031 C 
BRANCH  15  16
ATOM     16  C   UNL     1      28.697  -0.781 -39.259  1.00  0.00     0.027 C 
BRANCH  16  17
ATOM     17  C   UNL     1      29.280   0.508 -39.866  1.00  0.00     0.004 C 
BRANCH  17  18
ATOM     18  C   UNL     1      30.222   1.271 -38.913  1.00  0.00     0.000 C 
BRANCH  18  19
ATOM     19  C   UNL     1      30.019   0.879 -37.441  1.00  0.00    -0.003 C 
ATOM     20  C   UNL     1      29.294   1.981 -36.674  1.00  0.00     0.004 C 
ENDBRANCH  18  19
ENDBRANCH  17  18
ENDBRANCH  16  17
ENDBRANCH  15  16
ENDBRANCH  13  14
ENDBRANCH  12  13
ENDBRANCH   1  11
TORSDOF 14
ENDMDL
MODEL 6
REMARK VINA RESULT:    -3.410      5.369      8.120
REMARK INTER + INTRA:          -8.760
REMARK INTER:                  -6.311
REMARK INTRA:                  -2.449
REMARK UNBOUND:                -2.559
REMARK SMILES CCCCCC=CCC=CCCCCCCCC(=O)[O-]
REMARK SMILES IDX 11 1 12 2 13 3 14 4 15 5 16 6 17 7 18 8 19 9 20 10 10 11
REMARK SMILES IDX 9 12 8 13 7 14 6 15 5 16 4 17 3 18 2 19 1 20
REMARK H PARENT
REMARK Flexibility Score: inf
ROOT
ATOM      1  C   UNL     1      29.824  -3.008 -35.608  1.00  0.00     0.027 C 
ENDROOT
BRANCH   1   2
ATOM      2  C   UNL     1      29.794  -3.156 -37.133  1.00  0.00     0.004 C 
BRANCH   2   3
ATOM      3  C   UNL     1      28.350  -3.255 -37.646  1.00  0.00     0.000 C 
BRANCH   3   4
ATOM      4  C   UNL     1      27.554  -4.388 -36.975  1.00  0.00     0.000 C 
BRANCH   4   5
ATOM      5  C   UNL     1      26.133  -4.005 -36.513  1.00  0.00     0.000 C 
BRANCH   5   6
ATOM      6  C   UNL     1      25.979  -3.767 -34.998  1.00  0.00     0.006 C 
BRANCH   6   7
ATOM      7  C   UNL     1      25.930  -5.052 -34.157  1.00  0.00     0.053 C 
BRANCH   7   8
ATOM      8  C   UNL     1      25.134  -4.870 -32.901  1.00  0.00     0.041 C 
ATOM      9  O   UNL     1      25.717  -4.787 -31.788  1.00  0.00    -0.550 OA
ATOM     10  O   UNL     1      23.750  -4.758 -32.964  1.00  0.00    -0.550 OA
ENDBRANCH   7   8
ENDBRANCH   6   7
ENDBRANCH   5   6
ENDBRANCH   4   5
ENDBRANCH   3   4
ENDBRANCH   2   3
ENDBRANCH   1   2
BRANCH   1  11
ATOM     11  C   UNL     1      29.603  -1.573 -35.204  1.00  0.00    -0.031 C 
ATOM     12  C   UNL     1      30.555  -0.772 -34.691  1.00  0.00    -0.027 C 
BRANCH  12  13
ATOM     13  C   UNL     1      31.965  -1.228 -34.407  1.00  0.00     0.054 C 
BRANCH  13  14
ATOM     14  C   UNL     1      32.971  -0.274 -34.998  1.00  0.00    -0.027 C 
ATOM     15  C   UNL     1      33.491  -0.385 -36.235  1.00  0.00    -0.031 C 
BRANCH  15  16
ATOM     16  C   UNL     1      33.095  -1.438 -37.238  1.00  0.00     0.027 C 
BRANCH  16  17
ATOM     17  C   UNL     1      32.418  -0.846 -38.487  1.00  0.00     0.004 C 
BRANCH  17  18
ATOM     18  C   UNL     1      31.809   0.552 -38.257  1.00  0.00     0.000 C 
BRANCH  18  19
ATOM     19  C   UNL     1      30.277   0.519 -38.145  1.00  0.00    -0.003 C 
ATOM     20  C   UNL     1      29.651  -0.152 -39.364  1.00  0.00     0.004 C 
ENDBRANCH  18  19
ENDBRANCH  17  18
ENDBRANCH  16  17
ENDBRANCH  15  16
ENDBRANCH  13  14
ENDBRANCH  12  13
ENDBRANCH   1  11
TORSDOF 14
ENDMDL
MODEL 7
REMARK VINA RESULT:    -3.399      5.347      7.665
REMARK INTER + INTRA:          -8.741
REMARK INTER:                  -5.902
REMARK INTRA:                  -2.839
REMARK UNBOUND:                -2.559
REMARK SMILES CCCCCC=CCC=CCCCCCCCC(=O)[O-]
REMARK SMILES IDX 11 1 12 2 13 3 14 4 15 5 16 6 17 7 18 8 19 9 20 10 10 11
REMARK SMILES IDX 9 12 8 13 7 14 6 15 5 16 4 17 3 18 2 19 1 20
REMARK H PARENT
REMARK Flexibility Score: inf
ROOT
ATOM      1  C   UNL     1      30.348  -1.669 -39.299  1.00  0.00     0.027 C 
ENDROOT
BRANCH   1   2
ATOM      2  C   UNL     1      29.113  -2.464 -38.862  1.00  0.00     0.004 C 
BRANCH   2   3
ATOM      3  C   UNL     1      29.378  -3.975 -38.940  1.00  0.00     0.000 C 
BRANCH   3   4
ATOM      4  C   UNL     1      28.554  -4.779 -37.918  1.00  0.00     0.000 C 
BRANCH   4   5
ATOM      5  C   UNL     1      27.456  -3.978 -37.188  1.00  0.00     0.000 C 
BRANCH   5   6
ATOM      6  C   UNL     1      26.710  -4.750 -36.081  1.00  0.00     0.006 C 
BRANCH   6   7
ATOM      7  C   UNL     1      25.591  -3.950 -35.396  1.00  0.00     0.053 C 
BRANCH   7   8
ATOM      8  C   UNL     1      25.736  -3.947 -33.905  1.00  0.00     0.041 C 
ATOM      9  O   UNL     1      26.874  -4.048 -33.379  1.00  0.00    -0.550 OA
ATOM     10  O   UNL     1      24.614  -3.799 -33.097  1.00  0.00    -0.550 OA
ENDBRANCH   7   8
ENDBRANCH   6   7
ENDBRANCH   5   6
ENDBRANCH   4   5
ENDBRANCH   3   4
ENDBRANCH   2   3
ENDBRANCH   1   2
BRANCH   1  11
ATOM     11  C   UNL     1      30.395  -0.329 -38.610  1.00  0.00    -0.031 C 
ATOM     12  C   UNL     1      31.517   0.248 -38.145  1.00  0.00    -0.027 C 
BRANCH  12  13
ATOM     13  C   UNL     1      32.877  -0.402 -38.208  1.00  0.00     0.054 C 
BRANCH  13  14
ATOM     14  C   UNL     1      33.360  -0.781 -36.832  1.00  0.00    -0.027 C 
ATOM     15  C   UNL     1      33.450  -2.045 -36.377  1.00  0.00    -0.031 C 
BRANCH  15  16
ATOM     16  C   UNL     1      33.148  -3.273 -37.198  1.00  0.00     0.027 C 
BRANCH  16  17
ATOM     17  C   UNL     1      32.022  -4.130 -36.593  1.00  0.00     0.004 C 
BRANCH  17  18
ATOM     18  C   UNL     1      31.716  -3.800 -35.118  1.00  0.00     0.000 C 
BRANCH  18  19
ATOM     19  C   UNL     1      30.237  -3.455 -34.883  1.00  0.00    -0.003 C 
ATOM     20  C   UNL     1      29.950  -2.000 -35.237  1.00  0.00     0.004 C 
ENDBRANCH  18  19
ENDBRANCH  17  18
ENDBRANCH  16  17
ENDBRANCH  15  16
ENDBRANCH  13  14
ENDBRANCH  12  13
ENDBRANCH   1  11
TORSDOF 14
ENDMDL
MODEL 8
REMARK VINA RESULT:    -3.396      5.636      8.142
REMARK INTER + INTRA:          -8.734
REMARK INTER:                  -6.102
REMARK INTRA:                  -2.632
REMARK UNBOUND:                -2.559
REMARK SMILES CCCCCC=CCC=CCCCCCCCC(=O)[O-]
REMARK SMILES IDX 11 1 12 2 13 3 14 4 15 5 16 6 17 7 18 8 19 9 20 10 10 11
REMARK SMILES IDX 9 12 8 13 7 14 6 15 5 16 4 17 3 18 2 19 1 20
REMARK H PARENT
REMARK Flexibility Score: inf
ROOT
ATOM      1  C   UNL     1      30.855  -3.920 -38.091  1.00  0.00     0.027 C 
ENDROOT
BRANCH   1   2
ATOM      2  C   UNL     1      29.548  -4.006 -37.296  1.00  0.00     0.004 C 
BRANCH   2   3
ATOM      3  C   UNL     1      28.371  -3.453 -38.113  1.00  0.00     0.000 C 
BRANCH   3   4
ATOM      4  C   UNL     1      27.128  -3.166 -37.252  1.00  0.00     0.000 C 
BRANCH   4   5
ATOM      5  C   UNL     1      26.635  -4.354 -36.400  1.00  0.00     0.000 C 
BRANCH   5   6
ATOM      6  C   UNL     1      26.278  -4.008 -34.940  1.00  0.00     0.006 C 
BRANCH   6   7
ATOM      7  C   UNL     1      25.902  -5.222 -34.076  1.00  0.00     0.053 C 
BRANCH   7   8
ATOM      8  C   UNL     1      24.916  -4.864 -33.006  1.00  0.00     0.041 C 
ATOM      9  O   UNL     1      25.233  -4.965 -31.793  1.00  0.00    -0.550 OA
ATOM     10  O   UNL     1      23.657  -4.387 -33.352  1.00  0.00    -0.550 OA
ENDBRANCH   7   8
ENDBRANCH   6   7
ENDBRANCH   5   6
ENDBRANCH   4   5
ENDBRANCH   3   4
ENDBRANCH   2   3
ENDBRANCH   1   2
BRANCH   1  11
ATOM     11  C   UNL     1      32.009  -3.558 -37.191  1.00  0.00    -0.031 C 
ATOM     12  C   UNL     1      32.867  -2.550 -37.424  1.00  0.00    -0.027 C 
BRANCH  12  13
ATOM     13  C   UNL     1      32.815  -1.677 -38.653  1.00  0.00     0.054 C 
BRANCH  13  14
ATOM     14  C   UNL     1      32.737  -0.219 -38.278  1.00  0.00    -0.027 C 
ATOM     15  C   UNL     1      31.597   0.495 -38.228  1.00  0.00    -0.031 C 
BRANCH  15  16
ATOM     16  C   UNL     1      30.221  -0.072 -38.472  1.00  0.00     0.027 C 
BRANCH  16  17
ATOM     17  C   UNL     1      29.344  -0.069 -37.207  1.00  0.00     0.004 C 
BRANCH  17  18
ATOM     18  C   UNL     1      30.126   0.225 -35.911  1.00  0.00     0.000 C 
BRANCH  18  19
ATOM     19  C   UNL     1      30.358  -1.034 -35.061  1.00  0.00    -0.003 C 
ATOM     20  C   UNL     1      29.045  -1.561 -34.491  1.00  0.00     0.004 C 
ENDBRANCH  18  19
ENDBRANCH  17  18
ENDBRANCH  16  17
ENDBRANCH  15  16
ENDBRANCH  13  14
ENDBRANCH  12  13
ENDBRANCH   1  11
TORSDOF 14
ENDMDL
MODEL 9
REMARK VINA RESULT:    -3.376      4.942      7.772
REMARK INTER + INTRA:          -8.698
REMARK INTER:                  -5.749
REMARK INTRA:                  -2.948
REMARK UNBOUND:                -2.559
REMARK SMILES CCCCCC=CCC=CCCCCCCCC(=O)[O-]
REMARK SMILES IDX 11 1 12 2 13 3 14 4 15 5 16 6 17 7 18 8 19 9 20 10 10 11
REMARK SMILES IDX 9 12 8 13 7 14 6 15 5 16 4 17 3 18 2 19 1 20
REMARK H PARENT
REMARK Flexibility Score: inf
ROOT
ATOM      1  C   UNL     1      31.602  -0.875 -38.426  1.00  0.00     0.027 C 
ENDROOT
BRANCH   1   2
ATOM      2  C   UNL     1      30.075  -0.986 -38.495  1.00  0.00     0.004 C 
BRANCH   2   3
ATOM      3  C   UNL     1      29.643  -1.917 -39.637  1.00  0.00     0.000 C 
BRANCH   3   4
ATOM      4  C   UNL     1      28.584  -2.945 -39.201  1.00  0.00     0.000 C 
BRANCH   4   5
ATOM      5  C   UNL     1      28.096  -2.804 -37.745  1.00  0.00     0.000 C 
BRANCH   5   6
ATOM      6  C   UNL     1      27.537  -4.095 -37.114  1.00  0.00     0.006 C 
BRANCH   6   7
ATOM      7  C   UNL     1      26.111  -3.962 -36.557  1.00  0.00     0.053 C 
BRANCH   7   8
ATOM      8  C   UNL     1      26.062  -4.197 -35.079  1.00  0.00     0.041 C 
ATOM      9  O   UNL     1      25.809  -3.246 -34.294  1.00  0.00    -0.550 OA
ATOM     10  O   UNL     1      26.263  -5.475 -34.570  1.00  0.00    -0.550 OA
ENDBRANCH   7   8
ENDBRANCH   6   7
ENDBRANCH   5   6
ENDBRANCH   4   5
ENDBRANCH   3   4
ENDBRANCH   2   3
ENDBRANCH   1   2
BRANCH   1  11
ATOM     11  C   UNL     1      32.256  -2.098 -39.018  1.00  0.00    -0.031 C 
ATOM     12  C   UNL     1      32.703  -3.144 -38.300  1.00  0.00    -0.027 C 
BRANCH  12  13
ATOM     13  C   UNL     1      32.651  -3.204 -36.793  1.00  0.00     0.054 C 
BRANCH  13  14
ATOM     14  C   UNL     1      31.430  -3.953 -36.324  1.00  0.00    -0.027 C 
ATOM     15  C   UNL     1      30.711  -3.630 -35.233  1.00  0.00    -0.031 C 
BRANCH  15  16
ATOM     16  C   UNL     1      30.976  -2.431 -34.358  1.00  0.00     0.027 C 
BRANCH  16  17
ATOM     17  C   UNL     1      30.259  -1.162 -34.853  1.00  0.00     0.004 C 
BRANCH  17  18
ATOM     18  C   UNL     1      31.164   0.086 -34.887  1.00  0.00     0.000 C 
BRANCH  18  19
ATOM     19  C   UNL     1      32.589  -0.201 -34.389  1.00  0.00    -0.003 C 
ATOM     20  C   UNL     1      33.615   0.038 -35.492  1.00  0.00     0.004 C 
ENDBRANCH  18  19
ENDBRANCH  17  18
ENDBRANCH  16  17
ENDBRANCH  15  16
ENDBRANCH  13  14
ENDBRANCH  12  13
ENDBRANCH   1  11
TORSDOF 14
ENDMDL
