MODEL 1
REMARK VINA RESULT:    -5.030      0.000      0.000
REMARK INTER + INTRA:          -8.841
REMARK INTER:                  -7.529
REMARK INTRA:                  -1.312
REMARK UNBOUND:                -1.312
REMARK SMILES COC(=O)C1=CO[C@@H](O[C@H]2O[C@@H](CO)[C@H](O)[C@@H](O)[C@@H]2O)[C@@H]2C(CO)=CC[C@H]12
REMARK SMILES IDX 9 1 8 2 5 3 6 4 27 5 7 6 21 7 26 8 22 9 25 10 3 11 4 12 2 13
REMARK SMILES IDX 1 14 23 15 24 16 10 18 19 19 11 20 17 21 12 22 15 23 20 24
REMARK SMILES IDX 18 26 13 28 14 29 16 31
REMARK H PARENT 24 17 20 25 18 27 14 30 16 32
REMARK Flexibility Score: inf
ROOT
ATOM      1  O   UNL     1      43.734  16.154  -2.569  1.00  0.00    -0.310 OA
ENDROOT
BRANCH   1   2
ATOM      2  C   UNL     1      44.115  16.331  -3.928  1.00  0.00     0.316 C 
ATOM      3  C   UNL     1      46.186  14.392  -3.670  1.00  0.00     0.076 C 
ATOM      4  C   UNL     1      45.015  14.073  -4.238  1.00  0.00     0.202 C 
ATOM      5  C   UNL     1      46.636  15.850  -3.588  1.00  0.00     0.047 C 
ATOM      6  O   UNL     1      44.099  15.065  -4.578  1.00  0.00    -0.471 OA
ATOM      7  C   UNL     1      45.545  16.902  -3.956  1.00  0.00     0.094 C 
ATOM      8  C   UNL     1      47.776  16.104  -4.598  1.00  0.00     0.037 C 
ATOM      9  C   UNL     1      45.960  17.395  -5.308  1.00  0.00    -0.039 C 
ATOM     10  C   UNL     1      47.167  16.963  -5.646  1.00  0.00    -0.024 C 
BRANCH   3  11
ATOM     11  C   UNL     1      47.091  13.320  -3.189  1.00  0.00     0.337 C 
ATOM     12  O   UNL     1      47.503  12.438  -3.991  1.00  0.00    -0.246 OA
BRANCH  11  13
ATOM     13  O   UNL     1      47.493  13.291  -1.849  1.00  0.00    -0.466 OA
ATOM     14  C   UNL     1      47.415  12.119  -1.043  1.00  0.00     0.282 C 
ENDBRANCH  11  13
ENDBRANCH   3  11
BRANCH   9  15
ATOM     15  C   UNL     1      45.207  18.409  -6.124  1.00  0.00     0.187 C 
BRANCH  15  16
ATOM     16  O   UNL     1      44.525  19.276  -5.265  1.00  0.00    -0.392 OA
ATOM     17  H   UNL     1      43.692  18.808  -5.003  1.00  0.00     0.211 HD
ENDBRANCH  15  16
ENDBRANCH   9  15
ENDBRANCH   1   2
BRANCH   1  18
ATOM     18  C   UNL     1      42.883  17.177  -2.076  1.00  0.00     0.286 C 
ATOM     19  C   UNL     1      41.383  16.775  -2.162  1.00  0.00     0.202 C 
ATOM     20  O   UNL     1      43.128  18.410  -2.737  1.00  0.00    -0.341 OA
ATOM     21  C   UNL     1      40.484  18.013  -2.385  1.00  0.00     0.179 C 
ATOM     22  C   UNL     1      42.566  19.489  -2.006  1.00  0.00     0.178 C 
ATOM     23  C   UNL     1      41.046  19.270  -1.687  1.00  0.00     0.177 C 
BRANCH  19  24
ATOM     24  O   UNL     1      40.996  16.119  -0.982  1.00  0.00    -0.385 OA
ATOM     25  H   UNL     1      41.110  16.771  -0.242  1.00  0.00     0.211 HD
ENDBRANCH  19  24
BRANCH  21  26
ATOM     26  O   UNL     1      40.380  18.278  -3.763  1.00  0.00    -0.387 OA
ATOM     27  H   UNL     1      41.281  18.552  -4.075  1.00  0.00     0.211 HD
ENDBRANCH  21  26
BRANCH  22  28
ATOM     28  C   UNL     1      42.786  20.774  -2.813  1.00  0.00     0.191 C 
BRANCH  28  29
ATOM     29  O   UNL     1      42.214  20.651  -4.087  1.00  0.00    -0.394 OA
ATOM     30  H   UNL     1      41.648  19.836  -4.056  1.00  0.00     0.210 HD
ENDBRANCH  28  29
ENDBRANCH  22  28
BRANCH  23  31
ATOM     31  O   UNL     1      40.823  19.215  -0.299  1.00  0.00    -0.387 OA
ATOM     32  H   UNL     1      39.931  18.813  -0.147  1.00  0.00     0.211 HD
ENDBRANCH  23  31
ENDBRANCH   1  18
TORSDOF 11
ENDMDL
MODEL 2
REMARK VINA RESULT:    -5.002      1.674      3.139
REMARK INTER + INTRA:          -8.799
REMARK INTER:                  -7.691
REMARK INTRA:                  -1.109
REMARK UNBOUND:                -1.312
REMARK SMILES COC(=O)C1=CO[C@@H](O[C@H]2O[C@@H](CO)[C@H](O)[C@@H](O)[C@@H]2O)[C@@H]2C(CO)=CC[C@H]12
REMARK SMILES IDX 9 1 8 2 5 3 6 4 27 5 7 6 21 7 26 8 22 9 25 10 3 11 4 12 2 13
REMARK SMILES IDX 1 14 23 15 24 16 10 18 19 19 11 20 17 21 12 22 15 23 20 24
REMARK SMILES IDX 18 26 13 28 14 29 16 31
REMARK H PARENT 24 17 20 25 18 27 14 30 16 32
REMARK Flexibility Score: inf
ROOT
ATOM      1  O   UNL     1      44.623  16.042  -2.567  1.00  0.00    -0.310 OA
ENDROOT
BRANCH   1   2
ATOM      2  C   UNL     1      45.339  15.630  -3.725  1.00  0.00     0.316 C 
ATOM      3  C   UNL     1      45.881  13.084  -2.568  1.00  0.00     0.076 C 
ATOM      4  C   UNL     1      44.895  13.235  -3.463  1.00  0.00     0.202 C 
ATOM      5  C   UNL     1      47.023  14.096  -2.496  1.00  0.00     0.047 C 
ATOM      6  O   UNL     1      44.781  14.411  -4.201  1.00  0.00    -0.471 OA
ATOM      7  C   UNL     1      46.808  15.399  -3.325  1.00  0.00     0.094 C 
ATOM      8  C   UNL     1      48.310  13.474  -3.077  1.00  0.00     0.037 C 
ATOM      9  C   UNL     1      47.724  15.235  -4.499  1.00  0.00    -0.039 C 
ATOM     10  C   UNL     1      48.534  14.196  -4.356  1.00  0.00    -0.024 C 
BRANCH   3  11
ATOM     11  C   UNL     1      45.908  11.886  -1.694  1.00  0.00     0.337 C 
ATOM     12  O   UNL     1      45.213  10.876  -1.990  1.00  0.00    -0.246 OA
BRANCH  11  13
ATOM     13  O   UNL     1      46.710  11.872  -0.548  1.00  0.00    -0.466 OA
ATOM     14  C   UNL     1      46.456  11.020   0.564  1.00  0.00     0.282 C 
ENDBRANCH  11  13
ENDBRANCH   3  11
BRANCH   9  15
ATOM     15  C   UNL     1      47.863  16.218  -5.628  1.00  0.00     0.187 C 
BRANCH  15  16
ATOM     16  O   UNL     1      48.112  17.490  -5.102  1.00  0.00    -0.392 OA
ATOM     17  H   UNL     1      47.313  17.730  -4.567  1.00  0.00     0.211 HD
ENDBRANCH  15  16
ENDBRANCH   9  15
ENDBRANCH   1   2
BRANCH   1  18
ATOM     18  C   UNL     1      43.333  16.565  -2.849  1.00  0.00     0.286 C 
ATOM     19  C   UNL     1      43.181  18.030  -2.350  1.00  0.00     0.202 C 
ATOM     20  O   UNL     1      42.315  15.728  -2.320  1.00  0.00    -0.341 OA
ATOM     21  C   UNL     1      41.723  18.331  -1.935  1.00  0.00     0.179 C 
ATOM     22  C   UNL     1      41.061  16.035  -2.911  1.00  0.00     0.178 C 
ATOM     23  C   UNL     1      40.704  17.558  -2.801  1.00  0.00     0.177 C 
BRANCH  19  24
ATOM     24  O   UNL     1      43.577  18.923  -3.359  1.00  0.00    -0.385 OA
ATOM     25  H   UNL     1      44.286  19.498  -2.970  1.00  0.00     0.211 HD
ENDBRANCH  19  24
BRANCH  21  26
ATOM     26  O   UNL     1      41.529  17.967  -0.591  1.00  0.00    -0.387 OA
ATOM     27  H   UNL     1      40.918  17.184  -0.585  1.00  0.00     0.211 HD
ENDBRANCH  21  26
BRANCH  22  28
ATOM     28  C   UNL     1      39.994  15.164  -2.236  1.00  0.00     0.191 C 
BRANCH  28  29
ATOM     29  O   UNL     1      40.040  15.330  -0.845  1.00  0.00    -0.394 OA
ATOM     30  H   UNL     1      40.998  15.268  -0.592  1.00  0.00     0.210 HD
ENDBRANCH  28  29
ENDBRANCH  22  28
BRANCH  23  31
ATOM     31  O   UNL     1      40.585  18.142  -4.076  1.00  0.00    -0.387 OA
ATOM     32  H   UNL     1      40.751  17.438  -4.753  1.00  0.00     0.211 HD
ENDBRANCH  23  31
ENDBRANCH   1  18
TORSDOF 11
ENDMDL
MODEL 3
REMARK VINA RESULT:    -4.676      2.083      7.385
REMARK INTER + INTRA:          -8.311
REMARK INTER:                  -6.968
REMARK INTRA:                  -1.343
REMARK UNBOUND:                -1.312
REMARK SMILES COC(=O)C1=CO[C@@H](O[C@H]2O[C@@H](CO)[C@H](O)[C@@H](O)[C@@H]2O)[C@@H]2C(CO)=CC[C@H]12
REMARK SMILES IDX 9 1 8 2 5 3 6 4 27 5 7 6 21 7 26 8 22 9 25 10 3 11 4 12 2 13
REMARK SMILES IDX 1 14 23 15 24 16 10 18 19 19 11 20 17 21 12 22 15 23 20 24
REMARK SMILES IDX 18 26 13 28 14 29 16 31
REMARK H PARENT 24 17 20 25 18 27 14 30 16 32
REMARK Flexibility Score: inf
ROOT
ATOM      1  O   UNL     1      46.557  16.465  -3.901  1.00  0.00    -0.310 OA
ENDROOT
BRANCH   1   2
ATOM      2  C   UNL     1      45.359  15.758  -4.199  1.00  0.00     0.316 C 
ATOM      3  C   UNL     1      43.826  18.154  -4.042  1.00  0.00     0.076 C 
ATOM      4  C   UNL     1      44.194  17.652  -5.229  1.00  0.00     0.202 C 
ATOM      5  C   UNL     1      43.779  17.261  -2.804  1.00  0.00     0.047 C 
ATOM      6  O   UNL     1      44.732  16.370  -5.320  1.00  0.00    -0.471 OA
ATOM      7  C   UNL     1      44.428  15.853  -2.977  1.00  0.00     0.094 C 
ATOM      8  C   UNL     1      42.312  16.968  -2.424  1.00  0.00     0.037 C 
ATOM      9  C   UNL     1      43.256  14.923  -3.050  1.00  0.00    -0.039 C 
ATOM     10  C   UNL     1      42.118  15.531  -2.747  1.00  0.00    -0.024 C 
BRANCH   3  11
ATOM     11  C   UNL     1      43.384  19.566  -3.943  1.00  0.00     0.337 C 
ATOM     12  O   UNL     1      43.151  20.227  -4.992  1.00  0.00    -0.246 OA
BRANCH  11  13
ATOM     13  O   UNL     1      43.218  20.163  -2.688  1.00  0.00    -0.466 OA
ATOM     14  C   UNL     1      41.980  20.718  -2.254  1.00  0.00     0.282 C 
ENDBRANCH  11  13
ENDBRANCH   3  11
BRANCH   9  15
ATOM     15  C   UNL     1      43.348  13.436  -3.253  1.00  0.00     0.187 C 
BRANCH  15  16
ATOM     16  O   UNL     1      44.547  12.970  -2.703  1.00  0.00    -0.392 OA
ATOM     17  H   UNL     1      44.687  13.483  -1.867  1.00  0.00     0.211 HD
ENDBRANCH  15  16
ENDBRANCH   9  15
ENDBRANCH   1   2
BRANCH   1  18
ATOM     18  C   UNL     1      47.716  15.645  -3.884  1.00  0.00     0.286 C 
ATOM     19  C   UNL     1      48.418  15.606  -5.271  1.00  0.00     0.202 C 
ATOM     20  O   UNL     1      47.411  14.339  -3.419  1.00  0.00    -0.341 OA
ATOM     21  C   UNL     1      49.120  14.248  -5.505  1.00  0.00     0.179 C 
ATOM     22  C   UNL     1      48.598  13.652  -3.048  1.00  0.00     0.178 C 
ATOM     23  C   UNL     1      49.670  13.648  -4.192  1.00  0.00     0.177 C 
BRANCH  19  24
ATOM     24  O   UNL     1      49.361  16.644  -5.359  1.00  0.00    -0.385 OA
ATOM     25  H   UNL     1      49.191  17.113  -6.217  1.00  0.00     0.211 HD
ENDBRANCH  19  24
BRANCH  21  26
ATOM     26  O   UNL     1      48.206  13.335  -6.062  1.00  0.00    -0.387 OA
ATOM     27  H   UNL     1      48.403  13.283  -7.034  1.00  0.00     0.211 HD
ENDBRANCH  21  26
BRANCH  22  28
ATOM     28  C   UNL     1      48.211  12.224  -2.643  1.00  0.00     0.191 C 
BRANCH  28  29
ATOM     29  O   UNL     1      47.246  11.715  -3.522  1.00  0.00    -0.394 OA
ATOM     30  H   UNL     1      47.321  12.251  -4.354  1.00  0.00     0.210 HD
ENDBRANCH  28  29
ENDBRANCH  22  28
BRANCH  23  31
ATOM     31  O   UNL     1      50.842  14.315  -3.789  1.00  0.00    -0.387 OA
ATOM     32  H   UNL     1      50.987  15.079  -4.403  1.00  0.00     0.211 HD
ENDBRANCH  23  31
ENDBRANCH   1  18
TORSDOF 11
ENDMDL
MODEL 4
REMARK VINA RESULT:    -4.637      1.783      6.872
REMARK INTER + INTRA:          -8.254
REMARK INTER:                  -7.117
REMARK INTRA:                  -1.137
REMARK UNBOUND:                -1.312
REMARK SMILES COC(=O)C1=CO[C@@H](O[C@H]2O[C@@H](CO)[C@H](O)[C@@H](O)[C@@H]2O)[C@@H]2C(CO)=CC[C@H]12
REMARK SMILES IDX 9 1 8 2 5 3 6 4 27 5 7 6 21 7 26 8 22 9 25 10 3 11 4 12 2 13
REMARK SMILES IDX 1 14 23 15 24 16 10 18 19 19 11 20 17 21 12 22 15 23 20 24
REMARK SMILES IDX 18 26 13 28 14 29 16 31
REMARK H PARENT 24 17 20 25 18 27 14 30 16 32
REMARK Flexibility Score: inf
ROOT
ATOM      1  O   UNL     1      43.746  16.154  -2.366  1.00  0.00    -0.310 OA
ENDROOT
BRANCH   1   2
ATOM      2  C   UNL     1      42.413  16.144  -2.862  1.00  0.00     0.316 C 
ATOM      3  C   UNL     1      42.526  18.936  -3.416  1.00  0.00     0.076 C 
ATOM      4  C   UNL     1      42.696  18.036  -4.394  1.00  0.00     0.202 C 
ATOM      5  C   UNL     1      41.809  18.550  -2.123  1.00  0.00     0.047 C 
ATOM      6  O   UNL     1      42.409  16.691  -4.176  1.00  0.00    -0.471 OA
ATOM      7  C   UNL     1      41.550  17.024  -1.939  1.00  0.00     0.094 C 
ATOM      8  C   UNL     1      40.405  19.189  -2.093  1.00  0.00     0.037 C 
ATOM      9  C   UNL     1      40.079  16.875  -2.184  1.00  0.00    -0.039 C 
ATOM     10  C   UNL     1      39.468  18.049  -2.262  1.00  0.00    -0.024 C 
BRANCH   3  11
ATOM     11  C   UNL     1      42.966  20.338  -3.618  1.00  0.00     0.337 C 
ATOM     12  O   UNL     1      43.389  21.012  -2.639  1.00  0.00    -0.246 OA
BRANCH  11  13
ATOM     13  O   UNL     1      42.921  20.910  -4.895  1.00  0.00    -0.466 OA
ATOM     14  C   UNL     1      44.089  21.321  -5.600  1.00  0.00     0.282 C 
ENDBRANCH  11  13
ENDBRANCH   3  11
BRANCH   9  15
ATOM     15  C   UNL     1      39.329  15.573  -2.160  1.00  0.00     0.187 C 
BRANCH  15  16
ATOM     16  O   UNL     1      39.482  14.978  -0.904  1.00  0.00    -0.392 OA
ATOM     17  H   UNL     1      39.220  15.663  -0.238  1.00  0.00     0.211 HD
ENDBRANCH  15  16
ENDBRANCH   9  15
ENDBRANCH   1   2
BRANCH   1  18
ATOM     18  C   UNL     1      44.664  15.438  -3.179  1.00  0.00     0.286 C 
ATOM     19  C   UNL     1      45.155  14.134  -2.488  1.00  0.00     0.202 C 
ATOM     20  O   UNL     1      45.754  16.262  -3.568  1.00  0.00    -0.341 OA
ATOM     21  C   UNL     1      46.599  13.785  -2.914  1.00  0.00     0.179 C 
ATOM     22  C   UNL     1      46.453  15.682  -4.659  1.00  0.00     0.178 C 
ATOM     23  C   UNL     1      46.890  14.203  -4.373  1.00  0.00     0.177 C 
BRANCH  19  24
ATOM     24  O   UNL     1      44.299  13.070  -2.814  1.00  0.00    -0.385 OA
ATOM     25  H   UNL     1      43.371  13.416  -2.744  1.00  0.00     0.211 HD
ENDBRANCH  19  24
BRANCH  21  26
ATOM     26  O   UNL     1      47.512  14.446  -2.072  1.00  0.00    -0.387 OA
ATOM     27  H   UNL     1      47.364  15.421  -2.190  1.00  0.00     0.211 HD
ENDBRANCH  21  26
BRANCH  22  28
ATOM     28  C   UNL     1      47.665  16.569  -4.970  1.00  0.00     0.191 C 
BRANCH  28  29
ATOM     29  O   UNL     1      48.605  16.488  -3.932  1.00  0.00    -0.394 OA
ATOM     30  H   UNL     1      48.836  17.425  -3.698  1.00  0.00     0.210 HD
ENDBRANCH  28  29
ENDBRANCH  22  28
BRANCH  23  31
ATOM     31  O   UNL     1      46.284  13.313  -5.279  1.00  0.00    -0.387 OA
ATOM     32  H   UNL     1      46.986  12.972  -5.889  1.00  0.00     0.211 HD
ENDBRANCH  23  31
ENDBRANCH   1  18
TORSDOF 11
ENDMDL
MODEL 5
REMARK VINA RESULT:    -4.577      1.942      7.102
REMARK INTER + INTRA:          -8.163
REMARK INTER:                  -6.967
REMARK INTRA:                  -1.196
REMARK UNBOUND:                -1.312
REMARK SMILES COC(=O)C1=CO[C@@H](O[C@H]2O[C@@H](CO)[C@H](O)[C@@H](O)[C@@H]2O)[C@@H]2C(CO)=CC[C@H]12
REMARK SMILES IDX 9 1 8 2 5 3 6 4 27 5 7 6 21 7 26 8 22 9 25 10 3 11 4 12 2 13
REMARK SMILES IDX 1 14 23 15 24 16 10 18 19 19 11 20 17 21 12 22 15 23 20 24
REMARK SMILES IDX 18 26 13 28 14 29 16 31
REMARK H PARENT 24 17 20 25 18 27 14 30 16 32
REMARK Flexibility Score: inf
ROOT
ATOM      1  O   UNL     1      44.667  16.223  -2.514  1.00  0.00    -0.310 OA
ENDROOT
BRANCH   1   2
ATOM      2  C   UNL     1      43.521  16.023  -3.333  1.00  0.00     0.316 C 
ATOM      3  C   UNL     1      42.581  18.654  -2.779  1.00  0.00     0.076 C 
ATOM      4  C   UNL     1      43.216  18.380  -3.927  1.00  0.00     0.202 C 
ATOM      5  C   UNL     1      41.922  17.537  -1.972  1.00  0.00     0.047 C 
ATOM      6  O   UNL     1      43.463  17.062  -4.303  1.00  0.00    -0.471 OA
ATOM      7  C   UNL     1      42.272  16.090  -2.436  1.00  0.00     0.094 C 
ATOM      8  C   UNL     1      40.388  17.628  -2.108  1.00  0.00     0.037 C 
ATOM      9  C   UNL     1      41.025  15.619  -3.120  1.00  0.00    -0.039 C 
ATOM     10  C   UNL     1      40.011  16.453  -2.935  1.00  0.00    -0.024 C 
BRANCH   3  11
ATOM     11  C   UNL     1      42.448  20.060  -2.327  1.00  0.00     0.337 C 
ATOM     12  O   UNL     1      42.515  21.000  -3.166  1.00  0.00    -0.246 OA
BRANCH  11  13
ATOM     13  O   UNL     1      42.239  20.345  -0.972  1.00  0.00    -0.466 OA
ATOM     14  C   UNL     1      41.021  20.889  -0.475  1.00  0.00     0.282 C 
ENDBRANCH  11  13
ENDBRANCH   3  11
BRANCH   9  15
ATOM     15  C   UNL     1      40.858  14.280  -3.782  1.00  0.00     0.187 C 
BRANCH  15  16
ATOM     16  O   UNL     1      41.359  13.284  -2.938  1.00  0.00    -0.392 OA
ATOM     17  H   UNL     1      40.628  13.061  -2.307  1.00  0.00     0.211 HD
ENDBRANCH  15  16
ENDBRANCH   9  15
ENDBRANCH   1   2
BRANCH   1  18
ATOM     18  C   UNL     1      45.632  15.187  -2.617  1.00  0.00     0.286 C 
ATOM     19  C   UNL     1      46.584  15.400  -3.829  1.00  0.00     0.202 C 
ATOM     20  O   UNL     1      45.010  13.911  -2.663  1.00  0.00    -0.341 OA
ATOM     21  C   UNL     1      47.063  14.048  -4.408  1.00  0.00     0.179 C 
ATOM     22  C   UNL     1      45.953  12.886  -2.388  1.00  0.00     0.178 C 
ATOM     23  C   UNL     1      47.218  12.972  -3.311  1.00  0.00     0.177 C 
BRANCH  19  24
ATOM     24  O   UNL     1      47.695  16.163  -3.436  1.00  0.00    -0.385 OA
ATOM     25  H   UNL     1      47.869  15.945  -2.483  1.00  0.00     0.211 HD
ENDBRANCH  19  24
BRANCH  21  26
ATOM     26  O   UNL     1      46.133  13.586  -5.357  1.00  0.00    -0.387 OA
ATOM     27  H   UNL     1      45.248  13.957  -5.103  1.00  0.00     0.211 HD
ENDBRANCH  21  26
BRANCH  22  28
ATOM     28  C   UNL     1      45.242  11.535  -2.542  1.00  0.00     0.191 C 
BRANCH  28  29
ATOM     29  O   UNL     1      43.860  11.692  -2.375  1.00  0.00    -0.394 OA
ATOM     30  H   UNL     1      43.564  10.938  -1.801  1.00  0.00     0.210 HD
ENDBRANCH  28  29
ENDBRANCH  22  28
BRANCH  23  31
ATOM     31  O   UNL     1      48.382  13.192  -2.554  1.00  0.00    -0.387 OA
ATOM     32  H   UNL     1      48.209  13.947  -1.937  1.00  0.00     0.211 HD
ENDBRANCH  23  31
ENDBRANCH   1  18
TORSDOF 11
ENDMDL
MODEL 6
REMARK VINA RESULT:    -4.455      1.649      1.911
REMARK INTER + INTRA:          -7.981
REMARK INTER:                  -7.365
REMARK INTRA:                  -0.616
REMARK UNBOUND:                -1.312
REMARK SMILES COC(=O)C1=CO[C@@H](O[C@H]2O[C@@H](CO)[C@H](O)[C@@H](O)[C@@H]2O)[C@@H]2C(CO)=CC[C@H]12
REMARK SMILES IDX 9 1 8 2 5 3 6 4 27 5 7 6 21 7 26 8 22 9 25 10 3 11 4 12 2 13
REMARK SMILES IDX 1 14 23 15 24 16 10 18 19 19 11 20 17 21 12 22 15 23 20 24
REMARK SMILES IDX 18 26 13 28 14 29 16 31
REMARK H PARENT 24 17 20 25 18 27 14 30 16 32
REMARK Flexibility Score: inf
ROOT
ATOM      1  O   UNL     1      43.785  16.300  -2.602  1.00  0.00    -0.310 OA
ENDROOT
BRANCH   1   2
ATOM      2  C   UNL     1      44.631  16.138  -3.734  1.00  0.00     0.316 C 
ATOM      3  C   UNL     1      45.314  13.492  -2.931  1.00  0.00     0.076 C 
ATOM      4  C   UNL     1      44.396  13.704  -3.884  1.00  0.00     0.202 C 
ATOM      5  C   UNL     1      46.345  14.568  -2.595  1.00  0.00     0.047 C 
ATOM      6  O   UNL     1      44.232  14.970  -4.442  1.00  0.00    -0.471 OA
ATOM      7  C   UNL     1      46.076  15.965  -3.233  1.00  0.00     0.094 C 
ATOM      8  C   UNL     1      47.729  14.154  -3.136  1.00  0.00     0.037 C 
ATOM      9  C   UNL     1      47.098  16.066  -4.324  1.00  0.00    -0.039 C 
ATOM     10  C   UNL     1      47.989  15.087  -4.262  1.00  0.00    -0.024 C 
BRANCH   3  11
ATOM     11  C   UNL     1      45.382  12.176  -2.251  1.00  0.00     0.337 C 
ATOM     12  O   UNL     1      44.455  11.336  -2.413  1.00  0.00    -0.246 OA
BRANCH  11  13
ATOM     13  O   UNL     1      46.477  11.862  -1.439  1.00  0.00    -0.466 OA
ATOM     14  C   UNL     1      46.353  11.137  -0.219  1.00  0.00     0.282 C 
ENDBRANCH  11  13
ENDBRANCH   3  11
BRANCH   9  15
ATOM     15  C   UNL     1      47.236  17.226  -5.271  1.00  0.00     0.187 C 
BRANCH  15  16
ATOM     16  O   UNL     1      48.579  17.612  -5.332  1.00  0.00    -0.392 OA
ATOM     17  H   UNL     1      48.747  17.885  -6.269  1.00  0.00     0.211 HD
ENDBRANCH  15  16
ENDBRANCH   9  15
ENDBRANCH   1   2
BRANCH   1  18
ATOM     18  C   UNL     1      43.183  17.583  -2.516  1.00  0.00     0.286 C 
ATOM     19  C   UNL     1      41.727  17.505  -1.974  1.00  0.00     0.202 C 
ATOM     20  O   UNL     1      43.236  18.258  -3.765  1.00  0.00    -0.341 OA
ATOM     21  C   UNL     1      40.848  18.630  -2.567  1.00  0.00     0.179 C 
ATOM     22  C   UNL     1      42.988  19.645  -3.593  1.00  0.00     0.178 C 
ATOM     23  C   UNL     1      41.655  19.924  -2.816  1.00  0.00     0.177 C 
BRANCH  19  24
ATOM     24  O   UNL     1      41.733  17.601  -0.573  1.00  0.00    -0.385 OA
ATOM     25  H   UNL     1      42.316  16.871  -0.238  1.00  0.00     0.211 HD
ENDBRANCH  19  24
BRANCH  21  26
ATOM     26  O   UNL     1      40.300  18.206  -3.791  1.00  0.00    -0.387 OA
ATOM     27  H   UNL     1      40.837  18.627  -4.512  1.00  0.00     0.211 HD
ENDBRANCH  21  26
BRANCH  22  28
ATOM     28  C   UNL     1      42.970  20.298  -4.981  1.00  0.00     0.191 C 
BRANCH  28  29
ATOM     29  O   UNL     1      44.161  21.005  -5.200  1.00  0.00    -0.394 OA
ATOM     30  H   UNL     1      44.073  21.419  -6.097  1.00  0.00     0.210 HD
ENDBRANCH  28  29
ENDBRANCH  22  28
BRANCH  23  31
ATOM     31  O   UNL     1      41.906  20.598  -1.607  1.00  0.00    -0.387 OA
ATOM     32  H   UNL     1      41.876  19.933  -0.873  1.00  0.00     0.211 HD
ENDBRANCH  23  31
ENDBRANCH   1  18
TORSDOF 11
ENDMDL
MODEL 7
REMARK VINA RESULT:    -4.453      2.123      3.106
REMARK INTER + INTRA:          -7.977
REMARK INTER:                  -6.902
REMARK INTRA:                  -1.076
REMARK UNBOUND:                -1.312
REMARK SMILES COC(=O)C1=CO[C@@H](O[C@H]2O[C@@H](CO)[C@H](O)[C@@H](O)[C@@H]2O)[C@@H]2C(CO)=CC[C@H]12
REMARK SMILES IDX 9 1 8 2 5 3 6 4 27 5 7 6 21 7 26 8 22 9 25 10 3 11 4 12 2 13
REMARK SMILES IDX 1 14 23 15 24 16 10 18 19 19 11 20 17 21 12 22 15 23 20 24
REMARK SMILES IDX 18 26 13 28 14 29 16 31
REMARK H PARENT 24 17 20 25 18 27 14 30 16 32
REMARK Flexibility Score: inf
ROOT
ATOM      1  O   UNL     1      42.837  16.260  -3.021  1.00  0.00    -0.310 OA
ENDROOT
BRANCH   1   2
ATOM      2  C   UNL     1      43.938  16.003  -3.883  1.00  0.00     0.316 C 
ATOM      3  C   UNL     1      43.380  13.210  -3.878  1.00  0.00     0.076 C 
ATOM      4  C   UNL     1      42.999  13.983  -4.904  1.00  0.00     0.202 C 
ATOM      5  C   UNL     1      44.505  13.658  -2.945  1.00  0.00     0.047 C 
ATOM      6  O   UNL     1      43.472  15.288  -5.022  1.00  0.00    -0.471 OA
ATOM      7  C   UNL     1      44.958  15.140  -3.119  1.00  0.00     0.094 C 
ATOM      8  C   UNL     1      45.775  12.828  -3.221  1.00  0.00     0.037 C 
ATOM      9  C   UNL     1      46.282  15.033  -3.811  1.00  0.00    -0.039 C 
ATOM     10  C   UNL     1      46.719  13.782  -3.859  1.00  0.00    -0.024 C 
BRANCH   3  11
ATOM     11  C   UNL     1      42.762  11.875  -3.690  1.00  0.00     0.337 C 
ATOM     12  O   UNL     1      43.119  10.909  -4.420  1.00  0.00    -0.246 OA
BRANCH  11  13
ATOM     13  O   UNL     1      41.793  11.683  -2.699  1.00  0.00    -0.466 OA
ATOM     14  C   UNL     1      40.425  12.039  -2.876  1.00  0.00     0.282 C 
ENDBRANCH  11  13
ENDBRANCH   3  11
BRANCH   9  15
ATOM     15  C   UNL     1      47.127  16.200  -4.240  1.00  0.00     0.187 C 
BRANCH  15  16
ATOM     16  O   UNL     1      48.246  16.289  -3.407  1.00  0.00    -0.392 OA
ATOM     17  H   UNL     1      48.840  16.971  -3.812  1.00  0.00     0.211 HD
ENDBRANCH  15  16
ENDBRANCH   9  15
ENDBRANCH   1   2
BRANCH   1  18
ATOM     18  C   UNL     1      42.772  17.601  -2.559  1.00  0.00     0.286 C 
ATOM     19  C   UNL     1      41.471  17.873  -1.752  1.00  0.00     0.202 C 
ATOM     20  O   UNL     1      42.920  18.519  -3.632  1.00  0.00    -0.341 OA
ATOM     21  C   UNL     1      41.010  19.340  -1.914  1.00  0.00     0.179 C 
ATOM     22  C   UNL     1      43.231  19.815  -3.141  1.00  0.00     0.178 C 
ATOM     23  C   UNL     1      42.203  20.309  -2.064  1.00  0.00     0.177 C 
BRANCH  19  24
ATOM     24  O   UNL     1      41.684  17.595  -0.393  1.00  0.00    -0.385 OA
ATOM     25  H   UNL     1      41.428  16.646  -0.251  1.00  0.00     0.211 HD
ENDBRANCH  19  24
BRANCH  21  26
ATOM     26  O   UNL     1      40.197  19.456  -3.057  1.00  0.00    -0.387 OA
ATOM     27  H   UNL     1      40.252  20.400  -3.359  1.00  0.00     0.211 HD
ENDBRANCH  21  26
BRANCH  22  28
ATOM     28  C   UNL     1      43.288  20.773  -4.337  1.00  0.00     0.191 C 
BRANCH  28  29
ATOM     29  O   UNL     1      42.046  21.397  -4.518  1.00  0.00    -0.394 OA
ATOM     30  H   UNL     1      41.428  20.975  -3.866  1.00  0.00     0.210 HD
ENDBRANCH  28  29
ENDBRANCH  22  28
BRANCH  23  31
ATOM     31  O   UNL     1      42.834  20.523  -0.825  1.00  0.00    -0.387 OA
ATOM     32  H   UNL     1      43.809  20.597  -0.985  1.00  0.00     0.211 HD
ENDBRANCH  23  31
ENDBRANCH   1  18
TORSDOF 11
ENDMDL
MODEL 8
REMARK VINA RESULT:    -4.411      1.912      7.156
REMARK INTER + INTRA:          -7.915
REMARK INTER:                  -6.980
REMARK INTRA:                  -0.936
REMARK UNBOUND:                -1.312
REMARK SMILES COC(=O)C1=CO[C@@H](O[C@H]2O[C@@H](CO)[C@H](O)[C@@H](O)[C@@H]2O)[C@@H]2C(CO)=CC[C@H]12
REMARK SMILES IDX 9 1 8 2 5 3 6 4 27 5 7 6 21 7 26 8 22 9 25 10 3 11 4 12 2 13
REMARK SMILES IDX 1 14 23 15 24 16 10 18 19 19 11 20 17 21 12 22 15 23 20 24
REMARK SMILES IDX 18 26 13 28 14 29 16 31
REMARK H PARENT 24 17 20 25 18 27 14 30 16 32
REMARK Flexibility Score: inf
ROOT
ATOM      1  O   UNL     1      44.603  17.011  -3.148  1.00  0.00    -0.310 OA
ENDROOT
BRANCH   1   2
ATOM      2  C   UNL     1      43.247  16.710  -3.450  1.00  0.00     0.316 C 
ATOM      3  C   UNL     1      42.879  19.263  -4.659  1.00  0.00     0.076 C 
ATOM      4  C   UNL     1      43.090  18.174  -5.409  1.00  0.00     0.202 C 
ATOM      5  C   UNL     1      42.355  19.130  -3.229  1.00  0.00     0.047 C 
ATOM      6  O   UNL     1      43.034  16.902  -4.844  1.00  0.00    -0.471 OA
ATOM      7  C   UNL     1      42.351  17.680  -2.658  1.00  0.00     0.094 C 
ATOM      8  C   UNL     1      40.879  19.576  -3.169  1.00  0.00     0.037 C 
ATOM      9  C   UNL     1      40.904  17.292  -2.667  1.00  0.00    -0.039 C 
ATOM     10  C   UNL     1      40.116  18.323  -2.940  1.00  0.00    -0.024 C 
BRANCH   3  11
ATOM     11  C   UNL     1      43.078  20.612  -5.242  1.00  0.00     0.337 C 
ATOM     12  O   UNL     1      44.140  21.250  -5.003  1.00  0.00    -0.246 OA
BRANCH  11  13
ATOM     13  O   UNL     1      42.094  21.173  -6.064  1.00  0.00    -0.466 OA
ATOM     14  C   UNL     1      41.393  22.366  -5.728  1.00  0.00     0.282 C 
ENDBRANCH  11  13
ENDBRANCH   3  11
BRANCH   9  15
ATOM     15  C   UNL     1      40.367  15.955  -2.238  1.00  0.00     0.187 C 
BRANCH  15  16
ATOM     16  O   UNL     1      40.663  15.753  -0.887  1.00  0.00    -0.392 OA
ATOM     17  H   UNL     1      41.646  15.638  -0.832  1.00  0.00     0.211 HD
ENDBRANCH  15  16
ENDBRANCH   9  15
ENDBRANCH   1   2
BRANCH   1  18
ATOM     18  C   UNL     1      45.439  15.866  -3.068  1.00  0.00     0.286 C 
ATOM     19  C   UNL     1      46.535  15.869  -4.170  1.00  0.00     0.202 C 
ATOM     20  O   UNL     1      44.673  14.670  -3.100  1.00  0.00    -0.341 OA
ATOM     21  C   UNL     1      46.904  14.429  -4.597  1.00  0.00     0.179 C 
ATOM     22  C   UNL     1      45.447  13.569  -2.648  1.00  0.00     0.178 C 
ATOM     23  C   UNL     1      46.805  13.434  -3.420  1.00  0.00     0.177 C 
BRANCH  19  24
ATOM     24  O   UNL     1      47.683  16.529  -3.702  1.00  0.00    -0.385 OA
ATOM     25  H   UNL     1      47.446  16.928  -2.824  1.00  0.00     0.211 HD
ENDBRANCH  19  24
BRANCH  21  26
ATOM     26  O   UNL     1      46.033  14.002  -5.615  1.00  0.00    -0.387 OA
ATOM     27  H   UNL     1      46.391  14.353  -6.472  1.00  0.00     0.211 HD
ENDBRANCH  21  26
BRANCH  22  28
ATOM     28  C   UNL     1      44.596  12.301  -2.793  1.00  0.00     0.191 C 
BRANCH  28  29
ATOM     29  O   UNL     1      44.865  11.414  -1.742  1.00  0.00    -0.394 OA
ATOM     30  H   UNL     1      44.525  10.529  -2.036  1.00  0.00     0.210 HD
ENDBRANCH  28  29
ENDBRANCH  22  28
BRANCH  23  31
ATOM     31  O   UNL     1      47.899  13.580  -2.548  1.00  0.00    -0.387 OA
ATOM     32  H   UNL     1      47.977  14.538  -2.310  1.00  0.00     0.211 HD
ENDBRANCH  23  31
ENDBRANCH   1  18
TORSDOF 11
ENDMDL
MODEL 9
REMARK VINA RESULT:    -3.257      1.499      3.628
REMARK INTER + INTRA:          -6.187
REMARK INTER:                  -5.245
REMARK INTRA:                  -0.941
REMARK UNBOUND:                -1.312
REMARK SMILES COC(=O)C1=CO[C@@H](O[C@H]2O[C@@H](CO)[C@H](O)[C@@H](O)[C@@H]2O)[C@@H]2C(CO)=CC[C@H]12
REMARK SMILES IDX 9 1 8 2 5 3 6 4 27 5 7 6 21 7 26 8 22 9 25 10 3 11 4 12 2 13
REMARK SMILES IDX 1 14 23 15 24 16 10 18 19 19 11 20 17 21 12 22 15 23 20 24
REMARK SMILES IDX 18 26 13 28 14 29 16 31
REMARK H PARENT 24 17 20 25 18 27 14 30 16 32
REMARK Flexibility Score: inf
ROOT
ATOM      1  O   UNL     1      42.705  15.729  -3.573  1.00  0.00    -0.310 OA
ENDROOT
BRANCH   1   2
ATOM      2  C   UNL     1      43.675  14.854  -3.011  1.00  0.00     0.316 C 
ATOM      3  C   UNL     1      45.775  16.169  -4.417  1.00  0.00     0.076 C 
ATOM      4  C   UNL     1      45.543  16.436  -3.125  1.00  0.00     0.202 C 
ATOM      5  C   UNL     1      45.284  14.862  -5.039  1.00  0.00     0.047 C 
ATOM      6  O   UNL     1      44.684  15.633  -2.378  1.00  0.00    -0.471 OA
ATOM      7  C   UNL     1      44.303  14.035  -4.153  1.00  0.00     0.094 C 
ATOM      8  C   UNL     1      46.480  13.917  -5.281  1.00  0.00     0.037 C 
ATOM      9  C   UNL     1      45.134  12.885  -3.672  1.00  0.00    -0.039 C 
ATOM     10  C   UNL     1      46.306  12.826  -4.288  1.00  0.00    -0.024 C 
BRANCH   3  11
ATOM     11  C   UNL     1      46.581  17.109  -5.233  1.00  0.00     0.337 C 
ATOM     12  O   UNL     1      46.023  17.805  -6.125  1.00  0.00    -0.246 OA
BRANCH  11  13
ATOM     13  O   UNL     1      47.956  17.233  -5.007  1.00  0.00    -0.466 OA
ATOM     14  C   UNL     1      48.886  17.535  -6.043  1.00  0.00     0.282 C 
ENDBRANCH  11  13
ENDBRANCH   3  11
BRANCH   9  15
ATOM     15  C   UNL     1      44.653  11.803  -2.744  1.00  0.00     0.187 C 
BRANCH  15  16
ATOM     16  O   UNL     1      45.555  11.673  -1.684  1.00  0.00    -0.392 OA
ATOM     17  H   UNL     1      46.460  11.778  -2.074  1.00  0.00     0.211 HD
ENDBRANCH  15  16
ENDBRANCH   9  15
ENDBRANCH   1   2
BRANCH   1  18
ATOM     18  C   UNL     1      42.325  16.791  -2.710  1.00  0.00     0.286 C 
ATOM     19  C   UNL     1      40.839  16.676  -2.269  1.00  0.00     0.202 C 
ATOM     20  O   UNL     1      42.595  18.053  -3.304  1.00  0.00    -0.341 OA
ATOM     21  C   UNL     1      40.216  18.071  -2.033  1.00  0.00     0.179 C 
ATOM     22  C   UNL     1      42.574  19.080  -2.323  1.00  0.00     0.178 C 
ATOM     23  C   UNL     1      41.248  19.081  -1.485  1.00  0.00     0.177 C 
BRANCH  19  24
ATOM     24  O   UNL     1      40.747  15.915  -1.093  1.00  0.00    -0.385 OA
ATOM     25  H   UNL     1      40.995  16.515  -0.343  1.00  0.00     0.211 HD
ENDBRANCH  19  24
BRANCH  21  26
ATOM     26  O   UNL     1      39.705  18.571  -3.244  1.00  0.00    -0.387 OA
ATOM     27  H   UNL     1      38.755  18.809  -3.084  1.00  0.00     0.211 HD
ENDBRANCH  21  26
BRANCH  22  28
ATOM     28  C   UNL     1      42.781  20.421  -3.038  1.00  0.00     0.191 C 
BRANCH  28  29
ATOM     29  O   UNL     1      41.612  20.796  -3.714  1.00  0.00    -0.394 OA
ATOM     30  H   UNL     1      40.905  20.869  -3.021  1.00  0.00     0.210 HD
ENDBRANCH  28  29
ENDBRANCH  22  28
BRANCH  23  31
ATOM     31  O   UNL     1      41.511  18.840  -0.124  1.00  0.00    -0.387 OA
ATOM     32  H   UNL     1      40.643  18.785   0.351  1.00  0.00     0.211 HD
ENDBRANCH  23  31
ENDBRANCH   1  18
TORSDOF 11
ENDMDL
