MODEL 1
REMARK VINA RESULT:    -4.305      0.000      0.000
REMARK INTER + INTRA:          -5.792
REMARK INTER:                  -5.311
REMARK INTRA:                  -0.481
REMARK UNBOUND:                -0.481
REMARK SMILES C=CC[C@@H](C)C(=O)CC
REMARK SMILES IDX 4 1 5 2 6 3 7 4 8 5 9 6 3 7 2 8 1 9
REMARK H PARENT
REMARK Flexibility Score: inf
ROOT
ATOM      1  C   UNL     1     -12.304 -17.487  31.267  1.00  0.00     0.057 C 
ATOM      2  C   UNL     1     -13.052 -18.753  31.707  1.00  0.00     0.016 C 
ENDROOT
BRANCH   1   3
ATOM      3  C   UNL     1     -12.575 -17.176  29.808  1.00  0.00     0.135 C 
ATOM      4  O   UNL     1     -13.252 -17.941  29.137  1.00  0.00    -0.299 OA
BRANCH   3   5
ATOM      5  C   UNL     1     -12.020 -15.933  29.164  1.00  0.00     0.072 C 
ATOM      6  C   UNL     1     -13.140 -15.086  28.568  1.00  0.00     0.012 C 
ENDBRANCH   3   5
ENDBRANCH   1   3
BRANCH   1   7
ATOM      7  C   UNL     1     -12.607 -16.277  32.176  1.00  0.00     0.038 C 
BRANCH   7   8
ATOM      8  C   UNL     1     -14.078 -15.973  32.303  1.00  0.00    -0.034 C 
ATOM      9  C   UNL     1     -14.572 -14.755  32.064  1.00  0.00     0.004 C 
ENDBRANCH   7   8
ENDBRANCH   1   7
TORSDOF 4
ENDMDL
MODEL 2
REMARK VINA RESULT:    -4.178      1.573      3.007
REMARK INTER + INTRA:          -5.636
REMARK INTER:                  -5.350
REMARK INTRA:                  -0.286
REMARK UNBOUND:                -0.481
REMARK SMILES C=CC[C@@H](C)C(=O)CC
REMARK SMILES IDX 4 1 5 2 6 3 7 4 8 5 9 6 3 7 2 8 1 9
REMARK H PARENT
REMARK Flexibility Score: inf
ROOT
ATOM      1  C   UNL     1     -13.252 -16.634  31.232  1.00  0.00     0.057 C 
ATOM      2  C   UNL     1     -13.853 -15.496  32.069  1.00  0.00     0.016 C 
ENDROOT
BRANCH   1   3
ATOM      3  C   UNL     1     -11.880 -16.256  30.710  1.00  0.00     0.135 C 
ATOM      4  O   UNL     1     -10.943 -16.134  31.486  1.00  0.00    -0.299 OA
BRANCH   3   5
ATOM      5  C   UNL     1     -11.647 -16.024  29.240  1.00  0.00     0.072 C 
ATOM      6  C   UNL     1     -12.869 -15.377  28.595  1.00  0.00     0.012 C 
ENDBRANCH   3   5
ENDBRANCH   1   3
BRANCH   1   7
ATOM      7  C   UNL     1     -13.225 -17.975  31.995  1.00  0.00     0.038 C 
BRANCH   7   8
ATOM      8  C   UNL     1     -12.909 -19.160  31.118  1.00  0.00    -0.034 C 
ATOM      9  C   UNL     1     -12.327 -20.262  31.601  1.00  0.00     0.004 C 
ENDBRANCH   7   8
ENDBRANCH   1   7
TORSDOF 4
ENDMDL
MODEL 3
REMARK VINA RESULT:    -4.158      2.133      4.452
REMARK INTER + INTRA:          -5.611
REMARK INTER:                  -5.324
REMARK INTRA:                  -0.287
REMARK UNBOUND:                -0.481
REMARK SMILES C=CC[C@@H](C)C(=O)CC
REMARK SMILES IDX 4 1 5 2 6 3 7 4 8 5 9 6 3 7 2 8 1 9
REMARK H PARENT
REMARK Flexibility Score: inf
ROOT
ATOM      1  C   UNL     1     -11.560 -15.767  29.215  1.00  0.00     0.057 C 
ATOM      2  C   UNL     1     -12.904 -15.354  28.600  1.00  0.00     0.016 C 
ENDROOT
BRANCH   1   3
ATOM      3  C   UNL     1     -11.731 -16.182  30.663  1.00  0.00     0.135 C 
ATOM      4  O   UNL     1     -10.793 -16.086  31.441  1.00  0.00    -0.299 OA
BRANCH   3   5
ATOM      5  C   UNL     1     -13.046 -16.719  31.165  1.00  0.00     0.072 C 
ATOM      6  C   UNL     1     -12.904 -18.173  31.605  1.00  0.00     0.012 C 
ENDBRANCH   3   5
ENDBRANCH   1   3
BRANCH   1   7
ATOM      7  C   UNL     1     -10.843 -16.855  28.389  1.00  0.00     0.038 C 
BRANCH   7   8
ATOM      8  C   UNL     1     -11.629 -17.313  27.186  1.00  0.00    -0.034 C 
ATOM      9  C   UNL     1     -11.098 -17.336  25.960  1.00  0.00     0.004 C 
ENDBRANCH   7   8
ENDBRANCH   1   7
TORSDOF 4
ENDMDL
MODEL 4
REMARK VINA RESULT:    -4.157      0.995      2.869
REMARK INTER + INTRA:          -5.610
REMARK INTER:                  -5.421
REMARK INTRA:                  -0.189
REMARK UNBOUND:                -0.481
REMARK SMILES C=CC[C@@H](C)C(=O)CC
REMARK SMILES IDX 4 1 5 2 6 3 7 4 8 5 9 6 3 7 2 8 1 9
REMARK H PARENT
REMARK Flexibility Score: inf
ROOT
ATOM      1  C   UNL     1     -12.999 -16.593  30.074  1.00  0.00     0.057 C 
ATOM      2  C   UNL     1     -12.056 -15.897  29.083  1.00  0.00     0.016 C 
ENDROOT
BRANCH   1   3
ATOM      3  C   UNL     1     -12.646 -18.061  30.219  1.00  0.00     0.135 C 
ATOM      4  O   UNL     1     -12.163 -18.669  29.274  1.00  0.00    -0.299 OA
BRANCH   3   5
ATOM      5  C   UNL     1     -12.885 -18.792  31.514  1.00  0.00     0.072 C 
ATOM      6  C   UNL     1     -12.458 -20.252  31.397  1.00  0.00     0.012 C 
ENDBRANCH   3   5
ENDBRANCH   1   3
BRANCH   1   7
ATOM      7  C   UNL     1     -13.049 -15.880  31.441  1.00  0.00     0.038 C 
BRANCH   7   8
ATOM      8  C   UNL     1     -14.222 -14.942  31.588  1.00  0.00    -0.034 C 
ATOM      9  C   UNL     1     -14.956 -14.898  32.704  1.00  0.00     0.004 C 
ENDBRANCH   7   8
ENDBRANCH   1   7
TORSDOF 4
ENDMDL
MODEL 5
REMARK VINA RESULT:    -4.137      2.012      3.008
REMARK INTER + INTRA:          -5.585
REMARK INTER:                  -5.329
REMARK INTRA:                  -0.256
REMARK UNBOUND:                -0.481
REMARK SMILES C=CC[C@@H](C)C(=O)CC
REMARK SMILES IDX 4 1 5 2 6 3 7 4 8 5 9 6 3 7 2 8 1 9
REMARK H PARENT
REMARK Flexibility Score: inf
ROOT
ATOM      1  C   UNL     1     -12.218 -15.509  28.849  1.00  0.00     0.057 C 
ATOM      2  C   UNL     1     -10.775 -15.778  29.299  1.00  0.00     0.016 C 
ENDROOT
BRANCH   1   3
ATOM      3  C   UNL     1     -12.577 -16.355  27.644  1.00  0.00     0.135 C 
ATOM      4  O   UNL     1     -13.559 -16.074  26.971  1.00  0.00    -0.299 OA
BRANCH   3   5
ATOM      5  C   UNL     1     -11.742 -17.547  27.257  1.00  0.00     0.072 C 
ATOM      6  C   UNL     1     -11.056 -17.314  25.915  1.00  0.00     0.012 C 
ENDBRANCH   3   5
ENDBRANCH   1   3
BRANCH   1   7
ATOM      7  C   UNL     1     -13.236 -15.685  29.996  1.00  0.00     0.038 C 
BRANCH   7   8
ATOM      8  C   UNL     1     -12.902 -16.825  30.926  1.00  0.00    -0.034 C 
ATOM      9  C   UNL     1     -13.202 -16.786  32.228  1.00  0.00     0.004 C 
ENDBRANCH   7   8
ENDBRANCH   1   7
TORSDOF 4
ENDMDL
MODEL 6
REMARK VINA RESULT:    -4.125      2.556      4.566
REMARK INTER + INTRA:          -5.570
REMARK INTER:                  -5.214
REMARK INTRA:                  -0.356
REMARK UNBOUND:                -0.481
REMARK SMILES C=CC[C@@H](C)C(=O)CC
REMARK SMILES IDX 4 1 5 2 6 3 7 4 8 5 9 6 3 7 2 8 1 9
REMARK H PARENT
REMARK Flexibility Score: inf
ROOT
ATOM      1  C   UNL     1     -11.912 -17.050  28.586  1.00  0.00     0.057 C 
ATOM      2  C   UNL     1     -11.369 -15.833  29.349  1.00  0.00     0.016 C 
ENDROOT
BRANCH   1   3
ATOM      3  C   UNL     1     -12.551 -18.044  29.536  1.00  0.00     0.135 C 
ATOM      4  O   UNL     1     -13.108 -17.648  30.550  1.00  0.00    -0.299 OA
BRANCH   3   5
ATOM      5  C   UNL     1     -12.510 -19.523  29.254  1.00  0.00     0.072 C 
ATOM      6  C   UNL     1     -13.811 -19.986  28.606  1.00  0.00     0.012 C 
ENDBRANCH   3   5
ENDBRANCH   1   3
BRANCH   1   7
ATOM      7  C   UNL     1     -12.871 -16.650  27.446  1.00  0.00     0.038 C 
BRANCH   7   8
ATOM      8  C   UNL     1     -12.278 -16.827  26.071  1.00  0.00    -0.034 C 
ATOM      9  C   UNL     1     -11.073 -17.374  25.885  1.00  0.00     0.004 C 
ENDBRANCH   7   8
ENDBRANCH   1   7
TORSDOF 4
ENDMDL
MODEL 7
REMARK VINA RESULT:    -4.089      1.655      2.291
REMARK INTER + INTRA:          -5.526
REMARK INTER:                  -5.333
REMARK INTRA:                  -0.193
REMARK UNBOUND:                -0.481
REMARK SMILES C=CC[C@@H](C)C(=O)CC
REMARK SMILES IDX 4 1 5 2 6 3 7 4 8 5 9 6 3 7 2 8 1 9
REMARK H PARENT
REMARK Flexibility Score: inf
ROOT
ATOM      1  C   UNL     1     -12.614 -17.457  30.753  1.00  0.00     0.057 C 
ATOM      2  C   UNL     1     -13.132 -18.275  31.944  1.00  0.00     0.016 C 
ENDROOT
BRANCH   1   3
ATOM      3  C   UNL     1     -12.859 -18.186  29.446  1.00  0.00     0.135 C 
ATOM      4  O   UNL     1     -13.106 -17.552  28.430  1.00  0.00    -0.299 OA
BRANCH   3   5
ATOM      5  C   UNL     1     -12.808 -19.690  29.376  1.00  0.00     0.072 C 
ATOM      6  C   UNL     1     -13.921 -20.227  28.483  1.00  0.00     0.012 C 
ENDBRANCH   3   5
ENDBRANCH   1   3
BRANCH   1   7
ATOM      7  C   UNL     1     -13.189 -16.025  30.727  1.00  0.00     0.038 C 
BRANCH   7   8
ATOM      8  C   UNL     1     -13.769 -15.585  32.047  1.00  0.00    -0.034 C 
ATOM      9  C   UNL     1     -14.705 -14.635  32.128  1.00  0.00     0.004 C 
ENDBRANCH   7   8
ENDBRANCH   1   7
TORSDOF 4
ENDMDL
MODEL 8
REMARK VINA RESULT:    -4.051      2.338      3.641
REMARK INTER + INTRA:          -5.479
REMARK INTER:                  -5.110
REMARK INTRA:                  -0.369
REMARK UNBOUND:                -0.481
REMARK SMILES C=CC[C@@H](C)C(=O)CC
REMARK SMILES IDX 4 1 5 2 6 3 7 4 8 5 9 6 3 7 2 8 1 9
REMARK H PARENT
REMARK Flexibility Score: inf
ROOT
ATOM      1  C   UNL     1     -12.899 -17.410  29.500  1.00  0.00     0.057 C 
ATOM      2  C   UNL     1     -12.902 -16.665  30.843  1.00  0.00     0.016 C 
ENDROOT
BRANCH   1   3
ATOM      3  C   UNL     1     -12.355 -16.529  28.393  1.00  0.00     0.135 C 
ATOM      4  O   UNL     1     -11.694 -15.538  28.669  1.00  0.00    -0.299 OA
BRANCH   3   5
ATOM      5  C   UNL     1     -12.618 -16.853  26.945  1.00  0.00     0.072 C 
ATOM      6  C   UNL     1     -11.335 -17.299  26.250  1.00  0.00     0.012 C 
ENDBRANCH   3   5
ENDBRANCH   1   3
BRANCH   1   7
ATOM      7  C   UNL     1     -12.155 -18.759  29.577  1.00  0.00     0.038 C 
BRANCH   7   8
ATOM      8  C   UNL     1     -13.071 -19.956  29.521  1.00  0.00    -0.034 C 
ATOM      9  C   UNL     1     -13.901 -20.164  28.495  1.00  0.00     0.004 C 
ENDBRANCH   7   8
ENDBRANCH   1   7
TORSDOF 4
ENDMDL
MODEL 9
REMARK VINA RESULT:    -4.049      1.385      3.165
REMARK INTER + INTRA:          -5.476
REMARK INTER:                  -5.002
REMARK INTRA:                  -0.475
REMARK UNBOUND:                -0.481
REMARK SMILES C=CC[C@@H](C)C(=O)CC
REMARK SMILES IDX 4 1 5 2 6 3 7 4 8 5 9 6 3 7 2 8 1 9
REMARK H PARENT
REMARK Flexibility Score: inf
ROOT
ATOM      1  C   UNL     1     -12.782 -17.972  29.781  1.00  0.00     0.057 C 
ATOM      2  C   UNL     1     -12.928 -19.280  28.990  1.00  0.00     0.016 C 
ENDROOT
BRANCH   1   3
ATOM      3  C   UNL     1     -12.910 -18.222  31.271  1.00  0.00     0.135 C 
ATOM      4  O   UNL     1     -13.170 -19.344  31.682  1.00  0.00    -0.299 OA
BRANCH   3   5
ATOM      5  C   UNL     1     -12.725 -17.105  32.263  1.00  0.00     0.072 C 
ATOM      6  C   UNL     1     -13.871 -16.102  32.169  1.00  0.00     0.012 C 
ENDBRANCH   3   5
ENDBRANCH   1   3
BRANCH   1   7
ATOM      7  C   UNL     1     -11.481 -17.217  29.437  1.00  0.00     0.038 C 
BRANCH   7   8
ATOM      8  C   UNL     1     -11.714 -15.812  28.942  1.00  0.00    -0.034 C 
ATOM      9  C   UNL     1     -12.921 -15.388  28.558  1.00  0.00     0.004 C 
ENDBRANCH   7   8
ENDBRANCH   1   7
TORSDOF 4
ENDMDL
