MODEL 1
REMARK VINA RESULT:    -5.350      0.000      0.000
REMARK INTER + INTRA:          -5.871
REMARK INTER:                  -5.819
REMARK INTRA:                  -0.052
REMARK UNBOUND:                -0.052
REMARK SMILES CCc1cccc(O)c1
REMARK SMILES IDX 3 1 9 2 7 3 6 4 5 5 4 6 2 7 1 8 8 9
REMARK H PARENT 8 10
REMARK Flexibility Score: inf
ROOT
ATOM      1  C   UNL     1      -6.332  -5.800  15.993  1.00  0.00    -0.045 A 
ATOM      2  C   UNL     1      -7.617  -5.299  16.261  1.00  0.00     0.049 A 
ATOM      3  C   UNL     1      -8.401  -5.866  17.277  1.00  0.00     0.115 A 
ATOM      4  C   UNL     1      -7.896  -6.930  18.031  1.00  0.00     0.046 A 
ATOM      5  C   UNL     1      -6.613  -7.424  17.779  1.00  0.00     0.004 A 
ATOM      6  C   UNL     1      -5.830  -6.859  16.767  1.00  0.00     0.004 A 
ENDROOT
BRANCH   1   7
ATOM      7  C   UNL     1      -5.478  -5.170  14.926  1.00  0.00     0.032 C 
ATOM      8  C   UNL     1      -6.089  -3.855  14.453  1.00  0.00     0.009 C 
ENDBRANCH   1   7
BRANCH   3   9
ATOM      9  O   UNL     1      -9.678  -5.378  17.543  1.00  0.00    -0.508 OA
ATOM     10  H   UNL     1      -9.850  -4.732  18.305  1.00  0.00     0.293 HD
ENDBRANCH   3   9
TORSDOF 2
ENDMDL
MODEL 2
REMARK VINA RESULT:    -5.276      1.778      2.119
REMARK INTER + INTRA:          -5.790
REMARK INTER:                  -5.739
REMARK INTRA:                  -0.051
REMARK UNBOUND:                -0.052
REMARK SMILES CCc1cccc(O)c1
REMARK SMILES IDX 3 1 9 2 7 3 6 4 5 5 4 6 2 7 1 8 8 9
REMARK H PARENT 8 10
REMARK Flexibility Score: inf
ROOT
ATOM      1  C   UNL     1      -6.849  -5.101  16.362  1.00  0.00    -0.045 A 
ATOM      2  C   UNL     1      -6.889  -6.334  15.689  1.00  0.00     0.049 A 
ATOM      3  C   UNL     1      -7.430  -7.466  16.317  1.00  0.00     0.115 A 
ATOM      4  C   UNL     1      -7.938  -7.363  17.616  1.00  0.00     0.046 A 
ATOM      5  C   UNL     1      -7.913  -6.137  18.285  1.00  0.00     0.004 A 
ATOM      6  C   UNL     1      -7.375  -5.008  17.661  1.00  0.00     0.004 A 
ENDROOT
BRANCH   1   7
ATOM      7  C   UNL     1      -6.299  -3.879  15.677  1.00  0.00     0.032 C 
ATOM      8  C   UNL     1      -5.794  -4.226  14.280  1.00  0.00     0.009 C 
ENDBRANCH   1   7
BRANCH   3   9
ATOM      9  O   UNL     1      -7.468  -8.693  15.658  1.00  0.00    -0.508 OA
ATOM     10  H   UNL     1      -8.064  -8.844  14.852  1.00  0.00     0.293 HD
ENDBRANCH   3   9
TORSDOF 2
ENDMDL
MODEL 3
REMARK VINA RESULT:    -5.266      1.784      2.142
REMARK INTER + INTRA:          -5.779
REMARK INTER:                  -5.727
REMARK INTRA:                  -0.052
REMARK UNBOUND:                -0.052
REMARK SMILES CCc1cccc(O)c1
REMARK SMILES IDX 3 1 9 2 7 3 6 4 5 5 4 6 2 7 1 8 8 9
REMARK H PARENT 8 10
REMARK Flexibility Score: inf
ROOT
ATOM      1  C   UNL     1      -7.187  -5.631  15.628  1.00  0.00    -0.045 A 
ATOM      2  C   UNL     1      -6.340  -5.602  16.750  1.00  0.00     0.049 A 
ATOM      3  C   UNL     1      -6.517  -6.523  17.793  1.00  0.00     0.115 A 
ATOM      4  C   UNL     1      -7.535  -7.478  17.712  1.00  0.00     0.046 A 
ATOM      5  C   UNL     1      -8.371  -7.521  16.593  1.00  0.00     0.004 A 
ATOM      6  C   UNL     1      -8.196  -6.604  15.551  1.00  0.00     0.004 A 
ENDROOT
BRANCH   1   7
ATOM      7  C   UNL     1      -6.976  -4.665  14.493  1.00  0.00     0.032 C 
ATOM      8  C   UNL     1      -5.598  -4.019  14.583  1.00  0.00     0.009 C 
ENDBRANCH   1   7
BRANCH   3   9
ATOM      9  O   UNL     1      -5.686  -6.497  18.911  1.00  0.00    -0.508 OA
ATOM     10  H   UNL     1      -5.011  -7.232  19.087  1.00  0.00     0.293 HD
ENDBRANCH   3   9
TORSDOF 2
ENDMDL
MODEL 4
REMARK VINA RESULT:    -4.807     10.119     11.316
REMARK INTER + INTRA:          -5.280
REMARK INTER:                  -5.230
REMARK INTRA:                  -0.051
REMARK UNBOUND:                -0.052
REMARK SMILES CCc1cccc(O)c1
REMARK SMILES IDX 3 1 9 2 7 3 6 4 5 5 4 6 2 7 1 8 8 9
REMARK H PARENT 8 10
REMARK Flexibility Score: inf
ROOT
ATOM      1  C   UNL     1     -13.626 -11.153  23.618  1.00  0.00    -0.045 A 
ATOM      2  C   UNL     1     -14.233 -11.717  22.482  1.00  0.00     0.049 A 
ATOM      3  C   UNL     1     -15.463 -11.226  22.020  1.00  0.00     0.115 A 
ATOM      4  C   UNL     1     -16.083 -10.165  22.689  1.00  0.00     0.046 A 
ATOM      5  C   UNL     1     -15.479  -9.593  23.810  1.00  0.00     0.004 A 
ATOM      6  C   UNL     1     -14.252 -10.080  24.272  1.00  0.00     0.004 A 
ENDROOT
BRANCH   1   7
ATOM      7  C   UNL     1     -12.291 -11.657  24.095  1.00  0.00     0.032 C 
ATOM      8  C   UNL     1     -11.379 -11.970  22.913  1.00  0.00     0.009 C 
ENDBRANCH   1   7
BRANCH   3   9
ATOM      9  O   UNL     1     -16.072 -11.783  20.898  1.00  0.00    -0.508 OA
ATOM     10  H   UNL     1     -16.493 -12.704  20.927  1.00  0.00     0.293 HD
ENDBRANCH   3   9
TORSDOF 2
ENDMDL
MODEL 5
REMARK VINA RESULT:    -4.787     10.910     11.393
REMARK INTER + INTRA:          -5.258
REMARK INTER:                  -5.184
REMARK INTRA:                  -0.074
REMARK UNBOUND:                -0.052
REMARK SMILES CCc1cccc(O)c1
REMARK SMILES IDX 3 1 9 2 7 3 6 4 5 5 4 6 2 7 1 8 8 9
REMARK H PARENT 8 10
REMARK Flexibility Score: inf
ROOT
ATOM      1  C   UNL     1     -14.953 -11.366  22.247  1.00  0.00    -0.045 A 
ATOM      2  C   UNL     1     -14.999 -12.472  21.381  1.00  0.00     0.049 A 
ATOM      3  C   UNL     1     -13.919 -13.365  21.314  1.00  0.00     0.115 A 
ATOM      4  C   UNL     1     -12.795 -13.157  22.121  1.00  0.00     0.046 A 
ATOM      5  C   UNL     1     -12.749 -12.067  22.994  1.00  0.00     0.004 A 
ATOM      6  C   UNL     1     -13.825 -11.177  23.062  1.00  0.00     0.004 A 
ENDROOT
BRANCH   1   7
ATOM      7  C   UNL     1     -16.125 -10.428  22.343  1.00  0.00     0.032 C 
ATOM      8  C   UNL     1     -15.731  -9.145  23.068  1.00  0.00     0.009 C 
ENDBRANCH   1   7
BRANCH   3   9
ATOM      9  O   UNL     1     -13.955 -14.459  20.454  1.00  0.00    -0.508 OA
ATOM     10  H   UNL     1     -14.496 -15.288  20.672  1.00  0.00     0.293 HD
ENDBRANCH   3   9
TORSDOF 2
ENDMDL
MODEL 6
REMARK VINA RESULT:    -4.580     10.165     10.976
REMARK INTER + INTRA:          -5.034
REMARK INTER:                  -4.963
REMARK INTRA:                  -0.070
REMARK UNBOUND:                -0.052
REMARK SMILES CCc1cccc(O)c1
REMARK SMILES IDX 3 1 9 2 7 3 6 4 5 5 4 6 2 7 1 8 8 9
REMARK H PARENT 8 10
REMARK Flexibility Score: inf
ROOT
ATOM      1  C   UNL     1     -13.094 -11.518  23.340  1.00  0.00    -0.045 A 
ATOM      2  C   UNL     1     -13.858 -10.638  24.126  1.00  0.00     0.049 A 
ATOM      3  C   UNL     1     -14.984 -10.000  23.584  1.00  0.00     0.115 A 
ATOM      4  C   UNL     1     -15.350 -10.247  22.257  1.00  0.00     0.046 A 
ATOM      5  C   UNL     1     -14.603 -11.131  21.474  1.00  0.00     0.004 A 
ATOM      6  C   UNL     1     -13.481 -11.769  22.014  1.00  0.00     0.004 A 
ENDROOT
BRANCH   1   7
ATOM      7  C   UNL     1     -11.907 -12.228  23.932  1.00  0.00     0.032 C 
ATOM      8  C   UNL     1     -10.820 -12.430  22.881  1.00  0.00     0.009 C 
ENDBRANCH   1   7
BRANCH   3   9
ATOM      9  O   UNL     1     -15.742  -9.122  24.355  1.00  0.00    -0.508 OA
ATOM     10  H   UNL     1     -16.749  -9.063  24.256  1.00  0.00     0.293 HD
ENDBRANCH   3   9
TORSDOF 2
ENDMDL
MODEL 7
REMARK VINA RESULT:    -4.471     10.331     10.913
REMARK INTER + INTRA:          -4.914
REMARK INTER:                  -4.864
REMARK INTRA:                  -0.050
REMARK UNBOUND:                -0.052
REMARK SMILES CCc1cccc(O)c1
REMARK SMILES IDX 3 1 9 2 7 3 6 4 5 5 4 6 2 7 1 8 8 9
REMARK H PARENT 8 10
REMARK Flexibility Score: inf
ROOT
ATOM      1  C   UNL     1     -11.124 -13.712  22.483  1.00  0.00    -0.045 A 
ATOM      2  C   UNL     1     -12.035 -14.436  21.693  1.00  0.00     0.049 A 
ATOM      3  C   UNL     1     -13.261 -13.864  21.324  1.00  0.00     0.115 A 
ATOM      4  C   UNL     1     -13.574 -12.565  21.738  1.00  0.00     0.046 A 
ATOM      5  C   UNL     1     -12.667 -11.836  22.511  1.00  0.00     0.004 A 
ATOM      6  C   UNL     1     -11.444 -12.404  22.879  1.00  0.00     0.004 A 
ENDROOT
BRANCH   1   7
ATOM      7  C   UNL     1      -9.794 -14.313  22.850  1.00  0.00     0.032 C 
ATOM      8  C   UNL     1      -8.931 -14.514  21.609  1.00  0.00     0.009 C 
ENDBRANCH   1   7
BRANCH   3   9
ATOM      9  O   UNL     1     -14.171 -14.577  20.548  1.00  0.00    -0.508 OA
ATOM     10  H   UNL     1     -15.112 -14.768  20.874  1.00  0.00     0.293 HD
ENDBRANCH   3   9
TORSDOF 2
ENDMDL
MODEL 8
REMARK VINA RESULT:    -4.459      7.219      8.212
REMARK INTER + INTRA:          -4.901
REMARK INTER:                  -4.827
REMARK INTRA:                  -0.074
REMARK UNBOUND:                -0.052
REMARK SMILES CCc1cccc(O)c1
REMARK SMILES IDX 3 1 9 2 7 3 6 4 5 5 4 6 2 7 1 8 8 9
REMARK H PARENT 8 10
REMARK Flexibility Score: inf
ROOT
ATOM      1  C   UNL     1      -2.866  -0.122  13.168  1.00  0.00    -0.045 A 
ATOM      2  C   UNL     1      -3.314   1.064  12.561  1.00  0.00     0.049 A 
ATOM      3  C   UNL     1      -4.507   1.669  12.984  1.00  0.00     0.115 A 
ATOM      4  C   UNL     1      -5.250   1.091  14.019  1.00  0.00     0.046 A 
ATOM      5  C   UNL     1      -4.803  -0.080  14.635  1.00  0.00     0.004 A 
ATOM      6  C   UNL     1      -3.613  -0.684  14.216  1.00  0.00     0.004 A 
ENDROOT
BRANCH   1   7
ATOM      7  C   UNL     1      -1.569  -0.752  12.738  1.00  0.00     0.032 C 
ATOM      8  C   UNL     1      -0.977  -1.592  13.865  1.00  0.00     0.009 C 
ENDBRANCH   1   7
BRANCH   3   9
ATOM      9  O   UNL     1      -4.960   2.841  12.383  1.00  0.00    -0.508 OA
ATOM     10  H   UNL     1      -4.811   3.747  12.810  1.00  0.00     0.293 HD
ENDBRANCH   3   9
TORSDOF 2
ENDMDL
MODEL 9
REMARK VINA RESULT:    -4.409      7.630      8.770
REMARK INTER + INTRA:          -4.847
REMARK INTER:                  -4.798
REMARK INTRA:                  -0.049
REMARK UNBOUND:                -0.052
REMARK SMILES CCc1cccc(O)c1
REMARK SMILES IDX 3 1 9 2 7 3 6 4 5 5 4 6 2 7 1 8 8 9
REMARK H PARENT 8 10
REMARK Flexibility Score: inf
ROOT
ATOM      1  C   UNL     1      -1.097  -2.116  11.341  1.00  0.00    -0.045 A 
ATOM      2  C   UNL     1      -2.115  -3.025  11.679  1.00  0.00     0.049 A 
ATOM      3  C   UNL     1      -2.994  -3.502  10.694  1.00  0.00     0.115 A 
ATOM      4  C   UNL     1      -2.850  -3.075   9.370  1.00  0.00     0.046 A 
ATOM      5  C   UNL     1      -1.833  -2.182   9.026  1.00  0.00     0.004 A 
ATOM      6  C   UNL     1      -0.955  -1.707  10.005  1.00  0.00     0.004 A 
ENDROOT
BRANCH   1   7
ATOM      7  C   UNL     1      -0.134  -1.631  12.390  1.00  0.00     0.032 C 
ATOM      8  C   UNL     1      -0.794  -1.620  13.765  1.00  0.00     0.009 C 
ENDBRANCH   1   7
BRANCH   3   9
ATOM      9  O   UNL     1      -4.008  -4.398  11.023  1.00  0.00    -0.508 OA
ATOM     10  H   UNL     1      -4.359  -5.071  10.351  1.00  0.00     0.293 HD
ENDBRANCH   3   9
TORSDOF 2
ENDMDL
