MODEL 1
REMARK VINA RESULT:    -4.866      0.000      0.000
REMARK INTER + INTRA:          -5.543
REMARK INTER:                  -5.293
REMARK INTRA:                  -0.250
REMARK UNBOUND:                -0.250
REMARK SMILES O=C([O-])c1ccccc1O
REMARK SMILES IDX 4 1 9 2 5 3 8 4 6 5 7 6 2 7 1 8 3 9 10 10
REMARK H PARENT 10 11
REMARK Flexibility Score: inf
ROOT
ATOM      1  C   UNL     1      52.514  45.768  11.538  1.00  0.00     0.039 A 
ATOM      2  C   UNL     1      53.306  45.601  12.703  1.00  0.00     0.124 A 
ATOM      3  C   UNL     1      52.851  45.050  10.376  1.00  0.00     0.014 A 
ATOM      4  C   UNL     1      54.365  44.684  12.694  1.00  0.00     0.047 A 
ATOM      5  C   UNL     1      53.924  44.155  10.378  1.00  0.00     0.001 A 
ATOM      6  C   UNL     1      54.674  43.964  11.538  1.00  0.00     0.004 A 
ENDROOT
BRANCH   1   7
ATOM      7  C   UNL     1      51.319  46.640  11.509  1.00  0.00     0.075 C 
ATOM      8  O   UNL     1      50.523  46.655  12.485  1.00  0.00    -0.545 OA
ATOM      9  O   UNL     1      51.093  47.501  10.442  1.00  0.00    -0.545 OA
ENDBRANCH   1   7
BRANCH   2  10
ATOM     10  O   UNL     1      53.100  46.346  13.865  1.00  0.00    -0.507 OA
ATOM     11  H   UNL     1      53.784  46.988  14.243  1.00  0.00     0.293 HD
ENDBRANCH   2  10
TORSDOF 2
ENDMDL
MODEL 2
REMARK VINA RESULT:    -4.837      1.869      3.530
REMARK INTER + INTRA:          -5.512
REMARK INTER:                  -5.298
REMARK INTRA:                  -0.214
REMARK UNBOUND:                -0.250
REMARK SMILES O=C([O-])c1ccccc1O
REMARK SMILES IDX 4 1 9 2 5 3 8 4 6 5 7 6 2 7 1 8 3 9 10 10
REMARK H PARENT 10 11
REMARK Flexibility Score: inf
ROOT
ATOM      1  C   UNL     1      53.084  45.488  11.695  1.00  0.00     0.039 A 
ATOM      2  C   UNL     1      52.470  46.120  12.806  1.00  0.00     0.124 A 
ATOM      3  C   UNL     1      52.679  45.849  10.396  1.00  0.00     0.014 A 
ATOM      4  C   UNL     1      51.522  47.129  12.593  1.00  0.00     0.047 A 
ATOM      5  C   UNL     1      51.716  46.843  10.201  1.00  0.00     0.001 A 
ATOM      6  C   UNL     1      51.147  47.489  11.297  1.00  0.00     0.004 A 
ENDROOT
BRANCH   1   7
ATOM      7  C   UNL     1      54.166  44.489  11.846  1.00  0.00     0.075 C 
ATOM      8  O   UNL     1      54.611  43.881  10.838  1.00  0.00    -0.545 OA
ATOM      9  O   UNL     1      54.750  44.257  13.085  1.00  0.00    -0.545 OA
ENDBRANCH   1   7
BRANCH   2  10
ATOM     10  O   UNL     1      52.743  45.752  14.125  1.00  0.00    -0.507 OA
ATOM     11  H   UNL     1      52.284  44.984  14.594  1.00  0.00     0.293 HD
ENDBRANCH   2  10
TORSDOF 2
ENDMDL
MODEL 3
REMARK VINA RESULT:    -4.738      1.021      2.306
REMARK INTER + INTRA:          -5.404
REMARK INTER:                  -5.154
REMARK INTRA:                  -0.250
REMARK UNBOUND:                -0.250
REMARK SMILES O=C([O-])c1ccccc1O
REMARK SMILES IDX 4 1 9 2 5 3 8 4 6 5 7 6 2 7 1 8 3 9 10 10
REMARK H PARENT 10 11
REMARK Flexibility Score: inf
ROOT
ATOM      1  C   UNL     1      52.513  45.883  12.252  1.00  0.00     0.039 A 
ATOM      2  C   UNL     1      52.587  45.568  10.872  1.00  0.00     0.124 A 
ATOM      3  C   UNL     1      53.462  45.328  13.130  1.00  0.00     0.014 A 
ATOM      4  C   UNL     1      53.634  44.765  10.400  1.00  0.00     0.047 A 
ATOM      5  C   UNL     1      54.488  44.512  12.646  1.00  0.00     0.001 A 
ATOM      6  C   UNL     1      54.580  44.239  11.282  1.00  0.00     0.004 A 
ENDROOT
BRANCH   1   7
ATOM      7  C   UNL     1      51.496  46.807  12.802  1.00  0.00     0.075 C 
ATOM      8  O   UNL     1      51.848  47.781  13.518  1.00  0.00    -0.545 OA
ATOM      9  O   UNL     1      50.152  46.656  12.484  1.00  0.00    -0.545 OA
ENDBRANCH   1   7
BRANCH   2  10
ATOM     10  O   UNL     1      51.629  45.995   9.950  1.00  0.00    -0.507 OA
ATOM     11  H   UNL     1      51.647  46.906   9.512  1.00  0.00     0.293 HD
ENDBRANCH   2  10
TORSDOF 2
ENDMDL
MODEL 4
REMARK VINA RESULT:    -4.626      2.156      3.891
REMARK INTER + INTRA:          -5.282
REMARK INTER:                  -5.033
REMARK INTRA:                  -0.249
REMARK UNBOUND:                -0.250
REMARK SMILES O=C([O-])c1ccccc1O
REMARK SMILES IDX 4 1 9 2 5 3 8 4 6 5 7 6 2 7 1 8 3 9 10 10
REMARK H PARENT 10 11
REMARK Flexibility Score: inf
ROOT
ATOM      1  C   UNL     1      53.117  45.339  11.611  1.00  0.00     0.039 A 
ATOM      2  C   UNL     1      51.983  46.059  11.159  1.00  0.00     0.124 A 
ATOM      3  C   UNL     1      53.442  45.369  12.980  1.00  0.00     0.014 A 
ATOM      4  C   UNL     1      51.176  46.733  12.084  1.00  0.00     0.047 A 
ATOM      5  C   UNL     1      52.638  46.063  13.888  1.00  0.00     0.001 A 
ATOM      6  C   UNL     1      51.501  46.736  13.442  1.00  0.00     0.004 A 
ENDROOT
BRANCH   1   7
ATOM      7  C   UNL     1      53.953  44.521  10.704  1.00  0.00     0.075 C 
ATOM      8  O   UNL     1      54.314  44.983   9.589  1.00  0.00    -0.545 OA
ATOM      9  O   UNL     1      54.407  43.267  11.093  1.00  0.00    -0.545 OA
ENDBRANCH   1   7
BRANCH   2  10
ATOM     10  O   UNL     1      51.648  46.162   9.807  1.00  0.00    -0.507 OA
ATOM     11  H   UNL     1      51.019  45.524   9.340  1.00  0.00     0.293 HD
ENDBRANCH   2  10
TORSDOF 2
ENDMDL
MODEL 5
REMARK VINA RESULT:    -4.285     14.218     15.234
REMARK INTER + INTRA:          -4.911
REMARK INTER:                  -4.660
REMARK INTRA:                  -0.251
REMARK UNBOUND:                -0.250
REMARK SMILES O=C([O-])c1ccccc1O
REMARK SMILES IDX 4 1 9 2 5 3 8 4 6 5 7 6 2 7 1 8 3 9 10 10
REMARK H PARENT 10 11
REMARK Flexibility Score: inf
ROOT
ATOM      1  C   UNL     1      50.698  33.031   4.077  1.00  0.00     0.039 A 
ATOM      2  C   UNL     1      49.616  33.590   3.350  1.00  0.00     0.124 A 
ATOM      3  C   UNL     1      51.882  32.702   3.391  1.00  0.00     0.014 A 
ATOM      4  C   UNL     1      49.766  33.860   1.984  1.00  0.00     0.047 A 
ATOM      5  C   UNL     1      52.008  32.959   2.023  1.00  0.00     0.001 A 
ATOM      6  C   UNL     1      50.955  33.547   1.323  1.00  0.00     0.004 A 
ENDROOT
BRANCH   1   7
ATOM      7  C   UNL     1      50.645  32.816   5.540  1.00  0.00     0.075 C 
ATOM      8  O   UNL     1      51.302  31.879   6.066  1.00  0.00    -0.545 OA
ATOM      9  O   UNL     1      49.929  33.679   6.360  1.00  0.00    -0.545 OA
ENDBRANCH   1   7
BRANCH   2  10
ATOM     10  O   UNL     1      48.375  33.853   3.934  1.00  0.00    -0.507 OA
ATOM     11  H   UNL     1      47.786  34.628   3.661  1.00  0.00     0.293 HD
ENDBRANCH   2  10
TORSDOF 2
ENDMDL
MODEL 6
REMARK VINA RESULT:    -4.227     12.757     13.517
REMARK INTER + INTRA:          -4.848
REMARK INTER:                  -4.595
REMARK INTRA:                  -0.253
REMARK UNBOUND:                -0.250
REMARK SMILES O=C([O-])c1ccccc1O
REMARK SMILES IDX 4 1 9 2 5 3 8 4 6 5 7 6 2 7 1 8 3 9 10 10
REMARK H PARENT 10 11
REMARK Flexibility Score: inf
ROOT
ATOM      1  C   UNL     1      49.315  33.681   7.616  1.00  0.00     0.039 A 
ATOM      2  C   UNL     1      48.610  32.973   8.622  1.00  0.00     0.124 A 
ATOM      3  C   UNL     1      50.034  34.837   7.973  1.00  0.00     0.014 A 
ATOM      4  C   UNL     1      48.689  33.399   9.954  1.00  0.00     0.047 A 
ATOM      5  C   UNL     1      50.086  35.260   9.304  1.00  0.00     0.001 A 
ATOM      6  C   UNL     1      49.424  34.536  10.294  1.00  0.00     0.004 A 
ENDROOT
BRANCH   1   7
ATOM      7  C   UNL     1      49.359  33.227   6.208  1.00  0.00     0.075 C 
ATOM      8  O   UNL     1      49.387  34.070   5.273  1.00  0.00    -0.545 OA
ATOM      9  O   UNL     1      49.437  31.875   5.899  1.00  0.00    -0.545 OA
ENDBRANCH   1   7
BRANCH   2  10
ATOM     10  O   UNL     1      47.795  31.875   8.338  1.00  0.00    -0.507 OA
ATOM     11  H   UNL     1      48.152  30.943   8.183  1.00  0.00     0.293 HD
ENDBRANCH   2  10
TORSDOF 2
ENDMDL
MODEL 7
REMARK VINA RESULT:    -4.222     13.186     13.962
REMARK INTER + INTRA:          -4.843
REMARK INTER:                  -4.632
REMARK INTRA:                  -0.211
REMARK UNBOUND:                -0.250
REMARK SMILES O=C([O-])c1ccccc1O
REMARK SMILES IDX 4 1 9 2 5 3 8 4 6 5 7 6 2 7 1 8 3 9 10 10
REMARK H PARENT 10 11
REMARK Flexibility Score: inf
ROOT
ATOM      1  C   UNL     1      49.375  33.034   7.001  1.00  0.00     0.039 A 
ATOM      2  C   UNL     1      49.358  34.250   7.730  1.00  0.00     0.124 A 
ATOM      3  C   UNL     1      48.843  31.875   7.596  1.00  0.00     0.014 A 
ATOM      4  C   UNL     1      48.762  34.290   8.997  1.00  0.00     0.047 A 
ATOM      5  C   UNL     1      48.270  31.927   8.869  1.00  0.00     0.001 A 
ATOM      6  C   UNL     1      48.220  33.135   9.564  1.00  0.00     0.004 A 
ENDROOT
BRANCH   1   7
ATOM      7  C   UNL     1      49.895  32.944   5.618  1.00  0.00     0.075 C 
ATOM      8  O   UNL     1      49.378  33.636   4.702  1.00  0.00    -0.545 OA
ATOM      9  O   UNL     1      50.997  32.152   5.324  1.00  0.00    -0.545 OA
ENDBRANCH   1   7
BRANCH   2  10
ATOM     10  O   UNL     1      49.952  35.421   7.253  1.00  0.00    -0.507 OA
ATOM     11  H   UNL     1      50.890  35.707   7.496  1.00  0.00     0.293 HD
ENDBRANCH   2  10
TORSDOF 2
ENDMDL
