MODEL 1
REMARK VINA RESULT:    -2.573      0.000      0.000
REMARK INTER + INTRA:          -3.442
REMARK INTER:                  -3.626
REMARK INTRA:                   0.185
REMARK UNBOUND:                 0.185
REMARK SMILES CC1=CCC(=C(C)C)C(=O)CC(C)=CCC1
REMARK SMILES IDX 12 1 14 2 13 3 15 4 16 5 2 6 1 7 3 8 11 10 9 11 10 12 5 13
REMARK SMILES IDX 6 14 7 15 8 16 4 17
REMARK H PARENT
REMARK Flexibility Score: 60.00
ROOT
ATOM      1  C   UNL     1      -9.233 -12.078  -5.018  1.00  0.00    -0.070 C 
ATOM      2  C   UNL     1      -8.814 -11.790  -3.763  1.00  0.00    -0.027 C 
ATOM      3  C   UNL     1      -9.348 -10.941  -6.002  1.00  0.00     0.039 C 
ENDROOT
BRANCH   2   4
ATOM      4  C   UNL     1      -8.700 -12.766  -2.615  1.00  0.00     0.032 C 
BRANCH   4   5
ATOM      5  C   UNL     1      -7.480 -13.696  -2.738  1.00  0.00     0.034 C 
BRANCH   5   6
ATOM      6  C   UNL     1      -7.821 -15.147  -2.454  1.00  0.00    -0.077 C 
ATOM      7  C   UNL     1      -8.438 -15.489  -1.121  1.00  0.00     0.039 C 
ATOM      8  C   UNL     1      -7.624 -16.154  -3.336  1.00  0.00    -0.023 CG0
ATOM      9  G   UNL     1      -7.076 -16.010  -4.737  1.00  0.00     0.000 G0
ENDBRANCH   5   6
ENDBRANCH   4   5
ENDBRANCH   2   4
BRANCH   1  10
ATOM     10  C   UNL     1      -9.609 -13.472  -5.483  1.00  0.00     0.111 C 
BRANCH  10  11
ATOM     11  C   UNL     1      -8.431 -14.226  -6.049  1.00  0.00     0.163 C 
ATOM     12  O   UNL     1      -7.672 -13.625  -6.856  1.00  0.00    -0.294 OA
BRANCH  11  13
ATOM     13  C   UNL     1      -8.185 -15.670  -5.749  1.00  0.00    -0.002 C 
ATOM     14  C   UNL     1      -8.835 -16.643  -6.454  1.00  0.00    -0.069 C 
ATOM     15  C   UNL     1      -9.857 -16.297  -7.513  1.00  0.00     0.039 C 
ATOM     16  C   UNL     1      -8.524 -18.107  -6.242  1.00  0.00     0.039 C 
BRANCH  13  17
ATOM     17  C   UNL     1      -7.088 -16.026  -4.753  1.00  0.00     0.066 CG0
ATOM     18  G   UNL     1      -7.628 -16.153  -3.348  1.00  0.00     0.000 G0
ENDBRANCH  13  17
ENDBRANCH  11  13
ENDBRANCH  10  11
ENDBRANCH   1  10
TORSDOF 0
ENDMDL
MODEL 2
REMARK VINA RESULT:    -2.519      3.168      4.684
REMARK INTER + INTRA:          -3.366
REMARK INTER:                  -3.838
REMARK INTRA:                   0.472
REMARK UNBOUND:                 0.185
REMARK SMILES CC1=CCC(=C(C)C)C(=O)CC(C)=CCC1
REMARK SMILES IDX 12 1 14 2 13 3 15 4 16 5 2 6 1 7 3 8 11 10 9 11 10 12 5 13
REMARK SMILES IDX 6 14 7 15 8 16 4 17
REMARK H PARENT
REMARK Flexibility Score: 60.00
ROOT
ATOM      1  C   UNL     1      -9.319 -11.167  -4.592  1.00  0.00    -0.070 C 
ATOM      2  C   UNL     1      -8.419 -10.194  -4.867  1.00  0.00    -0.027 C 
ATOM      3  C   UNL     1      -9.593 -11.488  -3.145  1.00  0.00     0.039 C 
ENDROOT
BRANCH   2   4
ATOM      4  C   UNL     1      -7.953  -9.772  -6.242  1.00  0.00     0.032 C 
BRANCH   4   5
ATOM      5  C   UNL     1      -7.053 -10.821  -6.917  1.00  0.00     0.034 C 
BRANCH   5   6
ATOM      6  C   UNL     1      -7.445 -11.086  -8.359  1.00  0.00    -0.077 C 
ATOM      7  C   UNL     1      -7.396  -9.938  -9.336  1.00  0.00     0.039 C 
ATOM      8  C   UNL     1      -7.818 -12.298  -8.829  1.00  0.00    -0.023 CG0
ATOM      9  G   UNL     1      -7.874 -13.579  -8.029  1.00  0.00     0.000 G0
ENDBRANCH   5   6
ENDBRANCH   4   5
ENDBRANCH   2   4
BRANCH   1  10
ATOM     10  C   UNL     1     -10.052 -11.964  -5.656  1.00  0.00     0.111 C 
BRANCH  10  11
ATOM     11  C   UNL     1      -9.378 -13.280  -5.954  1.00  0.00     0.163 C 
ATOM     12  O   UNL     1      -8.880 -13.925  -4.991  1.00  0.00    -0.294 OA
BRANCH  11  13
ATOM     13  C   UNL     1      -9.213 -13.799  -7.346  1.00  0.00    -0.002 C 
ATOM     14  C   UNL     1     -10.280 -14.316  -8.023  1.00  0.00    -0.069 C 
ATOM     15  C   UNL     1     -11.641 -14.433  -7.374  1.00  0.00     0.039 C 
ATOM     16  C   UNL     1     -10.161 -14.748  -9.466  1.00  0.00     0.039 C 
BRANCH  13  17
ATOM     17  C   UNL     1      -7.871 -13.597  -8.038  1.00  0.00     0.066 CG0
ATOM     18  G   UNL     1      -7.828 -12.298  -8.807  1.00  0.00     0.000 G0
ENDBRANCH  13  17
ENDBRANCH  11  13
ENDBRANCH  10  11
ENDBRANCH   1  10
TORSDOF 0
ENDMDL
MODEL 3
REMARK VINA RESULT:    -2.415      1.526      2.318
REMARK INTER + INTRA:          -3.219
REMARK INTER:                  -3.345
REMARK INTRA:                   0.126
REMARK UNBOUND:                 0.185
REMARK SMILES CC1=CCC(=C(C)C)C(=O)CC(C)=CCC1
REMARK SMILES IDX 12 1 14 2 13 3 15 4 16 5 2 6 1 7 3 8 11 10 9 11 10 12 5 13
REMARK SMILES IDX 6 14 7 15 8 16 4 17
REMARK H PARENT
REMARK Flexibility Score: 60.00
ROOT
ATOM      1  C   UNL     1      -9.010 -12.474  -3.902  1.00  0.00    -0.070 C 
ATOM      2  C   UNL     1      -8.449 -13.153  -2.874  1.00  0.00    -0.027 C 
ATOM      3  C   UNL     1      -9.230 -10.992  -3.733  1.00  0.00     0.039 C 
ENDROOT
BRANCH   2   4
ATOM      4  C   UNL     1      -8.211 -14.645  -2.814  1.00  0.00     0.032 C 
BRANCH   4   5
ATOM      5  C   UNL     1      -6.987 -15.089  -3.634  1.00  0.00     0.034 C 
BRANCH   5   6
ATOM      6  C   UNL     1      -7.275 -16.296  -4.507  1.00  0.00    -0.077 C 
ATOM      7  C   UNL     1      -7.719 -17.573  -3.838  1.00  0.00     0.039 C 
ATOM      8  C   UNL     1      -7.179 -16.291  -5.857  1.00  0.00    -0.023 CG0
ATOM      9  G   UNL     1      -6.811 -15.102  -6.714  1.00  0.00     0.000 G0
ENDBRANCH   5   6
ENDBRANCH   4   5
ENDBRANCH   2   4
BRANCH   1  10
ATOM     10  C   UNL     1      -9.445 -13.122  -5.203  1.00  0.00     0.111 C 
BRANCH  10  11
ATOM     11  C   UNL     1      -8.365 -13.077  -6.256  1.00  0.00     0.163 C 
ATOM     12  O   UNL     1      -7.782 -11.979  -6.465  1.00  0.00    -0.294 OA
BRANCH  11  13
ATOM     13  C   UNL     1      -8.024 -14.260  -7.105  1.00  0.00    -0.002 C 
ATOM     14  C   UNL     1      -8.707 -14.500  -8.263  1.00  0.00    -0.069 C 
ATOM     15  C   UNL     1      -9.858 -13.619  -8.693  1.00  0.00     0.039 C 
ATOM     16  C   UNL     1      -8.311 -15.626  -9.190  1.00  0.00     0.039 C 
BRANCH  13  17
ATOM     17  C   UNL     1      -6.806 -15.094  -6.728  1.00  0.00     0.066 CG0
ATOM     18  G   UNL     1      -7.183 -16.280  -5.873  1.00  0.00     0.000 G0
ENDBRANCH  13  17
ENDBRANCH  11  13
ENDBRANCH  10  11
ENDBRANCH   1  10
TORSDOF 0
ENDMDL
MODEL 4
REMARK VINA RESULT:    -2.408      2.449      4.355
REMARK INTER + INTRA:          -3.208
REMARK INTER:                  -3.648
REMARK INTRA:                   0.440
REMARK UNBOUND:                 0.185
REMARK SMILES CC1=CCC(=C(C)C)C(=O)CC(C)=CCC1
REMARK SMILES IDX 12 1 14 2 13 3 15 4 16 5 2 6 1 7 3 8 11 10 9 11 10 12 5 13
REMARK SMILES IDX 6 14 7 15 8 16 4 17
REMARK H PARENT
REMARK Flexibility Score: 60.00
ROOT
ATOM      1  C   UNL     1      -8.663 -12.279  -3.886  1.00  0.00    -0.070 C 
ATOM      2  C   UNL     1      -8.547 -13.555  -3.448  1.00  0.00    -0.027 C 
ATOM      3  C   UNL     1      -9.573 -11.350  -3.123  1.00  0.00     0.039 C 
ENDROOT
BRANCH   2   4
ATOM      4  C   UNL     1      -7.748 -14.655  -4.107  1.00  0.00     0.032 C 
BRANCH   4   5
ATOM      5  C   UNL     1      -8.380 -15.151  -5.419  1.00  0.00     0.034 C 
BRANCH   5   6
ATOM      6  C   UNL     1      -7.390 -15.184  -6.569  1.00  0.00    -0.077 C 
ATOM      7  C   UNL     1      -6.184 -16.082  -6.449  1.00  0.00     0.039 C 
ATOM      8  C   UNL     1      -7.535 -14.470  -7.709  1.00  0.00    -0.023 CG0
ATOM      9  G   UNL     1      -8.696 -13.564  -8.045  1.00  0.00     0.000 G0
ENDBRANCH   5   6
ENDBRANCH   4   5
ENDBRANCH   2   4
BRANCH   1  10
ATOM     10  C   UNL     1      -7.946 -11.738  -5.109  1.00  0.00     0.111 C 
BRANCH  10  11
ATOM     11  C   UNL     1      -8.849 -11.655  -6.315  1.00  0.00     0.163 C 
ATOM     12  O   UNL     1     -10.030 -11.246  -6.147  1.00  0.00    -0.294 OA
BRANCH  11  13
ATOM     13  C   UNL     1      -8.419 -12.113  -7.671  1.00  0.00    -0.002 C 
ATOM     14  C   UNL     1      -7.688 -11.291  -8.480  1.00  0.00    -0.069 C 
ATOM     15  C   UNL     1      -7.340  -9.881  -8.058  1.00  0.00     0.039 C 
ATOM     16  C   UNL     1      -7.153 -11.769  -9.810  1.00  0.00     0.039 C 
BRANCH  13  17
ATOM     17  C   UNL     1      -8.684 -13.562  -8.062  1.00  0.00     0.066 CG0
ATOM     18  G   UNL     1      -7.533 -14.463  -7.680  1.00  0.00     0.000 G0
ENDBRANCH  13  17
ENDBRANCH  11  13
ENDBRANCH  10  11
ENDBRANCH   1  10
TORSDOF 0
ENDMDL
MODEL 5
REMARK VINA RESULT:    -2.379      2.283      4.127
REMARK INTER + INTRA:          -3.168
REMARK INTER:                  -3.657
REMARK INTRA:                   0.489
REMARK UNBOUND:                 0.185
REMARK SMILES CC1=CCC(=C(C)C)C(=O)CC(C)=CCC1
REMARK SMILES IDX 12 1 14 2 13 3 15 4 16 5 2 6 1 7 3 8 11 10 9 11 10 12 5 13
REMARK SMILES IDX 6 14 7 15 8 16 4 17
REMARK H PARENT
REMARK Flexibility Score: 60.00
ROOT
ATOM      1  C   UNL     1      -8.124 -15.199  -5.850  1.00  0.00    -0.070 C 
ATOM      2  C   UNL     1      -8.110 -14.668  -4.605  1.00  0.00    -0.027 C 
ATOM      3  C   UNL     1      -8.623 -16.613  -6.009  1.00  0.00     0.039 C 
ENDROOT
BRANCH   2   4
ATOM      4  C   UNL     1      -7.586 -13.302  -4.224  1.00  0.00     0.032 C 
BRANCH   4   5
ATOM      5  C   UNL     1      -8.702 -12.321  -3.827  1.00  0.00     0.034 C 
BRANCH   5   6
ATOM      6  C   UNL     1      -9.103 -11.400  -4.964  1.00  0.00    -0.077 C 
ATOM      7  C   UNL     1      -8.474 -10.031  -5.031  1.00  0.00     0.039 C 
ATOM      8  C   UNL     1      -9.977 -11.741  -5.938  1.00  0.00    -0.023 CG0
ATOM      9  G   UNL     1     -10.666 -13.078  -6.082  1.00  0.00     0.000 G0
ENDBRANCH   5   6
ENDBRANCH   4   5
ENDBRANCH   2   4
BRANCH   1  10
ATOM     10  C   UNL     1      -7.652 -14.460  -7.089  1.00  0.00     0.111 C 
BRANCH  10  11
ATOM     11  C   UNL     1      -8.764 -13.690  -7.757  1.00  0.00     0.163 C 
ATOM     12  O   UNL     1      -8.457 -12.859  -8.654  1.00  0.00    -0.294 OA
BRANCH  11  13
ATOM     13  C   UNL     1     -10.193 -13.821  -7.339  1.00  0.00    -0.002 C 
ATOM     14  C   UNL     1     -11.023 -14.700  -7.975  1.00  0.00    -0.069 C 
ATOM     15  C   UNL     1     -10.544 -15.523  -9.150  1.00  0.00     0.039 C 
ATOM     16  C   UNL     1     -12.441 -14.925  -7.502  1.00  0.00     0.039 C 
BRANCH  13  17
ATOM     17  C   UNL     1     -10.655 -13.067  -6.098  1.00  0.00     0.066 CG0
ATOM     18  G   UNL     1      -9.961 -11.732  -5.963  1.00  0.00     0.000 G0
ENDBRANCH  13  17
ENDBRANCH  11  13
ENDBRANCH  10  11
ENDBRANCH   1  10
TORSDOF 0
ENDMDL
MODEL 6
REMARK VINA RESULT:    -2.324      2.371      4.734
REMARK INTER + INTRA:          -3.090
REMARK INTER:                  -3.538
REMARK INTRA:                   0.448
REMARK UNBOUND:                 0.185
REMARK SMILES CC1=CCC(=C(C)C)C(=O)CC(C)=CCC1
REMARK SMILES IDX 12 1 14 2 13 3 15 4 16 5 2 6 1 7 3 8 11 10 9 11 10 12 5 13
REMARK SMILES IDX 6 14 7 15 8 16 4 17
REMARK H PARENT
REMARK Flexibility Score: 60.00
ROOT
ATOM      1  C   UNL     1      -7.946 -11.315  -6.973  1.00  0.00    -0.070 C 
ATOM      2  C   UNL     1      -7.721 -11.799  -8.218  1.00  0.00    -0.027 C 
ATOM      3  C   UNL     1      -6.751 -10.941  -6.134  1.00  0.00     0.039 C 
ENDROOT
BRANCH   2   4
ATOM      4  C   UNL     1      -8.771 -12.295  -9.185  1.00  0.00     0.032 C 
BRANCH   4   5
ATOM      5  C   UNL     1      -8.766 -13.826  -9.342  1.00  0.00     0.034 C 
BRANCH   5   6
ATOM      6  C   UNL     1      -9.950 -14.487  -8.659  1.00  0.00    -0.077 C 
ATOM      7  C   UNL     1     -11.186 -14.761  -9.479  1.00  0.00     0.039 C 
ATOM      8  C   UNL     1      -9.955 -14.866  -7.361  1.00  0.00    -0.023 CG0
ATOM      9  G   UNL     1      -8.802 -14.734  -6.394  1.00  0.00     0.000 G0
ENDBRANCH   5   6
ENDBRANCH   4   5
ENDBRANCH   2   4
BRANCH   1  10
ATOM     10  C   UNL     1      -9.328 -11.147  -6.371  1.00  0.00     0.111 C 
BRANCH  10  11
ATOM     11  C   UNL     1      -9.882 -12.442  -5.831  1.00  0.00     0.163 C 
ATOM     12  O   UNL     1     -11.129 -12.535  -5.670  1.00  0.00    -0.294 OA
BRANCH  11  13
ATOM     13  C   UNL     1      -9.003 -13.576  -5.410  1.00  0.00    -0.002 C 
ATOM     14  C   UNL     1      -8.507 -13.631  -4.138  1.00  0.00    -0.069 C 
ATOM     15  C   UNL     1      -8.781 -12.530  -3.139  1.00  0.00     0.039 C 
ATOM     16  C   UNL     1      -7.705 -14.819  -3.659  1.00  0.00     0.039 C 
BRANCH  13  17
ATOM     17  C   UNL     1      -8.803 -14.734  -6.379  1.00  0.00     0.066 CG0
ATOM     18  G   UNL     1      -9.959 -14.864  -7.342  1.00  0.00     0.000 G0
ENDBRANCH  13  17
ENDBRANCH  11  13
ENDBRANCH  10  11
ENDBRANCH   1  10
TORSDOF 0
ENDMDL
MODEL 7
REMARK VINA RESULT:    -2.229      2.782      4.738
REMARK INTER + INTRA:          -2.957
REMARK INTER:                  -3.450
REMARK INTRA:                   0.494
REMARK UNBOUND:                 0.185
REMARK SMILES CC1=CCC(=C(C)C)C(=O)CC(C)=CCC1
REMARK SMILES IDX 12 1 14 2 13 3 15 4 16 5 2 6 1 7 3 8 11 10 9 11 10 12 5 13
REMARK SMILES IDX 6 14 7 15 8 16 4 17
REMARK H PARENT
REMARK Flexibility Score: 60.00
ROOT
ATOM      1  C   UNL     1      -9.225 -11.290  -4.680  1.00  0.00    -0.070 C 
ATOM      2  C   UNL     1      -8.406 -10.217  -4.569  1.00  0.00    -0.027 C 
ATOM      3  C   UNL     1      -9.312 -12.237  -3.511  1.00  0.00     0.039 C 
ENDROOT
BRANCH   2   4
ATOM      4  C   UNL     1      -8.125  -9.194  -5.645  1.00  0.00     0.032 C 
BRANCH   4   5
ATOM      5  C   UNL     1      -6.692  -9.283  -6.197  1.00  0.00     0.034 C 
BRANCH   5   6
ATOM      6  C   UNL     1      -6.642  -9.848  -7.605  1.00  0.00    -0.077 C 
ATOM      7  C   UNL     1      -6.590  -8.881  -8.762  1.00  0.00     0.039 C 
ATOM      8  C   UNL     1      -6.619 -11.171  -7.886  1.00  0.00    -0.023 CG0
ATOM      9  G   UNL     1      -6.604 -12.292  -6.873  1.00  0.00     0.000 G0
ENDBRANCH   5   6
ENDBRANCH   4   5
ENDBRANCH   2   4
BRANCH   1  10
ATOM     10  C   UNL     1     -10.043 -11.601  -5.919  1.00  0.00     0.111 C 
BRANCH  10  11
ATOM     11  C   UNL     1      -9.204 -12.179  -7.032  1.00  0.00     0.163 C 
ATOM     12  O   UNL     1      -9.604 -12.028  -8.218  1.00  0.00    -0.294 OA
BRANCH  11  13
ATOM     13  C   UNL     1      -7.973 -12.985  -6.772  1.00  0.00    -0.002 C 
ATOM     14  C   UNL     1      -8.055 -14.336  -6.590  1.00  0.00    -0.069 C 
ATOM     15  C   UNL     1      -9.389 -15.049  -6.590  1.00  0.00     0.039 C 
ATOM     16  C   UNL     1      -6.814 -15.185  -6.431  1.00  0.00     0.039 C 
BRANCH  13  17
ATOM     17  C   UNL     1      -6.620 -12.289  -6.866  1.00  0.00     0.066 CG0
ATOM     18  G   UNL     1      -6.632 -11.179  -7.891  1.00  0.00     0.000 G0
ENDBRANCH  13  17
ENDBRANCH  11  13
ENDBRANCH  10  11
ENDBRANCH   1  10
TORSDOF 0
ENDMDL
MODEL 8
REMARK VINA RESULT:    -2.218      2.395      4.085
REMARK INTER + INTRA:          -2.941
REMARK INTER:                  -3.444
REMARK INTRA:                   0.503
REMARK UNBOUND:                 0.185
REMARK SMILES CC1=CCC(=C(C)C)C(=O)CC(C)=CCC1
REMARK SMILES IDX 12 1 14 2 13 3 15 4 16 5 2 6 1 7 3 8 11 10 9 11 10 12 5 13
REMARK SMILES IDX 6 14 7 15 8 16 4 17
REMARK H PARENT
REMARK Flexibility Score: 60.00
ROOT
ATOM      1  C   UNL     1      -8.501 -13.427  -3.621  1.00  0.00    -0.070 C 
ATOM      2  C   UNL     1      -9.338 -12.370  -3.753  1.00  0.00    -0.027 C 
ATOM      3  C   UNL     1      -7.597 -13.466  -2.415  1.00  0.00     0.039 C 
ENDROOT
BRANCH   2   4
ATOM      4  C   UNL     1     -10.266 -12.108  -4.917  1.00  0.00     0.032 C 
BRANCH   4   5
ATOM      5  C   UNL     1      -9.903 -10.833  -5.697  1.00  0.00     0.034 C 
BRANCH   5   6
ATOM      6  C   UNL     1      -8.419 -10.736  -6.001  1.00  0.00    -0.077 C 
ATOM      7  C   UNL     1      -7.631  -9.619  -5.365  1.00  0.00     0.039 C 
ATOM      8  C   UNL     1      -7.754 -11.607  -6.794  1.00  0.00    -0.023 CG0
ATOM      9  G   UNL     1      -8.347 -12.819  -7.472  1.00  0.00     0.000 G0
ENDBRANCH   5   6
ENDBRANCH   4   5
ENDBRANCH   2   4
BRANCH   1  10
ATOM     10  C   UNL     1      -8.408 -14.561  -4.625  1.00  0.00     0.111 C 
BRANCH  10  11
ATOM     11  C   UNL     1      -7.322 -14.336  -5.647  1.00  0.00     0.163 C 
ATOM     12  O   UNL     1      -6.129 -14.281  -5.245  1.00  0.00    -0.294 OA
BRANCH  11  13
ATOM     13  C   UNL     1      -7.619 -14.099  -7.093  1.00  0.00    -0.002 C 
ATOM     14  C   UNL     1      -7.374 -15.073  -8.019  1.00  0.00    -0.069 C 
ATOM     15  C   UNL     1      -6.747 -16.391  -7.625  1.00  0.00     0.039 C 
ATOM     16  C   UNL     1      -7.764 -14.895  -9.468  1.00  0.00     0.039 C 
BRANCH  13  17
ATOM     17  C   UNL     1      -8.338 -12.813  -7.482  1.00  0.00     0.066 CG0
ATOM     18  G   UNL     1      -7.737 -11.607  -6.798  1.00  0.00     0.000 G0
ENDBRANCH  13  17
ENDBRANCH  11  13
ENDBRANCH  10  11
ENDBRANCH   1  10
TORSDOF 0
ENDMDL
MODEL 9
REMARK VINA RESULT:    -2.199      1.607      3.860
REMARK INTER + INTRA:          -2.914
REMARK INTER:                  -3.458
REMARK INTRA:                   0.544
REMARK UNBOUND:                 0.185
REMARK SMILES CC1=CCC(=C(C)C)C(=O)CC(C)=CCC1
REMARK SMILES IDX 12 1 14 2 13 3 15 4 16 5 2 6 1 7 3 8 11 10 9 11 10 12 5 13
REMARK SMILES IDX 6 14 7 15 8 16 4 17
REMARK H PARENT
REMARK Flexibility Score: 60.00
ROOT
ATOM      1  C   UNL     1      -9.027 -11.444  -5.171  1.00  0.00    -0.070 C 
ATOM      2  C   UNL     1      -9.826 -11.818  -6.199  1.00  0.00    -0.027 C 
ATOM      3  C   UNL     1      -8.318 -10.117  -5.274  1.00  0.00     0.039 C 
ENDROOT
BRANCH   2   4
ATOM      4  C   UNL     1     -10.564 -13.131  -6.322  1.00  0.00     0.032 C 
BRANCH   4   5
ATOM      5  C   UNL     1     -10.121 -13.954  -7.544  1.00  0.00     0.034 C 
BRANCH   5   6
ATOM      6  C   UNL     1      -8.621 -14.185  -7.581  1.00  0.00    -0.077 C 
ATOM      7  C   UNL     1      -7.840 -13.622  -8.742  1.00  0.00     0.039 C 
ATOM      8  C   UNL     1      -7.936 -14.848  -6.622  1.00  0.00    -0.023 CG0
ATOM      9  G   UNL     1      -8.523 -15.432  -5.358  1.00  0.00     0.000 G0
ENDBRANCH   5   6
ENDBRANCH   4   5
ENDBRANCH   2   4
BRANCH   1  10
ATOM     10  C   UNL     1      -8.792 -12.290  -3.934  1.00  0.00     0.111 C 
BRANCH  10  11
ATOM     11  C   UNL     1      -7.707 -13.318  -4.138  1.00  0.00     0.163 C 
ATOM     12  O   UNL     1      -6.545 -12.910  -4.409  1.00  0.00    -0.294 OA
BRANCH  11  13
ATOM     13  C   UNL     1      -7.979 -14.787  -4.110  1.00  0.00    -0.002 C 
ATOM     14  C   UNL     1      -7.870 -15.489  -2.944  1.00  0.00    -0.069 C 
ATOM     15  C   UNL     1      -7.419 -14.821  -1.664  1.00  0.00     0.039 C 
ATOM     16  C   UNL     1      -8.242 -16.952  -2.869  1.00  0.00     0.039 C 
BRANCH  13  17
ATOM     17  C   UNL     1      -8.525 -15.446  -5.371  1.00  0.00     0.066 CG0
ATOM     18  G   UNL     1      -7.934 -14.837  -6.621  1.00  0.00     0.000 G0
ENDBRANCH  13  17
ENDBRANCH  11  13
ENDBRANCH  10  11
ENDBRANCH   1  10
TORSDOF 0
ENDMDL
