MODEL 1
REMARK VINA RESULT:    -7.071      0.000      0.000
REMARK INTER + INTRA:         -11.205
REMARK INTER:                  -9.552
REMARK INTRA:                  -1.653
REMARK UNBOUND:                -1.653
REMARK SMILES CC[C@@H](CC[C@@H](C)[C@H]1CC[C@H]2[C@@H]3CC(=O)C4=CC(=O)CC[C@@]4(C)[C@@H]3CC[C@@]12C)C(C)C
REMARK SMILES IDX 4 1 3 2 2 3 1 4 29 5 30 6 31 7 5 8 6 9 7 10 8 11 9 12 27 13
REMARK SMILES IDX 10 14 11 15 26 16 28 17 12 18 25 19 24 20 13 21 22 22 14 23
REMARK SMILES IDX 16 24 21 25 23 26 15 27 17 28 20 29 18 30 19 31
REMARK H PARENT
REMARK Flexibility Score: inf
ROOT
ATOM      1  C   UNL     1      17.397 -23.091 -26.696  1.00  0.00     0.004 C 
ENDROOT
BRANCH   1   2
ATOM      2  C   UNL     1      17.314 -21.811 -25.800  1.00  0.00    -0.009 C 
BRANCH   2   3
ATOM      3  C   UNL     1      16.451 -20.732 -26.512  1.00  0.00     0.000 C 
ATOM      4  C   UNL     1      15.817 -21.208 -27.821  1.00  0.00     0.004 C 
ENDBRANCH   2   3
BRANCH   2   5
ATOM      5  C   UNL     1      18.711 -21.270 -25.337  1.00  0.00    -0.014 C 
ATOM      6  C   UNL     1      18.708 -20.811 -23.873  1.00  0.00     0.007 C 
ATOM      7  C   UNL     1      19.881 -22.244 -25.582  1.00  0.00     0.007 C 
ENDBRANCH   2   5
ENDBRANCH   1   2
BRANCH   1   8
ATOM      8  C   UNL     1      16.972 -24.388 -25.966  1.00  0.00     0.004 C 
BRANCH   8   9
ATOM      9  C   UNL     1      16.792 -24.223 -24.424  1.00  0.00    -0.011 C 
ATOM     10  C   UNL     1      15.291 -24.215 -24.068  1.00  0.00     0.008 C 
BRANCH   9  11
ATOM     11  C   UNL     1      17.575 -25.354 -23.651  1.00  0.00    -0.002 C 
ATOM     12  C   UNL     1      19.012 -25.518 -24.182  1.00  0.00     0.005 C 
ATOM     13  C   UNL     1      17.741 -25.238 -22.094  1.00  0.00    -0.026 C 
ATOM     14  C   UNL     1      19.884 -25.988 -23.030  1.00  0.00     0.005 C 
ATOM     15  C   UNL     1      18.968 -26.151 -21.815  1.00  0.00    -0.001 C 
ATOM     16  C   UNL     1      18.046 -23.776 -21.665  1.00  0.00     0.007 C 
ATOM     17  C   UNL     1      16.499 -25.805 -21.354  1.00  0.00     0.012 C 
ATOM     18  C   UNL     1      19.746 -25.931 -20.476  1.00  0.00     0.004 C 
ATOM     19  C   UNL     1      18.575 -23.667 -20.234  1.00  0.00     0.005 C 
ATOM     20  C   UNL     1      19.900 -24.442 -20.048  1.00  0.00     0.003 C 
ATOM     21  C   UNL     1      19.229 -26.792 -19.311  1.00  0.00     0.085 C 
ATOM     22  C   UNL     1      20.581 -24.248 -18.605  1.00  0.00    -0.000 C 
ATOM     23  C   UNL     1      20.258 -26.788 -18.227  1.00  0.00     0.159 C 
ATOM     24  C   UNL     1      21.096 -25.581 -18.038  1.00  0.00     0.005 C 
ATOM     25  C   UNL     1      21.763 -23.241 -18.762  1.00  0.00     0.020 C 
ATOM     26  C   UNL     1      19.588 -23.698 -17.542  1.00  0.00     0.017 C 
ATOM     27  O   UNL     1      20.381 -27.795 -17.476  1.00  0.00    -0.295 OA
ATOM     28  C   UNL     1      22.209 -25.650 -17.282  1.00  0.00     0.055 C 
ATOM     29  C   UNL     1      22.630 -23.115 -17.505  1.00  0.00     0.081 C 
ATOM     30  C   UNL     1      23.048 -24.469 -17.024  1.00  0.00     0.156 C 
ATOM     31  O   UNL     1      24.111 -24.595 -16.362  1.00  0.00    -0.295 OA
ENDBRANCH   9  11
ENDBRANCH   8   9
ENDBRANCH   1   8
TORSDOF 6
ENDMDL
MODEL 2
REMARK VINA RESULT:    -7.065      1.469      2.446
REMARK INTER + INTRA:         -11.196
REMARK INTER:                  -9.871
REMARK INTRA:                  -1.325
REMARK UNBOUND:                -1.653
REMARK SMILES CC[C@@H](CC[C@@H](C)[C@H]1CC[C@H]2[C@@H]3CC(=O)C4=CC(=O)CC[C@@]4(C)[C@@H]3CC[C@@]12C)C(C)C
REMARK SMILES IDX 4 1 3 2 2 3 1 4 29 5 30 6 31 7 5 8 6 9 7 10 8 11 9 12 27 13
REMARK SMILES IDX 10 14 11 15 26 16 28 17 12 18 25 19 24 20 13 21 22 22 14 23
REMARK SMILES IDX 16 24 21 25 23 26 15 27 17 28 20 29 18 30 19 31
REMARK H PARENT
REMARK Flexibility Score: inf
ROOT
ATOM      1  C   UNL     1      18.453 -23.305 -26.153  1.00  0.00     0.004 C 
ENDROOT
BRANCH   1   2
ATOM      2  C   UNL     1      17.002 -23.130 -26.711  1.00  0.00    -0.009 C 
BRANCH   2   3
ATOM      3  C   UNL     1      16.660 -21.617 -26.806  1.00  0.00     0.000 C 
ATOM      4  C   UNL     1      15.847 -21.241 -28.047  1.00  0.00     0.004 C 
ENDBRANCH   2   3
BRANCH   2   5
ATOM      5  C   UNL     1      15.919 -23.954 -25.929  1.00  0.00    -0.014 C 
ATOM      6  C   UNL     1      16.495 -25.225 -25.291  1.00  0.00     0.007 C 
ATOM      7  C   UNL     1      15.141 -23.140 -24.876  1.00  0.00     0.007 C 
ENDBRANCH   2   5
ENDBRANCH   1   2
BRANCH   1   8
ATOM      8  C   UNL     1      19.013 -22.033 -25.471  1.00  0.00     0.004 C 
BRANCH   8   9
ATOM      9  C   UNL     1      18.987 -22.081 -23.911  1.00  0.00    -0.011 C 
ATOM     10  C   UNL     1      17.790 -21.267 -23.380  1.00  0.00     0.008 C 
BRANCH   9  11
ATOM     11  C   UNL     1      18.953 -23.576 -23.405  1.00  0.00    -0.002 C 
ATOM     12  C   UNL     1      20.319 -24.266 -23.572  1.00  0.00     0.005 C 
ATOM     13  C   UNL     1      18.543 -23.867 -21.917  1.00  0.00    -0.026 C 
ATOM     14  C   UNL     1      20.455 -25.305 -22.471  1.00  0.00     0.005 C 
ATOM     15  C   UNL     1      19.154 -25.274 -21.666  1.00  0.00    -0.001 C 
ATOM     16  C   UNL     1      19.166 -22.826 -20.945  1.00  0.00     0.007 C 
ATOM     17  C   UNL     1      16.999 -23.941 -21.764  1.00  0.00     0.012 C 
ATOM     18  C   UNL     1      19.386 -25.710 -20.182  1.00  0.00     0.004 C 
ATOM     19  C   UNL     1      19.112 -23.263 -19.481  1.00  0.00     0.005 C 
ATOM     20  C   UNL     1      19.891 -24.577 -19.241  1.00  0.00     0.003 C 
ATOM     21  C   UNL     1      18.194 -26.456 -19.562  1.00  0.00     0.085 C 
ATOM     22  C   UNL     1      19.991 -25.013 -17.697  1.00  0.00    -0.000 C 
ATOM     23  C   UNL     1      18.659 -27.142 -18.318  1.00  0.00     0.159 C 
ATOM     24  C   UNL     1      19.735 -26.518 -17.514  1.00  0.00     0.005 C 
ATOM     25  C   UNL     1      21.421 -24.647 -17.186  1.00  0.00     0.020 C 
ATOM     26  C   UNL     1      18.939 -24.298 -16.802  1.00  0.00     0.017 C 
ATOM     27  O   UNL     1      18.115 -28.223 -17.958  1.00  0.00    -0.295 OA
ATOM     28  C   UNL     1      20.371 -27.238 -16.571  1.00  0.00     0.055 C 
ATOM     29  C   UNL     1      21.727 -25.189 -15.786  1.00  0.00     0.081 C 
ATOM     30  C   UNL     1      21.412 -26.650 -15.713  1.00  0.00     0.156 C 
ATOM     31  O   UNL     1      22.021 -27.378 -14.886  1.00  0.00    -0.295 OA
ENDBRANCH   9  11
ENDBRANCH   8   9
ENDBRANCH   1   8
TORSDOF 6
ENDMDL
MODEL 3
REMARK VINA RESULT:    -7.004      2.110      4.175
REMARK INTER + INTRA:         -11.115
REMARK INTER:                  -9.473
REMARK INTRA:                  -1.642
REMARK UNBOUND:                -1.653
REMARK SMILES CC[C@@H](CC[C@@H](C)[C@H]1CC[C@H]2[C@@H]3CC(=O)C4=CC(=O)CC[C@@]4(C)[C@@H]3CC[C@@]12C)C(C)C
REMARK SMILES IDX 4 1 3 2 2 3 1 4 29 5 30 6 31 7 5 8 6 9 7 10 8 11 9 12 27 13
REMARK SMILES IDX 10 14 11 15 26 16 28 17 12 18 25 19 24 20 13 21 22 22 14 23
REMARK SMILES IDX 16 24 21 25 23 26 15 27 17 28 20 29 18 30 19 31
REMARK H PARENT
REMARK Flexibility Score: inf
ROOT
ATOM      1  C   UNL     1      18.901 -22.448 -22.853  1.00  0.00     0.004 C 
ENDROOT
BRANCH   1   2
ATOM      2  C   UNL     1      18.937 -23.563 -23.950  1.00  0.00    -0.009 C 
BRANCH   2   3
ATOM      3  C   UNL     1      20.040 -24.601 -23.603  1.00  0.00     0.000 C 
ATOM      4  C   UNL     1      20.382 -24.668 -22.113  1.00  0.00     0.004 C 
ENDBRANCH   2   3
BRANCH   2   5
ATOM      5  C   UNL     1      19.058 -23.008 -25.413  1.00  0.00    -0.014 C 
ATOM      6  C   UNL     1      17.916 -23.485 -26.319  1.00  0.00     0.007 C 
ATOM      7  C   UNL     1      19.196 -21.474 -25.499  1.00  0.00     0.007 C 
ENDBRANCH   2   5
ENDBRANCH   1   2
BRANCH   1   8
ATOM      8  C   UNL     1      17.574 -22.404 -22.058  1.00  0.00     0.004 C 
BRANCH   8   9
ATOM      9  C   UNL     1      17.657 -21.604 -20.720  1.00  0.00    -0.011 C 
ATOM     10  C   UNL     1      16.505 -20.581 -20.647  1.00  0.00     0.008 C 
BRANCH   9  11
ATOM     11  C   UNL     1      17.651 -22.587 -19.485  1.00  0.00    -0.002 C 
ATOM     12  C   UNL     1      17.461 -24.051 -19.923  1.00  0.00     0.005 C 
ATOM     13  C   UNL     1      18.899 -22.620 -18.532  1.00  0.00    -0.026 C 
ATOM     14  C   UNL     1      18.181 -24.936 -18.919  1.00  0.00     0.005 C 
ATOM     15  C   UNL     1      18.768 -24.011 -17.851  1.00  0.00    -0.001 C 
ATOM     16  C   UNL     1      20.226 -22.532 -19.335  1.00  0.00     0.007 C 
ATOM     17  C   UNL     1      18.808 -21.507 -17.452  1.00  0.00     0.012 C 
ATOM     18  C   UNL     1      20.053 -24.625 -17.204  1.00  0.00     0.004 C 
ATOM     19  C   UNL     1      21.454 -22.926 -18.512  1.00  0.00     0.005 C 
ATOM     20  C   UNL     1      21.366 -24.385 -18.006  1.00  0.00     0.003 C 
ATOM     21  C   UNL     1      20.235 -24.259 -15.721  1.00  0.00     0.085 C 
ATOM     22  C   UNL     1      22.689 -24.904 -17.256  1.00  0.00    -0.000 C 
ATOM     23  C   UNL     1      21.246 -25.184 -15.126  1.00  0.00     0.159 C 
ATOM     24  C   UNL     1      22.346 -25.691 -15.980  1.00  0.00     0.005 C 
ATOM     25  C   UNL     1      23.479 -25.814 -18.249  1.00  0.00     0.020 C 
ATOM     26  C   UNL     1      23.613 -23.742 -16.795  1.00  0.00     0.017 C 
ATOM     27  O   UNL     1      21.166 -25.499 -13.907  1.00  0.00    -0.295 OA
ATOM     28  C   UNL     1      23.088 -26.736 -15.567  1.00  0.00     0.055 C 
ATOM     29  C   UNL     1      24.662 -26.543 -17.602  1.00  0.00     0.081 C 
ATOM     30  C   UNL     1      24.222 -27.245 -16.356  1.00  0.00     0.156 C 
ATOM     31  O   UNL     1      24.848 -28.262 -15.959  1.00  0.00    -0.295 OA
ENDBRANCH   9  11
ENDBRANCH   8   9
ENDBRANCH   1   8
TORSDOF 6
ENDMDL
MODEL 4
REMARK VINA RESULT:    -6.914      3.208      8.663
REMARK INTER + INTRA:         -10.993
REMARK INTER:                  -9.153
REMARK INTRA:                  -1.840
REMARK UNBOUND:                -1.653
REMARK SMILES CC[C@@H](CC[C@@H](C)[C@H]1CC[C@H]2[C@@H]3CC(=O)C4=CC(=O)CC[C@@]4(C)[C@@H]3CC[C@@]12C)C(C)C
REMARK SMILES IDX 4 1 3 2 2 3 1 4 29 5 30 6 31 7 5 8 6 9 7 10 8 11 9 12 27 13
REMARK SMILES IDX 10 14 11 15 26 16 28 17 12 18 25 19 24 20 13 21 22 22 14 23
REMARK SMILES IDX 16 24 21 25 23 26 15 27 17 28 20 29 18 30 19 31
REMARK H PARENT
REMARK Flexibility Score: inf
ROOT
ATOM      1  C   UNL     1      23.372 -27.380 -16.187  1.00  0.00     0.004 C 
ENDROOT
BRANCH   1   2
ATOM      2  C   UNL     1      24.088 -27.685 -17.544  1.00  0.00    -0.009 C 
BRANCH   2   3
ATOM      3  C   UNL     1      25.436 -28.409 -17.271  1.00  0.00     0.000 C 
ATOM      4  C   UNL     1      25.603 -28.885 -15.826  1.00  0.00     0.004 C 
ENDBRANCH   2   3
BRANCH   2   5
ATOM      5  C   UNL     1      24.245 -26.431 -18.474  1.00  0.00    -0.014 C 
ATOM      6  C   UNL     1      25.696 -26.205 -18.917  1.00  0.00     0.007 C 
ATOM      7  C   UNL     1      23.312 -26.431 -19.701  1.00  0.00     0.007 C 
ENDBRANCH   2   5
ENDBRANCH   1   2
BRANCH   1   8
ATOM      8  C   UNL     1      23.053 -25.880 -15.978  1.00  0.00     0.004 C 
BRANCH   8   9
ATOM      9  C   UNL     1      21.531 -25.564 -15.838  1.00  0.00    -0.011 C 
ATOM     10  C   UNL     1      21.116 -25.623 -14.354  1.00  0.00     0.008 C 
BRANCH   9  11
ATOM     11  C   UNL     1      21.195 -24.165 -16.487  1.00  0.00    -0.002 C 
ATOM     12  C   UNL     1      22.423 -23.548 -17.182  1.00  0.00     0.005 C 
ATOM     13  C   UNL     1      20.050 -24.079 -17.560  1.00  0.00    -0.026 C 
ATOM     14  C   UNL     1      21.926 -22.701 -18.342  1.00  0.00     0.005 C 
ATOM     15  C   UNL     1      20.398 -22.770 -18.321  1.00  0.00    -0.001 C 
ATOM     16  C   UNL     1      20.090 -25.294 -18.527  1.00  0.00     0.007 C 
ATOM     17  C   UNL     1      18.659 -23.928 -16.885  1.00  0.00     0.012 C 
ATOM     18  C   UNL     1      19.796 -22.581 -19.753  1.00  0.00     0.004 C 
ATOM     19  C   UNL     1      19.255 -25.084 -19.791  1.00  0.00     0.005 C 
ATOM     20  C   UNL     1      19.753 -23.876 -20.618  1.00  0.00     0.003 C 
ATOM     21  C   UNL     1      18.437 -21.862 -19.763  1.00  0.00     0.085 C 
ATOM     22  C   UNL     1      19.008 -23.688 -22.029  1.00  0.00    -0.000 C 
ATOM     23  C   UNL     1      18.153 -21.407 -21.158  1.00  0.00     0.159 C 
ATOM     24  C   UNL     1      18.655 -22.215 -22.293  1.00  0.00     0.005 C 
ATOM     25  C   UNL     1      19.957 -24.220 -23.148  1.00  0.00     0.020 C 
ATOM     26  C   UNL     1      17.660 -24.461 -22.103  1.00  0.00     0.017 C 
ATOM     27  O   UNL     1      17.473 -20.360 -21.349  1.00  0.00    -0.295 OA
ATOM     28  C   UNL     1      18.673 -21.691 -23.533  1.00  0.00     0.055 C 
ATOM     29  C   UNL     1      19.459 -23.920 -24.567  1.00  0.00     0.081 C 
ATOM     30  C   UNL     1      19.116 -22.469 -24.701  1.00  0.00     0.156 C 
ATOM     31  O   UNL     1      19.173 -21.917 -25.830  1.00  0.00    -0.295 OA
ENDBRANCH   9  11
ENDBRANCH   8   9
ENDBRANCH   1   8
TORSDOF 6
ENDMDL
MODEL 5
REMARK VINA RESULT:    -6.867      1.846      2.298
REMARK INTER + INTRA:         -10.929
REMARK INTER:                  -8.895
REMARK INTRA:                  -2.034
REMARK UNBOUND:                -1.653
REMARK SMILES CC[C@@H](CC[C@@H](C)[C@H]1CC[C@H]2[C@@H]3CC(=O)C4=CC(=O)CC[C@@]4(C)[C@@H]3CC[C@@]12C)C(C)C
REMARK SMILES IDX 4 1 3 2 2 3 1 4 29 5 30 6 31 7 5 8 6 9 7 10 8 11 9 12 27 13
REMARK SMILES IDX 10 14 11 15 26 16 28 17 12 18 25 19 24 20 13 21 22 22 14 23
REMARK SMILES IDX 16 24 21 25 23 26 15 27 17 28 20 29 18 30 19 31
REMARK H PARENT
REMARK Flexibility Score: inf
ROOT
ATOM      1  C   UNL     1      18.900 -21.838 -25.157  1.00  0.00     0.004 C 
ENDROOT
BRANCH   1   2
ATOM      2  C   UNL     1      17.487 -21.705 -24.501  1.00  0.00    -0.009 C 
BRANCH   2   3
ATOM      3  C   UNL     1      16.476 -21.157 -25.547  1.00  0.00     0.000 C 
ATOM      4  C   UNL     1      15.449 -22.189 -26.018  1.00  0.00     0.004 C 
ENDBRANCH   2   3
BRANCH   2   5
ATOM      5  C   UNL     1      17.484 -20.887 -23.162  1.00  0.00    -0.014 C 
ATOM      6  C   UNL     1      16.328 -21.282 -22.234  1.00  0.00     0.007 C 
ATOM      7  C   UNL     1      18.819 -20.930 -22.391  1.00  0.00     0.007 C 
ENDBRANCH   2   5
ENDBRANCH   1   2
BRANCH   1   8
ATOM      8  C   UNL     1      19.501 -23.260 -25.051  1.00  0.00     0.004 C 
BRANCH   8   9
ATOM      9  C   UNL     1      18.563 -24.300 -24.361  1.00  0.00    -0.011 C 
ATOM     10  C   UNL     1      17.815 -25.123 -25.429  1.00  0.00     0.008 C 
BRANCH   9  11
ATOM     11  C   UNL     1      19.387 -25.220 -23.378  1.00  0.00    -0.002 C 
ATOM     12  C   UNL     1      20.777 -24.631 -23.073  1.00  0.00     0.005 C 
ATOM     13  C   UNL     1      18.784 -25.559 -21.968  1.00  0.00    -0.026 C 
ATOM     14  C   UNL     1      21.172 -25.068 -21.673  1.00  0.00     0.005 C 
ATOM     15  C   UNL     1      20.043 -25.958 -21.149  1.00  0.00    -0.001 C 
ATOM     16  C   UNL     1      18.097 -24.317 -21.334  1.00  0.00     0.007 C 
ATOM     17  C   UNL     1      17.816 -26.771 -22.047  1.00  0.00     0.012 C 
ATOM     18  C   UNL     1      19.943 -25.898 -19.589  1.00  0.00     0.004 C 
ATOM     19  C   UNL     1      17.826 -24.479 -19.837  1.00  0.00     0.005 C 
ATOM     20  C   UNL     1      19.129 -24.692 -19.033  1.00  0.00     0.003 C 
ATOM     21  C   UNL     1      19.485 -27.218 -18.946  1.00  0.00     0.085 C 
ATOM     22  C   UNL     1      18.924 -24.726 -17.440  1.00  0.00    -0.000 C 
ATOM     23  C   UNL     1      19.790 -27.164 -17.485  1.00  0.00     0.159 C 
ATOM     24  C   UNL     1      19.735 -25.858 -16.788  1.00  0.00     0.005 C 
ATOM     25  C   UNL     1      19.376 -23.346 -16.867  1.00  0.00     0.020 C 
ATOM     26  C   UNL     1      17.446 -24.982 -17.030  1.00  0.00     0.017 C 
ATOM     27  O   UNL     1      20.064 -28.228 -16.862  1.00  0.00    -0.295 OA
ATOM     28  C   UNL     1      20.281 -25.728 -15.563  1.00  0.00     0.055 C 
ATOM     29  C   UNL     1      19.425 -23.306 -15.336  1.00  0.00     0.081 C 
ATOM     30  C   UNL     1      20.210 -24.466 -14.810  1.00  0.00     0.156 C 
ATOM     31  O   UNL     1      20.787 -24.374 -13.695  1.00  0.00    -0.295 OA
ENDBRANCH   9  11
ENDBRANCH   8   9
ENDBRANCH   1   8
TORSDOF 6
ENDMDL
MODEL 6
REMARK VINA RESULT:    -6.834      3.672      9.098
REMARK INTER + INTRA:         -10.885
REMARK INTER:                  -9.984
REMARK INTRA:                  -0.900
REMARK UNBOUND:                -1.653
REMARK SMILES CC[C@@H](CC[C@@H](C)[C@H]1CC[C@H]2[C@@H]3CC(=O)C4=CC(=O)CC[C@@]4(C)[C@@H]3CC[C@@]12C)C(C)C
REMARK SMILES IDX 4 1 3 2 2 3 1 4 29 5 30 6 31 7 5 8 6 9 7 10 8 11 9 12 27 13
REMARK SMILES IDX 10 14 11 15 26 16 28 17 12 18 25 19 24 20 13 21 22 22 14 23
REMARK SMILES IDX 16 24 21 25 23 26 15 27 17 28 20 29 18 30 19 31
REMARK H PARENT
REMARK Flexibility Score: inf
ROOT
ATOM      1  C   UNL     1      21.589 -25.018 -14.076  1.00  0.00     0.004 C 
ENDROOT
BRANCH   1   2
ATOM      2  C   UNL     1      20.439 -25.363 -13.073  1.00  0.00    -0.009 C 
BRANCH   2   3
ATOM      3  C   UNL     1      19.136 -24.634 -13.505  1.00  0.00     0.000 C 
ATOM      4  C   UNL     1      19.357 -23.200 -13.991  1.00  0.00     0.004 C 
ENDBRANCH   2   3
BRANCH   2   5
ATOM      5  C   UNL     1      20.812 -25.111 -11.570  1.00  0.00    -0.014 C 
ATOM      6  C   UNL     1      19.576 -25.006 -10.667  1.00  0.00     0.007 C 
ATOM      7  C   UNL     1      21.809 -26.131 -10.985  1.00  0.00     0.007 C 
ENDBRANCH   2   5
ENDBRANCH   1   2
BRANCH   1   8
ATOM      8  C   UNL     1      22.071 -26.232 -14.907  1.00  0.00     0.004 C 
BRANCH   8   9
ATOM      9  C   UNL     1      21.540 -26.252 -16.375  1.00  0.00    -0.011 C 
ATOM     10  C   UNL     1      20.379 -27.259 -16.501  1.00  0.00     0.008 C 
BRANCH   9  11
ATOM     11  C   UNL     1      21.113 -24.801 -16.828  1.00  0.00    -0.002 C 
ATOM     12  C   UNL     1      22.305 -24.004 -17.388  1.00  0.00     0.005 C 
ATOM     13  C   UNL     1      19.988 -24.642 -17.913  1.00  0.00    -0.026 C 
ATOM     14  C   UNL     1      21.771 -23.035 -18.430  1.00  0.00     0.005 C 
ATOM     15  C   UNL     1      20.252 -23.215 -18.468  1.00  0.00    -0.001 C 
ATOM     16  C   UNL     1      20.139 -25.699 -19.042  1.00  0.00     0.007 C 
ATOM     17  C   UNL     1      18.576 -24.691 -17.268  1.00  0.00     0.012 C 
ATOM     18  C   UNL     1      19.668 -22.864 -19.876  1.00  0.00     0.004 C 
ATOM     19  C   UNL     1      19.317 -25.367 -20.289  1.00  0.00     0.005 C 
ATOM     20  C   UNL     1      19.740 -24.020 -20.918  1.00  0.00     0.003 C 
ATOM     21  C   UNL     1      18.259 -22.251 -19.826  1.00  0.00     0.085 C 
ATOM     22  C   UNL     1      19.013 -23.683 -22.311  1.00  0.00    -0.000 C 
ATOM     23  C   UNL     1      17.971 -21.619 -21.149  1.00  0.00     0.159 C 
ATOM     24  C   UNL     1      18.555 -22.216 -22.372  1.00  0.00     0.005 C 
ATOM     25  C   UNL     1      20.023 -23.978 -23.464  1.00  0.00     0.020 C 
ATOM     26  C   UNL     1      17.729 -24.531 -22.537  1.00  0.00     0.017 C 
ATOM     27  O   UNL     1      17.218 -20.607 -21.210  1.00  0.00    -0.295 OA
ATOM     28  C   UNL     1      18.561 -21.517 -23.524  1.00  0.00     0.055 C 
ATOM     29  C   UNL     1      19.533 -23.511 -24.840  1.00  0.00     0.081 C 
ATOM     30  C   UNL     1      19.085 -22.085 -24.776  1.00  0.00     0.156 C 
ATOM     31  O   UNL     1      19.124 -21.372 -25.813  1.00  0.00    -0.295 OA
ENDBRANCH   9  11
ENDBRANCH   8   9
ENDBRANCH   1   8
TORSDOF 6
ENDMDL
MODEL 7
REMARK VINA RESULT:    -6.800      3.696      9.150
REMARK INTER + INTRA:         -10.838
REMARK INTER:                  -9.750
REMARK INTRA:                  -1.088
REMARK UNBOUND:                -1.653
REMARK SMILES CC[C@@H](CC[C@@H](C)[C@H]1CC[C@H]2[C@@H]3CC(=O)C4=CC(=O)CC[C@@]4(C)[C@@H]3CC[C@@]12C)C(C)C
REMARK SMILES IDX 4 1 3 2 2 3 1 4 29 5 30 6 31 7 5 8 6 9 7 10 8 11 9 12 27 13
REMARK SMILES IDX 10 14 11 15 26 16 28 17 12 18 25 19 24 20 13 21 22 22 14 23
REMARK SMILES IDX 16 24 21 25 23 26 15 27 17 28 20 29 18 30 19 31
REMARK H PARENT
REMARK Flexibility Score: inf
ROOT
ATOM      1  C   UNL     1      20.119 -25.017 -14.790  1.00  0.00     0.004 C 
ENDROOT
BRANCH   1   2
ATOM      2  C   UNL     1      20.768 -24.600 -13.430  1.00  0.00    -0.009 C 
BRANCH   2   3
ATOM      3  C   UNL     1      21.665 -25.755 -12.905  1.00  0.00     0.000 C 
ATOM      4  C   UNL     1      21.398 -27.104 -13.576  1.00  0.00     0.004 C 
ENDBRANCH   2   3
BRANCH   2   5
ATOM      5  C   UNL     1      19.734 -24.094 -12.363  1.00  0.00    -0.014 C 
ATOM      6  C   UNL     1      18.312 -23.983 -12.929  1.00  0.00     0.007 C 
ATOM      7  C   UNL     1      19.720 -24.914 -11.057  1.00  0.00     0.007 C 
ENDBRANCH   2   5
ENDBRANCH   1   2
BRANCH   1   8
ATOM      8  C   UNL     1      20.573 -24.147 -15.987  1.00  0.00     0.004 C 
BRANCH   8   9
ATOM      9  C   UNL     1      20.580 -24.897 -17.356  1.00  0.00    -0.011 C 
ATOM     10  C   UNL     1      21.013 -26.363 -17.150  1.00  0.00     0.008 C 
BRANCH   9  11
ATOM     11  C   UNL     1      19.167 -24.792 -18.051  1.00  0.00    -0.002 C 
ATOM     12  C   UNL     1      18.472 -23.455 -17.733  1.00  0.00     0.005 C 
ATOM     13  C   UNL     1      19.075 -24.922 -19.614  1.00  0.00    -0.026 C 
ATOM     14  C   UNL     1      17.592 -23.093 -18.918  1.00  0.00     0.005 C 
ATOM     15  C   UNL     1      17.720 -24.232 -19.932  1.00  0.00    -0.001 C 
ATOM     16  C   UNL     1      20.242 -24.171 -20.312  1.00  0.00     0.007 C 
ATOM     17  C   UNL     1      19.009 -26.412 -20.050  1.00  0.00     0.012 C 
ATOM     18  C   UNL     1      17.489 -23.726 -21.394  1.00  0.00     0.004 C 
ATOM     19  C   UNL     1      20.006 -23.951 -21.808  1.00  0.00     0.005 C 
ATOM     20  C   UNL     1      18.743 -23.100 -22.073  1.00  0.00     0.003 C 
ATOM     21  C   UNL     1      16.823 -24.766 -22.311  1.00  0.00     0.085 C 
ATOM     22  C   UNL     1      18.519 -22.713 -23.617  1.00  0.00    -0.000 C 
ATOM     23  C   UNL     1      16.315 -24.066 -23.529  1.00  0.00     0.159 C 
ATOM     24  C   UNL     1      17.050 -22.884 -24.038  1.00  0.00     0.005 C 
ATOM     25  C   UNL     1      18.962 -21.229 -23.810  1.00  0.00     0.020 C 
ATOM     26  C   UNL     1      19.339 -23.613 -24.585  1.00  0.00     0.017 C 
ATOM     27  O   UNL     1      15.288 -24.502 -24.120  1.00  0.00    -0.295 OA
ATOM     28  C   UNL     1      16.468 -22.069 -24.938  1.00  0.00     0.055 C 
ATOM     29  C   UNL     1      18.616 -20.662 -25.192  1.00  0.00     0.081 C 
ATOM     30  C   UNL     1      17.175 -20.911 -25.510  1.00  0.00     0.156 C 
ATOM     31  O   UNL     1      16.569 -20.143 -26.301  1.00  0.00    -0.295 OA
ENDBRANCH   9  11
ENDBRANCH   8   9
ENDBRANCH   1   8
TORSDOF 6
ENDMDL
MODEL 8
REMARK VINA RESULT:    -6.746      1.733      2.701
REMARK INTER + INTRA:         -10.765
REMARK INTER:                  -9.323
REMARK INTRA:                  -1.442
REMARK UNBOUND:                -1.653
REMARK SMILES CC[C@@H](CC[C@@H](C)[C@H]1CC[C@H]2[C@@H]3CC(=O)C4=CC(=O)CC[C@@]4(C)[C@@H]3CC[C@@]12C)C(C)C
REMARK SMILES IDX 4 1 3 2 2 3 1 4 29 5 30 6 31 7 5 8 6 9 7 10 8 11 9 12 27 13
REMARK SMILES IDX 10 14 11 15 26 16 28 17 12 18 25 19 24 20 13 21 22 22 14 23
REMARK SMILES IDX 16 24 21 25 23 26 15 27 17 28 20 29 18 30 19 31
REMARK H PARENT
REMARK Flexibility Score: inf
ROOT
ATOM      1  C   UNL     1      16.817 -23.786 -24.524  1.00  0.00     0.004 C 
ENDROOT
BRANCH   1   2
ATOM      2  C   UNL     1      17.224 -22.360 -25.023  1.00  0.00    -0.009 C 
BRANCH   2   3
ATOM      3  C   UNL     1      16.910 -22.230 -26.540  1.00  0.00     0.000 C 
ATOM      4  C   UNL     1      16.259 -20.901 -26.928  1.00  0.00     0.004 C 
ENDBRANCH   2   3
BRANCH   2   5
ATOM      5  C   UNL     1      18.698 -21.961 -24.666  1.00  0.00    -0.014 C 
ATOM      6  C   UNL     1      19.676 -22.237 -25.816  1.00  0.00     0.007 C 
ATOM      7  C   UNL     1      18.860 -20.509 -24.173  1.00  0.00     0.007 C 
ENDBRANCH   2   5
ENDBRANCH   1   2
BRANCH   1   8
ATOM      8  C   UNL     1      17.808 -24.389 -23.499  1.00  0.00     0.004 C 
BRANCH   8   9
ATOM      9  C   UNL     1      18.485 -25.714 -23.971  1.00  0.00    -0.011 C 
ATOM     10  C   UNL     1      18.514 -25.771 -25.511  1.00  0.00     0.008 C 
BRANCH   9  11
ATOM     11  C   UNL     1      19.930 -25.848 -23.349  1.00  0.00    -0.002 C 
ATOM     12  C   UNL     1      20.565 -24.471 -23.079  1.00  0.00     0.005 C 
ATOM     13  C   UNL     1      20.111 -26.637 -22.003  1.00  0.00    -0.026 C 
ATOM     14  C   UNL     1      21.496 -24.613 -21.886  1.00  0.00     0.005 C 
ATOM     15  C   UNL     1      21.459 -26.083 -21.465  1.00  0.00    -0.001 C 
ATOM     16  C   UNL     1      18.961 -26.324 -21.006  1.00  0.00     0.007 C 
ATOM     17  C   UNL     1      20.247 -28.163 -22.261  1.00  0.00     0.012 C 
ATOM     18  C   UNL     1      21.754 -26.250 -19.937  1.00  0.00     0.004 C 
ATOM     19  C   UNL     1      19.271 -26.761 -19.574  1.00  0.00     0.005 C 
ATOM     20  C   UNL     1      20.519 -26.045 -19.009  1.00  0.00     0.003 C 
ATOM     21  C   UNL     1      22.500 -27.548 -19.588  1.00  0.00     0.085 C 
ATOM     22  C   UNL     1      20.814 -26.354 -17.460  1.00  0.00    -0.000 C 
ATOM     23  C   UNL     1      23.052 -27.419 -18.205  1.00  0.00     0.159 C 
ATOM     24  C   UNL     1      22.309 -26.614 -17.208  1.00  0.00     0.005 C 
ATOM     25  C   UNL     1      20.337 -25.124 -16.625  1.00  0.00     0.020 C 
ATOM     26  C   UNL     1      20.077 -27.625 -16.951  1.00  0.00     0.017 C 
ATOM     27  O   UNL     1      24.123 -28.014 -17.900  1.00  0.00    -0.295 OA
ATOM     28  C   UNL     1      22.913 -26.240 -16.064  1.00  0.00     0.055 C 
ATOM     29  C   UNL     1      20.740 -25.195 -15.148  1.00  0.00     0.081 C 
ATOM     30  C   UNL     1      22.203 -25.483 -15.021  1.00  0.00     0.156 C 
ATOM     31  O   UNL     1      22.826 -25.103 -13.996  1.00  0.00    -0.295 OA
ENDBRANCH   9  11
ENDBRANCH   8   9
ENDBRANCH   1   8
TORSDOF 6
ENDMDL
MODEL 9
REMARK VINA RESULT:    -6.741      2.454      4.322
REMARK INTER + INTRA:         -10.759
REMARK INTER:                  -9.685
REMARK INTRA:                  -1.074
REMARK UNBOUND:                -1.653
REMARK SMILES CC[C@@H](CC[C@@H](C)[C@H]1CC[C@H]2[C@@H]3CC(=O)C4=CC(=O)CC[C@@]4(C)[C@@H]3CC[C@@]12C)C(C)C
REMARK SMILES IDX 4 1 3 2 2 3 1 4 29 5 30 6 31 7 5 8 6 9 7 10 8 11 9 12 27 13
REMARK SMILES IDX 10 14 11 15 26 16 28 17 12 18 25 19 24 20 13 21 22 22 14 23
REMARK SMILES IDX 16 24 21 25 23 26 15 27 17 28 20 29 18 30 19 31
REMARK H PARENT
REMARK Flexibility Score: inf
ROOT
ATOM      1  C   UNL     1      19.087 -23.439 -23.564  1.00  0.00     0.004 C 
ENDROOT
BRANCH   1   2
ATOM      2  C   UNL     1      19.242 -23.400 -25.120  1.00  0.00    -0.009 C 
BRANCH   2   3
ATOM      3  C   UNL     1      19.406 -21.928 -25.590  1.00  0.00     0.000 C 
ATOM      4  C   UNL     1      18.808 -20.898 -24.629  1.00  0.00     0.004 C 
ENDBRANCH   2   3
BRANCH   2   5
ATOM      5  C   UNL     1      18.108 -24.165 -25.889  1.00  0.00    -0.014 C 
ATOM      6  C   UNL     1      17.056 -24.761 -24.944  1.00  0.00     0.007 C 
ATOM      7  C   UNL     1      17.420 -23.336 -26.991  1.00  0.00     0.007 C 
ENDBRANCH   2   5
ENDBRANCH   1   2
BRANCH   1   8
ATOM      8  C   UNL     1      20.105 -24.371 -22.862  1.00  0.00     0.004 C 
BRANCH   8   9
ATOM      9  C   UNL     1      19.691 -24.799 -21.420  1.00  0.00    -0.011 C 
ATOM     10  C   UNL     1      18.209 -25.225 -21.403  1.00  0.00     0.008 C 
BRANCH   9  11
ATOM     11  C   UNL     1      20.639 -25.944 -20.889  1.00  0.00    -0.002 C 
ATOM     12  C   UNL     1      21.893 -26.101 -21.770  1.00  0.00     0.005 C 
ATOM     13  C   UNL     1      21.194 -25.855 -19.423  1.00  0.00    -0.026 C 
ATOM     14  C   UNL     1      23.026 -26.591 -20.884  1.00  0.00     0.005 C 
ATOM     15  C   UNL     1      22.447 -26.774 -19.480  1.00  0.00    -0.001 C 
ATOM     16  C   UNL     1      21.605 -24.401 -19.062  1.00  0.00     0.007 C 
ATOM     17  C   UNL     1      20.177 -26.434 -18.401  1.00  0.00     0.012 C 
ATOM     18  C   UNL     1      23.540 -26.577 -18.378  1.00  0.00     0.004 C 
ATOM     19  C   UNL     1      22.481 -24.316 -17.811  1.00  0.00     0.005 C 
ATOM     20  C   UNL     1      23.805 -25.096 -17.979  1.00  0.00     0.003 C 
ATOM     21  C   UNL     1      23.331 -27.457 -17.134  1.00  0.00     0.085 C 
ATOM     22  C   UNL     1      24.830 -24.928 -16.753  1.00  0.00    -0.000 C 
ATOM     23  C   UNL     1      24.601 -27.473 -16.347  1.00  0.00     0.159 C 
ATOM     24  C   UNL     1      25.466 -26.271 -16.356  1.00  0.00     0.005 C 
ATOM     25  C   UNL     1      25.939 -23.919 -17.188  1.00  0.00     0.020 C 
ATOM     26  C   UNL     1      24.143 -24.395 -15.464  1.00  0.00     0.017 C 
ATOM     27  O   UNL     1      24.905 -28.493 -15.668  1.00  0.00    -0.295 OA
ATOM     28  C   UNL     1      26.734 -26.353 -15.909  1.00  0.00     0.055 C 
ATOM     29  C   UNL     1      27.098 -23.815 -16.190  1.00  0.00     0.081 C 
ATOM     30  C   UNL     1      27.617 -25.177 -15.852  1.00  0.00     0.156 C 
ATOM     31  O   UNL     1      28.812 -25.315 -15.483  1.00  0.00    -0.295 OA
ENDBRANCH   9  11
ENDBRANCH   8   9
ENDBRANCH   1   8
TORSDOF 6
ENDMDL
