MODEL 1
REMARK VINA RESULT:    -3.856      0.000      0.000
REMARK INTER + INTRA:          -5.720
REMARK INTER:                  -5.208
REMARK INTRA:                  -0.512
REMARK UNBOUND:                -0.512
REMARK SMILES [NH3+]CCCC[C@H]([NH3+])C(=O)[O-]
REMARK SMILES IDX 4 1 3 2 2 3 1 4 5 8 6 9 7 10 8 14 9 15 10 16
REMARK H PARENT 1 5 1 6 1 7 7 11 7 12 7 13
REMARK Flexibility Score: inf
ROOT
ATOM      1  C   UNL     1     134.588 137.294 126.635  1.00  0.00     0.012 C 
ENDROOT
BRANCH   1   2
ATOM      2  C   UNL     1     134.029 136.778 125.300  1.00  0.00     0.061 C 
BRANCH   2   3
ATOM      3  C   UNL     1     134.647 137.535 124.116  1.00  0.00     0.258 C 
BRANCH   3   4
ATOM      4  N   UNL     1     135.765 136.787 123.544  1.00  0.00    -0.358 N 
ATOM      5  H   UNL     1     135.793 135.820 123.943  1.00  0.00     0.344 HD
ATOM      6  H   UNL     1     136.659 137.275 123.780  1.00  0.00     0.344 HD
ATOM      7  H   UNL     1     135.671 136.738 122.503  1.00  0.00     0.344 HD
ENDBRANCH   3   4
ENDBRANCH   2   3
ENDBRANCH   1   2
BRANCH   1   8
ATOM      8  C   UNL     1     135.220 136.178 127.490  1.00  0.00     0.072 C 
BRANCH   8   9
ATOM      9  C   UNL     1     135.569 134.893 126.703  1.00  0.00     0.227 C 
BRANCH   9  10
ATOM     10  N   UNL     1     135.156 133.704 127.458  1.00  0.00    -0.350 N 
ATOM     11  H   UNL     1     135.114 133.931 128.479  1.00  0.00     0.345 HD
ATOM     12  H   UNL     1     135.830 132.918 127.311  1.00  0.00     0.345 HD
ATOM     13  H   UNL     1     134.202 133.402 127.151  1.00  0.00     0.345 HD
ENDBRANCH   9  10
BRANCH   9  14
ATOM     14  C   UNL     1     137.043 134.823 126.393  1.00  0.00     0.099 C 
ATOM     15  O   UNL     1     137.890 134.773 127.324  1.00  0.00    -0.544 OA
ATOM     16  O   UNL     1     137.475 134.826 125.073  1.00  0.00    -0.544 OA
ENDBRANCH   9  14
ENDBRANCH   8   9
ENDBRANCH   1   8
TORSDOF 7
ENDMDL
MODEL 2
REMARK VINA RESULT:    -3.774      1.943      2.308
REMARK INTER + INTRA:          -5.609
REMARK INTER:                  -5.434
REMARK INTRA:                  -0.175
REMARK UNBOUND:                -0.512
REMARK SMILES [NH3+]CCCC[C@H]([NH3+])C(=O)[O-]
REMARK SMILES IDX 4 1 3 2 2 3 1 4 5 8 6 9 7 10 8 14 9 15 10 16
REMARK H PARENT 1 5 1 6 1 7 7 11 7 12 7 13
REMARK Flexibility Score: inf
ROOT
ATOM      1  C   UNL     1     135.074 136.417 127.725  1.00  0.00     0.012 C 
ENDROOT
BRANCH   1   2
ATOM      2  C   UNL     1     133.981 137.493 127.630  1.00  0.00     0.061 C 
BRANCH   2   3
ATOM      3  C   UNL     1     133.697 137.860 126.167  1.00  0.00     0.258 C 
BRANCH   3   4
ATOM      4  N   UNL     1     134.459 139.042 125.767  1.00  0.00    -0.358 N 
ATOM      5  H   UNL     1     135.423 139.001 126.169  1.00  0.00     0.344 HD
ATOM      6  H   UNL     1     133.978 139.897 126.130  1.00  0.00     0.344 HD
ATOM      7  H   UNL     1     134.512 139.101 124.725  1.00  0.00     0.344 HD
ENDBRANCH   3   4
ENDBRANCH   2   3
ENDBRANCH   1   2
BRANCH   1   8
ATOM      8  C   UNL     1     135.120 135.501 126.487  1.00  0.00     0.072 C 
BRANCH   8   9
ATOM      9  C   UNL     1     136.505 134.867 126.214  1.00  0.00     0.227 C 
BRANCH   9  10
ATOM     10  N   UNL     1     136.488 134.132 124.944  1.00  0.00    -0.350 N 
ATOM     11  H   UNL     1     137.253 134.484 124.322  1.00  0.00     0.345 HD
ATOM     12  H   UNL     1     135.570 134.253 124.457  1.00  0.00     0.345 HD
ATOM     13  H   UNL     1     136.654 133.114 125.120  1.00  0.00     0.345 HD
ENDBRANCH   9  10
BRANCH   9  14
ATOM     14  C   UNL     1     136.920 133.950 127.337  1.00  0.00     0.099 C 
ATOM     15  O   UNL     1     136.176 132.998 127.692  1.00  0.00    -0.544 OA
ATOM     16  O   UNL     1     138.125 134.160 127.995  1.00  0.00    -0.544 OA
ENDBRANCH   9  14
ENDBRANCH   8   9
ENDBRANCH   1   8
TORSDOF 7
ENDMDL
MODEL 3
REMARK VINA RESULT:    -3.717      2.582      3.059
REMARK INTER + INTRA:          -5.533
REMARK INTER:                  -4.998
REMARK INTRA:                  -0.535
REMARK UNBOUND:                -0.512
REMARK SMILES [NH3+]CCCC[C@H]([NH3+])C(=O)[O-]
REMARK SMILES IDX 4 1 3 2 2 3 1 4 5 8 6 9 7 10 8 14 9 15 10 16
REMARK H PARENT 1 5 1 6 1 7 7 11 7 12 7 13
REMARK Flexibility Score: inf
ROOT
ATOM      1  C   UNL     1     135.587 135.880 126.888  1.00  0.00     0.012 C 
ENDROOT
BRANCH   1   2
ATOM      2  C   UNL     1     134.462 136.812 127.364  1.00  0.00     0.061 C 
BRANCH   2   3
ATOM      3  C   UNL     1     133.919 137.656 126.203  1.00  0.00     0.258 C 
BRANCH   3   4
ATOM      4  N   UNL     1     134.802 137.574 125.040  1.00  0.00    -0.358 N 
ATOM      5  H   UNL     1     134.261 137.266 124.200  1.00  0.00     0.344 HD
ATOM      6  H   UNL     1     135.555 136.875 125.233  1.00  0.00     0.344 HD
ATOM      7  H   UNL     1     135.243 138.504 124.856  1.00  0.00     0.344 HD
ENDBRANCH   3   4
ENDBRANCH   2   3
ENDBRANCH   1   2
BRANCH   1   8
ATOM      8  C   UNL     1     135.129 134.416 126.744  1.00  0.00     0.072 C 
BRANCH   8   9
ATOM      9  C   UNL     1     135.450 133.780 125.370  1.00  0.00     0.227 C 
BRANCH   9  10
ATOM     10  N   UNL     1     136.609 134.442 124.760  1.00  0.00    -0.350 N 
ATOM     11  H   UNL     1     137.490 134.077 125.189  1.00  0.00     0.345 HD
ATOM     12  H   UNL     1     136.563 135.477 124.902  1.00  0.00     0.345 HD
ATOM     13  H   UNL     1     136.636 134.237 123.734  1.00  0.00     0.345 HD
ENDBRANCH   9  10
BRANCH   9  14
ATOM     14  C   UNL     1     134.264 133.853 124.442  1.00  0.00     0.099 C 
ATOM     15  O   UNL     1     133.940 134.944 123.903  1.00  0.00    -0.544 OA
ATOM     16  O   UNL     1     133.514 132.712 124.184  1.00  0.00    -0.544 OA
ENDBRANCH   9  14
ENDBRANCH   8   9
ENDBRANCH   1   8
TORSDOF 7
ENDMDL
MODEL 4
REMARK VINA RESULT:    -3.704      2.144      2.615
REMARK INTER + INTRA:          -5.515
REMARK INTER:                  -5.437
REMARK INTRA:                  -0.077
REMARK UNBOUND:                -0.512
REMARK SMILES [NH3+]CCCC[C@H]([NH3+])C(=O)[O-]
REMARK SMILES IDX 4 1 3 2 2 3 1 4 5 8 6 9 7 10 8 14 9 15 10 16
REMARK H PARENT 1 5 1 6 1 7 7 11 7 12 7 13
REMARK Flexibility Score: inf
ROOT
ATOM      1  C   UNL     1     134.289 137.151 126.614  1.00  0.00     0.012 C 
ENDROOT
BRANCH   1   2
ATOM      2  C   UNL     1     133.739 138.289 127.486  1.00  0.00     0.061 C 
BRANCH   2   3
ATOM      3  C   UNL     1     134.271 139.650 127.015  1.00  0.00     0.258 C 
BRANCH   3   4
ATOM      4  N   UNL     1     134.332 140.600 128.125  1.00  0.00    -0.358 N 
ATOM      5  H   UNL     1     133.371 140.937 128.362  1.00  0.00     0.344 HD
ATOM      6  H   UNL     1     134.917 141.419 127.841  1.00  0.00     0.344 HD
ATOM      7  H   UNL     1     134.766 140.148 128.962  1.00  0.00     0.344 HD
ENDBRANCH   3   4
ENDBRANCH   2   3
ENDBRANCH   1   2
BRANCH   1   8
ATOM      8  C   UNL     1     135.128 136.136 127.414  1.00  0.00     0.072 C 
BRANCH   8   9
ATOM      9  C   UNL     1     135.506 134.859 126.626  1.00  0.00     0.227 C 
BRANCH   9  10
ATOM     10  N   UNL     1     135.123 133.661 127.383  1.00  0.00    -0.350 N 
ATOM     11  H   UNL     1     134.811 133.934 128.343  1.00  0.00     0.345 HD
ATOM     12  H   UNL     1     135.929 132.998 127.461  1.00  0.00     0.345 HD
ATOM     13  H   UNL     1     134.327 133.179 126.905  1.00  0.00     0.345 HD
ENDBRANCH   9  10
BRANCH   9  14
ATOM     14  C   UNL     1     136.980 134.825 126.312  1.00  0.00     0.099 C 
ATOM     15  O   UNL     1     137.380 134.876 125.119  1.00  0.00    -0.544 OA
ATOM     16  O   UNL     1     137.907 134.725 127.342  1.00  0.00    -0.544 OA
ENDBRANCH   9  14
ENDBRANCH   8   9
ENDBRANCH   1   8
TORSDOF 7
ENDMDL
MODEL 5
REMARK VINA RESULT:    -3.697      1.565      2.015
REMARK INTER + INTRA:          -5.505
REMARK INTER:                  -5.272
REMARK INTRA:                  -0.233
REMARK UNBOUND:                -0.512
REMARK SMILES [NH3+]CCCC[C@H]([NH3+])C(=O)[O-]
REMARK SMILES IDX 4 1 3 2 2 3 1 4 5 8 6 9 7 10 8 14 9 15 10 16
REMARK H PARENT 1 5 1 6 1 7 7 11 7 12 7 13
REMARK Flexibility Score: inf
ROOT
ATOM      1  C   UNL     1     134.176 136.372 124.401  1.00  0.00     0.012 C 
ENDROOT
BRANCH   1   2
ATOM      2  C   UNL     1     134.518 137.668 123.650  1.00  0.00     0.061 C 
BRANCH   2   3
ATOM      3  C   UNL     1     135.276 137.366 122.350  1.00  0.00     0.258 C 
BRANCH   3   4
ATOM      4  N   UNL     1     136.719 137.336 122.582  1.00  0.00    -0.358 N 
ATOM      5  H   UNL     1     137.029 136.359 122.791  1.00  0.00     0.344 HD
ATOM      6  H   UNL     1     136.946 137.944 123.402  1.00  0.00     0.344 HD
ATOM      7  H   UNL     1     137.227 137.697 121.743  1.00  0.00     0.344 HD
ENDBRANCH   3   4
ENDBRANCH   2   3
ENDBRANCH   1   2
BRANCH   1   8
ATOM      8  C   UNL     1     135.028 136.174 125.670  1.00  0.00     0.072 C 
BRANCH   8   9
ATOM      9  C   UNL     1     136.255 135.252 125.477  1.00  0.00     0.227 C 
BRANCH   9  10
ATOM     10  N   UNL     1     135.936 134.168 124.540  1.00  0.00    -0.350 N 
ATOM     11  H   UNL     1     135.007 134.348 124.095  1.00  0.00     0.345 HD
ATOM     12  H   UNL     1     135.905 133.247 125.035  1.00  0.00     0.345 HD
ATOM     13  H   UNL     1     136.659 134.129 123.784  1.00  0.00     0.345 HD
ENDBRANCH   9  10
BRANCH   9  14
ATOM     14  C   UNL     1     136.724 134.680 126.790  1.00  0.00     0.099 C 
ATOM     15  O   UNL     1     137.947 134.692 127.092  1.00  0.00    -0.544 OA
ATOM     16  O   UNL     1     135.806 134.126 127.673  1.00  0.00    -0.544 OA
ENDBRANCH   9  14
ENDBRANCH   8   9
ENDBRANCH   1   8
TORSDOF 7
ENDMDL
MODEL 6
REMARK VINA RESULT:    -3.562     13.968     15.792
REMARK INTER + INTRA:          -5.324
REMARK INTER:                  -4.895
REMARK INTRA:                  -0.429
REMARK UNBOUND:                -0.512
REMARK SMILES [NH3+]CCCC[C@H]([NH3+])C(=O)[O-]
REMARK SMILES IDX 4 1 3 2 2 3 1 4 5 8 6 9 7 10 8 14 9 15 10 16
REMARK H PARENT 1 5 1 6 1 7 7 11 7 12 7 13
REMARK Flexibility Score: inf
ROOT
ATOM      1  C   UNL     1     130.500 135.097 112.324  1.00  0.00     0.012 C 
ENDROOT
BRANCH   1   2
ATOM      2  C   UNL     1     130.093 133.772 112.987  1.00  0.00     0.061 C 
BRANCH   2   3
ATOM      3  C   UNL     1     131.169 133.299 113.974  1.00  0.00     0.258 C 
BRANCH   3   4
ATOM      4  N   UNL     1     132.201 132.522 113.289  1.00  0.00    -0.358 N 
ATOM      5  H   UNL     1     132.369 132.911 112.333  1.00  0.00     0.344 HD
ATOM      6  H   UNL     1     131.879 131.531 113.198  1.00  0.00     0.344 HD
ATOM      7  H   UNL     1     133.090 132.539 113.839  1.00  0.00     0.344 HD
ENDBRANCH   3   4
ENDBRANCH   2   3
ENDBRANCH   1   2
BRANCH   1   8
ATOM      8  C   UNL     1     130.698 134.967 110.801  1.00  0.00     0.072 C 
BRANCH   8   9
ATOM      9  C   UNL     1     132.055 135.504 110.287  1.00  0.00     0.227 C 
BRANCH   9  10
ATOM     10  N   UNL     1     131.842 136.486 109.217  1.00  0.00    -0.350 N 
ATOM     11  H   UNL     1     132.699 136.549 108.620  1.00  0.00     0.345 HD
ATOM     12  H   UNL     1     131.634 137.431 109.615  1.00  0.00     0.345 HD
ATOM     13  H   UNL     1     131.044 136.184 108.611  1.00  0.00     0.345 HD
ENDBRANCH   9  10
BRANCH   9  14
ATOM     14  C   UNL     1     132.937 134.386 109.796  1.00  0.00     0.099 C 
ATOM     15  O   UNL     1     132.983 133.289 110.414  1.00  0.00    -0.544 OA
ATOM     16  O   UNL     1     133.716 134.564 108.660  1.00  0.00    -0.544 OA
ENDBRANCH   9  14
ENDBRANCH   8   9
ENDBRANCH   1   8
TORSDOF 7
ENDMDL
MODEL 7
REMARK VINA RESULT:    -3.537     14.084     15.941
REMARK INTER + INTRA:          -5.289
REMARK INTER:                  -4.774
REMARK INTRA:                  -0.515
REMARK UNBOUND:                -0.512
REMARK SMILES [NH3+]CCCC[C@H]([NH3+])C(=O)[O-]
REMARK SMILES IDX 4 1 3 2 2 3 1 4 5 8 6 9 7 10 8 14 9 15 10 16
REMARK H PARENT 1 5 1 6 1 7 7 11 7 12 7 13
REMARK Flexibility Score: inf
ROOT
ATOM      1  C   UNL     1     130.461 134.433 112.090  1.00  0.00     0.012 C 
ENDROOT
BRANCH   1   2
ATOM      2  C   UNL     1     131.546 133.599 112.790  1.00  0.00     0.061 C 
BRANCH   2   3
ATOM      3  C   UNL     1     132.550 134.504 113.518  1.00  0.00     0.258 C 
BRANCH   3   4
ATOM      4  N   UNL     1     133.848 134.490 112.846  1.00  0.00    -0.358 N 
ATOM      5  H   UNL     1     134.474 133.777 113.288  1.00  0.00     0.344 HD
ATOM      6  H   UNL     1     134.291 135.433 112.940  1.00  0.00     0.344 HD
ATOM      7  H   UNL     1     133.726 134.273 111.831  1.00  0.00     0.344 HD
ENDBRANCH   3   4
ENDBRANCH   2   3
ENDBRANCH   1   2
BRANCH   1   8
ATOM      8  C   UNL     1     130.681 134.544 110.569  1.00  0.00     0.072 C 
BRANCH   8   9
ATOM      9  C   UNL     1     131.574 135.731 110.138  1.00  0.00     0.227 C 
BRANCH   9  10
ATOM     10  N   UNL     1     130.842 136.615 109.224  1.00  0.00    -0.350 N 
ATOM     11  H   UNL     1     130.930 137.607 109.544  1.00  0.00     0.345 HD
ATOM     12  H   UNL     1     129.829 136.356 109.189  1.00  0.00     0.345 HD
ATOM     13  H   UNL     1     131.248 136.545 108.261  1.00  0.00     0.345 HD
ENDBRANCH   9  10
BRANCH   9  14
ATOM     14  C   UNL     1     132.847 135.254 109.488  1.00  0.00     0.099 C 
ATOM     15  O   UNL     1     133.339 134.135 109.792  1.00  0.00    -0.544 OA
ATOM     16  O   UNL     1     133.493 136.055 108.555  1.00  0.00    -0.544 OA
ENDBRANCH   9  14
ENDBRANCH   8   9
ENDBRANCH   1   8
TORSDOF 7
ENDMDL
MODEL 8
REMARK VINA RESULT:    -1.474      1.900      2.252
REMARK INTER + INTRA:          -2.502
REMARK INTER:                  -2.372
REMARK INTRA:                  -0.131
REMARK UNBOUND:                -0.512
REMARK SMILES [NH3+]CCCC[C@H]([NH3+])C(=O)[O-]
REMARK SMILES IDX 4 1 3 2 2 3 1 4 5 8 6 9 7 10 8 14 9 15 10 16
REMARK H PARENT 1 5 1 6 1 7 7 11 7 12 7 13
REMARK Flexibility Score: inf
ROOT
ATOM      1  C   UNL     1     135.013 136.378 127.615  1.00  0.00     0.012 C 
ENDROOT
BRANCH   1   2
ATOM      2  C   UNL     1     133.969 137.505 127.594  1.00  0.00     0.061 C 
BRANCH   2   3
ATOM      3  C   UNL     1     133.678 137.958 126.157  1.00  0.00     0.258 C 
BRANCH   3   4
ATOM      4  N   UNL     1     134.397 139.192 125.843  1.00  0.00    -0.358 N 
ATOM      5  H   UNL     1     134.718 139.655 126.724  1.00  0.00     0.344 HD
ATOM      6  H   UNL     1     133.753 139.842 125.335  1.00  0.00     0.344 HD
ATOM      7  H   UNL     1     135.219 138.984 125.231  1.00  0.00     0.344 HD
ENDBRANCH   3   4
ENDBRANCH   2   3
ENDBRANCH   1   2
BRANCH   1   8
ATOM      8  C   UNL     1     135.132 135.648 126.263  1.00  0.00     0.072 C 
BRANCH   8   9
ATOM      9  C   UNL     1     136.521 135.021 125.997  1.00  0.00     0.227 C 
BRANCH   9  10
ATOM     10  N   UNL     1     136.477 134.172 124.800  1.00  0.00    -0.350 N 
ATOM     11  H   UNL     1     136.904 133.241 125.012  1.00  0.00     0.345 HD
ATOM     12  H   UNL     1     137.000 134.617 124.011  1.00  0.00     0.345 HD
ATOM     13  H   UNL     1     135.483 134.018 124.511  1.00  0.00     0.345 HD
ENDBRANCH   9  10
BRANCH   9  14
ATOM     14  C   UNL     1     136.997 134.221 127.182  1.00  0.00     0.099 C 
ATOM     15  O   UNL     1     138.125 134.448 127.695  1.00  0.00    -0.544 OA
ATOM     16  O   UNL     1     136.196 133.216 127.709  1.00  0.00    -0.544 OA
ENDBRANCH   9  14
ENDBRANCH   8   9
ENDBRANCH   1   8
TORSDOF 7
ENDMDL
