MODEL 1
REMARK VINA RESULT:    -4.087      0.000      0.000
REMARK INTER + INTRA:          -5.417
REMARK INTER:                  -5.281
REMARK INTRA:                  -0.136
REMARK UNBOUND:                -0.136
REMARK SMILES CCCCCCC(C)=O
REMARK SMILES IDX 4 1 3 2 2 3 1 4 5 5 6 6 7 7 9 8 8 9
REMARK H PARENT
REMARK Flexibility Score: inf
ROOT
ATOM      1  C   UNL     1      24.613  55.904  -8.860  1.00  0.00     0.000 C 
ENDROOT
BRANCH   1   2
ATOM      2  C   UNL     1      23.891  55.911  -7.505  1.00  0.00    -0.000 C 
BRANCH   2   3
ATOM      3  C   UNL     1      22.752  54.883  -7.437  1.00  0.00    -0.003 C 
ATOM      4  C   UNL     1      22.289  54.606  -6.008  1.00  0.00     0.004 C 
ENDBRANCH   2   3
ENDBRANCH   1   2
BRANCH   1   5
ATOM      5  C   UNL     1      25.768  56.916  -8.872  1.00  0.00     0.008 C 
BRANCH   5   6
ATOM      6  C   UNL     1      25.267  58.363  -8.985  1.00  0.00     0.075 C 
BRANCH   6   7
ATOM      7  C   UNL     1      26.302  59.268  -9.604  1.00  0.00     0.129 C 
ATOM      8  O   UNL     1      26.313  60.455  -9.315  1.00  0.00    -0.300 OA
ATOM      9  C   UNL     1      27.328  58.739 -10.561  1.00  0.00     0.087 C 
ENDBRANCH   6   7
ENDBRANCH   5   6
ENDBRANCH   1   5
TORSDOF 5
ENDMDL
MODEL 2
REMARK VINA RESULT:    -3.936      1.570      2.618
REMARK INTER + INTRA:          -5.222
REMARK INTER:                  -5.036
REMARK INTRA:                  -0.187
REMARK UNBOUND:                -0.136
REMARK SMILES CCCCCCC(C)=O
REMARK SMILES IDX 4 1 3 2 2 3 1 4 5 5 6 6 7 7 9 8 8 9
REMARK H PARENT
REMARK Flexibility Score: inf
ROOT
ATOM      1  C   UNL     1      25.072  58.299  -8.941  1.00  0.00     0.000 C 
ENDROOT
BRANCH   1   2
ATOM      2  C   UNL     1      25.708  56.902  -8.902  1.00  0.00    -0.000 C 
BRANCH   2   3
ATOM      3  C   UNL     1      24.663  55.778  -8.858  1.00  0.00    -0.003 C 
ATOM      4  C   UNL     1      23.837  55.787  -7.573  1.00  0.00     0.004 C 
ENDBRANCH   2   3
ENDBRANCH   1   2
BRANCH   1   5
ATOM      5  C   UNL     1      26.104  59.361  -9.348  1.00  0.00     0.008 C 
BRANCH   5   6
ATOM      6  C   UNL     1      27.170  58.797 -10.297  1.00  0.00     0.075 C 
BRANCH   6   7
ATOM      7  C   UNL     1      28.255  59.803 -10.583  1.00  0.00     0.129 C 
ATOM      8  O   UNL     1      29.360  59.415 -10.933  1.00  0.00    -0.300 OA
ATOM      9  C   UNL     1      28.004  61.277 -10.459  1.00  0.00     0.087 C 
ENDBRANCH   6   7
ENDBRANCH   5   6
ENDBRANCH   1   5
TORSDOF 5
ENDMDL
MODEL 3
REMARK VINA RESULT:    -3.872     16.498     17.694
REMARK INTER + INTRA:          -5.139
REMARK INTER:                  -4.849
REMARK INTRA:                  -0.290
REMARK UNBOUND:                -0.136
REMARK SMILES CCCCCCC(C)=O
REMARK SMILES IDX 4 1 3 2 2 3 1 4 5 5 6 6 7 7 9 8 8 9
REMARK H PARENT
REMARK Flexibility Score: inf
ROOT
ATOM      1  C   UNL     1      19.410  44.994   0.194  1.00  0.00     0.000 C 
ENDROOT
BRANCH   1   2
ATOM      2  C   UNL     1      20.067  44.487   1.486  1.00  0.00    -0.000 C 
BRANCH   2   3
ATOM      3  C   UNL     1      20.252  42.962   1.495  1.00  0.00    -0.003 C 
ATOM      4  C   UNL     1      21.220  42.477   0.417  1.00  0.00     0.004 C 
ENDBRANCH   2   3
ENDBRANCH   1   2
BRANCH   1   5
ATOM      5  C   UNL     1      18.038  44.340  -0.019  1.00  0.00     0.008 C 
BRANCH   5   6
ATOM      6  C   UNL     1      16.952  45.372  -0.358  1.00  0.00     0.075 C 
BRANCH   6   7
ATOM      7  C   UNL     1      15.788  45.295   0.596  1.00  0.00     0.129 C 
ATOM      8  O   UNL     1      14.733  45.837   0.303  1.00  0.00    -0.300 OA
ATOM      9  C   UNL     1      15.893  44.556   1.897  1.00  0.00     0.087 C 
ENDBRANCH   6   7
ENDBRANCH   5   6
ENDBRANCH   1   5
TORSDOF 5
ENDMDL
MODEL 4
REMARK VINA RESULT:    -3.734     16.087     18.003
REMARK INTER + INTRA:          -4.962
REMARK INTER:                  -4.452
REMARK INTRA:                  -0.510
REMARK UNBOUND:                -0.136
REMARK SMILES CCCCCCC(C)=O
REMARK SMILES IDX 4 1 3 2 2 3 1 4 5 5 6 6 7 7 9 8 8 9
REMARK H PARENT
REMARK Flexibility Score: inf
ROOT
ATOM      1  C   UNL     1      17.706  41.970   1.204  1.00  0.00     0.000 C 
ENDROOT
BRANCH   1   2
ATOM      2  C   UNL     1      16.398  42.729   0.940  1.00  0.00    -0.000 C 
BRANCH   2   3
ATOM      3  C   UNL     1      16.357  44.096   1.640  1.00  0.00    -0.003 C 
ATOM      4  C   UNL     1      15.692  45.176   0.790  1.00  0.00     0.004 C 
ENDBRANCH   2   3
ENDBRANCH   1   2
BRANCH   1   5
ATOM      5  C   UNL     1      18.747  42.274   0.117  1.00  0.00     0.008 C 
BRANCH   5   6
ATOM      6  C   UNL     1      20.069  42.785   0.710  1.00  0.00     0.075 C 
BRANCH   6   7
ATOM      7  C   UNL     1      20.014  44.261   1.012  1.00  0.00     0.129 C 
ATOM      8  O   UNL     1      20.317  44.659   2.126  1.00  0.00    -0.300 OA
ATOM      9  C   UNL     1      19.605  45.256  -0.033  1.00  0.00     0.087 C 
ENDBRANCH   6   7
ENDBRANCH   5   6
ENDBRANCH   1   5
TORSDOF 5
ENDMDL
MODEL 5
REMARK VINA RESULT:    -3.703     15.272     16.887
REMARK INTER + INTRA:          -4.921
REMARK INTER:                  -4.765
REMARK INTRA:                  -0.156
REMARK UNBOUND:                -0.136
REMARK SMILES CCCCCCC(C)=O
REMARK SMILES IDX 4 1 3 2 2 3 1 4 5 5 6 6 7 7 9 8 8 9
REMARK H PARENT
REMARK Flexibility Score: inf
ROOT
ATOM      1  C   UNL     1      32.759  46.438   1.899  1.00  0.00     0.000 C 
ENDROOT
BRANCH   1   2
ATOM      2  C   UNL     1      32.730  46.538   3.431  1.00  0.00    -0.000 C 
BRANCH   2   3
ATOM      3  C   UNL     1      31.922  47.746   3.929  1.00  0.00    -0.003 C 
ATOM      4  C   UNL     1      32.719  49.048   3.888  1.00  0.00     0.004 C 
ENDBRANCH   2   3
ENDBRANCH   1   2
BRANCH   1   5
ATOM      5  C   UNL     1      31.891  45.271   1.407  1.00  0.00     0.008 C 
BRANCH   5   6
ATOM      6  C   UNL     1      30.396  45.621   1.411  1.00  0.00     0.075 C 
BRANCH   6   7
ATOM      7  C   UNL     1      29.714  45.178   0.142  1.00  0.00     0.129 C 
ATOM      8  O   UNL     1      30.142  44.209  -0.465  1.00  0.00    -0.300 OA
ATOM      9  C   UNL     1      28.509  45.898  -0.388  1.00  0.00     0.087 C 
ENDBRANCH   6   7
ENDBRANCH   5   6
ENDBRANCH   1   5
TORSDOF 5
ENDMDL
MODEL 6
REMARK VINA RESULT:    -3.688     16.468     17.820
REMARK INTER + INTRA:          -4.902
REMARK INTER:                  -4.484
REMARK INTRA:                  -0.418
REMARK UNBOUND:                -0.136
REMARK SMILES CCCCCCC(C)=O
REMARK SMILES IDX 4 1 3 2 2 3 1 4 5 5 6 6 7 7 9 8 8 9
REMARK H PARENT
REMARK Flexibility Score: inf
ROOT
ATOM      1  C   UNL     1      17.562  43.470  -0.075  1.00  0.00     0.000 C 
ENDROOT
BRANCH   1   2
ATOM      2  C   UNL     1      16.633  43.159   1.108  1.00  0.00    -0.000 C 
BRANCH   2   3
ATOM      3  C   UNL     1      16.310  44.404   1.948  1.00  0.00    -0.003 C 
ATOM      4  C   UNL     1      14.837  44.801   1.875  1.00  0.00     0.004 C 
ENDBRANCH   2   3
ENDBRANCH   1   2
BRANCH   1   5
ATOM      5  C   UNL     1      18.141  44.888   0.039  1.00  0.00     0.008 C 
BRANCH   5   6
ATOM      6  C   UNL     1      19.674  44.879   0.140  1.00  0.00     0.075 C 
BRANCH   6   7
ATOM      7  C   UNL     1      20.154  44.062   1.312  1.00  0.00     0.129 C 
ATOM      8  O   UNL     1      19.815  44.375   2.443  1.00  0.00    -0.300 OA
ATOM      9  C   UNL     1      21.034  42.863   1.118  1.00  0.00     0.087 C 
ENDBRANCH   6   7
ENDBRANCH   5   6
ENDBRANCH   1   5
TORSDOF 5
ENDMDL
MODEL 7
REMARK VINA RESULT:    -3.688     15.950     17.802
REMARK INTER + INTRA:          -4.901
REMARK INTER:                  -4.431
REMARK INTRA:                  -0.470
REMARK UNBOUND:                -0.136
REMARK SMILES CCCCCCC(C)=O
REMARK SMILES IDX 4 1 3 2 2 3 1 4 5 5 6 6 7 7 9 8 8 9
REMARK H PARENT
REMARK Flexibility Score: inf
ROOT
ATOM      1  C   UNL     1      16.364  43.083   1.505  1.00  0.00     0.000 C 
ENDROOT
BRANCH   1   2
ATOM      2  C   UNL     1      16.151  44.585   1.743  1.00  0.00    -0.000 C 
BRANCH   2   3
ATOM      3  C   UNL     1      15.255  45.230   0.675  1.00  0.00    -0.003 C 
ATOM      4  C   UNL     1      16.029  45.647  -0.574  1.00  0.00     0.004 C 
ENDBRANCH   2   3
ENDBRANCH   1   2
BRANCH   1   5
ATOM      5  C   UNL     1      17.852  42.767   1.295  1.00  0.00     0.008 C 
BRANCH   5   6
ATOM      6  C   UNL     1      18.762  43.879   1.836  1.00  0.00     0.075 C 
BRANCH   6   7
ATOM      7  C   UNL     1      19.842  44.250   0.852  1.00  0.00     0.129 C 
ATOM      8  O   UNL     1      20.878  43.604   0.824  1.00  0.00    -0.300 OA
ATOM      9  C   UNL     1      19.666  45.392  -0.105  1.00  0.00     0.087 C 
ENDBRANCH   6   7
ENDBRANCH   5   6
ENDBRANCH   1   5
TORSDOF 5
ENDMDL
MODEL 8
REMARK VINA RESULT:    -3.637      1.953      5.821
REMARK INTER + INTRA:          -4.835
REMARK INTER:                  -4.710
REMARK INTRA:                  -0.126
REMARK UNBOUND:                -0.136
REMARK SMILES CCCCCCC(C)=O
REMARK SMILES IDX 4 1 3 2 2 3 1 4 5 5 6 6 7 7 9 8 8 9
REMARK H PARENT
REMARK Flexibility Score: inf
ROOT
ATOM      1  C   UNL     1      27.153  58.733 -10.359  1.00  0.00     0.000 C 
ENDROOT
BRANCH   1   2
ATOM      2  C   UNL     1      27.767  60.124 -10.145  1.00  0.00    -0.000 C 
BRANCH   2   3
ATOM      3  C   UNL     1      29.298  60.119 -10.265  1.00  0.00    -0.003 C 
ATOM      4  C   UNL     1      29.793  59.338 -11.481  1.00  0.00     0.004 C 
ENDBRANCH   2   3
ENDBRANCH   1   2
BRANCH   1   5
ATOM      5  C   UNL     1      25.991  58.489  -9.386  1.00  0.00     0.008 C 
BRANCH   5   6
ATOM      6  C   UNL     1      25.885  57.014  -8.970  1.00  0.00     0.075 C 
BRANCH   6   7
ATOM      7  C   UNL     1      24.489  56.654  -8.531  1.00  0.00     0.129 C 
ATOM      8  O   UNL     1      23.589  57.471  -8.654  1.00  0.00    -0.300 OA
ATOM      9  C   UNL     1      24.177  55.305  -7.953  1.00  0.00     0.087 C 
ENDBRANCH   6   7
ENDBRANCH   5   6
ENDBRANCH   1   5
TORSDOF 5
ENDMDL
MODEL 9
REMARK VINA RESULT:    -3.583     16.282     18.250
REMARK INTER + INTRA:          -4.766
REMARK INTER:                  -4.219
REMARK INTRA:                  -0.547
REMARK UNBOUND:                -0.136
REMARK SMILES CCCCCCC(C)=O
REMARK SMILES IDX 4 1 3 2 2 3 1 4 5 5 6 6 7 7 9 8 8 9
REMARK H PARENT
REMARK Flexibility Score: inf
ROOT
ATOM      1  C   UNL     1      19.146  42.331   0.347  1.00  0.00     0.000 C 
ENDROOT
BRANCH   1   2
ATOM      2  C   UNL     1      20.256  43.033   1.144  1.00  0.00    -0.000 C 
BRANCH   2   3
ATOM      3  C   UNL     1      19.983  44.531   1.341  1.00  0.00    -0.003 C 
ATOM      4  C   UNL     1      19.795  45.277   0.022  1.00  0.00     0.004 C 
ENDBRANCH   2   3
ENDBRANCH   1   2
BRANCH   1   5
ATOM      5  C   UNL     1      17.858  42.222   1.178  1.00  0.00     0.008 C 
BRANCH   5   6
ATOM      6  C   UNL     1      16.646  42.815   0.444  1.00  0.00     0.075 C 
BRANCH   6   7
ATOM      7  C   UNL     1      16.342  44.217   0.907  1.00  0.00     0.129 C 
ATOM      8  O   UNL     1      16.358  44.474   2.101  1.00  0.00    -0.300 OA
ATOM      9  C   UNL     1      16.031  45.310  -0.072  1.00  0.00     0.087 C 
ENDBRANCH   6   7
ENDBRANCH   5   6
ENDBRANCH   1   5
TORSDOF 5
ENDMDL
