MODEL 1
REMARK VINA RESULT:    -4.329      0.000      0.000
REMARK INTER + INTRA:          -7.257
REMARK INTER:                  -6.226
REMARK INTRA:                  -1.031
REMARK UNBOUND:                -1.031
REMARK SMILES O=C(CO)[C@H](O)[C@@H](O)[C@@H](O)CO
REMARK SMILES IDX 7 1 9 2 11 3 12 4 10 6 5 8 2 9 1 10 3 11 4 12 6 14 8 16
REMARK H PARENT 12 5 10 7 4 13 6 15 8 17
REMARK Flexibility Score: inf
ROOT
ATOM      1  C   UNL     1       8.512  -3.940  10.698  1.00  0.00     0.181 C 
ENDROOT
BRANCH   1   2
ATOM      2  C   UNL     1       9.145  -3.314   9.429  1.00  0.00     0.171 C 
BRANCH   2   3
ATOM      3  C   UNL     1       9.032  -1.781   9.456  1.00  0.00     0.190 C 
BRANCH   3   4
ATOM      4  O   UNL     1       9.856  -1.247  10.457  1.00  0.00    -0.394 OA
ATOM      5  H   UNL     1      10.056  -0.311  10.191  1.00  0.00     0.210 HD
ENDBRANCH   3   4
ENDBRANCH   2   3
BRANCH   2   6
ATOM      6  O   UNL     1       8.485  -3.788   8.280  1.00  0.00    -0.388 OA
ATOM      7  H   UNL     1       8.027  -4.633   8.531  1.00  0.00     0.211 HD
ENDBRANCH   2   6
ENDBRANCH   1   2
BRANCH   1   8
ATOM      8  C   UNL     1       8.328  -5.476  10.580  1.00  0.00     0.214 C 
BRANCH   8   9
ATOM      9  C   UNL     1       8.073  -6.086  11.940  1.00  0.00     0.189 C 
ATOM     10  O   UNL     1       7.233  -5.590  12.677  1.00  0.00    -0.294 OA
BRANCH   9  11
ATOM     11  C   UNL     1       8.834  -7.296  12.412  1.00  0.00     0.234 C 
BRANCH  11  12
ATOM     12  O   UNL     1      10.163  -6.951  12.692  1.00  0.00    -0.388 OA
ATOM     13  H   UNL     1      10.278  -7.030  13.675  1.00  0.00     0.211 HD
ENDBRANCH  11  12
ENDBRANCH   9  11
ENDBRANCH   8   9
BRANCH   8  14
ATOM     14  O   UNL     1       9.468  -6.077  10.020  1.00  0.00    -0.382 OA
ATOM     15  H   UNL     1      10.191  -5.397  10.026  1.00  0.00     0.211 HD
ENDBRANCH   8  14
ENDBRANCH   1   8
BRANCH   1  16
ATOM     16  O   UNL     1       9.261  -3.615  11.845  1.00  0.00    -0.387 OA
ATOM     17  H   UNL     1       9.202  -2.633  11.976  1.00  0.00     0.211 HD
ENDBRANCH   1  16
TORSDOF 10
ENDMDL
MODEL 2
REMARK VINA RESULT:    -4.138      2.309      3.450
REMARK INTER + INTRA:          -6.982
REMARK INTER:                  -5.535
REMARK INTRA:                  -1.447
REMARK UNBOUND:                -1.031
REMARK SMILES O=C(CO)[C@H](O)[C@@H](O)[C@@H](O)CO
REMARK SMILES IDX 7 1 9 2 11 3 12 4 10 6 5 8 2 9 1 10 3 11 4 12 6 14 8 16
REMARK H PARENT 12 5 10 7 4 13 6 15 8 17
REMARK Flexibility Score: inf
ROOT
ATOM      1  C   UNL     1       7.393  -1.066   9.097  1.00  0.00     0.181 C 
ENDROOT
BRANCH   1   2
ATOM      2  C   UNL     1       8.577  -0.179   8.629  1.00  0.00     0.171 C 
BRANCH   2   3
ATOM      3  C   UNL     1       9.469   0.219   9.816  1.00  0.00     0.190 C 
BRANCH   3   4
ATOM      4  O   UNL     1      10.026  -0.920  10.415  1.00  0.00    -0.394 OA
ATOM      5  H   UNL     1       9.270  -1.527  10.628  1.00  0.00     0.210 HD
ENDBRANCH   3   4
ENDBRANCH   2   3
BRANCH   2   6
ATOM      6  O   UNL     1       8.087   0.994   8.027  1.00  0.00    -0.388 OA
ATOM      7  H   UNL     1       7.456   1.414   8.669  1.00  0.00     0.211 HD
ENDBRANCH   2   6
ENDBRANCH   1   2
BRANCH   1   8
ATOM      8  C   UNL     1       7.574  -2.558   8.714  1.00  0.00     0.214 C 
BRANCH   8   9
ATOM      9  C   UNL     1       7.203  -3.453   9.874  1.00  0.00     0.189 C 
ATOM     10  O   UNL     1       6.030  -3.558  10.205  1.00  0.00    -0.294 OA
BRANCH   9  11
ATOM     11  C   UNL     1       8.247  -4.223  10.637  1.00  0.00     0.234 C 
BRANCH  11  12
ATOM     12  O   UNL     1       9.149  -3.340  11.245  1.00  0.00    -0.388 OA
ATOM     13  H   UNL     1       9.923  -3.884  11.546  1.00  0.00     0.211 HD
ENDBRANCH  11  12
ENDBRANCH   9  11
ENDBRANCH   8   9
BRANCH   8  14
ATOM     14  O   UNL     1       8.904  -2.824   8.344  1.00  0.00    -0.382 OA
ATOM     15  H   UNL     1       8.970  -3.798   8.164  1.00  0.00     0.211 HD
ENDBRANCH   8  14
ENDBRANCH   1   8
BRANCH   1  16
ATOM     16  O   UNL     1       7.182  -0.929  10.483  1.00  0.00    -0.387 OA
ATOM     17  H   UNL     1       7.983  -1.286  10.948  1.00  0.00     0.211 HD
ENDBRANCH   1  16
TORSDOF 10
ENDMDL
MODEL 3
REMARK VINA RESULT:    -4.036      2.093      3.909
REMARK INTER + INTRA:          -6.837
REMARK INTER:                  -6.062
REMARK INTRA:                  -0.775
REMARK UNBOUND:                -1.031
REMARK SMILES O=C(CO)[C@H](O)[C@@H](O)[C@@H](O)CO
REMARK SMILES IDX 7 1 9 2 11 3 12 4 10 6 5 8 2 9 1 10 3 11 4 12 6 14 8 16
REMARK H PARENT 12 5 10 7 4 13 6 15 8 17
REMARK Flexibility Score: inf
ROOT
ATOM      1  C   UNL     1       8.784  -0.845   9.958  1.00  0.00     0.181 C 
ENDROOT
BRANCH   1   2
ATOM      2  C   UNL     1       9.006   0.369   9.019  1.00  0.00     0.171 C 
BRANCH   2   3
ATOM      3  C   UNL     1       9.986   1.375   9.643  1.00  0.00     0.190 C 
BRANCH   3   4
ATOM      4  O   UNL     1       9.384   2.636   9.763  1.00  0.00    -0.394 OA
ATOM      5  H   UNL     1       9.344   3.020   8.848  1.00  0.00     0.210 HD
ENDBRANCH   3   4
ENDBRANCH   2   3
BRANCH   2   6
ATOM      6  O   UNL     1       7.783   1.024   8.786  1.00  0.00    -0.388 OA
ATOM      7  H   UNL     1       7.859   1.486   7.911  1.00  0.00     0.211 HD
ENDBRANCH   2   6
ENDBRANCH   1   2
BRANCH   1   8
ATOM      8  C   UNL     1       8.026  -2.008   9.266  1.00  0.00     0.214 C 
BRANCH   8   9
ATOM      9  C   UNL     1       8.706  -3.328   9.549  1.00  0.00     0.189 C 
ATOM     10  O   UNL     1       9.643  -3.687   8.850  1.00  0.00    -0.294 OA
BRANCH   9  11
ATOM     11  C   UNL     1       8.256  -4.218  10.677  1.00  0.00     0.234 C 
BRANCH  11  12
ATOM     12  O   UNL     1       8.939  -3.887  11.855  1.00  0.00    -0.388 OA
ATOM     13  H   UNL     1       9.571  -3.157  11.623  1.00  0.00     0.211 HD
ENDBRANCH  11  12
ENDBRANCH   9  11
ENDBRANCH   8   9
BRANCH   8  14
ATOM     14  O   UNL     1       7.972  -1.814   7.875  1.00  0.00    -0.382 OA
ATOM     15  H   UNL     1       7.015  -1.838   7.612  1.00  0.00     0.211 HD
ENDBRANCH   8  14
ENDBRANCH   1   8
BRANCH   1  16
ATOM     16  O   UNL     1      10.007  -1.295  10.493  1.00  0.00    -0.387 OA
ATOM     17  H   UNL     1       9.819  -1.696  11.381  1.00  0.00     0.211 HD
ENDBRANCH   1  16
TORSDOF 10
ENDMDL
MODEL 4
REMARK VINA RESULT:    -4.034      0.908      4.505
REMARK INTER + INTRA:          -6.833
REMARK INTER:                  -5.950
REMARK INTRA:                  -0.883
REMARK UNBOUND:                -1.031
REMARK SMILES O=C(CO)[C@H](O)[C@@H](O)[C@@H](O)CO
REMARK SMILES IDX 7 1 9 2 11 3 12 4 10 6 5 8 2 9 1 10 3 11 4 12 6 14 8 16
REMARK H PARENT 12 5 10 7 4 13 6 15 8 17
REMARK Flexibility Score: inf
ROOT
ATOM      1  C   UNL     1       8.365  -5.696  10.304  1.00  0.00     0.181 C 
ENDROOT
BRANCH   1   2
ATOM      2  C   UNL     1       7.665  -6.549  11.393  1.00  0.00     0.171 C 
BRANCH   2   3
ATOM      3  C   UNL     1       8.692  -7.357  12.203  1.00  0.00     0.190 C 
BRANCH   3   4
ATOM      4  O   UNL     1       9.658  -6.506  12.759  1.00  0.00    -0.394 OA
ATOM      5  H   UNL     1       9.455  -5.592  12.427  1.00  0.00     0.210 HD
ENDBRANCH   3   4
ENDBRANCH   2   3
BRANCH   2   6
ATOM      6  O   UNL     1       6.765  -7.449  10.793  1.00  0.00    -0.388 OA
ATOM      7  H   UNL     1       5.921  -6.954  10.627  1.00  0.00     0.211 HD
ENDBRANCH   2   6
ENDBRANCH   1   2
BRANCH   1   8
ATOM      8  C   UNL     1       8.347  -4.178  10.628  1.00  0.00     0.214 C 
BRANCH   8   9
ATOM      9  C   UNL     1       8.967  -3.387   9.499  1.00  0.00     0.189 C 
ATOM     10  O   UNL     1       9.383  -3.971   8.509  1.00  0.00    -0.294 OA
BRANCH   9  11
ATOM     11  C   UNL     1       9.087  -1.888   9.566  1.00  0.00     0.234 C 
BRANCH  11  12
ATOM     12  O   UNL     1       9.921  -1.517  10.629  1.00  0.00    -0.388 OA
ATOM     13  H   UNL     1      10.741  -2.073  10.557  1.00  0.00     0.211 HD
ENDBRANCH  11  12
ENDBRANCH   9  11
ENDBRANCH   8   9
BRANCH   8  14
ATOM     14  O   UNL     1       9.055  -3.910  11.813  1.00  0.00    -0.382 OA
ATOM     15  H   UNL     1       9.653  -4.685  11.979  1.00  0.00     0.211 HD
ENDBRANCH   8  14
ENDBRANCH   1   8
BRANCH   1  16
ATOM     16  O   UNL     1       9.682  -6.143  10.085  1.00  0.00    -0.387 OA
ATOM     17  H   UNL     1      10.171  -6.076  10.946  1.00  0.00     0.211 HD
ENDBRANCH   1  16
TORSDOF 10
ENDMDL
MODEL 5
REMARK VINA RESULT:    -4.021      1.064      4.468
REMARK INTER + INTRA:          -6.815
REMARK INTER:                  -6.246
REMARK INTRA:                  -0.568
REMARK UNBOUND:                -1.031
REMARK SMILES O=C(CO)[C@H](O)[C@@H](O)[C@@H](O)CO
REMARK SMILES IDX 7 1 9 2 11 3 12 4 10 6 5 8 2 9 1 10 3 11 4 12 6 14 8 16
REMARK H PARENT 12 5 10 7 4 13 6 15 8 17
REMARK Flexibility Score: inf
ROOT
ATOM      1  C   UNL     1       8.452  -4.525  11.341  1.00  0.00     0.181 C 
ENDROOT
BRANCH   1   2
ATOM      2  C   UNL     1       8.448  -6.042  11.020  1.00  0.00     0.171 C 
BRANCH   2   3
ATOM      3  C   UNL     1       8.586  -6.877  12.303  1.00  0.00     0.190 C 
BRANCH   3   4
ATOM      4  O   UNL     1       9.937  -7.027  12.648  1.00  0.00    -0.394 OA
ATOM      5  H   UNL     1      10.446  -6.388  12.083  1.00  0.00     0.210 HD
ENDBRANCH   3   4
ENDBRANCH   2   3
BRANCH   2   6
ATOM      6  O   UNL     1       9.523  -6.354  10.168  1.00  0.00    -0.388 OA
ATOM      7  H   UNL     1      10.306  -5.829  10.478  1.00  0.00     0.211 HD
ENDBRANCH   2   6
ENDBRANCH   1   2
BRANCH   1   8
ATOM      8  C   UNL     1       7.888  -3.665  10.180  1.00  0.00     0.214 C 
BRANCH   8   9
ATOM      9  C   UNL     1       9.013  -3.036   9.390  1.00  0.00     0.189 C 
ATOM     10  O   UNL     1       9.687  -3.729   8.642  1.00  0.00    -0.294 OA
BRANCH   9  11
ATOM     11  C   UNL     1       9.326  -1.568   9.504  1.00  0.00     0.234 C 
BRANCH  11  12
ATOM     12  O   UNL     1       9.942  -1.299  10.734  1.00  0.00    -0.388 OA
ATOM     13  H   UNL     1      10.422  -2.127  10.999  1.00  0.00     0.211 HD
ENDBRANCH  11  12
ENDBRANCH   9  11
ENDBRANCH   8   9
BRANCH   8  14
ATOM     14  O   UNL     1       7.053  -2.646  10.670  1.00  0.00    -0.382 OA
ATOM     15  H   UNL     1       6.514  -3.037  11.407  1.00  0.00     0.211 HD
ENDBRANCH   8  14
ENDBRANCH   1   8
BRANCH   1  16
ATOM     16  O   UNL     1       7.757  -4.264  12.537  1.00  0.00    -0.387 OA
ATOM     17  H   UNL     1       7.982  -4.984  13.181  1.00  0.00     0.211 HD
ENDBRANCH   1  16
TORSDOF 10
ENDMDL
MODEL 6
REMARK VINA RESULT:    -4.014      1.969      4.867
REMARK INTER + INTRA:          -6.805
REMARK INTER:                  -5.335
REMARK INTRA:                  -1.470
REMARK UNBOUND:                -1.031
REMARK SMILES O=C(CO)[C@H](O)[C@@H](O)[C@@H](O)CO
REMARK SMILES IDX 7 1 9 2 11 3 12 4 10 6 5 8 2 9 1 10 3 11 4 12 6 14 8 16
REMARK H PARENT 12 5 10 7 4 13 6 15 8 17
REMARK Flexibility Score: inf
ROOT
ATOM      1  C   UNL     1       9.105  -3.098   9.166  1.00  0.00     0.181 C 
ENDROOT
BRANCH   1   2
ATOM      2  C   UNL     1       8.564  -4.466   9.657  1.00  0.00     0.171 C 
BRANCH   2   3
ATOM      3  C   UNL     1       8.122  -4.387  11.127  1.00  0.00     0.190 C 
BRANCH   3   4
ATOM      4  O   UNL     1       7.020  -3.531  11.263  1.00  0.00    -0.394 OA
ATOM      5  H   UNL     1       6.360  -4.004  11.834  1.00  0.00     0.210 HD
ENDBRANCH   3   4
ENDBRANCH   2   3
BRANCH   2   6
ATOM      6  O   UNL     1       9.567  -5.446   9.546  1.00  0.00    -0.388 OA
ATOM      7  H   UNL     1      10.374  -5.002   9.175  1.00  0.00     0.211 HD
ENDBRANCH   2   6
ENDBRANCH   1   2
BRANCH   1   8
ATOM      8  C   UNL     1       8.153  -2.404   8.158  1.00  0.00     0.214 C 
BRANCH   8   9
ATOM      9  C   UNL     1       8.028  -0.931   8.474  1.00  0.00     0.189 C 
ATOM     10  O   UNL     1       8.963  -0.180   8.232  1.00  0.00    -0.294 OA
BRANCH   9  11
ATOM     11  C   UNL     1       6.774  -0.362   9.082  1.00  0.00     0.234 C 
BRANCH  11  12
ATOM     12  O   UNL     1       6.677  -0.740  10.428  1.00  0.00    -0.388 OA
ATOM     13  H   UNL     1       7.301  -0.158  10.934  1.00  0.00     0.211 HD
ENDBRANCH  11  12
ENDBRANCH   9  11
ENDBRANCH   8   9
BRANCH   8  14
ATOM     14  O   UNL     1       6.874  -2.986   8.194  1.00  0.00    -0.382 OA
ATOM     15  H   UNL     1       6.649  -3.257   7.266  1.00  0.00     0.211 HD
ENDBRANCH   8  14
ENDBRANCH   1   8
BRANCH   1  16
ATOM     16  O   UNL     1       9.384  -2.250  10.255  1.00  0.00    -0.387 OA
ATOM     17  H   UNL     1       8.563  -2.189  10.809  1.00  0.00     0.211 HD
ENDBRANCH   1  16
TORSDOF 10
ENDMDL
MODEL 7
REMARK VINA RESULT:    -3.968      1.948      5.265
REMARK INTER + INTRA:          -6.739
REMARK INTER:                  -6.003
REMARK INTRA:                  -0.735
REMARK UNBOUND:                -1.031
REMARK SMILES O=C(CO)[C@H](O)[C@@H](O)[C@@H](O)CO
REMARK SMILES IDX 7 1 9 2 11 3 12 4 10 6 5 8 2 9 1 10 3 11 4 12 6 14 8 16
REMARK H PARENT 12 5 10 7 4 13 6 15 8 17
REMARK Flexibility Score: inf
ROOT
ATOM      1  C   UNL     1       9.175  -2.924   9.564  1.00  0.00     0.181 C 
ENDROOT
BRANCH   1   2
ATOM      2  C   UNL     1       8.854  -4.222   8.778  1.00  0.00     0.171 C 
BRANCH   2   3
ATOM      3  C   UNL     1       8.348  -5.325   9.721  1.00  0.00     0.190 C 
BRANCH   3   4
ATOM      4  O   UNL     1       9.415  -6.119  10.166  1.00  0.00    -0.394 OA
ATOM      5  H   UNL     1       9.592  -6.783   9.449  1.00  0.00     0.210 HD
ENDBRANCH   3   4
ENDBRANCH   2   3
BRANCH   2   6
ATOM      6  O   UNL     1      10.013  -4.688   8.130  1.00  0.00    -0.388 OA
ATOM      7  H   UNL     1       9.760  -5.505   7.627  1.00  0.00     0.211 HD
ENDBRANCH   2   6
ENDBRANCH   1   2
BRANCH   1   8
ATOM      8  C   UNL     1       8.183  -1.773   9.252  1.00  0.00     0.214 C 
BRANCH   8   9
ATOM      9  C   UNL     1       8.867  -0.432   9.385  1.00  0.00     0.189 C 
ATOM     10  O   UNL     1       9.812  -0.309  10.150  1.00  0.00    -0.294 OA
BRANCH   9  11
ATOM     11  C   UNL     1       8.409   0.764   8.594  1.00  0.00     0.234 C 
BRANCH  11  12
ATOM     12  O   UNL     1       7.071   1.056   8.891  1.00  0.00    -0.388 OA
ATOM     13  H   UNL     1       6.690   0.245   9.318  1.00  0.00     0.211 HD
ENDBRANCH  11  12
ENDBRANCH   9  11
ENDBRANCH   8   9
BRANCH   8  14
ATOM     14  O   UNL     1       7.081  -1.809  10.124  1.00  0.00    -0.382 OA
ATOM     15  H   UNL     1       7.382  -1.435  10.993  1.00  0.00     0.211 HD
ENDBRANCH   8  14
ENDBRANCH   1   8
BRANCH   1  16
ATOM     16  O   UNL     1       9.225  -3.176  10.949  1.00  0.00    -0.387 OA
ATOM     17  H   UNL     1       9.865  -3.920  11.098  1.00  0.00     0.211 HD
ENDBRANCH   1  16
TORSDOF 10
ENDMDL
MODEL 8
REMARK VINA RESULT:    -3.937      1.959      3.169
REMARK INTER + INTRA:          -6.694
REMARK INTER:                  -6.216
REMARK INTRA:                  -0.478
REMARK UNBOUND:                -1.031
REMARK SMILES O=C(CO)[C@H](O)[C@@H](O)[C@@H](O)CO
REMARK SMILES IDX 7 1 9 2 11 3 12 4 10 6 5 8 2 9 1 10 3 11 4 12 6 14 8 16
REMARK H PARENT 12 5 10 7 4 13 6 15 8 17
REMARK Flexibility Score: inf
ROOT
ATOM      1  C   UNL     1       7.412  -2.689   9.695  1.00  0.00     0.181 C 
ENDROOT
BRANCH   1   2
ATOM      2  C   UNL     1       7.225  -1.193   9.331  1.00  0.00     0.171 C 
BRANCH   2   3
ATOM      3  C   UNL     1       8.561  -0.558   8.913  1.00  0.00     0.190 C 
BRANCH   3   4
ATOM      4  O   UNL     1       8.922   0.459   9.808  1.00  0.00    -0.394 OA
ATOM      5  H   UNL     1       8.297   0.395  10.577  1.00  0.00     0.210 HD
ENDBRANCH   3   4
ENDBRANCH   2   3
BRANCH   2   6
ATOM      6  O   UNL     1       6.725  -0.488  10.441  1.00  0.00    -0.388 OA
ATOM      7  H   UNL     1       6.200  -1.131  10.986  1.00  0.00     0.211 HD
ENDBRANCH   2   6
ENDBRANCH   1   2
BRANCH   1   8
ATOM      8  C   UNL     1       8.904  -3.095   9.815  1.00  0.00     0.214 C 
BRANCH   8   9
ATOM      9  C   UNL     1       9.173  -4.364   9.039  1.00  0.00     0.189 C 
ATOM     10  O   UNL     1       9.903  -4.329   8.059  1.00  0.00    -0.294 OA
BRANCH   9  11
ATOM     11  C   UNL     1       8.560  -5.677   9.445  1.00  0.00     0.234 C 
BRANCH  11  12
ATOM     12  O   UNL     1       9.277  -6.235  10.512  1.00  0.00    -0.388 OA
ATOM     13  H   UNL     1       9.556  -7.144  10.225  1.00  0.00     0.211 HD
ENDBRANCH  11  12
ENDBRANCH   9  11
ENDBRANCH   8   9
BRANCH   8  14
ATOM     14  O   UNL     1       9.261  -3.301  11.159  1.00  0.00    -0.382 OA
ATOM     15  H   UNL     1       8.427  -3.250  11.695  1.00  0.00     0.211 HD
ENDBRANCH   8  14
ENDBRANCH   1   8
BRANCH   1  16
ATOM     16  O   UNL     1       6.711  -3.009  10.874  1.00  0.00    -0.387 OA
ATOM     17  H   UNL     1       6.317  -3.911  10.756  1.00  0.00     0.211 HD
ENDBRANCH   1  16
TORSDOF 10
ENDMDL
MODEL 9
REMARK VINA RESULT:    -3.863      1.395      4.424
REMARK INTER + INTRA:          -6.587
REMARK INTER:                  -5.656
REMARK INTRA:                  -0.931
REMARK UNBOUND:                -1.031
REMARK SMILES O=C(CO)[C@H](O)[C@@H](O)[C@@H](O)CO
REMARK SMILES IDX 7 1 9 2 11 3 12 4 10 6 5 8 2 9 1 10 3 11 4 12 6 14 8 16
REMARK H PARENT 12 5 10 7 4 13 6 15 8 17
REMARK Flexibility Score: inf
ROOT
ATOM      1  C   UNL     1       8.944  -4.017   9.658  1.00  0.00     0.181 C 
ENDROOT
BRANCH   1   2
ATOM      2  C   UNL     1       7.981  -5.232   9.643  1.00  0.00     0.171 C 
BRANCH   2   3
ATOM      3  C   UNL     1       8.035  -5.993  10.977  1.00  0.00     0.190 C 
BRANCH   3   4
ATOM      4  O   UNL     1       9.310  -6.542  11.179  1.00  0.00    -0.394 OA
ATOM      5  H   UNL     1       9.179  -7.384  11.688  1.00  0.00     0.210 HD
ENDBRANCH   3   4
ENDBRANCH   2   3
BRANCH   2   6
ATOM      6  O   UNL     1       8.343  -6.117   8.611  1.00  0.00    -0.388 OA
ATOM      7  H   UNL     1       9.293  -6.367   8.756  1.00  0.00     0.211 HD
ENDBRANCH   2   6
ENDBRANCH   1   2
BRANCH   1   8
ATOM      8  C   UNL     1       8.503  -2.890   8.688  1.00  0.00     0.214 C 
BRANCH   8   9
ATOM      9  C   UNL     1       8.141  -1.639   9.456  1.00  0.00     0.189 C 
ATOM     10  O   UNL     1       7.029  -1.536   9.953  1.00  0.00    -0.294 OA
BRANCH   9  11
ATOM     11  C   UNL     1       9.122  -0.510   9.623  1.00  0.00     0.234 C 
BRANCH  11  12
ATOM     12  O   UNL     1      10.098  -0.855  10.568  1.00  0.00    -0.388 OA
ATOM     13  H   UNL     1      10.816  -0.173  10.499  1.00  0.00     0.211 HD
ENDBRANCH  11  12
ENDBRANCH   9  11
ENDBRANCH   8   9
BRANCH   8  14
ATOM     14  O   UNL     1       7.393  -3.291   7.925  1.00  0.00    -0.382 OA
ATOM     15  H   UNL     1       6.580  -2.980   8.403  1.00  0.00     0.211 HD
ENDBRANCH   8  14
ENDBRANCH   1   8
BRANCH   1  16
ATOM     16  O   UNL     1       9.100  -3.516  10.965  1.00  0.00    -0.387 OA
ATOM     17  H   UNL     1       9.691  -4.141  11.460  1.00  0.00     0.211 HD
ENDBRANCH   1  16
TORSDOF 10
ENDMDL
