MODEL 1
REMARK VINA RESULT:    -4.689      0.000      0.000
REMARK INTER + INTRA:          -5.207
REMARK INTER:                  -4.963
REMARK INTRA:                  -0.244
REMARK UNBOUND:                -0.244
REMARK SMILES CC1=C[C@H]2C(=C(C)CC[C@@H]2C(C)C)CC1
REMARK SMILES IDX 1 1 2 2 3 3 4 4 10 5 9 6 8 7 6 8 5 9 14 10 15 11 7 12 11 13
REMARK SMILES IDX 12 14 13 15
REMARK H PARENT
REMARK Flexibility Score: inf
ROOT
ATOM      1  C   UNL     1      11.197   8.253  19.326  1.00  0.00     0.039 C 
ATOM      2  C   UNL     1      11.538   6.851  18.904  1.00  0.00    -0.076 C 
ATOM      3  C   UNL     1      12.274   6.062  19.708  1.00  0.00    -0.020 C 
ATOM      4  C   UNL     1      12.652   4.664  19.255  1.00  0.00     0.041 C 
ATOM      5  C   UNL     1      13.694   4.014  20.206  1.00  0.00     0.003 C 
ATOM      6  C   UNL     1      14.294   2.770  19.526  1.00  0.00     0.009 C 
ATOM      7  C   UNL     1      15.019   3.173  18.246  1.00  0.00     0.031 C 
ATOM      8  C   UNL     1      14.155   4.004  17.323  1.00  0.00    -0.073 C 
ATOM      9  C   UNL     1      13.105   4.737  17.792  1.00  0.00    -0.064 C 
ATOM     10  C   UNL     1      12.299   5.632  16.850  1.00  0.00     0.036 C 
ATOM     11  C   UNL     1      11.114   6.317  17.555  1.00  0.00     0.035 C 
ATOM     12  C   UNL     1      14.582   4.089  15.875  1.00  0.00     0.039 C 
ENDROOT
BRANCH   5  13
ATOM     13  C   UNL     1      13.106   3.698  21.625  1.00  0.00    -0.013 C 
ATOM     14  C   UNL     1      13.744   4.585  22.706  1.00  0.00     0.007 C 
ATOM     15  C   UNL     1      13.211   2.217  22.035  1.00  0.00     0.007 C 
ENDBRANCH   5  13
TORSDOF 1
ENDMDL
MODEL 2
REMARK VINA RESULT:    -4.669      1.465      2.088
REMARK INTER + INTRA:          -5.185
REMARK INTER:                  -5.022
REMARK INTRA:                  -0.163
REMARK UNBOUND:                -0.244
REMARK SMILES CC1=C[C@H]2C(=C(C)CC[C@@H]2C(C)C)CC1
REMARK SMILES IDX 1 1 2 2 3 3 4 4 10 5 9 6 8 7 6 8 5 9 14 10 15 11 7 12 11 13
REMARK SMILES IDX 12 14 13 15
REMARK H PARENT
REMARK Flexibility Score: inf
ROOT
ATOM      1  C   UNL     1      11.100   9.423  17.008  1.00  0.00     0.039 C 
ATOM      2  C   UNL     1      11.261   7.961  17.318  1.00  0.00    -0.076 C 
ATOM      3  C   UNL     1      11.713   7.570  18.523  1.00  0.00    -0.020 C 
ATOM      4  C   UNL     1      11.915   6.094  18.813  1.00  0.00     0.041 C 
ATOM      5  C   UNL     1      12.664   5.869  20.155  1.00  0.00     0.003 C 
ATOM      6  C   UNL     1      13.145   4.409  20.228  1.00  0.00     0.009 C 
ATOM      7  C   UNL     1      14.125   4.123  19.094  1.00  0.00     0.031 C 
ATOM      8  C   UNL     1      13.574   4.507  17.737  1.00  0.00    -0.073 C 
ATOM      9  C   UNL     1      12.603   5.455  17.601  1.00  0.00    -0.064 C 
ATOM     10  C   UNL     1      12.122   5.882  16.214  1.00  0.00     0.036 C 
ATOM     11  C   UNL     1      10.975   6.905  16.274  1.00  0.00     0.035 C 
ATOM     12  C   UNL     1      14.236   3.887  16.528  1.00  0.00     0.039 C 
ENDROOT
BRANCH   5  13
ATOM     13  C   UNL     1      11.812   6.284  21.404  1.00  0.00    -0.013 C 
ATOM     14  C   UNL     1      12.250   7.651  21.952  1.00  0.00     0.007 C 
ATOM     15  C   UNL     1      11.807   5.242  22.537  1.00  0.00     0.007 C 
ENDBRANCH   5  13
TORSDOF 1
ENDMDL
MODEL 3
REMARK VINA RESULT:    -4.611      1.316      5.128
REMARK INTER + INTRA:          -5.124
REMARK INTER:                  -4.833
REMARK INTRA:                  -0.292
REMARK UNBOUND:                -0.244
REMARK SMILES CC1=C[C@H]2C(=C(C)CC[C@@H]2C(C)C)CC1
REMARK SMILES IDX 1 1 2 2 3 3 4 4 10 5 9 6 8 7 6 8 5 9 14 10 15 11 7 12 11 13
REMARK SMILES IDX 12 14 13 15
REMARK H PARENT
REMARK Flexibility Score: inf
ROOT
ATOM      1  C   UNL     1      16.634   4.649  16.379  1.00  0.00     0.039 C 
ATOM      2  C   UNL     1      15.308   4.495  17.071  1.00  0.00    -0.076 C 
ATOM      3  C   UNL     1      14.459   5.536  17.144  1.00  0.00    -0.020 C 
ATOM      4  C   UNL     1      13.141   5.385  17.882  1.00  0.00     0.041 C 
ATOM      5  C   UNL     1      12.424   6.752  18.062  1.00  0.00     0.003 C 
ATOM      6  C   UNL     1      11.296   6.600  19.098  1.00  0.00     0.009 C 
ATOM      7  C   UNL     1      11.878   6.199  20.450  1.00  0.00     0.031 C 
ATOM      8  C   UNL     1      12.779   4.985  20.359  1.00  0.00    -0.073 C 
ATOM      9  C   UNL     1      13.408   4.645  19.198  1.00  0.00    -0.064 C 
ATOM     10  C   UNL     1      14.377   3.463  19.156  1.00  0.00     0.036 C 
ATOM     11  C   UNL     1      14.924   3.197  17.742  1.00  0.00     0.035 C 
ATOM     12  C   UNL     1      13.055   4.239  21.645  1.00  0.00     0.039 C 
ENDROOT
BRANCH   5  13
ATOM     13  C   UNL     1      11.917   7.354  16.705  1.00  0.00    -0.013 C 
ATOM     14  C   UNL     1      11.266   8.730  16.911  1.00  0.00     0.007 C 
ATOM     15  C   UNL     1      10.958   6.433  15.928  1.00  0.00     0.007 C 
ENDBRANCH   5  13
TORSDOF 1
ENDMDL
MODEL 4
REMARK VINA RESULT:    -4.525      1.314      5.409
REMARK INTER + INTRA:          -5.033
REMARK INTER:                  -4.770
REMARK INTRA:                  -0.263
REMARK UNBOUND:                -0.244
REMARK SMILES CC1=C[C@H]2C(=C(C)CC[C@@H]2C(C)C)CC1
REMARK SMILES IDX 1 1 2 2 3 3 4 4 10 5 9 6 8 7 6 8 5 9 14 10 15 11 7 12 11 13
REMARK SMILES IDX 12 14 13 15
REMARK H PARENT
REMARK Flexibility Score: inf
ROOT
ATOM      1  C   UNL     1      15.300   2.587  20.213  1.00  0.00     0.039 C 
ATOM      2  C   UNL     1      14.031   3.387  20.311  1.00  0.00    -0.076 C 
ATOM      3  C   UNL     1      13.708   4.265  19.344  1.00  0.00    -0.020 C 
ATOM      4  C   UNL     1      12.448   5.101  19.472  1.00  0.00     0.041 C 
ATOM      5  C   UNL     1      12.383   6.212  18.388  1.00  0.00     0.003 C 
ATOM      6  C   UNL     1      11.292   7.229  18.769  1.00  0.00     0.009 C 
ATOM      7  C   UNL     1      11.637   7.893  20.098  1.00  0.00     0.031 C 
ATOM      8  C   UNL     1      11.932   6.890  21.192  1.00  0.00    -0.073 C 
ATOM      9  C   UNL     1      12.363   5.628  20.909  1.00  0.00    -0.064 C 
ATOM     10  C   UNL     1      12.732   4.661  22.035  1.00  0.00     0.036 C 
ATOM     11  C   UNL     1      13.122   3.267  21.513  1.00  0.00     0.035 C 
ATOM     12  C   UNL     1      11.852   7.387  22.618  1.00  0.00     0.039 C 
ENDROOT
BRANCH   5  13
ATOM     13  C   UNL     1      12.192   5.639  16.941  1.00  0.00    -0.013 C 
ATOM     14  C   UNL     1      13.382   5.995  16.035  1.00  0.00     0.007 C 
ATOM     15  C   UNL     1      10.875   6.062  16.266  1.00  0.00     0.007 C 
ENDBRANCH   5  13
TORSDOF 1
ENDMDL
MODEL 5
REMARK VINA RESULT:    -4.509      1.782      5.904
REMARK INTER + INTRA:          -5.016
REMARK INTER:                  -4.748
REMARK INTRA:                  -0.269
REMARK UNBOUND:                -0.244
REMARK SMILES CC1=C[C@H]2C(=C(C)CC[C@@H]2C(C)C)CC1
REMARK SMILES IDX 1 1 2 2 3 3 4 4 10 5 9 6 8 7 6 8 5 9 14 10 15 11 7 12 11 13
REMARK SMILES IDX 12 14 13 15
REMARK H PARENT
REMARK Flexibility Score: inf
ROOT
ATOM      1  C   UNL     1      15.163   0.352  22.221  1.00  0.00     0.039 C 
ATOM      2  C   UNL     1      13.980   1.275  22.136  1.00  0.00    -0.076 C 
ATOM      3  C   UNL     1      14.004   2.331  21.302  1.00  0.00    -0.020 C 
ATOM      4  C   UNL     1      12.824   3.284  21.255  1.00  0.00     0.041 C 
ATOM      5  C   UNL     1      13.145   4.555  20.421  1.00  0.00     0.003 C 
ATOM      6  C   UNL     1      12.070   5.623  20.692  1.00  0.00     0.009 C 
ATOM      7  C   UNL     1      12.082   6.016  22.165  1.00  0.00     0.031 C 
ATOM      8  C   UNL     1      11.987   4.821  23.089  1.00  0.00    -0.073 C 
ATOM      9  C   UNL     1      12.384   3.577  22.694  1.00  0.00    -0.064 C 
ATOM     10  C   UNL     1      12.353   2.404  23.673  1.00  0.00     0.036 C 
ATOM     11  C   UNL     1      12.768   1.075  23.017  1.00  0.00     0.035 C 
ATOM     12  C   UNL     1      11.553   5.087  24.512  1.00  0.00     0.039 C 
ENDROOT
BRANCH   5  13
ATOM     13  C   UNL     1      13.319   4.251  18.893  1.00  0.00    -0.013 C 
ATOM     14  C   UNL     1      14.416   5.128  18.268  1.00  0.00     0.007 C 
ATOM     15  C   UNL     1      12.021   4.374  18.075  1.00  0.00     0.007 C 
ENDBRANCH   5  13
TORSDOF 1
ENDMDL
MODEL 6
REMARK VINA RESULT:    -4.504     12.557     14.738
REMARK INTER + INTRA:          -5.011
REMARK INTER:                  -4.723
REMARK INTRA:                  -0.288
REMARK UNBOUND:                -0.244
REMARK SMILES CC1=C[C@H]2C(=C(C)CC[C@@H]2C(C)C)CC1
REMARK SMILES IDX 1 1 2 2 3 3 4 4 10 5 9 6 8 7 6 8 5 9 14 10 15 11 7 12 11 13
REMARK SMILES IDX 12 14 13 15
REMARK H PARENT
REMARK Flexibility Score: inf
ROOT
ATOM      1  C   UNL     1      15.170   0.778  33.105  1.00  0.00     0.039 C 
ATOM      2  C   UNL     1      14.839   2.178  32.669  1.00  0.00    -0.076 C 
ATOM      3  C   UNL     1      14.993   3.206  33.522  1.00  0.00    -0.020 C 
ATOM      4  C   UNL     1      14.615   4.611  33.089  1.00  0.00     0.041 C 
ATOM      5  C   UNL     1      14.635   5.606  34.282  1.00  0.00     0.003 C 
ATOM      6  C   UNL     1      13.920   6.905  33.871  1.00  0.00     0.009 C 
ATOM      7  C   UNL     1      12.461   6.614  33.532  1.00  0.00     0.031 C 
ATOM      8  C   UNL     1      12.309   5.498  32.521  1.00  0.00    -0.073 C 
ATOM      9  C   UNL     1      13.269   4.543  32.358  1.00  0.00    -0.064 C 
ATOM     10  C   UNL     1      13.053   3.381  31.388  1.00  0.00     0.036 C 
ATOM     11  C   UNL     1      14.278   2.455  31.293  1.00  0.00     0.035 C 
ATOM     12  C   UNL     1      10.990   5.414  31.787  1.00  0.00     0.039 C 
ENDROOT
BRANCH   5  13
ATOM     13  C   UNL     1      16.081   5.863  34.832  1.00  0.00    -0.013 C 
ATOM     14  C   UNL     1      16.050   6.717  36.110  1.00  0.00     0.007 C 
ATOM     15  C   UNL     1      17.042   6.492  33.807  1.00  0.00     0.007 C 
ENDBRANCH   5  13
TORSDOF 1
ENDMDL
MODEL 7
REMARK VINA RESULT:    -4.406     11.498     14.348
REMARK INTER + INTRA:          -4.907
REMARK INTER:                  -4.631
REMARK INTRA:                  -0.277
REMARK UNBOUND:                -0.244
REMARK SMILES CC1=C[C@H]2C(=C(C)CC[C@@H]2C(C)C)CC1
REMARK SMILES IDX 1 1 2 2 3 3 4 4 10 5 9 6 8 7 6 8 5 9 14 10 15 11 7 12 11 13
REMARK SMILES IDX 12 14 13 15
REMARK H PARENT
REMARK Flexibility Score: inf
ROOT
ATOM      1  C   UNL     1      15.254   0.260  30.430  1.00  0.00     0.039 C 
ATOM      2  C   UNL     1      14.816   1.156  31.555  1.00  0.00    -0.076 C 
ATOM      3  C   UNL     1      14.293   2.367  31.291  1.00  0.00    -0.020 C 
ATOM      4  C   UNL     1      13.894   3.284  32.433  1.00  0.00     0.041 C 
ATOM      5  C   UNL     1      13.545   4.711  31.928  1.00  0.00     0.003 C 
ATOM      6  C   UNL     1      13.492   5.674  33.128  1.00  0.00     0.009 C 
ATOM      7  C   UNL     1      14.858   5.741  33.806  1.00  0.00     0.031 C 
ATOM      8  C   UNL     1      15.402   4.372  34.156  1.00  0.00    -0.073 C 
ATOM      9  C   UNL     1      15.007   3.252  33.487  1.00  0.00    -0.064 C 
ATOM     10  C   UNL     1      15.633   1.894  33.807  1.00  0.00     0.036 C 
ATOM     11  C   UNL     1      15.002   0.747  32.998  1.00  0.00     0.035 C 
ATOM     12  C   UNL     1      16.498   4.316  35.195  1.00  0.00     0.039 C 
ENDROOT
BRANCH   5  13
ATOM     13  C   UNL     1      12.233   4.748  31.071  1.00  0.00    -0.013 C 
ATOM     14  C   UNL     1      12.155   6.025  30.219  1.00  0.00     0.007 C 
ATOM     15  C   UNL     1      10.940   4.587  31.891  1.00  0.00     0.007 C 
ENDBRANCH   5  13
TORSDOF 1
ENDMDL
MODEL 8
REMARK VINA RESULT:    -4.345      2.119      5.074
REMARK INTER + INTRA:          -4.843
REMARK INTER:                  -4.655
REMARK INTRA:                  -0.188
REMARK UNBOUND:                -0.244
REMARK SMILES CC1=C[C@H]2C(=C(C)CC[C@@H]2C(C)C)CC1
REMARK SMILES IDX 1 1 2 2 3 3 4 4 10 5 9 6 8 7 6 8 5 9 14 10 15 11 7 12 11 13
REMARK SMILES IDX 12 14 13 15
REMARK H PARENT
REMARK Flexibility Score: inf
ROOT
ATOM      1  C   UNL     1      17.958   7.083  16.612  1.00  0.00     0.039 C 
ATOM      2  C   UNL     1      16.899   6.023  16.733  1.00  0.00    -0.076 C 
ATOM      3  C   UNL     1      15.605   6.371  16.863  1.00  0.00    -0.020 C 
ATOM      4  C   UNL     1      14.547   5.296  17.030  1.00  0.00     0.041 C 
ATOM      5  C   UNL     1      13.167   5.902  17.405  1.00  0.00     0.003 C 
ATOM      6  C   UNL     1      12.237   4.779  17.897  1.00  0.00     0.009 C 
ATOM      7  C   UNL     1      12.817   4.131  19.150  1.00  0.00     0.031 C 
ATOM      8  C   UNL     1      14.252   3.685  18.965  1.00  0.00    -0.073 C 
ATOM      9  C   UNL     1      15.065   4.260  18.034  1.00  0.00    -0.064 C 
ATOM     10  C   UNL     1      16.534   3.848  17.923  1.00  0.00     0.036 C 
ATOM     11  C   UNL     1      17.261   4.556  16.767  1.00  0.00     0.035 C 
ATOM     12  C   UNL     1      14.784   2.663  19.943  1.00  0.00     0.039 C 
ENDROOT
BRANCH   5  13
ATOM     13  C   UNL     1      12.534   6.739  16.240  1.00  0.00    -0.013 C 
ATOM     14  C   UNL     1      12.657   8.249  16.502  1.00  0.00     0.007 C 
ATOM     15  C   UNL     1      11.069   6.380  15.930  1.00  0.00     0.007 C 
ENDBRANCH   5  13
TORSDOF 1
ENDMDL
MODEL 9
REMARK VINA RESULT:    -3.289      1.647      4.392
REMARK INTER + INTRA:          -3.725
REMARK INTER:                  -3.435
REMARK INTRA:                  -0.291
REMARK UNBOUND:                -0.244
REMARK SMILES CC1=C[C@H]2C(=C(C)CC[C@@H]2C(C)C)CC1
REMARK SMILES IDX 1 1 2 2 3 3 4 4 10 5 9 6 8 7 6 8 5 9 14 10 15 11 7 12 11 13
REMARK SMILES IDX 12 14 13 15
REMARK H PARENT
REMARK Flexibility Score: inf
ROOT
ATOM      1  C   UNL     1      13.546   1.011  22.250  1.00  0.00     0.039 C 
ATOM      2  C   UNL     1      13.705   2.369  21.625  1.00  0.00    -0.076 C 
ATOM      3  C   UNL     1      12.919   3.389  22.016  1.00  0.00    -0.020 C 
ATOM      4  C   UNL     1      13.056   4.746  21.349  1.00  0.00     0.041 C 
ATOM      5  C   UNL     1      11.908   5.707  21.764  1.00  0.00     0.003 C 
ATOM      6  C   UNL     1      11.893   6.918  20.814  1.00  0.00     0.009 C 
ATOM      7  C   UNL     1      11.622   6.458  19.385  1.00  0.00     0.031 C 
ATOM      8  C   UNL     1      12.559   5.356  18.939  1.00  0.00    -0.073 C 
ATOM      9  C   UNL     1      13.170   4.530  19.836  1.00  0.00    -0.064 C 
ATOM     10  C   UNL     1      14.047   3.373  19.355  1.00  0.00     0.036 C 
ATOM     11  C   UNL     1      14.704   2.607  20.517  1.00  0.00     0.035 C 
ATOM     12  C   UNL     1      12.689   5.127  17.451  1.00  0.00     0.039 C 
ENDROOT
BRANCH   5  13
ATOM     13  C   UNL     1      11.984   6.128  23.273  1.00  0.00    -0.013 C 
ATOM     14  C   UNL     1      10.875   7.130  23.632  1.00  0.00     0.007 C 
ATOM     15  C   UNL     1      13.353   6.688  23.701  1.00  0.00     0.007 C 
ENDBRANCH   5  13
TORSDOF 1
ENDMDL
