MODEL 1
REMARK VINA RESULT:    -4.021      0.000      0.000
REMARK INTER + INTRA:         -10.434
REMARK INTER:                  -7.782
REMARK INTRA:                  -2.652
REMARK UNBOUND:                -2.652
REMARK SMILES CCCCCCCCCCCCCCCCCC(=O)[O-]
REMARK SMILES IDX 10 1 11 2 12 3 13 4 14 5 15 6 16 7 17 8 18 9 19 10 20 11
REMARK SMILES IDX 9 12 8 13 7 14 6 15 5 16 4 17 3 18 2 19 1 20
REMARK H PARENT
REMARK Flexibility Score: inf
ROOT
ATOM      1  C   UNL     1      14.743 -19.846  24.125  1.00  0.00     0.000 C 
ENDROOT
BRANCH   1   2
ATOM      2  C   UNL     1      13.253 -20.156  23.932  1.00  0.00     0.000 C 
BRANCH   2   3
ATOM      3  C   UNL     1      12.746 -19.606  22.590  1.00  0.00     0.000 C 
BRANCH   3   4
ATOM      4  C   UNL     1      11.688 -20.512  21.941  1.00  0.00     0.000 C 
BRANCH   4   5
ATOM      5  C   UNL     1      10.435 -19.737  21.504  1.00  0.00     0.000 C 
BRANCH   5   6
ATOM      6  C   UNL     1      10.264 -18.405  22.256  1.00  0.00     0.000 C 
BRANCH   6   7
ATOM      7  C   UNL     1       9.875 -17.226  21.340  1.00  0.00     0.006 C 
BRANCH   7   8
ATOM      8  C   UNL     1      10.895 -16.081  21.398  1.00  0.00     0.053 C 
BRANCH   8   9
ATOM      9  C   UNL     1      11.974 -16.289  20.383  1.00  0.00     0.041 C 
ATOM     10  O   UNL     1      13.073 -15.681  20.493  1.00  0.00    -0.550 OA
ATOM     11  O   UNL     1      11.792 -17.198  19.350  1.00  0.00    -0.550 OA
ENDBRANCH   8   9
ENDBRANCH   7   8
ENDBRANCH   6   7
ENDBRANCH   5   6
ENDBRANCH   4   5
ENDBRANCH   3   4
ENDBRANCH   2   3
ENDBRANCH   1   2
BRANCH   1  12
ATOM     12  C   UNL     1      15.539 -21.126  24.418  1.00  0.00     0.000 C 
BRANCH  12  13
ATOM     13  C   UNL     1      16.686 -21.362  23.419  1.00  0.00    -0.000 C 
BRANCH  13  14
ATOM     14  C   UNL     1      16.254 -21.442  21.944  1.00  0.00    -0.000 C 
BRANCH  14  15
ATOM     15  C   UNL     1      15.190 -22.524  21.690  1.00  0.00    -0.000 C 
BRANCH  15  16
ATOM     16  C   UNL     1      14.373 -22.267  20.411  1.00  0.00    -0.000 C 
BRANCH  16  17
ATOM     17  C   UNL     1      14.976 -21.216  19.457  1.00  0.00    -0.000 C 
BRANCH  17  18
ATOM     18  C   UNL     1      14.120 -19.951  19.249  1.00  0.00    -0.000 C 
BRANCH  18  19
ATOM     19  C   UNL     1      14.918 -18.639  19.154  1.00  0.00    -0.003 C 
ATOM     20  C   UNL     1      15.548 -18.229  20.485  1.00  0.00     0.004 C 
ENDBRANCH  18  19
ENDBRANCH  17  18
ENDBRANCH  16  17
ENDBRANCH  15  16
ENDBRANCH  14  15
ENDBRANCH  13  14
ENDBRANCH  12  13
ENDBRANCH   1  12
TORSDOF 16
ENDMDL
MODEL 2
REMARK VINA RESULT:    -3.998      1.740      2.872
REMARK INTER + INTRA:         -10.389
REMARK INTER:                  -7.929
REMARK INTRA:                  -2.460
REMARK UNBOUND:                -2.652
REMARK SMILES CCCCCCCCCCCCCCCCCC(=O)[O-]
REMARK SMILES IDX 10 1 11 2 12 3 13 4 14 5 15 6 16 7 17 8 18 9 19 10 20 11
REMARK SMILES IDX 9 12 8 13 7 14 6 15 5 16 4 17 3 18 2 19 1 20
REMARK H PARENT
REMARK Flexibility Score: inf
ROOT
ATOM      1  C   UNL     1      14.104 -20.117  24.072  1.00  0.00     0.000 C 
ENDROOT
BRANCH   1   2
ATOM      2  C   UNL     1      12.809 -20.421  23.309  1.00  0.00     0.000 C 
BRANCH   2   3
ATOM      3  C   UNL     1      12.326 -19.187  22.533  1.00  0.00     0.000 C 
BRANCH   3   4
ATOM      4  C   UNL     1      11.448 -19.554  21.326  1.00  0.00     0.000 C 
BRANCH   4   5
ATOM      5  C   UNL     1      11.712 -18.655  20.108  1.00  0.00     0.000 C 
BRANCH   5   6
ATOM      6  C   UNL     1      12.542 -17.407  20.456  1.00  0.00     0.000 C 
BRANCH   6   7
ATOM      7  C   UNL     1      13.954 -17.411  19.834  1.00  0.00     0.006 C 
BRANCH   7   8
ATOM      8  C   UNL     1      15.015 -16.857  20.794  1.00  0.00     0.053 C 
BRANCH   8   9
ATOM      9  C   UNL     1      15.168 -15.380  20.611  1.00  0.00     0.041 C 
ATOM     10  O   UNL     1      15.070 -14.606  21.600  1.00  0.00    -0.550 OA
ATOM     11  O   UNL     1      15.477 -14.863  19.361  1.00  0.00    -0.550 OA
ENDBRANCH   8   9
ENDBRANCH   7   8
ENDBRANCH   6   7
ENDBRANCH   5   6
ENDBRANCH   4   5
ENDBRANCH   3   4
ENDBRANCH   2   3
ENDBRANCH   1   2
BRANCH   1  12
ATOM     12  C   UNL     1      14.971 -21.377  24.214  1.00  0.00     0.000 C 
BRANCH  12  13
ATOM     13  C   UNL     1      16.441 -21.062  24.542  1.00  0.00    -0.000 C 
BRANCH  13  14
ATOM     14  C   UNL     1      17.384 -21.033  23.327  1.00  0.00    -0.000 C 
BRANCH  14  15
ATOM     15  C   UNL     1      16.704 -21.507  22.031  1.00  0.00    -0.000 C 
BRANCH  15  16
ATOM     16  C   UNL     1      16.253 -20.341  21.134  1.00  0.00    -0.000 C 
BRANCH  16  17
ATOM     17  C   UNL     1      15.473 -20.759  19.871  1.00  0.00    -0.000 C 
BRANCH  17  18
ATOM     18  C   UNL     1      14.157 -21.518  20.133  1.00  0.00    -0.000 C 
BRANCH  18  19
ATOM     19  C   UNL     1      14.302 -23.046  20.233  1.00  0.00    -0.003 C 
ATOM     20  C   UNL     1      13.746 -23.613  21.539  1.00  0.00     0.004 C 
ENDBRANCH  18  19
ENDBRANCH  17  18
ENDBRANCH  16  17
ENDBRANCH  15  16
ENDBRANCH  14  15
ENDBRANCH  13  14
ENDBRANCH  12  13
ENDBRANCH   1  12
TORSDOF 16
ENDMDL
MODEL 3
REMARK VINA RESULT:    -3.698      2.770      5.490
REMARK INTER + INTRA:          -9.810
REMARK INTER:                  -7.287
REMARK INTRA:                  -2.522
REMARK UNBOUND:                -2.652
REMARK SMILES CCCCCCCCCCCCCCCCCC(=O)[O-]
REMARK SMILES IDX 10 1 11 2 12 3 13 4 14 5 15 6 16 7 17 8 18 9 19 10 20 11
REMARK SMILES IDX 9 12 8 13 7 14 6 15 5 16 4 17 3 18 2 19 1 20
REMARK H PARENT
REMARK Flexibility Score: inf
ROOT
ATOM      1  C   UNL     1      16.104 -20.364  20.079  1.00  0.00     0.000 C 
ENDROOT
BRANCH   1   2
ATOM      2  C   UNL     1      15.274 -20.908  18.909  1.00  0.00     0.000 C 
BRANCH   2   3
ATOM      3  C   UNL     1      14.247 -21.941  19.397  1.00  0.00     0.000 C 
BRANCH   3   4
ATOM      4  C   UNL     1      14.586 -22.501  20.787  1.00  0.00     0.000 C 
BRANCH   4   5
ATOM      5  C   UNL     1      13.427 -22.348  21.785  1.00  0.00     0.000 C 
BRANCH   5   6
ATOM      6  C   UNL     1      13.024 -20.881  22.011  1.00  0.00     0.000 C 
BRANCH   6   7
ATOM      7  C   UNL     1      13.959 -20.126  22.979  1.00  0.00     0.006 C 
BRANCH   7   8
ATOM      8  C   UNL     1      14.187 -20.894  24.287  1.00  0.00     0.053 C 
BRANCH   8   9
ATOM      9  C   UNL     1      15.636 -21.227  24.454  1.00  0.00     0.041 C 
ATOM     10  O   UNL     1      16.425 -21.133  23.475  1.00  0.00    -0.550 OA
ATOM     11  O   UNL     1      16.129 -21.584  25.702  1.00  0.00    -0.550 OA
ENDBRANCH   8   9
ENDBRANCH   7   8
ENDBRANCH   6   7
ENDBRANCH   5   6
ENDBRANCH   4   5
ENDBRANCH   3   4
ENDBRANCH   2   3
ENDBRANCH   1   2
BRANCH   1  12
ATOM     12  C   UNL     1      16.668 -18.973  19.755  1.00  0.00     0.000 C 
BRANCH  12  13
ATOM     13  C   UNL     1      15.720 -18.127  18.887  1.00  0.00    -0.000 C 
BRANCH  13  14
ATOM     14  C   UNL     1      14.985 -17.002  19.637  1.00  0.00    -0.000 C 
BRANCH  14  15
ATOM     15  C   UNL     1      13.793 -17.515  20.464  1.00  0.00    -0.000 C 
BRANCH  15  16
ATOM     16  C   UNL     1      12.697 -18.156  19.594  1.00  0.00    -0.000 C 
BRANCH  16  17
ATOM     17  C   UNL     1      11.367 -17.376  19.548  1.00  0.00    -0.000 C 
BRANCH  17  18
ATOM     18  C   UNL     1      10.108 -18.207  19.867  1.00  0.00    -0.000 C 
BRANCH  18  19
ATOM     19  C   UNL     1      10.138 -18.930  21.224  1.00  0.00    -0.003 C 
ATOM     20  C   UNL     1      10.343 -17.977  22.401  1.00  0.00     0.004 C 
ENDBRANCH  18  19
ENDBRANCH  17  18
ENDBRANCH  16  17
ENDBRANCH  15  16
ENDBRANCH  14  15
ENDBRANCH  13  14
ENDBRANCH  12  13
ENDBRANCH   1  12
TORSDOF 16
ENDMDL
MODEL 4
REMARK VINA RESULT:    -3.650      2.367      6.043
REMARK INTER + INTRA:          -9.717
REMARK INTER:                  -7.270
REMARK INTRA:                  -2.446
REMARK UNBOUND:                -2.652
REMARK SMILES CCCCCCCCCCCCCCCCCC(=O)[O-]
REMARK SMILES IDX 10 1 11 2 12 3 13 4 14 5 15 6 16 7 17 8 18 9 19 10 20 11
REMARK SMILES IDX 9 12 8 13 7 14 6 15 5 16 4 17 3 18 2 19 1 20
REMARK H PARENT
REMARK Flexibility Score: inf
ROOT
ATOM      1  C   UNL     1      15.546 -17.308  20.513  1.00  0.00     0.000 C 
ENDROOT
BRANCH   1   2
ATOM      2  C   UNL     1      14.732 -18.580  20.780  1.00  0.00     0.000 C 
BRANCH   2   3
ATOM      3  C   UNL     1      14.464 -19.345  19.476  1.00  0.00     0.000 C 
BRANCH   3   4
ATOM      4  C   UNL     1      15.234 -20.673  19.400  1.00  0.00     0.000 C 
BRANCH   4   5
ATOM      5  C   UNL     1      14.302 -21.891  19.295  1.00  0.00     0.000 C 
BRANCH   5   6
ATOM      6  C   UNL     1      14.270 -22.731  20.583  1.00  0.00     0.000 C 
BRANCH   6   7
ATOM      7  C   UNL     1      15.207 -22.201  21.689  1.00  0.00     0.006 C 
BRANCH   7   8
ATOM      8  C   UNL     1      14.443 -21.792  22.955  1.00  0.00     0.053 C 
BRANCH   8   9
ATOM      9  C   UNL     1      15.286 -20.900  23.810  1.00  0.00     0.041 C 
ATOM     10  O   UNL     1      16.517 -21.131  23.946  1.00  0.00    -0.550 OA
ATOM     11  O   UNL     1      14.727 -19.779  24.410  1.00  0.00    -0.550 OA
ENDBRANCH   8   9
ENDBRANCH   7   8
ENDBRANCH   6   7
ENDBRANCH   5   6
ENDBRANCH   4   5
ENDBRANCH   3   4
ENDBRANCH   2   3
ENDBRANCH   1   2
BRANCH   1  12
ATOM     12  C   UNL     1      14.913 -16.474  19.388  1.00  0.00     0.000 C 
BRANCH  12  13
ATOM     13  C   UNL     1      13.947 -15.396  19.911  1.00  0.00    -0.000 C 
BRANCH  13  14
ATOM     14  C   UNL     1      12.560 -15.391  19.245  1.00  0.00    -0.000 C 
BRANCH  14  15
ATOM     15  C   UNL     1      11.780 -16.696  19.480  1.00  0.00    -0.000 C 
BRANCH  15  16
ATOM     16  C   UNL     1      11.410 -16.910  20.958  1.00  0.00    -0.000 C 
BRANCH  16  17
ATOM     17  C   UNL     1      10.152 -17.770  21.194  1.00  0.00    -0.000 C 
BRANCH  17  18
ATOM     18  C   UNL     1      10.354 -18.992  22.111  1.00  0.00    -0.000 C 
BRANCH  18  19
ATOM     19  C   UNL     1      11.447 -19.972  21.650  1.00  0.00    -0.003 C 
ATOM     20  C   UNL     1      11.012 -21.434  21.740  1.00  0.00     0.004 C 
ENDBRANCH  18  19
ENDBRANCH  17  18
ENDBRANCH  16  17
ENDBRANCH  15  16
ENDBRANCH  14  15
ENDBRANCH  13  14
ENDBRANCH  12  13
ENDBRANCH   1  12
TORSDOF 16
ENDMDL
MODEL 5
REMARK VINA RESULT:    -3.527      2.169      5.391
REMARK INTER + INTRA:          -9.477
REMARK INTER:                  -7.111
REMARK INTRA:                  -2.367
REMARK UNBOUND:                -2.652
REMARK SMILES CCCCCCCCCCCCCCCCCC(=O)[O-]
REMARK SMILES IDX 10 1 11 2 12 3 13 4 14 5 15 6 16 7 17 8 18 9 19 10 20 11
REMARK SMILES IDX 9 12 8 13 7 14 6 15 5 16 4 17 3 18 2 19 1 20
REMARK H PARENT
REMARK Flexibility Score: inf
ROOT
ATOM      1  C   UNL     1      15.740 -19.879  20.458  1.00  0.00     0.000 C 
ENDROOT
BRANCH   1   2
ATOM      2  C   UNL     1      16.930 -20.276  21.340  1.00  0.00     0.000 C 
BRANCH   2   3
ATOM      3  C   UNL     1      16.586 -21.492  22.212  1.00  0.00     0.000 C 
BRANCH   3   4
ATOM      4  C   UNL     1      16.742 -21.206  23.714  1.00  0.00     0.000 C 
BRANCH   4   5
ATOM      5  C   UNL     1      15.400 -21.225  24.462  1.00  0.00     0.000 C 
BRANCH   5   6
ATOM      6  C   UNL     1      14.595 -19.927  24.277  1.00  0.00     0.000 C 
BRANCH   6   7
ATOM      7  C   UNL     1      13.335 -20.102  23.402  1.00  0.00     0.006 C 
BRANCH   7   8
ATOM      8  C   UNL     1      13.115 -21.561  22.982  1.00  0.00     0.053 C 
BRANCH   8   9
ATOM      9  C   UNL     1      12.329 -21.628  21.711  1.00  0.00     0.041 C 
ATOM     10  O   UNL     1      12.914 -21.826  20.613  1.00  0.00    -0.550 OA
ATOM     11  O   UNL     1      10.944 -21.531  21.744  1.00  0.00    -0.550 OA
ENDBRANCH   8   9
ENDBRANCH   7   8
ENDBRANCH   6   7
ENDBRANCH   5   6
ENDBRANCH   4   5
ENDBRANCH   3   4
ENDBRANCH   2   3
ENDBRANCH   1   2
BRANCH   1  12
ATOM     12  C   UNL     1      15.511 -18.360  20.491  1.00  0.00     0.000 C 
BRANCH  12  13
ATOM     13  C   UNL     1      14.030 -17.979  20.662  1.00  0.00    -0.000 C 
BRANCH  13  14
ATOM     14  C   UNL     1      13.088 -18.536  19.580  1.00  0.00    -0.000 C 
BRANCH  14  15
ATOM     15  C   UNL     1      11.606 -18.467  19.984  1.00  0.00    -0.000 C 
BRANCH  15  16
ATOM     16  C   UNL     1      11.398 -17.857  21.382  1.00  0.00    -0.000 C 
BRANCH  16  17
ATOM     17  C   UNL     1      10.079 -17.077  21.559  1.00  0.00    -0.000 C 
BRANCH  17  18
ATOM     18  C   UNL     1      10.172 -15.562  21.291  1.00  0.00    -0.000 C 
BRANCH  18  19
ATOM     19  C   UNL     1      11.604 -15.019  21.142  1.00  0.00    -0.003 C 
ATOM     20  C   UNL     1      11.867 -13.788  22.008  1.00  0.00     0.004 C 
ENDBRANCH  18  19
ENDBRANCH  17  18
ENDBRANCH  16  17
ENDBRANCH  15  16
ENDBRANCH  14  15
ENDBRANCH  13  14
ENDBRANCH  12  13
ENDBRANCH   1  12
TORSDOF 16
ENDMDL
MODEL 6
REMARK VINA RESULT:    -3.492      1.878      3.816
REMARK INTER + INTRA:          -9.411
REMARK INTER:                  -6.959
REMARK INTRA:                  -2.452
REMARK UNBOUND:                -2.652
REMARK SMILES CCCCCCCCCCCCCCCCCC(=O)[O-]
REMARK SMILES IDX 10 1 11 2 12 3 13 4 14 5 15 6 16 7 17 8 18 9 19 10 20 11
REMARK SMILES IDX 9 12 8 13 7 14 6 15 5 16 4 17 3 18 2 19 1 20
REMARK H PARENT
REMARK Flexibility Score: inf
ROOT
ATOM      1  C   UNL     1      15.001 -18.861  20.334  1.00  0.00     0.000 C 
ENDROOT
BRANCH   1   2
ATOM      2  C   UNL     1      14.368 -18.260  19.073  1.00  0.00     0.000 C 
BRANCH   2   3
ATOM      3  C   UNL     1      12.835 -18.256  19.176  1.00  0.00     0.000 C 
BRANCH   3   4
ATOM      4  C   UNL     1      12.338 -18.507  20.608  1.00  0.00     0.000 C 
BRANCH   4   5
ATOM      5  C   UNL     1      11.358 -17.427  21.091  1.00  0.00     0.000 C 
BRANCH   5   6
ATOM      6  C   UNL     1      11.289 -16.217  20.143  1.00  0.00     0.000 C 
BRANCH   6   7
ATOM      7  C   UNL     1      11.849 -14.917  20.760  1.00  0.00     0.006 C 
BRANCH   7   8
ATOM      8  C   UNL     1      13.382 -14.911  20.815  1.00  0.00     0.053 C 
BRANCH   8   9
ATOM      9  C   UNL     1      13.881 -13.629  21.402  1.00  0.00     0.041 C 
ATOM     10  O   UNL     1      13.067 -12.731  21.745  1.00  0.00    -0.550 OA
ATOM     11  O   UNL     1      15.239 -13.449  21.627  1.00  0.00    -0.550 OA
ENDBRANCH   8   9
ENDBRANCH   7   8
ENDBRANCH   6   7
ENDBRANCH   5   6
ENDBRANCH   4   5
ENDBRANCH   3   4
ENDBRANCH   2   3
ENDBRANCH   1   2
BRANCH   1  12
ATOM     12  C   UNL     1      15.847 -20.096  19.993  1.00  0.00     0.000 C 
BRANCH  12  13
ATOM     13  C   UNL     1      15.078 -21.140  19.163  1.00  0.00    -0.000 C 
BRANCH  13  14
ATOM     14  C   UNL     1      13.879 -21.783  19.881  1.00  0.00    -0.000 C 
BRANCH  14  15
ATOM     15  C   UNL     1      14.285 -22.959  20.786  1.00  0.00    -0.000 C 
BRANCH  15  16
ATOM     16  C   UNL     1      13.869 -22.752  22.253  1.00  0.00    -0.000 C 
BRANCH  16  17
ATOM     17  C   UNL     1      13.436 -21.315  22.607  1.00  0.00    -0.000 C 
BRANCH  17  18
ATOM     18  C   UNL     1      14.383 -20.561  23.562  1.00  0.00    -0.000 C 
BRANCH  18  19
ATOM     19  C   UNL     1      15.530 -21.409  24.138  1.00  0.00    -0.003 C 
ATOM     20  C   UNL     1      16.854 -21.194  23.404  1.00  0.00     0.004 C 
ENDBRANCH  18  19
ENDBRANCH  17  18
ENDBRANCH  16  17
ENDBRANCH  15  16
ENDBRANCH  14  15
ENDBRANCH  13  14
ENDBRANCH  12  13
ENDBRANCH   1  12
TORSDOF 16
ENDMDL
MODEL 7
REMARK VINA RESULT:    -3.460     14.175     16.264
REMARK INTER + INTRA:          -9.348
REMARK INTER:                  -6.307
REMARK INTRA:                  -3.041
REMARK UNBOUND:                -2.652
REMARK SMILES CCCCCCCCCCCCCCCCCC(=O)[O-]
REMARK SMILES IDX 10 1 11 2 12 3 13 4 14 5 15 6 16 7 17 8 18 9 19 10 20 11
REMARK SMILES IDX 9 12 8 13 7 14 6 15 5 16 4 17 3 18 2 19 1 20
REMARK H PARENT
REMARK Flexibility Score: inf
ROOT
ATOM      1  C   UNL     1      20.760  -5.766  30.039  1.00  0.00     0.000 C 
ENDROOT
BRANCH   1   2
ATOM      2  C   UNL     1      20.201  -5.698  28.612  1.00  0.00     0.000 C 
BRANCH   2   3
ATOM      3  C   UNL     1      20.608  -6.938  27.803  1.00  0.00     0.000 C 
BRANCH   3   4
ATOM      4  C   UNL     1      20.517  -8.235  28.621  1.00  0.00     0.000 C 
BRANCH   4   5
ATOM      5  C   UNL     1      19.890  -9.392  27.827  1.00  0.00     0.000 C 
BRANCH   5   6
ATOM      6  C   UNL     1      19.773 -10.687  28.650  1.00  0.00     0.000 C 
BRANCH   6   7
ATOM      7  C   UNL     1      20.770 -10.762  29.826  1.00  0.00     0.006 C 
BRANCH   7   8
ATOM      8  C   UNL     1      20.144 -11.381  31.083  1.00  0.00     0.053 C 
BRANCH   8   9
ATOM      9  C   UNL     1      21.023 -12.462  31.628  1.00  0.00     0.041 C 
ATOM     10  O   UNL     1      21.896 -12.999  30.895  1.00  0.00    -0.550 OA
ATOM     11  O   UNL     1      20.920 -12.836  32.961  1.00  0.00    -0.550 OA
ENDBRANCH   8   9
ENDBRANCH   7   8
ENDBRANCH   6   7
ENDBRANCH   5   6
ENDBRANCH   4   5
ENDBRANCH   3   4
ENDBRANCH   2   3
ENDBRANCH   1   2
BRANCH   1  12
ATOM     12  C   UNL     1      20.030  -4.781  30.965  1.00  0.00     0.000 C 
BRANCH  12  13
ATOM     13  C   UNL     1      19.155  -5.484  32.018  1.00  0.00    -0.000 C 
BRANCH  13  14
ATOM     14  C   UNL     1      19.139  -7.020  31.928  1.00  0.00    -0.000 C 
BRANCH  14  15
ATOM     15  C   UNL     1      17.716  -7.600  31.858  1.00  0.00    -0.000 C 
BRANCH  15  16
ATOM     16  C   UNL     1      17.597  -8.766  30.860  1.00  0.00    -0.000 C 
BRANCH  16  17
ATOM     17  C   UNL     1      16.615  -8.524  29.696  1.00  0.00    -0.000 C 
BRANCH  17  18
ATOM     18  C   UNL     1      16.929  -7.298  28.816  1.00  0.00    -0.000 C 
BRANCH  18  19
ATOM     19  C   UNL     1      15.936  -6.131  28.954  1.00  0.00    -0.003 C 
ATOM     20  C   UNL     1      16.611  -4.821  29.359  1.00  0.00     0.004 C 
ENDBRANCH  18  19
ENDBRANCH  17  18
ENDBRANCH  16  17
ENDBRANCH  15  16
ENDBRANCH  14  15
ENDBRANCH  13  14
ENDBRANCH  12  13
ENDBRANCH   1  12
TORSDOF 16
ENDMDL
MODEL 8
REMARK VINA RESULT:    -3.443      1.822      3.951
REMARK INTER + INTRA:          -9.316
REMARK INTER:                  -6.953
REMARK INTRA:                  -2.363
REMARK UNBOUND:                -2.652
REMARK SMILES CCCCCCCCCCCCCCCCCC(=O)[O-]
REMARK SMILES IDX 10 1 11 2 12 3 13 4 14 5 15 6 16 7 17 8 18 9 19 10 20 11
REMARK SMILES IDX 9 12 8 13 7 14 6 15 5 16 4 17 3 18 2 19 1 20
REMARK H PARENT
REMARK Flexibility Score: inf
ROOT
ATOM      1  C   UNL     1      15.041 -18.504  20.971  1.00  0.00     0.000 C 
ENDROOT
BRANCH   1   2
ATOM      2  C   UNL     1      14.986 -16.984  20.770  1.00  0.00     0.000 C 
BRANCH   2   3
ATOM      3  C   UNL     1      14.646 -16.634  19.313  1.00  0.00     0.000 C 
BRANCH   3   4
ATOM      4  C   UNL     1      13.210 -16.115  19.149  1.00  0.00     0.000 C 
BRANCH   4   5
ATOM      5  C   UNL     1      12.159 -17.226  19.300  1.00  0.00     0.000 C 
BRANCH   5   6
ATOM      6  C   UNL     1      10.874 -16.742  19.995  1.00  0.00     0.000 C 
BRANCH   6   7
ATOM      7  C   UNL     1      10.786 -17.148  21.481  1.00  0.00     0.006 C 
BRANCH   7   8
ATOM      8  C   UNL     1       9.946 -18.414  21.691  1.00  0.00     0.053 C 
BRANCH   8   9
ATOM      9  C   UNL     1      10.829 -19.592  21.956  1.00  0.00     0.041 C 
ATOM     10  O   UNL     1      10.459 -20.749  21.623  1.00  0.00    -0.550 OA
ATOM     11  O   UNL     1      12.086 -19.406  22.517  1.00  0.00    -0.550 OA
ENDBRANCH   8   9
ENDBRANCH   7   8
ENDBRANCH   6   7
ENDBRANCH   5   6
ENDBRANCH   4   5
ENDBRANCH   3   4
ENDBRANCH   2   3
ENDBRANCH   1   2
BRANCH   1  12
ATOM     12  C   UNL     1      16.185 -19.127  20.157  1.00  0.00     0.000 C 
BRANCH  12  13
ATOM     13  C   UNL     1      15.705 -20.212  19.178  1.00  0.00    -0.000 C 
BRANCH  13  14
ATOM     14  C   UNL     1      14.193 -20.496  19.217  1.00  0.00    -0.000 C 
BRANCH  14  15
ATOM     15  C   UNL     1      13.868 -22.000  19.242  1.00  0.00    -0.000 C 
BRANCH  15  16
ATOM     16  C   UNL     1      14.450 -22.714  20.475  1.00  0.00    -0.000 C 
BRANCH  16  17
ATOM     17  C   UNL     1      13.813 -22.309  21.820  1.00  0.00    -0.000 C 
BRANCH  17  18
ATOM     18  C   UNL     1      14.797 -21.763  22.874  1.00  0.00    -0.000 C 
BRANCH  18  19
ATOM     19  C   UNL     1      16.273 -21.765  22.442  1.00  0.00    -0.003 C 
ATOM     20  C   UNL     1      17.202 -21.162  23.495  1.00  0.00     0.004 C 
ENDBRANCH  18  19
ENDBRANCH  17  18
ENDBRANCH  16  17
ENDBRANCH  15  16
ENDBRANCH  14  15
ENDBRANCH  13  14
ENDBRANCH  12  13
ENDBRANCH   1  12
TORSDOF 16
ENDMDL
MODEL 9
REMARK VINA RESULT:    -3.347     14.195     16.491
REMARK INTER + INTRA:          -9.130
REMARK INTER:                  -6.105
REMARK INTRA:                  -3.025
REMARK UNBOUND:                -2.652
REMARK SMILES CCCCCCCCCCCCCCCCCC(=O)[O-]
REMARK SMILES IDX 10 1 11 2 12 3 13 4 14 5 15 6 16 7 17 8 18 9 19 10 20 11
REMARK SMILES IDX 9 12 8 13 7 14 6 15 5 16 4 17 3 18 2 19 1 20
REMARK H PARENT
REMARK Flexibility Score: inf
ROOT
ATOM      1  C   UNL     1      18.933  -5.183  29.004  1.00  0.00     0.000 C 
ENDROOT
BRANCH   1   2
ATOM      2  C   UNL     1      19.931  -6.125  28.319  1.00  0.00     0.000 C 
BRANCH   2   3
ATOM      3  C   UNL     1      21.034  -6.561  29.295  1.00  0.00     0.000 C 
BRANCH   3   4
ATOM      4  C   UNL     1      20.818  -7.984  29.833  1.00  0.00     0.000 C 
BRANCH   4   5
ATOM      5  C   UNL     1      20.695  -9.028  28.711  1.00  0.00     0.000 C 
BRANCH   5   6
ATOM      6  C   UNL     1      20.184 -10.389  29.215  1.00  0.00     0.000 C 
BRANCH   6   7
ATOM      7  C   UNL     1      20.396 -10.606  30.728  1.00  0.00     0.006 C 
BRANCH   7   8
ATOM      8  C   UNL     1      21.135 -11.916  31.031  1.00  0.00     0.053 C 
BRANCH   8   9
ATOM      9  C   UNL     1      20.356 -12.743  32.005  1.00  0.00     0.041 C 
ATOM     10  O   UNL     1      19.262 -13.264  31.661  1.00  0.00    -0.550 OA
ATOM     11  O   UNL     1      20.867 -12.989  33.272  1.00  0.00    -0.550 OA
ENDBRANCH   8   9
ENDBRANCH   7   8
ENDBRANCH   6   7
ENDBRANCH   5   6
ENDBRANCH   4   5
ENDBRANCH   3   4
ENDBRANCH   2   3
ENDBRANCH   1   2
BRANCH   1  12
ATOM     12  C   UNL     1      17.496  -5.708  28.869  1.00  0.00     0.000 C 
BRANCH  12  13
ATOM     13  C   UNL     1      17.404  -6.999  28.036  1.00  0.00    -0.000 C 
BRANCH  13  14
ATOM     14  C   UNL     1      17.069  -8.267  28.841  1.00  0.00    -0.000 C 
BRANCH  14  15
ATOM     15  C   UNL     1      16.564  -7.958  30.261  1.00  0.00    -0.000 C 
BRANCH  15  16
ATOM     16  C   UNL     1      17.391  -8.660  31.353  1.00  0.00    -0.000 C 
BRANCH  16  17
ATOM     17  C   UNL     1      17.577  -7.845  32.649  1.00  0.00    -0.000 C 
BRANCH  17  18
ATOM     18  C   UNL     1      18.090  -6.405  32.451  1.00  0.00    -0.000 C 
BRANCH  18  19
ATOM     19  C   UNL     1      19.599  -6.219  32.688  1.00  0.00    -0.003 C 
ATOM     20  C   UNL     1      20.221  -7.365  33.485  1.00  0.00     0.004 C 
ENDBRANCH  18  19
ENDBRANCH  17  18
ENDBRANCH  16  17
ENDBRANCH  15  16
ENDBRANCH  14  15
ENDBRANCH  13  14
ENDBRANCH  12  13
ENDBRANCH   1  12
TORSDOF 16
ENDMDL
