MODEL 1
REMARK VINA RESULT:    -2.125      0.000      0.000
REMARK INTER + INTRA:          -2.125
REMARK INTER:                  -2.125
REMARK INTRA:                   0.000
REMARK UNBOUND:                 0.000
REMARK SMILES CC(=O)[O-]
REMARK SMILES IDX 1 1 2 2 3 3 4 4
REMARK H PARENT
REMARK Flexibility Score: inf
ROOT
ATOM      1  C   UNL     1     -16.566   9.416  32.772  1.00  0.00     0.063 C 
ATOM      2  C   UNL     1     -15.258   8.709  32.657  1.00  0.00     0.038 C 
ATOM      3  O   UNL     1     -15.149   7.698  31.915  1.00  0.00    -0.550 OA
ATOM      4  O   UNL     1     -14.143   9.197  33.327  1.00  0.00    -0.550 OA
ENDROOT
TORSDOF 0
ENDMDL
MODEL 2
REMARK VINA RESULT:    -2.044     17.951     18.301
REMARK INTER + INTRA:          -2.044
REMARK INTER:                  -2.044
REMARK INTRA:                   0.000
REMARK UNBOUND:                 0.000
REMARK SMILES CC(=O)[O-]
REMARK SMILES IDX 1 1 2 2 3 3 4 4
REMARK H PARENT
REMARK Flexibility Score: inf
ROOT
ATOM      1  C   UNL     1     -16.576  -5.044  22.316  1.00  0.00     0.063 C 
ATOM      2  C   UNL     1     -15.607  -6.162  22.125  1.00  0.00     0.038 C 
ATOM      3  O   UNL     1     -15.533  -7.086  22.978  1.00  0.00    -0.550 OA
ATOM      4  O   UNL     1     -14.824  -6.216  20.979  1.00  0.00    -0.550 OA
ENDROOT
TORSDOF 0
ENDMDL
MODEL 3
REMARK VINA RESULT:    -2.024     18.583     18.793
REMARK INTER + INTRA:          -2.024
REMARK INTER:                  -2.024
REMARK INTRA:                   0.000
REMARK UNBOUND:                 0.000
REMARK SMILES CC(=O)[O-]
REMARK SMILES IDX 1 1 2 2 3 3 4 4
REMARK H PARENT
REMARK Flexibility Score: inf
ROOT
ATOM      1  C   UNL     1     -16.123  -5.967  22.416  1.00  0.00     0.063 C 
ATOM      2  C   UNL     1     -15.045  -6.318  21.446  1.00  0.00     0.038 C 
ATOM      3  O   UNL     1     -15.067  -5.845  20.279  1.00  0.00    -0.550 OA
ATOM      4  O   UNL     1     -13.987  -7.125  21.844  1.00  0.00    -0.550 OA
ENDROOT
TORSDOF 0
ENDMDL
MODEL 4
REMARK VINA RESULT:    -2.012      1.436      1.760
REMARK INTER + INTRA:          -2.012
REMARK INTER:                  -2.012
REMARK INTRA:                   0.000
REMARK UNBOUND:                 0.000
REMARK SMILES CC(=O)[O-]
REMARK SMILES IDX 1 1 2 2 3 3 4 4
REMARK H PARENT
REMARK Flexibility Score: inf
ROOT
ATOM      1  C   UNL     1     -14.136   9.292  33.020  1.00  0.00     0.063 C 
ATOM      2  C   UNL     1     -15.405   8.661  32.557  1.00  0.00     0.038 C 
ATOM      3  O   UNL     1     -15.371   7.629  31.836  1.00  0.00    -0.550 OA
ATOM      4  O   UNL     1     -16.628   9.179  32.964  1.00  0.00    -0.550 OA
ENDROOT
TORSDOF 0
ENDMDL
MODEL 5
REMARK VINA RESULT:    -1.977     17.805     18.032
REMARK INTER + INTRA:          -1.977
REMARK INTER:                  -1.977
REMARK INTRA:                   0.000
REMARK UNBOUND:                 0.000
REMARK SMILES CC(=O)[O-]
REMARK SMILES IDX 1 1 2 2 3 3 4 4
REMARK H PARENT
REMARK Flexibility Score: inf
ROOT
ATOM      1  C   UNL     1     -15.876   0.865  16.170  1.00  0.00     0.063 C 
ATOM      2  C   UNL     1     -14.529   0.527  16.716  1.00  0.00     0.038 C 
ATOM      3  O   UNL     1     -13.635   1.411  16.782  1.00  0.00    -0.550 OA
ATOM      4  O   UNL     1     -14.276  -0.749  17.202  1.00  0.00    -0.550 OA
ENDROOT
TORSDOF 0
ENDMDL
MODEL 6
REMARK VINA RESULT:    -1.939     16.697     17.305
REMARK INTER + INTRA:          -1.939
REMARK INTER:                  -1.939
REMARK INTRA:                   0.000
REMARK UNBOUND:                 0.000
REMARK SMILES CC(=O)[O-]
REMARK SMILES IDX 1 1 2 2 3 3 4 4
REMARK H PARENT
REMARK Flexibility Score: inf
ROOT
ATOM      1  C   UNL     1     -22.773  -4.162  27.137  1.00  0.00     0.063 C 
ATOM      2  C   UNL     1     -22.951  -5.643  27.120  1.00  0.00     0.038 C 
ATOM      3  O   UNL     1     -22.400  -6.355  28.001  1.00  0.00    -0.550 OA
ATOM      4  O   UNL     1     -23.766  -6.234  26.165  1.00  0.00    -0.550 OA
ENDROOT
TORSDOF 0
ENDMDL
MODEL 7
REMARK VINA RESULT:    -1.900      2.063      2.353
REMARK INTER + INTRA:          -1.900
REMARK INTER:                  -1.900
REMARK INTRA:                   0.000
REMARK UNBOUND:                 0.000
REMARK SMILES CC(=O)[O-]
REMARK SMILES IDX 1 1 2 2 3 3 4 4
REMARK H PARENT
REMARK Flexibility Score: inf
ROOT
ATOM      1  C   UNL     1     -14.186   9.029  32.724  1.00  0.00     0.063 C 
ATOM      2  C   UNL     1     -14.341   8.294  31.435  1.00  0.00     0.038 C 
ATOM      3  O   UNL     1     -14.137   8.886  30.342  1.00  0.00    -0.550 OA
ATOM      4  O   UNL     1     -14.659   6.943  31.438  1.00  0.00    -0.550 OA
ENDROOT
TORSDOF 0
ENDMDL
MODEL 8
REMARK VINA RESULT:    -1.895     18.908     19.389
REMARK INTER + INTRA:          -1.895
REMARK INTER:                  -1.895
REMARK INTRA:                   0.000
REMARK UNBOUND:                 0.000
REMARK SMILES CC(=O)[O-]
REMARK SMILES IDX 1 1 2 2 3 3 4 4
REMARK H PARENT
REMARK Flexibility Score: inf
ROOT
ATOM      1  C   UNL     1     -24.367  12.303  15.357  1.00  0.00     0.063 C 
ATOM      2  C   UNL     1     -25.152  12.765  16.538  1.00  0.00     0.038 C 
ATOM      3  O   UNL     1     -26.410  12.785  16.492  1.00  0.00    -0.550 OA
ATOM      4  O   UNL     1     -24.499  13.125  17.710  1.00  0.00    -0.550 OA
ENDROOT
TORSDOF 0
ENDMDL
