MODEL 1
REMARK VINA RESULT:    -4.245      0.000      0.000
REMARK INTER + INTRA:          -4.985
REMARK INTER:                  -4.741
REMARK INTRA:                  -0.243
REMARK UNBOUND:                -0.243
REMARK SMILES O=C([O-])C=Cc1ccccc1
REMARK SMILES IDX 4 1 5 2 2 3 1 4 3 5 6 6 7 7 11 8 8 9 10 10 9 11
REMARK H PARENT
REMARK Flexibility Score: inf
ROOT
ATOM      1  C   UNL     1      32.915   5.604  41.177  1.00  0.00     0.025 C 
ATOM      2  C   UNL     1      34.215   5.278  41.237  1.00  0.00     0.010 C 
ENDROOT
BRANCH   1   3
ATOM      3  C   UNL     1      32.109   5.690  39.944  1.00  0.00     0.064 C 
ATOM      4  O   UNL     1      31.418   4.700  39.590  1.00  0.00    -0.545 OA
ATOM      5  O   UNL     1      32.152   6.812  39.125  1.00  0.00    -0.545 OA
ENDBRANCH   1   3
BRANCH   2   6
ATOM      6  C   UNL     1      35.115   5.134  40.074  1.00  0.00    -0.026 A 
ATOM      7  C   UNL     1      35.655   6.261  39.426  1.00  0.00     0.008 A 
ATOM      8  C   UNL     1      35.520   3.852  39.674  1.00  0.00     0.008 A 
ATOM      9  C   UNL     1      36.545   6.099  38.360  1.00  0.00     0.001 A 
ATOM     10  C   UNL     1      36.412   3.695  38.607  1.00  0.00     0.001 A 
ATOM     11  C   UNL     1      36.920   4.818  37.948  1.00  0.00     0.000 A 
ENDBRANCH   2   6
TORSDOF 2
ENDMDL
MODEL 2
REMARK VINA RESULT:    -4.230      7.316      9.047
REMARK INTER + INTRA:          -4.968
REMARK INTER:                  -4.815
REMARK INTRA:                  -0.153
REMARK UNBOUND:                -0.243
REMARK SMILES O=C([O-])C=Cc1ccccc1
REMARK SMILES IDX 4 1 5 2 2 3 1 4 3 5 6 6 7 7 11 8 8 9 10 10 9 11
REMARK H PARENT
REMARK Flexibility Score: inf
ROOT
ATOM      1  C   UNL     1      30.665   4.878  49.500  1.00  0.00     0.025 C 
ATOM      2  C   UNL     1      30.451   5.774  48.525  1.00  0.00     0.010 C 
ENDROOT
BRANCH   1   3
ATOM      3  C   UNL     1      31.879   4.055  49.656  1.00  0.00     0.064 C 
ATOM      4  O   UNL     1      32.634   4.252  50.643  1.00  0.00    -0.545 OA
ATOM      5  O   UNL     1      32.248   3.117  48.699  1.00  0.00    -0.545 OA
ENDBRANCH   1   3
BRANCH   2   6
ATOM      6  C   UNL     1      31.303   5.960  47.333  1.00  0.00    -0.026 A 
ATOM      7  C   UNL     1      31.129   5.170  46.182  1.00  0.00     0.008 A 
ATOM      8  C   UNL     1      32.232   7.012  47.310  1.00  0.00     0.008 A 
ATOM      9  C   UNL     1      31.913   5.398  45.046  1.00  0.00     0.001 A 
ATOM     10  C   UNL     1      33.013   7.237  46.171  1.00  0.00     0.001 A 
ATOM     11  C   UNL     1      32.857   6.428  45.042  1.00  0.00     0.000 A 
ENDBRANCH   2   6
TORSDOF 2
ENDMDL
MODEL 3
REMARK VINA RESULT:    -4.175     19.785     21.552
REMARK INTER + INTRA:          -4.907
REMARK INTER:                  -4.623
REMARK INTRA:                  -0.283
REMARK UNBOUND:                -0.243
REMARK SMILES O=C([O-])C=Cc1ccccc1
REMARK SMILES IDX 4 1 5 2 2 3 1 4 3 5 6 6 7 7 11 8 8 9 10 10 9 11
REMARK H PARENT
REMARK Flexibility Score: inf
ROOT
ATOM      1  C   UNL     1      23.887  -4.390  52.829  1.00  0.00     0.025 C 
ATOM      2  C   UNL     1      23.320  -3.497  53.655  1.00  0.00     0.010 C 
ENDROOT
BRANCH   1   3
ATOM      3  C   UNL     1      24.437  -5.699  53.230  1.00  0.00     0.064 C 
ATOM      4  O   UNL     1      23.677  -6.700  53.270  1.00  0.00    -0.545 OA
ATOM      5  O   UNL     1      25.760  -5.838  53.634  1.00  0.00    -0.545 OA
ENDBRANCH   1   3
BRANCH   2   6
ATOM      6  C   UNL     1      23.316  -3.579  55.130  1.00  0.00    -0.026 A 
ATOM      7  C   UNL     1      24.386  -3.075  55.891  1.00  0.00     0.008 A 
ATOM      8  C   UNL     1      22.179  -4.075  55.786  1.00  0.00     0.008 A 
ATOM      9  C   UNL     1      24.336  -3.117  57.288  1.00  0.00     0.001 A 
ATOM     10  C   UNL     1      22.133  -4.115  57.184  1.00  0.00     0.001 A 
ATOM     11  C   UNL     1      23.213  -3.640  57.934  1.00  0.00     0.000 A 
ENDBRANCH   2   6
TORSDOF 2
ENDMDL
MODEL 4
REMARK VINA RESULT:    -4.136     20.341     21.688
REMARK INTER + INTRA:          -4.863
REMARK INTER:                  -4.622
REMARK INTRA:                  -0.241
REMARK UNBOUND:                -0.243
REMARK SMILES O=C([O-])C=Cc1ccccc1
REMARK SMILES IDX 4 1 5 2 2 3 1 4 3 5 6 6 7 7 11 8 8 9 10 10 9 11
REMARK H PARENT
REMARK Flexibility Score: inf
ROOT
ATOM      1  C   UNL     1      23.527  -3.238  57.971  1.00  0.00     0.025 C 
ATOM      2  C   UNL     1      24.409  -3.190  56.960  1.00  0.00     0.010 C 
ENDROOT
BRANCH   1   3
ATOM      3  C   UNL     1      22.080  -3.490  57.834  1.00  0.00     0.064 C 
ATOM      4  O   UNL     1      21.266  -2.574  58.118  1.00  0.00    -0.545 OA
ATOM      5  O   UNL     1      21.593  -4.739  57.468  1.00  0.00    -0.545 OA
ENDBRANCH   1   3
BRANCH   2   6
ATOM      6  C   UNL     1      24.063  -3.192  55.524  1.00  0.00    -0.026 A 
ATOM      7  C   UNL     1      24.103  -4.376  54.766  1.00  0.00     0.008 A 
ATOM      8  C   UNL     1      23.589  -2.012  54.930  1.00  0.00     0.008 A 
ATOM      9  C   UNL     1      23.722  -4.363  53.420  1.00  0.00     0.001 A 
ATOM     10  C   UNL     1      23.208  -2.004  53.584  1.00  0.00     0.001 A 
ATOM     11  C   UNL     1      23.279  -3.178  52.828  1.00  0.00     0.000 A 
ENDBRANCH   2   6
TORSDOF 2
ENDMDL
MODEL 5
REMARK VINA RESULT:    -4.113      7.516     10.190
REMARK INTER + INTRA:          -4.837
REMARK INTER:                  -4.619
REMARK INTRA:                  -0.219
REMARK UNBOUND:                -0.243
REMARK SMILES O=C([O-])C=Cc1ccccc1
REMARK SMILES IDX 4 1 5 2 2 3 1 4 3 5 6 6 7 7 11 8 8 9 10 10 9 11
REMARK H PARENT
REMARK Flexibility Score: inf
ROOT
ATOM      1  C   UNL     1      26.350   5.094  41.395  1.00  0.00     0.025 C 
ATOM      2  C   UNL     1      25.081   4.742  41.138  1.00  0.00     0.010 C 
ENDROOT
BRANCH   1   3
ATOM      3  C   UNL     1      27.523   4.205  41.289  1.00  0.00     0.064 C 
ATOM      4  O   UNL     1      28.021   3.715  42.334  1.00  0.00    -0.545 OA
ATOM      5  O   UNL     1      28.135   3.955  40.066  1.00  0.00    -0.545 OA
ENDBRANCH   1   3
BRANCH   2   6
ATOM      6  C   UNL     1      24.608   3.365  40.889  1.00  0.00    -0.026 A 
ATOM      7  C   UNL     1      23.957   2.625  41.893  1.00  0.00     0.008 A 
ATOM      8  C   UNL     1      24.718   2.824  39.599  1.00  0.00     0.008 A 
ATOM      9  C   UNL     1      23.472   1.342  41.618  1.00  0.00     0.001 A 
ATOM     10  C   UNL     1      24.231   1.541  39.328  1.00  0.00     0.001 A 
ATOM     11  C   UNL     1      23.613   0.798  40.339  1.00  0.00     0.000 A 
ENDBRANCH   2   6
TORSDOF 2
ENDMDL
MODEL 6
REMARK VINA RESULT:    -4.072     19.442     21.330
REMARK INTER + INTRA:          -4.792
REMARK INTER:                  -4.537
REMARK INTRA:                  -0.255
REMARK UNBOUND:                -0.243
REMARK SMILES O=C([O-])C=Cc1ccccc1
REMARK SMILES IDX 4 1 5 2 2 3 1 4 3 5 6 6 7 7 11 8 8 9 10 10 9 11
REMARK H PARENT
REMARK Flexibility Score: inf
ROOT
ATOM      1  C   UNL     1      23.327  -2.636  53.016  1.00  0.00     0.025 C 
ATOM      2  C   UNL     1      23.241  -1.837  54.091  1.00  0.00     0.010 C 
ENDROOT
BRANCH   1   3
ATOM      3  C   UNL     1      23.240  -4.109  53.035  1.00  0.00     0.064 C 
ATOM      4  O   UNL     1      22.110  -4.659  53.066  1.00  0.00    -0.545 OA
ATOM      5  O   UNL     1      24.381  -4.902  53.093  1.00  0.00    -0.545 OA
ENDBRANCH   1   3
BRANCH   2   6
ATOM      6  C   UNL     1      23.237  -2.292  55.497  1.00  0.00    -0.026 A 
ATOM      7  C   UNL     1      22.034  -2.426  56.215  1.00  0.00     0.008 A 
ATOM      8  C   UNL     1      24.441  -2.695  56.092  1.00  0.00     0.008 A 
ATOM      9  C   UNL     1      22.050  -2.908  57.528  1.00  0.00     0.001 A 
ATOM     10  C   UNL     1      24.452  -3.177  57.405  1.00  0.00     0.001 A 
ATOM     11  C   UNL     1      23.257  -3.279  58.125  1.00  0.00     0.000 A 
ENDBRANCH   2   6
TORSDOF 2
ENDMDL
MODEL 7
REMARK VINA RESULT:    -4.067     21.156     22.918
REMARK INTER + INTRA:          -4.786
REMARK INTER:                  -4.531
REMARK INTRA:                  -0.255
REMARK UNBOUND:                -0.243
REMARK SMILES O=C([O-])C=Cc1ccccc1
REMARK SMILES IDX 4 1 5 2 2 3 1 4 3 5 6 6 7 7 11 8 8 9 10 10 9 11
REMARK H PARENT
REMARK Flexibility Score: inf
ROOT
ATOM      1  C   UNL     1      19.779  -1.389  57.311  1.00  0.00     0.025 C 
ATOM      2  C   UNL     1      21.024  -0.945  57.541  1.00  0.00     0.010 C 
ENDROOT
BRANCH   1   3
ATOM      3  C   UNL     1      19.423  -2.755  56.882  1.00  0.00     0.064 C 
ATOM      4  O   UNL     1      19.032  -3.588  57.739  1.00  0.00    -0.545 OA
ATOM      5  O   UNL     1      19.580  -3.165  55.562  1.00  0.00    -0.545 OA
ENDBRANCH   1   3
BRANCH   2   6
ATOM      6  C   UNL     1      22.266  -1.678  57.225  1.00  0.00    -0.026 A 
ATOM      7  C   UNL     1      22.809  -2.614  58.125  1.00  0.00     0.008 A 
ATOM      8  C   UNL     1      22.858  -1.515  55.964  1.00  0.00     0.008 A 
ATOM      9  C   UNL     1      23.957  -3.335  57.782  1.00  0.00     0.001 A 
ATOM     10  C   UNL     1      24.007  -2.238  55.625  1.00  0.00     0.001 A 
ATOM     11  C   UNL     1      24.559  -3.144  56.536  1.00  0.00     0.000 A 
ENDBRANCH   2   6
TORSDOF 2
ENDMDL
MODEL 8
REMARK VINA RESULT:    -4.036     20.853     22.006
REMARK INTER + INTRA:          -4.751
REMARK INTER:                  -4.476
REMARK INTRA:                  -0.275
REMARK UNBOUND:                -0.243
REMARK SMILES O=C([O-])C=Cc1ccccc1
REMARK SMILES IDX 4 1 5 2 2 3 1 4 3 5 6 6 7 7 11 8 8 9 10 10 9 11
REMARK H PARENT
REMARK Flexibility Score: inf
ROOT
ATOM      1  C   UNL     1      20.474  -0.965  54.747  1.00  0.00     0.025 C 
ATOM      2  C   UNL     1      21.568  -0.621  55.444  1.00  0.00     0.010 C 
ENDROOT
BRANCH   1   3
ATOM      3  C   UNL     1      19.892  -2.319  54.682  1.00  0.00     0.064 C 
ATOM      4  O   UNL     1      19.009  -2.651  55.514  1.00  0.00    -0.545 OA
ATOM      5  O   UNL     1      20.347  -3.262  53.767  1.00  0.00    -0.545 OA
ENDBRANCH   1   3
BRANCH   2   6
ATOM      6  C   UNL     1      22.489  -1.564  56.111  1.00  0.00    -0.026 A 
ATOM      7  C   UNL     1      23.628  -2.061  55.450  1.00  0.00     0.008 A 
ATOM      8  C   UNL     1      22.282  -1.889  57.460  1.00  0.00     0.008 A 
ATOM      9  C   UNL     1      24.513  -2.913  56.118  1.00  0.00     0.001 A 
ATOM     10  C   UNL     1      23.171  -2.741  58.125  1.00  0.00     0.001 A 
ATOM     11  C   UNL     1      24.283  -3.256  57.453  1.00  0.00     0.000 A 
ENDBRANCH   2   6
TORSDOF 2
ENDMDL
MODEL 9
REMARK VINA RESULT:    -4.017      8.408     10.285
REMARK INTER + INTRA:          -4.731
REMARK INTER:                  -4.704
REMARK INTRA:                  -0.027
REMARK UNBOUND:                -0.243
REMARK SMILES O=C([O-])C=Cc1ccccc1
REMARK SMILES IDX 4 1 5 2 2 3 1 4 3 5 6 6 7 7 11 8 8 9 10 10 9 11
REMARK H PARENT
REMARK Flexibility Score: inf
ROOT
ATOM      1  C   UNL     1      23.460   1.694  39.108  1.00  0.00     0.025 C 
ATOM      2  C   UNL     1      24.060   2.892  39.184  1.00  0.00     0.010 C 
ENDROOT
BRANCH   1   3
ATOM      3  C   UNL     1      23.646   0.582  40.059  1.00  0.00     0.064 C 
ATOM      4  O   UNL     1      24.135  -0.502  39.651  1.00  0.00    -0.545 OA
ATOM      5  O   UNL     1      23.225   0.679  41.381  1.00  0.00    -0.545 OA
ENDBRANCH   1   3
BRANCH   2   6
ATOM      6  C   UNL     1      25.151   3.244  40.116  1.00  0.00    -0.026 A 
ATOM      7  C   UNL     1      26.471   3.418  39.661  1.00  0.00     0.008 A 
ATOM      8  C   UNL     1      24.848   3.512  41.459  1.00  0.00     0.008 A 
ATOM      9  C   UNL     1      27.478   3.802  40.552  1.00  0.00     0.001 A 
ATOM     10  C   UNL     1      25.858   3.896  42.348  1.00  0.00     0.001 A 
ATOM     11  C   UNL     1      27.173   4.037  41.895  1.00  0.00     0.000 A 
ENDBRANCH   2   6
TORSDOF 2
ENDMDL
