MODEL 1
REMARK VINA RESULT:    -4.489      0.000      0.000
REMARK INTER + INTRA:          -9.069
REMARK INTER:                  -7.900
REMARK INTRA:                  -1.168
REMARK UNBOUND:                -1.168
REMARK SMILES CCCCCCC=CCCCCCCCC(=O)[O-]
REMARK SMILES IDX 10 1 11 2 12 3 13 4 14 5 15 6 16 7 17 8 18 9 9 10 8 11 7 12
REMARK SMILES IDX 6 13 5 14 4 15 3 16 2 17 1 18
REMARK H PARENT
REMARK Flexibility Score: inf
ROOT
ATOM      1  C   UNL     1       9.641  -6.005  25.571  1.00  0.00     0.004 C 
ENDROOT
BRANCH   1   2
ATOM      2  C   UNL     1       8.357  -6.294  26.364  1.00  0.00     0.000 C 
BRANCH   2   3
ATOM      3  C   UNL     1       8.586  -7.272  27.526  1.00  0.00     0.000 C 
BRANCH   3   4
ATOM      4  C   UNL     1       9.922  -8.009  27.367  1.00  0.00     0.000 C 
BRANCH   4   5
ATOM      5  C   UNL     1      10.153  -8.985  28.527  1.00  0.00     0.006 C 
BRANCH   5   6
ATOM      6  C   UNL     1       9.061  -8.844  29.591  1.00  0.00     0.053 C 
BRANCH   6   7
ATOM      7  C   UNL     1       9.587  -9.229  30.937  1.00  0.00     0.041 C 
ATOM      8  O   UNL     1      10.230  -8.396  31.628  1.00  0.00    -0.550 OA
ATOM      9  O   UNL     1       9.327 -10.494  31.450  1.00  0.00    -0.550 OA
ENDBRANCH   6   7
ENDBRANCH   5   6
ENDBRANCH   4   5
ENDBRANCH   3   4
ENDBRANCH   2   3
ENDBRANCH   1   2
BRANCH   1  10
ATOM     10  C   UNL     1       9.704  -4.561  25.053  1.00  0.00     0.027 C 
BRANCH  10  11
ATOM     11  C   UNL     1      11.075  -3.974  25.248  1.00  0.00    -0.031 C 
ATOM     12  C   UNL     1      11.963  -4.566  26.059  1.00  0.00    -0.031 C 
BRANCH  12  13
ATOM     13  C   UNL     1      13.341  -3.998  26.272  1.00  0.00     0.027 C 
BRANCH  13  14
ATOM     14  C   UNL     1      13.393  -2.481  26.040  1.00  0.00     0.004 C 
BRANCH  14  15
ATOM     15  C   UNL     1      13.076  -1.688  27.320  1.00  0.00     0.000 C 
BRANCH  15  16
ATOM     16  C   UNL     1      12.372  -0.353  27.030  1.00  0.00    -0.000 C 
BRANCH  16  17
ATOM     17  C   UNL     1      11.389  -0.447  25.854  1.00  0.00    -0.003 C 
ATOM     18  C   UNL     1      11.501   0.777  24.947  1.00  0.00     0.004 C 
ENDBRANCH  16  17
ENDBRANCH  15  16
ENDBRANCH  14  15
ENDBRANCH  13  14
ENDBRANCH  12  13
ENDBRANCH  10  11
ENDBRANCH   1  10
TORSDOF 13
ENDMDL
MODEL 2
REMARK VINA RESULT:    -4.480      4.521      8.834
REMARK INTER + INTRA:          -9.052
REMARK INTER:                  -7.999
REMARK INTRA:                  -1.053
REMARK UNBOUND:                -1.168
REMARK SMILES CCCCCCC=CCCCCCCCC(=O)[O-]
REMARK SMILES IDX 10 1 11 2 12 3 13 4 14 5 15 6 16 7 17 8 18 9 9 10 8 11 7 12
REMARK SMILES IDX 6 13 5 14 4 15 3 16 2 17 1 18
REMARK H PARENT
REMARK Flexibility Score: inf
ROOT
ATOM      1  C   UNL     1      10.647  -9.318  27.854  1.00  0.00     0.004 C 
ENDROOT
BRANCH   1   2
ATOM      2  C   UNL     1      10.910  -8.356  26.686  1.00  0.00     0.000 C 
BRANCH   2   3
ATOM      3  C   UNL     1      10.972  -6.887  27.131  1.00  0.00     0.000 C 
BRANCH   3   4
ATOM      4  C   UNL     1      10.647  -5.947  25.964  1.00  0.00     0.000 C 
BRANCH   4   5
ATOM      5  C   UNL     1       9.529  -6.523  25.087  1.00  0.00     0.006 C 
BRANCH   5   6
ATOM      6  C   UNL     1       8.511  -5.442  24.712  1.00  0.00     0.053 C 
BRANCH   6   7
ATOM      7  C   UNL     1       7.681  -5.884  23.549  1.00  0.00     0.041 C 
ATOM      8  O   UNL     1       8.098  -6.791  22.782  1.00  0.00    -0.550 OA
ATOM      9  O   UNL     1       6.424  -5.329  23.340  1.00  0.00    -0.550 OA
ENDBRANCH   6   7
ENDBRANCH   5   6
ENDBRANCH   4   5
ENDBRANCH   3   4
ENDBRANCH   2   3
ENDBRANCH   1   2
BRANCH   1  10
ATOM     10  C   UNL     1       9.460  -8.880  28.726  1.00  0.00     0.027 C 
BRANCH  10  11
ATOM     11  C   UNL     1       9.606  -9.388  30.134  1.00  0.00    -0.031 C 
ATOM     12  C   UNL     1       9.883  -8.545  31.139  1.00  0.00    -0.031 C 
BRANCH  12  13
ATOM     13  C   UNL     1      10.035  -9.028  32.557  1.00  0.00     0.027 C 
BRANCH  13  14
ATOM     14  C   UNL     1      10.281 -10.542  32.638  1.00  0.00     0.004 C 
BRANCH  14  15
ATOM     15  C   UNL     1       9.374 -11.220  33.680  1.00  0.00     0.000 C 
BRANCH  15  16
ATOM     16  C   UNL     1       8.187 -10.337  34.094  1.00  0.00    -0.000 C 
BRANCH  16  17
ATOM     17  C   UNL     1       6.846 -10.860  33.558  1.00  0.00    -0.003 C 
ATOM     18  C   UNL     1       7.034 -11.596  32.234  1.00  0.00     0.004 C 
ENDBRANCH  16  17
ENDBRANCH  15  16
ENDBRANCH  14  15
ENDBRANCH  13  14
ENDBRANCH  12  13
ENDBRANCH  10  11
ENDBRANCH   1  10
TORSDOF 13
ENDMDL
MODEL 3
REMARK VINA RESULT:    -4.408      5.678      8.942
REMARK INTER + INTRA:          -8.925
REMARK INTER:                  -7.332
REMARK INTRA:                  -1.593
REMARK UNBOUND:                -1.168
REMARK SMILES CCCCCCC=CCCCCCCCC(=O)[O-]
REMARK SMILES IDX 10 1 11 2 12 3 13 4 14 5 15 6 16 7 17 8 18 9 9 10 8 11 7 12
REMARK SMILES IDX 6 13 5 14 4 15 3 16 2 17 1 18
REMARK H PARENT
REMARK Flexibility Score: inf
ROOT
ATOM      1  C   UNL     1       7.494  -8.382  29.278  1.00  0.00     0.004 C 
ENDROOT
BRANCH   1   2
ATOM      2  C   UNL     1       8.854  -8.558  29.971  1.00  0.00     0.000 C 
BRANCH   2   3
ATOM      3  C   UNL     1       9.895  -9.237  29.068  1.00  0.00     0.000 C 
BRANCH   3   4
ATOM      4  C   UNL     1       9.897  -8.612  27.668  1.00  0.00     0.000 C 
BRANCH   4   5
ATOM      5  C   UNL     1      10.971  -9.253  26.781  1.00  0.00     0.006 C 
BRANCH   5   6
ATOM      6  C   UNL     1      11.491 -10.554  27.400  1.00  0.00     0.053 C 
BRANCH   6   7
ATOM      7  C   UNL     1      12.247 -11.352  26.385  1.00  0.00     0.041 C 
ATOM      8  O   UNL     1      13.018 -10.777  25.573  1.00  0.00    -0.550 OA
ATOM      9  O   UNL     1      12.136 -12.737  26.367  1.00  0.00    -0.550 OA
ENDBRANCH   6   7
ENDBRANCH   5   6
ENDBRANCH   4   5
ENDBRANCH   3   4
ENDBRANCH   2   3
ENDBRANCH   1   2
BRANCH   1  10
ATOM     10  C   UNL     1       6.374  -9.181  29.962  1.00  0.00     0.027 C 
BRANCH  10  11
ATOM     11  C   UNL     1       6.833  -9.737  31.282  1.00  0.00    -0.031 C 
ATOM     12  C   UNL     1       6.134 -10.701  31.898  1.00  0.00    -0.031 C 
BRANCH  12  13
ATOM     13  C   UNL     1       6.572 -11.274  33.219  1.00  0.00     0.027 C 
BRANCH  13  14
ATOM     14  C   UNL     1       6.945 -10.185  34.236  1.00  0.00     0.004 C 
BRANCH  14  15
ATOM     15  C   UNL     1       8.466  -9.964  34.314  1.00  0.00     0.000 C 
BRANCH  15  16
ATOM     16  C   UNL     1       9.265 -11.232  33.974  1.00  0.00    -0.000 C 
BRANCH  16  17
ATOM     17  C   UNL     1      10.238 -11.022  32.804  1.00  0.00    -0.003 C 
ATOM     18  C   UNL     1       9.884 -11.928  31.627  1.00  0.00     0.004 C 
ENDBRANCH  16  17
ENDBRANCH  15  16
ENDBRANCH  14  15
ENDBRANCH  13  14
ENDBRANCH  12  13
ENDBRANCH  10  11
ENDBRANCH   1  10
TORSDOF 13
ENDMDL
MODEL 4
REMARK VINA RESULT:    -4.399      3.818      8.507
REMARK INTER + INTRA:          -8.910
REMARK INTER:                  -7.678
REMARK INTRA:                  -1.231
REMARK UNBOUND:                -1.168
REMARK SMILES CCCCCCC=CCCCCCCCC(=O)[O-]
REMARK SMILES IDX 10 1 11 2 12 3 13 4 14 5 15 6 16 7 17 8 18 9 9 10 8 11 7 12
REMARK SMILES IDX 6 13 5 14 4 15 3 16 2 17 1 18
REMARK H PARENT
REMARK Flexibility Score: inf
ROOT
ATOM      1  C   UNL     1      10.171  -9.541  28.346  1.00  0.00     0.004 C 
ENDROOT
BRANCH   1   2
ATOM      2  C   UNL     1      10.975  -8.660  27.377  1.00  0.00     0.000 C 
BRANCH   2   3
ATOM      3  C   UNL     1      10.596  -8.897  25.908  1.00  0.00     0.000 C 
BRANCH   3   4
ATOM      4  C   UNL     1      10.322  -7.568  25.192  1.00  0.00     0.000 C 
BRANCH   4   5
ATOM      5  C   UNL     1       9.641  -6.566  26.132  1.00  0.00     0.006 C 
BRANCH   5   6
ATOM      6  C   UNL     1       9.008  -5.415  25.344  1.00  0.00     0.053 C 
BRANCH   6   7
ATOM      7  C   UNL     1       9.996  -4.310  25.146  1.00  0.00     0.041 C 
ATOM      8  O   UNL     1       9.643  -3.234  24.597  1.00  0.00    -0.550 OA
ATOM      9  O   UNL     1      11.298  -4.450  25.613  1.00  0.00    -0.550 OA
ENDBRANCH   6   7
ENDBRANCH   5   6
ENDBRANCH   4   5
ENDBRANCH   3   4
ENDBRANCH   2   3
ENDBRANCH   1   2
BRANCH   1  10
ATOM     10  C   UNL     1       8.902  -8.847  28.861  1.00  0.00     0.027 C 
BRANCH  10  11
ATOM     11  C   UNL     1       8.895  -8.775  30.364  1.00  0.00    -0.031 C 
ATOM     12  C   UNL     1      10.036  -8.592  31.044  1.00  0.00    -0.031 C 
BRANCH  12  13
ATOM     13  C   UNL     1      10.056  -8.517  32.548  1.00  0.00     0.027 C 
BRANCH  13  14
ATOM     14  C   UNL     1      10.745  -9.733  33.186  1.00  0.00     0.004 C 
BRANCH  14  15
ATOM     15  C   UNL     1       9.977 -11.039  32.919  1.00  0.00     0.000 C 
BRANCH  15  16
ATOM     16  C   UNL     1       8.638 -11.101  33.671  1.00  0.00    -0.000 C 
BRANCH  16  17
ATOM     17  C   UNL     1       7.442 -11.320  32.732  1.00  0.00    -0.003 C 
ATOM     18  C   UNL     1       6.453 -10.160  32.825  1.00  0.00     0.004 C 
ENDBRANCH  16  17
ENDBRANCH  15  16
ENDBRANCH  14  15
ENDBRANCH  13  14
ENDBRANCH  12  13
ENDBRANCH  10  11
ENDBRANCH   1  10
TORSDOF 13
ENDMDL
MODEL 5
REMARK VINA RESULT:    -4.378      5.341      8.181
REMARK INTER + INTRA:          -8.873
REMARK INTER:                  -7.859
REMARK INTRA:                  -1.014
REMARK UNBOUND:                -1.168
REMARK SMILES CCCCCCC=CCCCCCCCC(=O)[O-]
REMARK SMILES IDX 10 1 11 2 12 3 13 4 14 5 15 6 16 7 17 8 18 9 9 10 8 11 7 12
REMARK SMILES IDX 6 13 5 14 4 15 3 16 2 17 1 18
REMARK H PARENT
REMARK Flexibility Score: inf
ROOT
ATOM      1  C   UNL     1      11.790  -8.586  25.468  1.00  0.00     0.004 C 
ENDROOT
BRANCH   1   2
ATOM      2  C   UNL     1      11.528  -9.652  24.393  1.00  0.00     0.000 C 
BRANCH   2   3
ATOM      3  C   UNL     1      12.004 -11.050  24.817  1.00  0.00     0.000 C 
BRANCH   3   4
ATOM      4  C   UNL     1      11.687 -12.089  23.735  1.00  0.00     0.000 C 
BRANCH   4   5
ATOM      5  C   UNL     1      11.575 -13.495  24.337  1.00  0.00     0.006 C 
BRANCH   5   6
ATOM      6  C   UNL     1      12.261 -13.564  25.704  1.00  0.00     0.053 C 
BRANCH   6   7
ATOM      7  C   UNL     1      13.527 -14.356  25.615  1.00  0.00     0.041 C 
ATOM      8  O   UNL     1      14.544 -13.865  25.060  1.00  0.00    -0.550 OA
ATOM      9  O   UNL     1      13.598 -15.621  26.187  1.00  0.00    -0.550 OA
ENDBRANCH   6   7
ENDBRANCH   5   6
ENDBRANCH   4   5
ENDBRANCH   3   4
ENDBRANCH   2   3
ENDBRANCH   1   2
BRANCH   1  10
ATOM     10  C   UNL     1      10.530  -7.783  25.824  1.00  0.00     0.027 C 
BRANCH  10  11
ATOM     11  C   UNL     1       9.939  -8.252  27.125  1.00  0.00    -0.031 C 
ATOM     12  C   UNL     1      10.564  -9.176  27.867  1.00  0.00    -0.031 C 
BRANCH  12  13
ATOM     13  C   UNL     1       9.993  -9.663  29.172  1.00  0.00     0.027 C 
BRANCH  13  14
ATOM     14  C   UNL     1       9.839  -8.534  30.202  1.00  0.00     0.004 C 
BRANCH  14  15
ATOM     15  C   UNL     1       9.550  -9.074  31.614  1.00  0.00     0.000 C 
BRANCH  15  16
ATOM     16  C   UNL     1       8.355 -10.039  31.644  1.00  0.00    -0.000 C 
BRANCH  16  17
ATOM     17  C   UNL     1       8.626 -11.292  32.490  1.00  0.00    -0.003 C 
ATOM     18  C   UNL     1       9.984 -11.900  32.148  1.00  0.00     0.004 C 
ENDBRANCH  16  17
ENDBRANCH  15  16
ENDBRANCH  14  15
ENDBRANCH  13  14
ENDBRANCH  12  13
ENDBRANCH  10  11
ENDBRANCH   1  10
TORSDOF 13
ENDMDL
MODEL 6
REMARK VINA RESULT:    -4.310      3.304      6.043
REMARK INTER + INTRA:          -8.753
REMARK INTER:                  -7.373
REMARK INTRA:                  -1.380
REMARK UNBOUND:                -1.168
REMARK SMILES CCCCCCC=CCCCCCCCC(=O)[O-]
REMARK SMILES IDX 10 1 11 2 12 3 13 4 14 5 15 6 16 7 17 8 18 9 9 10 8 11 7 12
REMARK SMILES IDX 6 13 5 14 4 15 3 16 2 17 1 18
REMARK H PARENT
REMARK Flexibility Score: inf
ROOT
ATOM      1  C   UNL     1       5.388  -8.943  30.525  1.00  0.00     0.004 C 
ENDROOT
BRANCH   1   2
ATOM      2  C   UNL     1       5.062 -10.417  30.812  1.00  0.00     0.000 C 
BRANCH   2   3
ATOM      3  C   UNL     1       6.110 -11.092  31.709  1.00  0.00     0.000 C 
BRANCH   3   4
ATOM      4  C   UNL     1       6.638 -10.115  32.765  1.00  0.00     0.000 C 
BRANCH   4   5
ATOM      5  C   UNL     1       8.149 -10.287  32.968  1.00  0.00     0.006 C 
BRANCH   5   6
ATOM      6  C   UNL     1       8.834 -10.704  31.663  1.00  0.00     0.053 C 
BRANCH   6   7
ATOM      7  C   UNL     1       9.809 -11.810  31.915  1.00  0.00     0.041 C 
ATOM      8  O   UNL     1      10.212 -12.047  33.083  1.00  0.00    -0.550 OA
ATOM      9  O   UNL     1      10.237 -12.612  30.863  1.00  0.00    -0.550 OA
ENDBRANCH   6   7
ENDBRANCH   5   6
ENDBRANCH   4   5
ENDBRANCH   3   4
ENDBRANCH   2   3
ENDBRANCH   1   2
BRANCH   1  10
ATOM     10  C   UNL     1       6.109  -8.747  29.183  1.00  0.00     0.027 C 
BRANCH  10  11
ATOM     11  C   UNL     1       7.569  -8.449  29.391  1.00  0.00    -0.031 C 
ATOM     12  C   UNL     1       8.435  -8.534  28.371  1.00  0.00    -0.031 C 
BRANCH  12  13
ATOM     13  C   UNL     1       9.901  -8.242  28.553  1.00  0.00     0.027 C 
BRANCH  13  14
ATOM     14  C   UNL     1      10.792  -9.172  27.716  1.00  0.00     0.004 C 
BRANCH  14  15
ATOM     15  C   UNL     1      10.633  -8.920  26.206  1.00  0.00     0.000 C 
BRANCH  15  16
ATOM     16  C   UNL     1      10.973  -7.475  25.809  1.00  0.00    -0.000 C 
BRANCH  16  17
ATOM     17  C   UNL     1       9.755  -6.706  25.276  1.00  0.00    -0.003 C 
ATOM     18  C   UNL     1       9.988  -5.199  25.339  1.00  0.00     0.004 C 
ENDBRANCH  16  17
ENDBRANCH  15  16
ENDBRANCH  14  15
ENDBRANCH  13  14
ENDBRANCH  12  13
ENDBRANCH  10  11
ENDBRANCH   1  10
TORSDOF 13
ENDMDL
MODEL 7
REMARK VINA RESULT:    -4.298      6.283      8.373
REMARK INTER + INTRA:          -8.732
REMARK INTER:                  -7.810
REMARK INTRA:                  -0.922
REMARK UNBOUND:                -1.168
REMARK SMILES CCCCCCC=CCCCCCCCC(=O)[O-]
REMARK SMILES IDX 10 1 11 2 12 3 13 4 14 5 15 6 16 7 17 8 18 9 9 10 8 11 7 12
REMARK SMILES IDX 6 13 5 14 4 15 3 16 2 17 1 18
REMARK H PARENT
REMARK Flexibility Score: inf
ROOT
ATOM      1  C   UNL     1      12.130 -10.811  26.671  1.00  0.00     0.004 C 
ENDROOT
BRANCH   1   2
ATOM      2  C   UNL     1      12.879 -10.819  25.330  1.00  0.00     0.000 C 
BRANCH   2   3
ATOM      3  C   UNL     1      12.275 -11.805  24.319  1.00  0.00     0.000 C 
BRANCH   3   4
ATOM      4  C   UNL     1      11.848 -13.106  25.009  1.00  0.00     0.000 C 
BRANCH   4   5
ATOM      5  C   UNL     1      12.828 -14.243  24.694  1.00  0.00     0.006 C 
BRANCH   5   6
ATOM      6  C   UNL     1      13.555 -14.708  25.959  1.00  0.00     0.053 C 
BRANCH   6   7
ATOM      7  C   UNL     1      15.027 -14.801  25.712  1.00  0.00     0.041 C 
ATOM      8  O   UNL     1      15.463 -15.028  24.553  1.00  0.00    -0.550 OA
ATOM      9  O   UNL     1      15.922 -14.590  26.754  1.00  0.00    -0.550 OA
ENDBRANCH   6   7
ENDBRANCH   5   6
ENDBRANCH   4   5
ENDBRANCH   3   4
ENDBRANCH   2   3
ENDBRANCH   1   2
BRANCH   1  10
ATOM     10  C   UNL     1      11.303  -9.533  26.880  1.00  0.00     0.027 C 
BRANCH  10  11
ATOM     11  C   UNL     1      10.412  -9.655  28.085  1.00  0.00    -0.031 C 
ATOM     12  C   UNL     1      10.062  -8.570  28.789  1.00  0.00    -0.031 C 
BRANCH  12  13
ATOM     13  C   UNL     1       9.171  -8.665  29.999  1.00  0.00     0.027 C 
BRANCH  13  14
ATOM     14  C   UNL     1       9.474  -9.905  30.854  1.00  0.00     0.004 C 
BRANCH  14  15
ATOM     15  C   UNL     1       9.257  -9.640  32.354  1.00  0.00     0.000 C 
BRANCH  15  16
ATOM     16  C   UNL     1      10.548  -9.214  33.071  1.00  0.00    -0.000 C 
BRANCH  16  17
ATOM     17  C   UNL     1      10.440  -7.820  33.706  1.00  0.00    -0.003 C 
ATOM     18  C   UNL     1      10.862  -6.735  32.718  1.00  0.00     0.004 C 
ENDBRANCH  16  17
ENDBRANCH  15  16
ENDBRANCH  14  15
ENDBRANCH  13  14
ENDBRANCH  12  13
ENDBRANCH  10  11
ENDBRANCH   1  10
TORSDOF 13
ENDMDL
MODEL 8
REMARK VINA RESULT:    -4.294      4.774      8.837
REMARK INTER + INTRA:          -8.726
REMARK INTER:                  -7.589
REMARK INTRA:                  -1.136
REMARK UNBOUND:                -1.168
REMARK SMILES CCCCCCC=CCCCCCCCC(=O)[O-]
REMARK SMILES IDX 10 1 11 2 12 3 13 4 14 5 15 6 16 7 17 8 18 9 9 10 8 11 7 12
REMARK SMILES IDX 6 13 5 14 4 15 3 16 2 17 1 18
REMARK H PARENT
REMARK Flexibility Score: inf
ROOT
ATOM      1  C   UNL     1      12.156  -3.524  25.615  1.00  0.00     0.004 C 
ENDROOT
BRANCH   1   2
ATOM      2  C   UNL     1      13.237  -2.435  25.539  1.00  0.00     0.000 C 
BRANCH   2   3
ATOM      3  C   UNL     1      12.934  -1.234  26.447  1.00  0.00     0.000 C 
BRANCH   3   4
ATOM      4  C   UNL     1      11.537  -0.670  26.162  1.00  0.00     0.000 C 
BRANCH   4   5
ATOM      5  C   UNL     1      11.558   0.261  24.943  1.00  0.00     0.006 C 
BRANCH   5   6
ATOM      6  C   UNL     1      12.288   1.569  25.262  1.00  0.00     0.053 C 
BRANCH   6   7
ATOM      7  C   UNL     1      13.558   1.664  24.477  1.00  0.00     0.041 C 
ATOM      8  O   UNL     1      13.527   1.649  23.219  1.00  0.00    -0.550 OA
ATOM      9  O   UNL     1      14.772   1.819  25.134  1.00  0.00    -0.550 OA
ENDBRANCH   6   7
ENDBRANCH   5   6
ENDBRANCH   4   5
ENDBRANCH   3   4
ENDBRANCH   2   3
ENDBRANCH   1   2
BRANCH   1  10
ATOM     10  C   UNL     1      12.608  -4.751  26.422  1.00  0.00     0.027 C 
BRANCH  10  11
ATOM     11  C   UNL     1      11.487  -5.742  26.574  1.00  0.00    -0.031 C 
ATOM     12  C   UNL     1      10.559  -5.877  25.617  1.00  0.00    -0.031 C 
BRANCH  12  13
ATOM     13  C   UNL     1       9.426  -6.861  25.746  1.00  0.00     0.027 C 
BRANCH  13  14
ATOM     14  C   UNL     1       8.621  -6.662  27.039  1.00  0.00     0.004 C 
BRANCH  14  15
ATOM     15  C   UNL     1       8.553  -7.949  27.881  1.00  0.00     0.000 C 
BRANCH  15  16
ATOM     16  C   UNL     1       9.883  -8.267  28.582  1.00  0.00    -0.000 C 
BRANCH  16  17
ATOM     17  C   UNL     1      10.390  -9.683  28.273  1.00  0.00    -0.003 C 
ATOM     18  C   UNL     1      11.308  -9.683  27.053  1.00  0.00     0.004 C 
ENDBRANCH  16  17
ENDBRANCH  15  16
ENDBRANCH  14  15
ENDBRANCH  13  14
ENDBRANCH  12  13
ENDBRANCH  10  11
ENDBRANCH   1  10
TORSDOF 13
ENDMDL
MODEL 9
REMARK VINA RESULT:    -4.233      4.462      6.434
REMARK INTER + INTRA:          -8.617
REMARK INTER:                  -7.799
REMARK INTRA:                  -0.819
REMARK UNBOUND:                -1.168
REMARK SMILES CCCCCCC=CCCCCCCCC(=O)[O-]
REMARK SMILES IDX 10 1 11 2 12 3 13 4 14 5 15 6 16 7 17 8 18 9 9 10 8 11 7 12
REMARK SMILES IDX 6 13 5 14 4 15 3 16 2 17 1 18
REMARK H PARENT
REMARK Flexibility Score: inf
ROOT
ATOM      1  C   UNL     1       9.508  -6.394  26.528  1.00  0.00     0.004 C 
ENDROOT
BRANCH   1   2
ATOM      2  C   UNL     1      10.614  -7.128  27.303  1.00  0.00     0.000 C 
BRANCH   2   3
ATOM      3  C   UNL     1      11.080  -8.410  26.597  1.00  0.00     0.000 C 
BRANCH   3   4
ATOM      4  C   UNL     1      10.984  -9.618  27.537  1.00  0.00     0.000 C 
BRANCH   4   5
ATOM      5  C   UNL     1      11.928 -10.740  27.089  1.00  0.00     0.006 C 
BRANCH   5   6
ATOM      6  C   UNL     1      12.656 -10.363  25.795  1.00  0.00     0.053 C 
BRANCH   6   7
ATOM      7  C   UNL     1      12.903 -11.578  24.959  1.00  0.00     0.041 C 
ATOM      8  O   UNL     1      14.078 -11.906  24.649  1.00  0.00    -0.550 OA
ATOM      9  O   UNL     1      11.837 -12.377  24.562  1.00  0.00    -0.550 OA
ENDBRANCH   6   7
ENDBRANCH   5   6
ENDBRANCH   4   5
ENDBRANCH   3   4
ENDBRANCH   2   3
ENDBRANCH   1   2
BRANCH   1  10
ATOM     10  C   UNL     1      10.063  -5.329  25.571  1.00  0.00     0.027 C 
BRANCH  10  11
ATOM     11  C   UNL     1       9.056  -4.974  24.511  1.00  0.00    -0.031 C 
ATOM     12  C   UNL     1       8.115  -5.854  24.142  1.00  0.00    -0.031 C 
BRANCH  12  13
ATOM     13  C   UNL     1       7.096  -5.523  23.083  1.00  0.00     0.027 C 
BRANCH  13  14
ATOM     14  C   UNL     1       6.978  -4.012  22.834  1.00  0.00     0.004 C 
BRANCH  14  15
ATOM     15  C   UNL     1       5.796  -3.669  21.909  1.00  0.00     0.000 C 
BRANCH  15  16
ATOM     16  C   UNL     1       4.809  -4.837  21.756  1.00  0.00    -0.000 C 
BRANCH  16  17
ATOM     17  C   UNL     1       3.412  -4.505  22.302  1.00  0.00    -0.003 C 
ATOM     18  C   UNL     1       3.506  -3.722  23.609  1.00  0.00     0.004 C 
ENDBRANCH  16  17
ENDBRANCH  15  16
ENDBRANCH  14  15
ENDBRANCH  13  14
ENDBRANCH  12  13
ENDBRANCH  10  11
ENDBRANCH   1  10
TORSDOF 13
ENDMDL
