MODEL 1
REMARK VINA RESULT:    -5.768      0.000      0.000
REMARK INTER + INTRA:          -9.827
REMARK INTER:                  -8.972
REMARK INTRA:                  -0.856
REMARK UNBOUND:                -0.856
REMARK SMILES COc1cc(CNC(=O)CCCCC=CC(C)C)ccc1O
REMARK SMILES IDX 11 1 12 2 13 3 14 4 15 5 16 6 17 7 18 8 10 9 8 10 9 11 7 12
REMARK SMILES IDX 6 14 5 15 4 16 19 17 3 18 20 19 21 20 2 21 1 22 22 23
REMARK H PARENT 7 13 22 24
REMARK Flexibility Score: inf
ROOT
ATOM      1  C   UNL     1     117.826 116.181 117.892  1.00  0.00     0.010 C 
ENDROOT
BRANCH   1   2
ATOM      2  C   UNL     1     117.406 117.072 116.713  1.00  0.00     0.005 C 
BRANCH   2   3
ATOM      3  C   UNL     1     117.073 116.256 115.458  1.00  0.00     0.027 C 
BRANCH   3   4
ATOM      4  C   UNL     1     116.185 117.010 114.502  1.00  0.00    -0.031 C 
ATOM      5  C   UNL     1     116.159 116.829 113.168  1.00  0.00    -0.028 C 
BRANCH   5   6
ATOM      6  C   UNL     1     117.058 115.876 112.408  1.00  0.00     0.005 C 
ATOM      7  C   UNL     1     116.211 114.937 111.537  1.00  0.00     0.012 C 
ATOM      8  C   UNL     1     118.044 116.660 111.531  1.00  0.00     0.012 C 
ENDBRANCH   5   6
ENDBRANCH   3   4
ENDBRANCH   2   3
ENDBRANCH   1   2
BRANCH   1   9
ATOM      9  C   UNL     1     117.806 114.695 117.504  1.00  0.00     0.100 C 
BRANCH   9  10
ATOM     10  C   UNL     1     116.877 113.946 118.408  1.00  0.00     0.220 C 
ATOM     11  O   UNL     1     117.317 112.973 119.083  1.00  0.00    -0.275 OA
ATOM     12  N   UNL     1     115.515 114.382 118.561  1.00  0.00    -0.352 N 
ATOM     13  H   UNL     1     115.142 115.118 117.916  1.00  0.00     0.163 HD
BRANCH  12  14
ATOM     14  C   UNL     1     114.729 114.053 119.746  1.00  0.00     0.151 C 
BRANCH  14  15
ATOM     15  C   UNL     1     113.775 112.937 119.420  1.00  0.00    -0.025 A 
ATOM     16  C   UNL     1     113.606 111.872 120.323  1.00  0.00     0.056 A 
ATOM     17  C   UNL     1     113.116 112.905 118.182  1.00  0.00     0.009 A 
ATOM     18  C   UNL     1     112.773 110.783 119.999  1.00  0.00     0.160 A 
ATOM     19  C   UNL     1     112.281 111.832 117.859  1.00  0.00     0.050 A 
ATOM     20  C   UNL     1     112.106 110.773 118.758  1.00  0.00     0.157 A 
BRANCH  18  21
ATOM     21  O   UNL     1     112.591 109.698 120.877  1.00  0.00    -0.493 OA
ATOM     22  C   UNL     1     113.622 108.802 121.277  1.00  0.00     0.278 C 
ENDBRANCH  18  21
BRANCH  20  23
ATOM     23  O   UNL     1     111.270 109.715 118.397  1.00  0.00    -0.504 OA
ATOM     24  H   UNL     1     110.264 109.759 118.513  1.00  0.00     0.293 HD
ENDBRANCH  20  23
ENDBRANCH  14  15
ENDBRANCH  12  14
ENDBRANCH   9  10
ENDBRANCH   1   9
TORSDOF 10
ENDMDL
MODEL 2
REMARK VINA RESULT:    -5.696      3.169      5.269
REMARK INTER + INTRA:          -9.715
REMARK INTER:                  -8.686
REMARK INTRA:                  -1.030
REMARK UNBOUND:                -0.856
REMARK SMILES COc1cc(CNC(=O)CCCCC=CC(C)C)ccc1O
REMARK SMILES IDX 11 1 12 2 13 3 14 4 15 5 16 6 17 7 18 8 10 9 8 10 9 11 7 12
REMARK SMILES IDX 6 14 5 15 4 16 19 17 3 18 20 19 21 20 2 21 1 22 22 23
REMARK H PARENT 7 13 22 24
REMARK Flexibility Score: inf
ROOT
ATOM      1  C   UNL     1     116.055 117.017 117.501  1.00  0.00     0.010 C 
ENDROOT
BRANCH   1   2
ATOM      2  C   UNL     1     117.152 117.015 116.426  1.00  0.00     0.005 C 
BRANCH   2   3
ATOM      3  C   UNL     1     116.747 116.209 115.185  1.00  0.00     0.027 C 
BRANCH   3   4
ATOM      4  C   UNL     1     116.246 117.089 114.069  1.00  0.00    -0.031 C 
ATOM      5  C   UNL     1     116.434 116.852 112.756  1.00  0.00    -0.028 C 
BRANCH   5   6
ATOM      6  C   UNL     1     117.228 115.691 112.194  1.00  0.00     0.005 C 
ATOM      7  C   UNL     1     116.316 114.793 111.346  1.00  0.00     0.012 C 
ATOM      8  C   UNL     1     118.396 116.208 111.343  1.00  0.00     0.012 C 
ENDBRANCH   5   6
ENDBRANCH   3   4
ENDBRANCH   2   3
ENDBRANCH   1   2
BRANCH   1   9
ATOM      9  C   UNL     1     115.144 115.786 117.372  1.00  0.00     0.100 C 
BRANCH   9  10
ATOM     10  C   UNL     1     115.402 114.842 118.505  1.00  0.00     0.220 C 
ATOM     11  O   UNL     1     114.528 113.984 118.810  1.00  0.00    -0.275 OA
ATOM     12  N   UNL     1     116.669 114.865 119.185  1.00  0.00    -0.352 N 
ATOM     13  H   UNL     1     117.336 115.649 118.992  1.00  0.00     0.163 HD
BRANCH  12  14
ATOM     14  C   UNL     1     117.177 113.703 119.909  1.00  0.00     0.151 C 
BRANCH  14  15
ATOM     15  C   UNL     1     118.445 113.222 119.259  1.00  0.00    -0.025 A 
ATOM     16  C   UNL     1     119.515 112.775 120.054  1.00  0.00     0.056 A 
ATOM     17  C   UNL     1     118.602 113.299 117.867  1.00  0.00     0.009 A 
ATOM     18  C   UNL     1     120.736 112.392 119.463  1.00  0.00     0.160 A 
ATOM     19  C   UNL     1     119.807 112.911 117.274  1.00  0.00     0.050 A 
ATOM     20  C   UNL     1     120.872 112.459 118.062  1.00  0.00     0.157 A 
BRANCH  18  21
ATOM     21  O   UNL     1     121.828 111.948 120.232  1.00  0.00    -0.493 OA
ATOM     22  C   UNL     1     121.751 110.944 121.237  1.00  0.00     0.278 C 
ENDBRANCH  18  21
BRANCH  20  23
ATOM     23  O   UNL     1     122.063 112.088 117.435  1.00  0.00    -0.504 OA
ATOM     24  H   UNL     1     122.692 112.769 117.027  1.00  0.00     0.293 HD
ENDBRANCH  20  23
ENDBRANCH  14  15
ENDBRANCH  12  14
ENDBRANCH   9  10
ENDBRANCH   1   9
TORSDOF 10
ENDMDL
MODEL 3
REMARK VINA RESULT:    -5.676      5.265      6.510
REMARK INTER + INTRA:          -9.683
REMARK INTER:                  -8.962
REMARK INTRA:                  -0.721
REMARK UNBOUND:                -0.856
REMARK SMILES COc1cc(CNC(=O)CCCCC=CC(C)C)ccc1O
REMARK SMILES IDX 11 1 12 2 13 3 14 4 15 5 16 6 17 7 18 8 10 9 8 10 9 11 7 12
REMARK SMILES IDX 6 14 5 15 4 16 19 17 3 18 20 19 21 20 2 21 1 22 22 23
REMARK H PARENT 7 13 22 24
REMARK Flexibility Score: inf
ROOT
ATOM      1  C   UNL     1     116.452 117.173 117.588  1.00  0.00     0.010 C 
ENDROOT
BRANCH   1   2
ATOM      2  C   UNL     1     115.918 116.258 116.476  1.00  0.00     0.005 C 
BRANCH   2   3
ATOM      3  C   UNL     1     116.807 116.283 115.226  1.00  0.00     0.027 C 
BRANCH   3   4
ATOM      4  C   UNL     1     116.208 117.106 114.114  1.00  0.00    -0.031 C 
ATOM      5  C   UNL     1     116.337 116.838 112.801  1.00  0.00    -0.028 C 
BRANCH   5   6
ATOM      6  C   UNL     1     117.152 115.695 112.229  1.00  0.00     0.005 C 
ATOM      7  C   UNL     1     116.252 114.778 111.389  1.00  0.00     0.012 C 
ATOM      8  C   UNL     1     118.299 116.239 111.367  1.00  0.00     0.012 C 
ENDBRANCH   5   6
ENDBRANCH   3   4
ENDBRANCH   2   3
ENDBRANCH   1   2
BRANCH   1   9
ATOM      9  C   UNL     1     117.909 117.581 117.324  1.00  0.00     0.100 C 
BRANCH   9  10
ATOM     10  C   UNL     1     118.817 116.865 118.274  1.00  0.00     0.220 C 
ATOM     11  O   UNL     1     119.686 117.519 118.916  1.00  0.00    -0.275 OA
ATOM     12  N   UNL     1     118.648 115.456 118.507  1.00  0.00    -0.352 N 
ATOM     13  H   UNL     1     117.999 114.913 117.889  1.00  0.00     0.163 HD
BRANCH  12  14
ATOM     14  C   UNL     1     119.116 114.815 119.732  1.00  0.00     0.151 C 
BRANCH  14  15
ATOM     15  C   UNL     1     120.203 113.830 119.400  1.00  0.00    -0.025 A 
ATOM     16  C   UNL     1     121.235 113.586 120.322  1.00  0.00     0.056 A 
ATOM     17  C   UNL     1     120.243 113.218 118.138  1.00  0.00     0.009 A 
ATOM     18  C   UNL     1     122.300 112.723 119.995  1.00  0.00     0.160 A 
ATOM     19  C   UNL     1     121.292 112.353 117.811  1.00  0.00     0.050 A 
ATOM     20  C   UNL     1     122.318 112.103 118.730  1.00  0.00     0.157 A 
BRANCH  18  21
ATOM     21  O   UNL     1     123.352 112.466 120.894  1.00  0.00    -0.493 OA
ATOM     22  C   UNL     1     124.653 113.036 120.797  1.00  0.00     0.278 C 
ENDBRANCH  18  21
BRANCH  20  23
ATOM     23  O   UNL     1     123.353 111.240 118.365  1.00  0.00    -0.504 OA
ATOM     24  H   UNL     1     124.113 111.535 117.763  1.00  0.00     0.293 HD
ENDBRANCH  20  23
ENDBRANCH  14  15
ENDBRANCH  12  14
ENDBRANCH   9  10
ENDBRANCH   1   9
TORSDOF 10
ENDMDL
MODEL 4
REMARK VINA RESULT:    -5.669      2.125      2.527
REMARK INTER + INTRA:          -9.673
REMARK INTER:                  -8.704
REMARK INTRA:                  -0.970
REMARK UNBOUND:                -0.856
REMARK SMILES COc1cc(CNC(=O)CCCCC=CC(C)C)ccc1O
REMARK SMILES IDX 11 1 12 2 13 3 14 4 15 5 16 6 17 7 18 8 10 9 8 10 9 11 7 12
REMARK SMILES IDX 6 14 5 15 4 16 19 17 3 18 20 19 21 20 2 21 1 22 22 23
REMARK H PARENT 7 13 22 24
REMARK Flexibility Score: inf
ROOT
ATOM      1  C   UNL     1     116.998 117.126 117.552  1.00  0.00     0.010 C 
ENDROOT
BRANCH   1   2
ATOM      2  C   UNL     1     117.025 115.960 116.553  1.00  0.00     0.005 C 
BRANCH   2   3
ATOM      3  C   UNL     1     116.220 116.264 115.283  1.00  0.00     0.027 C 
BRANCH   3   4
ATOM      4  C   UNL     1     117.044 116.971 114.238  1.00  0.00    -0.031 C 
ATOM      5  C   UNL     1     116.820 116.914 112.911  1.00  0.00    -0.028 C 
BRANCH   5   6
ATOM      6  C   UNL     1     115.736 116.085 112.253  1.00  0.00     0.005 C 
ATOM      7  C   UNL     1     114.851 116.980 111.375  1.00  0.00     0.012 C 
ATOM      8  C   UNL     1     116.361 114.969 111.405  1.00  0.00     0.012 C 
ENDBRANCH   5   6
ENDBRANCH   3   4
ENDBRANCH   2   3
ENDBRANCH   1   2
BRANCH   1   9
ATOM      9  C   UNL     1     115.722 117.968 117.394  1.00  0.00     0.100 C 
BRANCH   9  10
ATOM     10  C   UNL     1     114.787 117.692 118.530  1.00  0.00     0.220 C 
ATOM     11  O   UNL     1     113.911 118.548 118.835  1.00  0.00    -0.275 OA
ATOM     12  N   UNL     1     114.842 116.429 119.216  1.00  0.00    -0.352 N 
ATOM     13  H   UNL     1     115.642 115.780 119.023  1.00  0.00     0.163 HD
BRANCH  12  14
ATOM     14  C   UNL     1     113.696 115.897 119.946  1.00  0.00     0.151 C 
BRANCH  14  15
ATOM     15  C   UNL     1     113.220 114.635 119.281  1.00  0.00    -0.025 A 
ATOM     16  C   UNL     1     112.812 113.540 120.064  1.00  0.00     0.056 A 
ATOM     17  C   UNL     1     113.262 114.509 117.884  1.00  0.00     0.009 A 
ATOM     18  C   UNL     1     112.435 112.326 119.457  1.00  0.00     0.160 A 
ATOM     19  C   UNL     1     112.881 113.309 117.276  1.00  0.00     0.050 A 
ATOM     20  C   UNL     1     112.468 112.220 118.052  1.00  0.00     0.157 A 
BRANCH  18  21
ATOM     21  O   UNL     1     112.031 111.209 120.214  1.00  0.00    -0.493 OA
ATOM     22  C   UNL     1     111.264 111.281 121.411  1.00  0.00     0.278 C 
ENDBRANCH  18  21
BRANCH  20  23
ATOM     23  O   UNL     1     112.102 111.036 117.410  1.00  0.00    -0.504 OA
ATOM     24  H   UNL     1     111.748 110.234 117.918  1.00  0.00     0.293 HD
ENDBRANCH  20  23
ENDBRANCH  14  15
ENDBRANCH  12  14
ENDBRANCH   9  10
ENDBRANCH   1   9
TORSDOF 10
ENDMDL
MODEL 5
REMARK VINA RESULT:    -5.621      4.382      5.879
REMARK INTER + INTRA:          -9.598
REMARK INTER:                  -8.556
REMARK INTRA:                  -1.041
REMARK UNBOUND:                -0.856
REMARK SMILES COc1cc(CNC(=O)CCCCC=CC(C)C)ccc1O
REMARK SMILES IDX 11 1 12 2 13 3 14 4 15 5 16 6 17 7 18 8 10 9 8 10 9 11 7 12
REMARK SMILES IDX 6 14 5 15 4 16 19 17 3 18 20 19 21 20 2 21 1 22 22 23
REMARK H PARENT 7 13 22 24
REMARK Flexibility Score: inf
ROOT
ATOM      1  C   UNL     1     117.654 116.209 117.871  1.00  0.00     0.010 C 
ENDROOT
BRANCH   1   2
ATOM      2  C   UNL     1     117.567 117.008 116.562  1.00  0.00     0.005 C 
BRANCH   2   3
ATOM      3  C   UNL     1     117.001 116.172 115.407  1.00  0.00     0.027 C 
BRANCH   3   4
ATOM      4  C   UNL     1     116.209 117.004 114.432  1.00  0.00    -0.031 C 
ATOM      5  C   UNL     1     116.241 116.860 113.093  1.00  0.00    -0.028 C 
BRANCH   5   6
ATOM      6  C   UNL     1     117.120 115.875 112.351  1.00  0.00     0.005 C 
ATOM      7  C   UNL     1     116.254 114.940 111.494  1.00  0.00     0.012 C 
ATOM      8  C   UNL     1     118.124 116.622 111.462  1.00  0.00     0.012 C 
ENDBRANCH   5   6
ENDBRANCH   3   4
ENDBRANCH   2   3
ENDBRANCH   1   2
BRANCH   1   9
ATOM      9  C   UNL     1     116.941 114.854 117.747  1.00  0.00     0.100 C 
BRANCH   9  10
ATOM     10  C   UNL     1     115.687 114.863 118.564  1.00  0.00     0.220 C 
ATOM     11  O   UNL     1     115.556 114.038 119.511  1.00  0.00    -0.275 OA
ATOM     12  N   UNL     1     114.675 115.854 118.317  1.00  0.00    -0.352 N 
ATOM     13  H   UNL     1     114.750 116.456 117.463  1.00  0.00     0.163 HD
BRANCH  12  14
ATOM     14  C   UNL     1     113.713 116.246 119.342  1.00  0.00     0.151 C 
BRANCH  14  15
ATOM     15  C   UNL     1     113.473 117.729 119.264  1.00  0.00    -0.025 A 
ATOM     16  C   UNL     1     112.497 118.326 120.082  1.00  0.00     0.056 A 
ATOM     17  C   UNL     1     114.154 118.509 118.317  1.00  0.00     0.009 A 
ATOM     18  C   UNL     1     112.209 119.701 119.967  1.00  0.00     0.160 A 
ATOM     19  C   UNL     1     113.879 119.875 118.205  1.00  0.00     0.050 A 
ATOM     20  C   UNL     1     112.912 120.474 119.022  1.00  0.00     0.157 A 
BRANCH  18  21
ATOM     21  O   UNL     1     111.232 120.326 120.764  1.00  0.00    -0.493 OA
ATOM     22  C   UNL     1     109.853 119.972 120.776  1.00  0.00     0.278 C 
ENDBRANCH  18  21
BRANCH  20  23
ATOM     23  O   UNL     1     112.660 121.839 118.876  1.00  0.00    -0.504 OA
ATOM     24  H   UNL     1     113.392 122.535 118.958  1.00  0.00     0.293 HD
ENDBRANCH  20  23
ENDBRANCH  14  15
ENDBRANCH  12  14
ENDBRANCH   9  10
ENDBRANCH   1   9
TORSDOF 10
ENDMDL
MODEL 6
REMARK VINA RESULT:    -5.620      3.123      4.727
REMARK INTER + INTRA:          -9.597
REMARK INTER:                  -8.179
REMARK INTRA:                  -1.418
REMARK UNBOUND:                -0.856
REMARK SMILES COc1cc(CNC(=O)CCCCC=CC(C)C)ccc1O
REMARK SMILES IDX 11 1 12 2 13 3 14 4 15 5 16 6 17 7 18 8 10 9 8 10 9 11 7 12
REMARK SMILES IDX 6 14 5 15 4 16 19 17 3 18 20 19 21 20 2 21 1 22 22 23
REMARK H PARENT 7 13 22 24
REMARK Flexibility Score: inf
ROOT
ATOM      1  C   UNL     1     115.537 117.877 117.306  1.00  0.00     0.010 C 
ENDROOT
BRANCH   1   2
ATOM      2  C   UNL     1     116.931 117.252 117.145  1.00  0.00     0.005 C 
BRANCH   2   3
ATOM      3  C   UNL     1     117.335 117.103 115.673  1.00  0.00     0.027 C 
BRANCH   3   4
ATOM      4  C   UNL     1     116.509 116.067 114.954  1.00  0.00    -0.031 C 
ATOM      5  C   UNL     1     116.205 116.098 113.642  1.00  0.00    -0.028 C 
BRANCH   5   6
ATOM      6  C   UNL     1     116.598 117.209 112.690  1.00  0.00     0.005 C 
ATOM      7  C   UNL     1     117.767 116.754 111.806  1.00  0.00     0.012 C 
ATOM      8  C   UNL     1     115.402 117.609 111.816  1.00  0.00     0.012 C 
ENDBRANCH   5   6
ENDBRANCH   3   4
ENDBRANCH   2   3
ENDBRANCH   1   2
BRANCH   1   9
ATOM      9  C   UNL     1     114.823 117.336 118.553  1.00  0.00     0.100 C 
BRANCH   9  10
ATOM     10  C   UNL     1     114.619 115.858 118.421  1.00  0.00     0.220 C 
ATOM     11  O   UNL     1     113.991 115.405 117.424  1.00  0.00    -0.275 OA
ATOM     12  N   UNL     1     115.202 114.963 119.384  1.00  0.00    -0.352 N 
ATOM     13  H   UNL     1     115.624 115.359 120.256  1.00  0.00     0.163 HD
BRANCH  12  14
ATOM     14  C   UNL     1     115.483 113.566 119.066  1.00  0.00     0.151 C 
BRANCH  14  15
ATOM     15  C   UNL     1     116.971 113.362 118.980  1.00  0.00    -0.025 A 
ATOM     16  C   UNL     1     117.685 112.918 120.108  1.00  0.00     0.056 A 
ATOM     17  C   UNL     1     117.667 113.694 117.808  1.00  0.00     0.009 A 
ATOM     18  C   UNL     1     119.088 112.793 120.065  1.00  0.00     0.160 A 
ATOM     19  C   UNL     1     119.058 113.563 117.756  1.00  0.00     0.050 A 
ATOM     20  C   UNL     1     119.770 113.116 118.875  1.00  0.00     0.157 A 
BRANCH  18  21
ATOM     21  O   UNL     1     119.831 112.361 121.179  1.00  0.00    -0.493 OA
ATOM     22  C   UNL     1     119.314 111.548 122.227  1.00  0.00     0.278 C 
ENDBRANCH  18  21
BRANCH  20  23
ATOM     23  O   UNL     1     121.159 113.005 118.788  1.00  0.00    -0.504 OA
ATOM     24  H   UNL     1     121.781 113.704 119.180  1.00  0.00     0.293 HD
ENDBRANCH  20  23
ENDBRANCH  14  15
ENDBRANCH  12  14
ENDBRANCH   9  10
ENDBRANCH   1   9
TORSDOF 10
ENDMDL
MODEL 7
REMARK VINA RESULT:    -5.562      4.992      8.502
REMARK INTER + INTRA:          -9.507
REMARK INTER:                  -8.470
REMARK INTRA:                  -1.037
REMARK UNBOUND:                -0.856
REMARK SMILES COc1cc(CNC(=O)CCCCC=CC(C)C)ccc1O
REMARK SMILES IDX 11 1 12 2 13 3 14 4 15 5 16 6 17 7 18 8 10 9 8 10 9 11 7 12
REMARK SMILES IDX 6 14 5 15 4 16 19 17 3 18 20 19 21 20 2 21 1 22 22 23
REMARK H PARENT 7 13 22 24
REMARK Flexibility Score: inf
ROOT
ATOM      1  C   UNL     1     115.933 117.584 117.193  1.00  0.00     0.010 C 
ENDROOT
BRANCH   1   2
ATOM      2  C   UNL     1     116.823 116.351 116.975  1.00  0.00     0.005 C 
BRANCH   2   3
ATOM      3  C   UNL     1     116.971 115.996 115.490  1.00  0.00     0.027 C 
BRANCH   3   4
ATOM      4  C   UNL     1     116.349 117.032 114.589  1.00  0.00    -0.031 C 
ATOM      5  C   UNL     1     116.346 116.981 113.243  1.00  0.00    -0.028 C 
BRANCH   5   6
ATOM      6  C   UNL     1     117.016 115.901 112.418  1.00  0.00     0.005 C 
ATOM      7  C   UNL     1     115.961 115.113 111.629  1.00  0.00     0.012 C 
ATOM      8  C   UNL     1     118.036 116.524 111.456  1.00  0.00     0.012 C 
ENDBRANCH   5   6
ENDBRANCH   3   4
ENDBRANCH   2   3
ENDBRANCH   1   2
BRANCH   1   9
ATOM      9  C   UNL     1     114.890 117.333 118.293  1.00  0.00     0.100 C 
BRANCH   9  10
ATOM     10  C   UNL     1     115.106 118.289 119.425  1.00  0.00     0.220 C 
ATOM     11  O   UNL     1     114.807 117.937 120.600  1.00  0.00    -0.275 OA
ATOM     12  N   UNL     1     115.720 119.566 119.180  1.00  0.00    -0.352 N 
ATOM     13  H   UNL     1     115.860 119.882 118.192  1.00  0.00     0.163 HD
BRANCH  12  14
ATOM     14  C   UNL     1     116.408 120.305 120.234  1.00  0.00     0.151 C 
BRANCH  14  15
ATOM     15  C   UNL     1     117.879 120.367 119.925  1.00  0.00    -0.025 A 
ATOM     16  C   UNL     1     118.731 121.149 120.724  1.00  0.00     0.056 A 
ATOM     17  C   UNL     1     118.394 119.720 118.792  1.00  0.00     0.009 A 
ATOM     18  C   UNL     1     120.098 121.276 120.403  1.00  0.00     0.160 A 
ATOM     19  C   UNL     1     119.750 119.835 118.474  1.00  0.00     0.050 A 
ATOM     20  C   UNL     1     120.603 120.608 119.271  1.00  0.00     0.157 A 
BRANCH  18  21
ATOM     21  O   UNL     1     120.974 122.059 121.178  1.00  0.00    -0.493 OA
ATOM     22  C   UNL     1     121.018 123.482 121.158  1.00  0.00     0.278 C 
ENDBRANCH  18  21
BRANCH  20  23
ATOM     23  O   UNL     1     121.949 120.705 118.917  1.00  0.00    -0.504 OA
ATOM     24  H   UNL     1     122.433 121.595 118.876  1.00  0.00     0.293 HD
ENDBRANCH  20  23
ENDBRANCH  14  15
ENDBRANCH  12  14
ENDBRANCH   9  10
ENDBRANCH   1   9
TORSDOF 10
ENDMDL
MODEL 8
REMARK VINA RESULT:    -5.543      5.041      6.622
REMARK INTER + INTRA:          -9.477
REMARK INTER:                  -8.442
REMARK INTRA:                  -1.034
REMARK UNBOUND:                -0.856
REMARK SMILES COc1cc(CNC(=O)CCCCC=CC(C)C)ccc1O
REMARK SMILES IDX 11 1 12 2 13 3 14 4 15 5 16 6 17 7 18 8 10 9 8 10 9 11 7 12
REMARK SMILES IDX 6 14 5 15 4 16 19 17 3 18 20 19 21 20 2 21 1 22 22 23
REMARK H PARENT 7 13 22 24
REMARK Flexibility Score: inf
ROOT
ATOM      1  C   UNL     1     117.266 115.661 117.171  1.00  0.00     0.010 C 
ENDROOT
BRANCH   1   2
ATOM      2  C   UNL     1     115.958 116.266 116.639  1.00  0.00     0.005 C 
BRANCH   2   3
ATOM      3  C   UNL     1     116.159 117.012 115.314  1.00  0.00     0.027 C 
BRANCH   3   4
ATOM      4  C   UNL     1     116.973 116.216 114.326  1.00  0.00    -0.031 C 
ATOM      5  C   UNL     1     116.960 116.400 112.992  1.00  0.00    -0.028 C 
BRANCH   5   6
ATOM      6  C   UNL     1     116.083 117.400 112.266  1.00  0.00     0.005 C 
ATOM      7  C   UNL     1     116.948 118.314 111.386  1.00  0.00     0.012 C 
ATOM      8  C   UNL     1     115.045 116.670 111.404  1.00  0.00     0.012 C 
ENDBRANCH   5   6
ENDBRANCH   3   4
ENDBRANCH   2   3
ENDBRANCH   1   2
BRANCH   1   9
ATOM      9  C   UNL     1     117.310 115.690 118.707  1.00  0.00     0.100 C 
BRANCH   9  10
ATOM     10  C   UNL     1     117.539 117.092 119.182  1.00  0.00     0.220 C 
ATOM     11  O   UNL     1     118.692 117.598 119.092  1.00  0.00    -0.275 OA
ATOM     12  N   UNL     1     116.434 117.876 119.665  1.00  0.00    -0.352 N 
ATOM     13  H   UNL     1     115.513 117.407 119.833  1.00  0.00     0.163 HD
BRANCH  12  14
ATOM     14  C   UNL     1     116.463 119.335 119.657  1.00  0.00     0.151 C 
BRANCH  14  15
ATOM     15  C   UNL     1     115.136 119.861 119.182  1.00  0.00    -0.025 A 
ATOM     16  C   UNL     1     114.206 120.360 120.111  1.00  0.00     0.056 A 
ATOM     17  C   UNL     1     114.783 119.776 117.827  1.00  0.00     0.009 A 
ATOM     18  C   UNL     1     112.931 120.787 119.690  1.00  0.00     0.160 A 
ATOM     19  C   UNL     1     113.523 120.206 117.402  1.00  0.00     0.050 A 
ATOM     20  C   UNL     1     112.597 120.710 118.324  1.00  0.00     0.157 A 
BRANCH  18  21
ATOM     21  O   UNL     1     111.975 121.283 120.597  1.00  0.00    -0.493 OA
ATOM     22  C   UNL     1     111.171 120.471 121.445  1.00  0.00     0.278 C 
ENDBRANCH  18  21
BRANCH  20  23
ATOM     23  O   UNL     1     111.346 121.123 117.863  1.00  0.00    -0.504 OA
ATOM     24  H   UNL     1     110.482 120.758 118.248  1.00  0.00     0.293 HD
ENDBRANCH  20  23
ENDBRANCH  14  15
ENDBRANCH  12  14
ENDBRANCH   9  10
ENDBRANCH   1   9
TORSDOF 10
ENDMDL
MODEL 9
REMARK VINA RESULT:    -5.517      4.734      8.276
REMARK INTER + INTRA:          -9.436
REMARK INTER:                  -8.482
REMARK INTRA:                  -0.954
REMARK UNBOUND:                -0.856
REMARK SMILES COc1cc(CNC(=O)CCCCC=CC(C)C)ccc1O
REMARK SMILES IDX 11 1 12 2 13 3 14 4 15 5 16 6 17 7 18 8 10 9 8 10 9 11 7 12
REMARK SMILES IDX 6 14 5 15 4 16 19 17 3 18 20 19 21 20 2 21 1 22 22 23
REMARK H PARENT 7 13 22 24
REMARK Flexibility Score: inf
ROOT
ATOM      1  C   UNL     1     116.427 116.074 117.774  1.00  0.00     0.010 C 
ENDROOT
BRANCH   1   2
ATOM      2  C   UNL     1     116.309 117.065 116.606  1.00  0.00     0.005 C 
BRANCH   2   3
ATOM      3  C   UNL     1     116.177 116.355 115.253  1.00  0.00     0.027 C 
BRANCH   3   4
ATOM      4  C   UNL     1     117.059 116.968 114.196  1.00  0.00    -0.031 C 
ATOM      5  C   UNL     1     116.891 116.816 112.868  1.00  0.00    -0.028 C 
BRANCH   5   6
ATOM      6  C   UNL     1     115.819 115.958 112.226  1.00  0.00     0.005 C 
ATOM      7  C   UNL     1     114.901 116.829 111.357  1.00  0.00     0.012 C 
ATOM      8  C   UNL     1     116.461 114.856 111.373  1.00  0.00     0.012 C 
ENDBRANCH   5   6
ENDBRANCH   3   4
ENDBRANCH   2   3
ENDBRANCH   1   2
BRANCH   1   9
ATOM      9  C   UNL     1     117.607 115.112 117.573  1.00  0.00     0.100 C 
BRANCH   9  10
ATOM     10  C   UNL     1     118.671 115.393 118.589  1.00  0.00     0.220 C 
ATOM     11  O   UNL     1     119.690 114.650 118.643  1.00  0.00    -0.275 OA
ATOM     12  N   UNL     1     118.564 116.546 119.442  1.00  0.00    -0.352 N 
ATOM     13  H   UNL     1     117.665 117.084 119.458  1.00  0.00     0.163 HD
BRANCH  12  14
ATOM     14  C   UNL     1     119.734 117.156 120.064  1.00  0.00     0.151 C 
BRANCH  14  15
ATOM     15  C   UNL     1     120.095 118.415 119.324  1.00  0.00    -0.025 A 
ATOM     16  C   UNL     1     120.645 119.506 120.022  1.00  0.00     0.056 A 
ATOM     17  C   UNL     1     119.806 118.543 117.958  1.00  0.00     0.009 A 
ATOM     18  C   UNL     1     120.919 120.717 119.357  1.00  0.00     0.160 A 
ATOM     19  C   UNL     1     120.083 119.740 117.290  1.00  0.00     0.050 A 
ATOM     20  C   UNL     1     120.637 120.825 117.980  1.00  0.00     0.157 A 
BRANCH  18  21
ATOM     21  O   UNL     1     121.460 121.829 120.029  1.00  0.00    -0.493 OA
ATOM     22  C   UNL     1     121.368 122.047 121.432  1.00  0.00     0.278 C 
ENDBRANCH  18  21
BRANCH  20  23
ATOM     23  O   UNL     1     120.893 122.006 117.282  1.00  0.00    -0.504 OA
ATOM     24  H   UNL     1     121.798 122.204 116.871  1.00  0.00     0.293 HD
ENDBRANCH  20  23
ENDBRANCH  14  15
ENDBRANCH  12  14
ENDBRANCH   9  10
ENDBRANCH   1   9
TORSDOF 10
ENDMDL
