MODEL 1
REMARK VINA RESULT:    -5.196      0.000      0.000
REMARK INTER + INTRA:         -10.948
REMARK INTER:                  -9.448
REMARK INTRA:                  -1.500
REMARK UNBOUND:                -1.500
REMARK SMILES CCCCCCCCCCCCCC[C@H](C)C(=O)[O-]
REMARK SMILES IDX 9 1 10 2 11 3 12 4 13 5 14 6 15 7 16 8 17 9 18 10 19 11 8 12
REMARK SMILES IDX 7 13 6 14 5 15 4 16 3 17 2 18 1 19
REMARK H PARENT
REMARK Flexibility Score: inf
ROOT
ATOM      1  C   UNL     1     -13.673 -12.056  13.509  1.00  0.00     0.000 C 
ENDROOT
BRANCH   1   2
ATOM      2  C   UNL     1     -12.206 -12.371  13.829  1.00  0.00     0.000 C 
BRANCH   2   3
ATOM      3  C   UNL     1     -12.096 -13.582  14.767  1.00  0.00     0.000 C 
BRANCH   3   4
ATOM      4  C   UNL     1     -10.641 -13.910  15.143  1.00  0.00     0.000 C 
BRANCH   4   5
ATOM      5  C   UNL     1      -9.847 -12.667  15.575  1.00  0.00     0.001 C 
BRANCH   5   6
ATOM      6  C   UNL     1      -8.525 -12.564  14.798  1.00  0.00     0.009 C 
BRANCH   6   7
ATOM      7  C   UNL     1      -7.964 -11.127  14.791  1.00  0.00     0.032 C 
ATOM      8  C   UNL     1      -8.962 -10.162  14.144  1.00  0.00     0.014 C 
BRANCH   7   9
ATOM      9  C   UNL     1      -6.648 -11.057  14.065  1.00  0.00     0.044 C 
ATOM     10  O   UNL     1      -6.053 -12.116  13.731  1.00  0.00    -0.550 OA
ATOM     11  O   UNL     1      -6.078  -9.826  13.761  1.00  0.00    -0.550 OA
ENDBRANCH   7   9
ENDBRANCH   6   7
ENDBRANCH   5   6
ENDBRANCH   4   5
ENDBRANCH   3   4
ENDBRANCH   2   3
ENDBRANCH   1   2
BRANCH   1  12
ATOM     12  C   UNL     1     -14.401 -13.303  12.984  1.00  0.00     0.000 C 
BRANCH  12  13
ATOM     13  C   UNL     1     -15.931 -13.177  13.070  1.00  0.00    -0.000 C 
BRANCH  13  14
ATOM     14  C   UNL     1     -16.398 -12.561  14.400  1.00  0.00    -0.000 C 
BRANCH  14  15
ATOM     15  C   UNL     1     -16.806 -13.619  15.441  1.00  0.00    -0.000 C 
BRANCH  15  16
ATOM     16  C   UNL     1     -15.789 -13.851  16.576  1.00  0.00    -0.000 C 
BRANCH  16  17
ATOM     17  C   UNL     1     -15.095 -12.558  17.034  1.00  0.00    -0.000 C 
BRANCH  17  18
ATOM     18  C   UNL     1     -15.360 -12.242  18.514  1.00  0.00    -0.003 C 
ATOM     19  C   UNL     1     -16.729 -12.729  18.989  1.00  0.00     0.004 C 
ENDBRANCH  17  18
ENDBRANCH  16  17
ENDBRANCH  15  16
ENDBRANCH  14  15
ENDBRANCH  13  14
ENDBRANCH  12  13
ENDBRANCH   1  12
TORSDOF 14
ENDMDL
MODEL 2
REMARK VINA RESULT:    -5.104      1.276      3.195
REMARK INTER + INTRA:         -10.781
REMARK INTER:                  -9.299
REMARK INTRA:                  -1.482
REMARK UNBOUND:                -1.500
REMARK SMILES CCCCCCCCCCCCCC[C@H](C)C(=O)[O-]
REMARK SMILES IDX 9 1 10 2 11 3 12 4 13 5 14 6 15 7 16 8 17 9 18 10 19 11 8 12
REMARK SMILES IDX 7 13 6 14 5 15 4 16 3 17 2 18 1 19
REMARK H PARENT
REMARK Flexibility Score: inf
ROOT
ATOM      1  C   UNL     1     -13.999 -12.593  16.075  1.00  0.00     0.000 C 
ENDROOT
BRANCH   1   2
ATOM      2  C   UNL     1     -12.564 -13.131  16.116  1.00  0.00     0.000 C 
BRANCH   2   3
ATOM      3  C   UNL     1     -12.318 -14.132  14.977  1.00  0.00     0.000 C 
BRANCH   3   4
ATOM      4  C   UNL     1     -10.825 -14.312  14.658  1.00  0.00     0.000 C 
BRANCH   4   5
ATOM      5  C   UNL     1      -9.949 -13.219  15.289  1.00  0.00     0.001 C 
BRANCH   5   6
ATOM      6  C   UNL     1      -9.894 -11.974  14.390  1.00  0.00     0.009 C 
BRANCH   6   7
ATOM      7  C   UNL     1      -8.478 -11.364  14.325  1.00  0.00     0.032 C 
ATOM      8  C   UNL     1      -8.528  -9.943  13.757  1.00  0.00     0.014 C 
BRANCH   7   9
ATOM      9  C   UNL     1      -7.555 -12.212  13.493  1.00  0.00     0.044 C 
ATOM     10  O   UNL     1      -6.345 -12.338  13.820  1.00  0.00    -0.550 OA
ATOM     11  O   UNL     1      -8.028 -12.858  12.356  1.00  0.00    -0.550 OA
ENDBRANCH   7   9
ENDBRANCH   6   7
ENDBRANCH   5   6
ENDBRANCH   4   5
ENDBRANCH   3   4
ENDBRANCH   2   3
ENDBRANCH   1   2
BRANCH   1  12
ATOM     12  C   UNL     1     -14.829 -13.149  17.243  1.00  0.00     0.000 C 
BRANCH  12  13
ATOM     13  C   UNL     1     -16.269 -13.496  16.835  1.00  0.00    -0.000 C 
BRANCH  13  14
ATOM     14  C   UNL     1     -16.339 -14.241  15.491  1.00  0.00    -0.000 C 
BRANCH  14  15
ATOM     15  C   UNL     1     -17.385 -13.649  14.529  1.00  0.00    -0.000 C 
BRANCH  15  16
ATOM     16  C   UNL     1     -16.912 -13.466  13.074  1.00  0.00    -0.000 C 
BRANCH  16  17
ATOM     17  C   UNL     1     -15.381 -13.407  12.943  1.00  0.00    -0.000 C 
BRANCH  17  18
ATOM     18  C   UNL     1     -14.906 -12.179  12.151  1.00  0.00    -0.003 C 
ATOM     19  C   UNL     1     -13.701 -11.490  12.791  1.00  0.00     0.004 C 
ENDBRANCH  17  18
ENDBRANCH  16  17
ENDBRANCH  15  16
ENDBRANCH  14  15
ENDBRANCH  13  14
ENDBRANCH  12  13
ENDBRANCH   1  12
TORSDOF 14
ENDMDL
MODEL 3
REMARK VINA RESULT:    -4.705      5.739      9.264
REMARK INTER + INTRA:         -10.056
REMARK INTER:                  -8.862
REMARK INTRA:                  -1.194
REMARK UNBOUND:                -1.500
REMARK SMILES CCCCCCCCCCCCCC[C@H](C)C(=O)[O-]
REMARK SMILES IDX 9 1 10 2 11 3 12 4 13 5 14 6 15 7 16 8 17 9 18 10 19 11 8 12
REMARK SMILES IDX 7 13 6 14 5 15 4 16 3 17 2 18 1 19
REMARK H PARENT
REMARK Flexibility Score: inf
ROOT
ATOM      1  C   UNL     1     -16.141 -13.702  16.956  1.00  0.00     0.000 C 
ENDROOT
BRANCH   1   2
ATOM      2  C   UNL     1     -15.033 -12.823  17.549  1.00  0.00     0.000 C 
BRANCH   2   3
ATOM      3  C   UNL     1     -15.527 -12.085  18.802  1.00  0.00     0.000 C 
BRANCH   3   4
ATOM      4  C   UNL     1     -16.913 -12.565  19.264  1.00  0.00     0.000 C 
BRANCH   4   5
ATOM      5  C   UNL     1     -17.225 -12.162  20.714  1.00  0.00     0.001 C 
BRANCH   5   6
ATOM      6  C   UNL     1     -18.004 -10.838  20.760  1.00  0.00     0.009 C 
BRANCH   6   7
ATOM      7  C   UNL     1     -19.318 -10.963  21.559  1.00  0.00     0.032 C 
ATOM      8  C   UNL     1     -20.418 -10.108  20.924  1.00  0.00     0.014 C 
BRANCH   7   9
ATOM      9  C   UNL     1     -19.125 -10.557  22.995  1.00  0.00     0.044 C 
ATOM     10  O   UNL     1     -18.017 -10.095  23.378  1.00  0.00    -0.550 OA
ATOM     11  O   UNL     1     -20.164 -10.692  23.909  1.00  0.00    -0.550 OA
ENDBRANCH   7   9
ENDBRANCH   6   7
ENDBRANCH   5   6
ENDBRANCH   4   5
ENDBRANCH   3   4
ENDBRANCH   2   3
ENDBRANCH   1   2
BRANCH   1  12
ATOM     12  C   UNL     1     -16.149 -13.617  15.422  1.00  0.00     0.000 C 
BRANCH  12  13
ATOM     13  C   UNL     1     -15.431 -12.366  14.893  1.00  0.00    -0.000 C 
BRANCH  13  14
ATOM     14  C   UNL     1     -14.327 -12.705  13.876  1.00  0.00    -0.000 C 
BRANCH  14  15
ATOM     15  C   UNL     1     -13.749 -14.119  14.066  1.00  0.00    -0.000 C 
BRANCH  15  16
ATOM     16  C   UNL     1     -12.486 -14.200  14.946  1.00  0.00    -0.000 C 
BRANCH  16  17
ATOM     17  C   UNL     1     -11.926 -12.817  15.320  1.00  0.00    -0.000 C 
BRANCH  17  18
ATOM     18  C   UNL     1     -10.395 -12.820  15.452  1.00  0.00    -0.003 C 
ATOM     19  C   UNL     1      -9.724 -11.752  14.589  1.00  0.00     0.004 C 
ENDBRANCH  17  18
ENDBRANCH  16  17
ENDBRANCH  15  16
ENDBRANCH  14  15
ENDBRANCH  13  14
ENDBRANCH  12  13
ENDBRANCH   1  12
TORSDOF 14
ENDMDL
MODEL 4
REMARK VINA RESULT:    -4.690      1.926      3.059
REMARK INTER + INTRA:         -10.028
REMARK INTER:                  -9.131
REMARK INTRA:                  -0.898
REMARK UNBOUND:                -1.500
REMARK SMILES CCCCCCCCCCCCCC[C@H](C)C(=O)[O-]
REMARK SMILES IDX 9 1 10 2 11 3 12 4 13 5 14 6 15 7 16 8 17 9 18 10 19 11 8 12
REMARK SMILES IDX 7 13 6 14 5 15 4 16 3 17 2 18 1 19
REMARK H PARENT
REMARK Flexibility Score: inf
ROOT
ATOM      1  C   UNL     1     -14.644 -12.405  15.306  1.00  0.00     0.000 C 
ENDROOT
BRANCH   1   2
ATOM      2  C   UNL     1     -13.137 -12.369  15.022  1.00  0.00     0.000 C 
BRANCH   2   3
ATOM      3  C   UNL     1     -12.616 -13.761  14.635  1.00  0.00     0.000 C 
BRANCH   3   4
ATOM      4  C   UNL     1     -11.119 -13.939  14.938  1.00  0.00     0.000 C 
BRANCH   4   5
ATOM      5  C   UNL     1     -10.520 -12.738  15.686  1.00  0.00     0.001 C 
BRANCH   5   6
ATOM      6  C   UNL     1      -8.988 -12.841  15.750  1.00  0.00     0.009 C 
BRANCH   6   7
ATOM      7  C   UNL     1      -8.295 -11.754  14.902  1.00  0.00     0.032 C 
ATOM      8  C   UNL     1      -9.320 -10.742  14.381  1.00  0.00     0.014 C 
BRANCH   7   9
ATOM      9  C   UNL     1      -7.545 -12.357  13.746  1.00  0.00     0.044 C 
ATOM     10  O   UNL     1      -6.292 -12.250  13.680  1.00  0.00    -0.550 OA
ATOM     11  O   UNL     1      -8.228 -13.034  12.741  1.00  0.00    -0.550 OA
ENDBRANCH   7   9
ENDBRANCH   6   7
ENDBRANCH   5   6
ENDBRANCH   4   5
ENDBRANCH   3   4
ENDBRANCH   2   3
ENDBRANCH   1   2
BRANCH   1  12
ATOM     12  C   UNL     1     -15.037 -13.708  16.019  1.00  0.00     0.000 C 
BRANCH  12  13
ATOM     13  C   UNL     1     -16.160 -13.505  17.049  1.00  0.00    -0.000 C 
BRANCH  13  14
ATOM     14  C   UNL     1     -15.688 -12.730  18.291  1.00  0.00    -0.000 C 
BRANCH  14  15
ATOM     15  C   UNL     1     -16.839 -12.375  19.251  1.00  0.00    -0.000 C 
BRANCH  15  16
ATOM     16  C   UNL     1     -16.464 -11.426  20.405  1.00  0.00    -0.000 C 
BRANCH  16  17
ATOM     17  C   UNL     1     -17.613 -10.486  20.806  1.00  0.00    -0.000 C 
BRANCH  17  18
ATOM     18  C   UNL     1     -18.189 -10.821  22.191  1.00  0.00    -0.003 C 
ATOM     19  C   UNL     1     -19.714 -10.922  22.190  1.00  0.00     0.004 C 
ENDBRANCH  17  18
ENDBRANCH  16  17
ENDBRANCH  15  16
ENDBRANCH  14  15
ENDBRANCH  13  14
ENDBRANCH  12  13
ENDBRANCH   1  12
TORSDOF 14
ENDMDL
MODEL 5
REMARK VINA RESULT:    -4.665      6.120      9.310
REMARK INTER + INTRA:          -9.983
REMARK INTER:                  -8.807
REMARK INTRA:                  -1.176
REMARK UNBOUND:                -1.500
REMARK SMILES CCCCCCCCCCCCCC[C@H](C)C(=O)[O-]
REMARK SMILES IDX 9 1 10 2 11 3 12 4 13 5 14 6 15 7 16 8 17 9 18 10 19 11 8 12
REMARK SMILES IDX 7 13 6 14 5 15 4 16 3 17 2 18 1 19
REMARK H PARENT
REMARK Flexibility Score: inf
ROOT
ATOM      1  C   UNL     1     -14.698 -13.070  17.573  1.00  0.00     0.000 C 
ENDROOT
BRANCH   1   2
ATOM      2  C   UNL     1     -16.173 -13.478  17.671  1.00  0.00     0.000 C 
BRANCH   2   3
ATOM      3  C   UNL     1     -16.878 -12.725  18.808  1.00  0.00     0.000 C 
BRANCH   3   4
ATOM      4  C   UNL     1     -15.993 -11.635  19.435  1.00  0.00     0.000 C 
BRANCH   4   5
ATOM      5  C   UNL     1     -16.720 -10.839  20.531  1.00  0.00     0.001 C 
BRANCH   5   6
ATOM      6  C   UNL     1     -18.204 -11.235  20.602  1.00  0.00     0.009 C 
BRANCH   6   7
ATOM      7  C   UNL     1     -19.004 -10.326  21.558  1.00  0.00     0.032 C 
ATOM      8  C   UNL     1     -18.611 -10.595  23.013  1.00  0.00     0.014 C 
BRANCH   7   9
ATOM      9  C   UNL     1     -20.486 -10.522  21.387  1.00  0.00     0.044 C 
ATOM     10  O   UNL     1     -21.100  -9.926  20.463  1.00  0.00    -0.550 OA
ATOM     11  O   UNL     1     -21.187 -11.359  22.248  1.00  0.00    -0.550 OA
ENDBRANCH   7   9
ENDBRANCH   6   7
ENDBRANCH   5   6
ENDBRANCH   4   5
ENDBRANCH   3   4
ENDBRANCH   2   3
ENDBRANCH   1   2
BRANCH   1  12
ATOM     12  C   UNL     1     -14.096 -13.498  16.226  1.00  0.00     0.000 C 
BRANCH  12  13
ATOM     13  C   UNL     1     -13.410 -12.338  15.487  1.00  0.00    -0.000 C 
BRANCH  13  14
ATOM     14  C   UNL     1     -13.305 -12.584  13.972  1.00  0.00    -0.000 C 
BRANCH  14  15
ATOM     15  C   UNL     1     -13.539 -14.056  13.585  1.00  0.00    -0.000 C 
BRANCH  15  16
ATOM     16  C   UNL     1     -14.965 -14.392  13.107  1.00  0.00    -0.000 C 
BRANCH  16  17
ATOM     17  C   UNL     1     -15.832 -13.142  12.880  1.00  0.00    -0.000 C 
BRANCH  17  18
ATOM     18  C   UNL     1     -17.261 -13.312  13.419  1.00  0.00    -0.003 C 
ATOM     19  C   UNL     1     -17.420 -14.555  14.294  1.00  0.00     0.004 C 
ENDBRANCH  17  18
ENDBRANCH  16  17
ENDBRANCH  15  16
ENDBRANCH  14  15
ENDBRANCH  13  14
ENDBRANCH  12  13
ENDBRANCH   1  12
TORSDOF 14
ENDMDL
MODEL 6
REMARK VINA RESULT:    -4.662      1.775      2.934
REMARK INTER + INTRA:          -9.978
REMARK INTER:                  -9.136
REMARK INTRA:                  -0.842
REMARK UNBOUND:                -1.500
REMARK SMILES CCCCCCCCCCCCCC[C@H](C)C(=O)[O-]
REMARK SMILES IDX 9 1 10 2 11 3 12 4 13 5 14 6 15 7 16 8 17 9 18 10 19 11 8 12
REMARK SMILES IDX 7 13 6 14 5 15 4 16 3 17 2 18 1 19
REMARK H PARENT
REMARK Flexibility Score: inf
ROOT
ATOM      1  C   UNL     1     -13.712 -13.485  15.980  1.00  0.00     0.000 C 
ENDROOT
BRANCH   1   2
ATOM      2  C   UNL     1     -13.491 -13.533  14.464  1.00  0.00     0.000 C 
BRANCH   2   3
ATOM      3  C   UNL     1     -12.016 -13.289  14.114  1.00  0.00     0.000 C 
BRANCH   3   4
ATOM      4  C   UNL     1     -11.055 -13.840  15.181  1.00  0.00     0.000 C 
BRANCH   4   5
ATOM      5  C   UNL     1     -10.160 -12.750  15.792  1.00  0.00     0.001 C 
BRANCH   5   6
ATOM      6  C   UNL     1      -8.688 -12.970  15.407  1.00  0.00     0.009 C 
BRANCH   6   7
ATOM      7  C   UNL     1      -8.229 -12.008  14.291  1.00  0.00     0.032 C 
ATOM      8  C   UNL     1      -8.174 -12.732  12.944  1.00  0.00     0.014 C 
BRANCH   7   9
ATOM      9  C   UNL     1      -6.882 -11.413  14.603  1.00  0.00     0.044 C 
ATOM     10  O   UNL     1      -5.959 -11.456  13.748  1.00  0.00    -0.550 OA
ATOM     11  O   UNL     1      -6.647 -10.816  15.836  1.00  0.00    -0.550 OA
ENDBRANCH   7   9
ENDBRANCH   6   7
ENDBRANCH   5   6
ENDBRANCH   4   5
ENDBRANCH   3   4
ENDBRANCH   2   3
ENDBRANCH   1   2
BRANCH   1  12
ATOM     12  C   UNL     1     -14.925 -12.610  16.332  1.00  0.00     0.000 C 
BRANCH  12  13
ATOM     13  C   UNL     1     -16.136 -13.434  16.799  1.00  0.00    -0.000 C 
BRANCH  13  14
ATOM     14  C   UNL     1     -16.507 -13.156  18.266  1.00  0.00    -0.000 C 
BRANCH  14  15
ATOM     15  C   UNL     1     -15.701 -11.997  18.881  1.00  0.00    -0.000 C 
BRANCH  15  16
ATOM     16  C   UNL     1     -16.496 -11.065  19.814  1.00  0.00    -0.000 C 
BRANCH  16  17
ATOM     17  C   UNL     1     -17.884 -11.620  20.178  1.00  0.00    -0.000 C 
BRANCH  17  18
ATOM     18  C   UNL     1     -18.495 -10.920  21.401  1.00  0.00    -0.003 C 
ATOM     19  C   UNL     1     -19.941 -10.481  21.172  1.00  0.00     0.004 C 
ENDBRANCH  17  18
ENDBRANCH  16  17
ENDBRANCH  15  16
ENDBRANCH  14  15
ENDBRANCH  13  14
ENDBRANCH  12  13
ENDBRANCH   1  12
TORSDOF 14
ENDMDL
MODEL 7
REMARK VINA RESULT:    -4.554      4.730      7.855
REMARK INTER + INTRA:          -9.782
REMARK INTER:                  -8.470
REMARK INTRA:                  -1.312
REMARK UNBOUND:                -1.500
REMARK SMILES CCCCCCCCCCCCCC[C@H](C)C(=O)[O-]
REMARK SMILES IDX 9 1 10 2 11 3 12 4 13 5 14 6 15 7 16 8 17 9 18 10 19 11 8 12
REMARK SMILES IDX 7 13 6 14 5 15 4 16 3 17 2 18 1 19
REMARK H PARENT
REMARK Flexibility Score: inf
ROOT
ATOM      1  C   UNL     1     -16.005 -12.568  14.116  1.00  0.00     0.000 C 
ENDROOT
BRANCH   1   2
ATOM      2  C   UNL     1     -16.442 -13.803  14.913  1.00  0.00     0.000 C 
BRANCH   2   3
ATOM      3  C   UNL     1     -16.554 -13.480  16.411  1.00  0.00     0.000 C 
BRANCH   3   4
ATOM      4  C   UNL     1     -15.213 -13.619  17.150  1.00  0.00     0.000 C 
BRANCH   4   5
ATOM      5  C   UNL     1     -15.002 -12.522  18.205  1.00  0.00     0.001 C 
BRANCH   5   6
ATOM      6  C   UNL     1     -16.221 -12.414  19.135  1.00  0.00     0.009 C 
BRANCH   6   7
ATOM      7  C   UNL     1     -16.254 -11.074  19.899  1.00  0.00     0.032 C 
ATOM      8  C   UNL     1     -15.065 -10.971  20.859  1.00  0.00     0.014 C 
BRANCH   7   9
ATOM      9  C   UNL     1     -17.540 -10.912  20.663  1.00  0.00     0.044 C 
ATOM     10  O   UNL     1     -18.604 -11.421  20.224  1.00  0.00    -0.550 OA
ATOM     11  O   UNL     1     -17.562 -10.199  21.857  1.00  0.00    -0.550 OA
ENDBRANCH   7   9
ENDBRANCH   6   7
ENDBRANCH   5   6
ENDBRANCH   4   5
ENDBRANCH   3   4
ENDBRANCH   2   3
ENDBRANCH   1   2
BRANCH   1  12
ATOM     12  C   UNL     1     -14.615 -12.778  13.496  1.00  0.00     0.000 C 
BRANCH  12  13
ATOM     13  C   UNL     1     -14.077 -14.201  13.712  1.00  0.00    -0.000 C 
BRANCH  13  14
ATOM     14  C   UNL     1     -12.740 -14.217  14.473  1.00  0.00    -0.000 C 
BRANCH  14  15
ATOM     15  C   UNL     1     -12.359 -12.839  15.045  1.00  0.00    -0.000 C 
BRANCH  15  16
ATOM     16  C   UNL     1     -10.982 -12.304  14.609  1.00  0.00    -0.000 C 
BRANCH  16  17
ATOM     17  C   UNL     1      -9.893 -12.506  15.676  1.00  0.00    -0.000 C 
BRANCH  17  18
ATOM     18  C   UNL     1      -8.531 -11.944  15.240  1.00  0.00    -0.003 C 
ATOM     19  C   UNL     1      -8.654 -10.646  14.441  1.00  0.00     0.004 C 
ENDBRANCH  17  18
ENDBRANCH  16  17
ENDBRANCH  15  16
ENDBRANCH  14  15
ENDBRANCH  13  14
ENDBRANCH  12  13
ENDBRANCH   1  12
TORSDOF 14
ENDMDL
MODEL 8
REMARK VINA RESULT:    -4.540      4.805      7.860
REMARK INTER + INTRA:          -9.757
REMARK INTER:                  -8.086
REMARK INTRA:                  -1.671
REMARK UNBOUND:                -1.500
REMARK SMILES CCCCCCCCCCCCCC[C@H](C)C(=O)[O-]
REMARK SMILES IDX 9 1 10 2 11 3 12 4 13 5 14 6 15 7 16 8 17 9 18 10 19 11 8 12
REMARK SMILES IDX 7 13 6 14 5 15 4 16 3 17 2 18 1 19
REMARK H PARENT
REMARK Flexibility Score: inf
ROOT
ATOM      1  C   UNL     1     -16.525 -10.812  20.091  1.00  0.00     0.000 C 
ENDROOT
BRANCH   1   2
ATOM      2  C   UNL     1     -16.852 -12.311  20.068  1.00  0.00     0.000 C 
BRANCH   2   3
ATOM      3  C   UNL     1     -16.612 -12.904  18.672  1.00  0.00     0.000 C 
BRANCH   3   4
ATOM      4  C   UNL     1     -15.165 -12.713  18.186  1.00  0.00     0.000 C 
BRANCH   4   5
ATOM      5  C   UNL     1     -14.942 -13.251  16.765  1.00  0.00     0.001 C 
BRANCH   5   6
ATOM      6  C   UNL     1     -14.965 -12.110  15.736  1.00  0.00     0.009 C 
BRANCH   6   7
ATOM      7  C   UNL     1     -15.819 -12.458  14.499  1.00  0.00     0.032 C 
ATOM      8  C   UNL     1     -16.827 -13.561  14.832  1.00  0.00     0.014 C 
BRANCH   7   9
ATOM      9  C   UNL     1     -14.957 -12.889  13.343  1.00  0.00     0.044 C 
ATOM     10  O   UNL     1     -14.707 -12.086  12.407  1.00  0.00    -0.550 OA
ATOM     11  O   UNL     1     -14.434 -14.177  13.300  1.00  0.00    -0.550 OA
ENDBRANCH   7   9
ENDBRANCH   6   7
ENDBRANCH   5   6
ENDBRANCH   4   5
ENDBRANCH   3   4
ENDBRANCH   2   3
ENDBRANCH   1   2
BRANCH   1  12
ATOM     12  C   UNL     1     -16.020 -10.381  21.476  1.00  0.00     0.000 C 
BRANCH  12  13
ATOM     13  C   UNL     1     -15.550 -11.568  22.333  1.00  0.00    -0.000 C 
BRANCH  13  14
ATOM     14  C   UNL     1     -16.179 -11.567  23.737  1.00  0.00    -0.000 C 
BRANCH  14  15
ATOM     15  C   UNL     1     -17.105 -10.361  23.979  1.00  0.00    -0.000 C 
BRANCH  15  16
ATOM     16  C   UNL     1     -18.533 -10.710  24.439  1.00  0.00    -0.000 C 
BRANCH  16  17
ATOM     17  C   UNL     1     -19.616 -10.202  23.473  1.00  0.00    -0.000 C 
BRANCH  17  18
ATOM     18  C   UNL     1     -19.659 -11.004  22.163  1.00  0.00    -0.003 C 
ATOM     19  C   UNL     1     -20.313 -10.234  21.016  1.00  0.00     0.004 C 
ENDBRANCH  17  18
ENDBRANCH  16  17
ENDBRANCH  15  16
ENDBRANCH  14  15
ENDBRANCH  13  14
ENDBRANCH  12  13
ENDBRANCH   1  12
TORSDOF 14
ENDMDL
MODEL 9
REMARK VINA RESULT:    -4.525      1.650      2.925
REMARK INTER + INTRA:          -9.728
REMARK INTER:                  -8.645
REMARK INTRA:                  -1.083
REMARK UNBOUND:                -1.500
REMARK SMILES CCCCCCCCCCCCCC[C@H](C)C(=O)[O-]
REMARK SMILES IDX 9 1 10 2 11 3 12 4 13 5 14 6 15 7 16 8 17 9 18 10 19 11 8 12
REMARK SMILES IDX 7 13 6 14 5 15 4 16 3 17 2 18 1 19
REMARK H PARENT
REMARK Flexibility Score: inf
ROOT
ATOM      1  C   UNL     1     -14.096 -13.337  15.613  1.00  0.00     0.000 C 
ENDROOT
BRANCH   1   2
ATOM      2  C   UNL     1     -12.578 -13.197  15.783  1.00  0.00     0.000 C 
BRANCH   2   3
ATOM      3  C   UNL     1     -11.830 -14.180  14.870  1.00  0.00     0.000 C 
BRANCH   3   4
ATOM      4  C   UNL     1     -10.623 -13.535  14.168  1.00  0.00     0.000 C 
BRANCH   4   5
ATOM      5  C   UNL     1     -10.163 -12.239  14.854  1.00  0.00     0.001 C 
BRANCH   5   6
ATOM      6  C   UNL     1      -8.702 -12.354  15.318  1.00  0.00     0.009 C 
BRANCH   6   7
ATOM      7  C   UNL     1      -7.800 -11.282  14.673  1.00  0.00     0.032 C 
ATOM      8  C   UNL     1      -8.645 -10.155  14.073  1.00  0.00     0.014 C 
BRANCH   7   9
ATOM      9  C   UNL     1      -6.918 -11.877  13.608  1.00  0.00     0.044 C 
ATOM     10  O   UNL     1      -5.674 -11.686  13.638  1.00  0.00    -0.550 OA
ATOM     11  O   UNL     1      -7.471 -12.639  12.585  1.00  0.00    -0.550 OA
ENDBRANCH   7   9
ENDBRANCH   6   7
ENDBRANCH   5   6
ENDBRANCH   4   5
ENDBRANCH   3   4
ENDBRANCH   2   3
ENDBRANCH   1   2
BRANCH   1  12
ATOM     12  C   UNL     1     -14.845 -12.613  16.742  1.00  0.00     0.000 C 
BRANCH  12  13
ATOM     13  C   UNL     1     -15.787 -13.544  17.522  1.00  0.00    -0.000 C 
BRANCH  13  14
ATOM     14  C   UNL     1     -16.843 -12.771  18.331  1.00  0.00    -0.000 C 
BRANCH  14  15
ATOM     15  C   UNL     1     -16.403 -12.491  19.780  1.00  0.00    -0.000 C 
BRANCH  15  16
ATOM     16  C   UNL     1     -15.716 -11.130  20.007  1.00  0.00    -0.000 C 
BRANCH  16  17
ATOM     17  C   UNL     1     -14.400 -11.246  20.795  1.00  0.00    -0.000 C 
BRANCH  17  18
ATOM     18  C   UNL     1     -13.515 -12.398  20.294  1.00  0.00    -0.003 C 
ATOM     19  C   UNL     1     -12.486 -12.848  21.329  1.00  0.00     0.004 C 
ENDBRANCH  17  18
ENDBRANCH  16  17
ENDBRANCH  15  16
ENDBRANCH  14  15
ENDBRANCH  13  14
ENDBRANCH  12  13
ENDBRANCH   1  12
TORSDOF 14
ENDMDL
