MODEL 1
REMARK VINA RESULT:    -3.197      0.000      0.000
REMARK INTER + INTRA:          -4.174
REMARK INTER:                  -3.945
REMARK INTRA:                  -0.228
REMARK UNBOUND:                -0.228
REMARK SMILES CCCCCC(=O)[O-]
REMARK SMILES IDX 4 1 5 2 6 3 7 4 8 5 3 6 2 7 1 8
REMARK H PARENT
REMARK Flexibility Score: inf
ROOT
ATOM      1  C   UNL     1     146.073 126.996 115.616  1.00  0.00     0.006 C 
ENDROOT
BRANCH   1   2
ATOM      2  C   UNL     1     145.223 126.941 116.893  1.00  0.00     0.053 C 
BRANCH   2   3
ATOM      3  C   UNL     1     145.775 127.826 117.968  1.00  0.00     0.041 C 
ATOM      4  O   UNL     1     145.896 129.063 117.768  1.00  0.00    -0.550 OA
ATOM      5  O   UNL     1     146.187 127.281 119.177  1.00  0.00    -0.550 OA
ENDBRANCH   2   3
ENDBRANCH   1   2
BRANCH   1   6
ATOM      6  C   UNL     1     145.270 127.486 114.403  1.00  0.00     0.000 C 
BRANCH   6   7
ATOM      7  C   UNL     1     145.319 129.013 114.293  1.00  0.00    -0.003 C 
ATOM      8  C   UNL     1     143.969 129.636 114.639  1.00  0.00     0.004 C 
ENDBRANCH   6   7
ENDBRANCH   1   6
TORSDOF 4
ENDMDL
MODEL 2
REMARK VINA RESULT:    -3.049      1.088      1.481
REMARK INTER + INTRA:          -3.990
REMARK INTER:                  -3.767
REMARK INTRA:                  -0.223
REMARK UNBOUND:                -0.228
REMARK SMILES CCCCCC(=O)[O-]
REMARK SMILES IDX 4 1 5 2 6 3 7 4 8 5 3 6 2 7 1 8
REMARK H PARENT
REMARK Flexibility Score: inf
ROOT
ATOM      1  C   UNL     1     145.005 127.429 114.888  1.00  0.00     0.006 C 
ENDROOT
BRANCH   1   2
ATOM      2  C   UNL     1     146.006 126.875 115.911  1.00  0.00     0.053 C 
BRANCH   2   3
ATOM      3  C   UNL     1     145.491 126.992 117.313  1.00  0.00     0.041 C 
ATOM      4  O   UNL     1     144.252 126.955 117.537  1.00  0.00    -0.550 OA
ATOM      5  O   UNL     1     146.375 127.177 118.367  1.00  0.00    -0.550 OA
ENDBRANCH   2   3
ENDBRANCH   1   2
BRANCH   1   6
ATOM      6  C   UNL     1     145.400 128.824 114.384  1.00  0.00     0.000 C 
BRANCH   6   7
ATOM      7  C   UNL     1     144.347 129.867 114.772  1.00  0.00    -0.003 C 
ATOM      8  C   UNL     1     142.998 129.211 115.056  1.00  0.00     0.004 C 
ENDBRANCH   6   7
ENDBRANCH   1   6
TORSDOF 4
ENDMDL
MODEL 3
REMARK VINA RESULT:    -3.044      2.614      3.003
REMARK INTER + INTRA:          -3.984
REMARK INTER:                  -3.762
REMARK INTRA:                  -0.222
REMARK UNBOUND:                -0.228
REMARK SMILES CCCCCC(=O)[O-]
REMARK SMILES IDX 4 1 5 2 6 3 7 4 8 5 3 6 2 7 1 8
REMARK H PARENT
REMARK Flexibility Score: inf
ROOT
ATOM      1  C   UNL     1     144.655 127.126 115.202  1.00  0.00     0.006 C 
ENDROOT
BRANCH   1   2
ATOM      2  C   UNL     1     143.165 127.455 115.037  1.00  0.00     0.053 C 
BRANCH   2   3
ATOM      3  C   UNL     1     142.467 127.556 116.359  1.00  0.00     0.041 C 
ATOM      4  O   UNL     1     141.429 126.879 116.580  1.00  0.00    -0.550 OA
ATOM      5  O   UNL     1     142.943 128.423 117.334  1.00  0.00    -0.550 OA
ENDBRANCH   2   3
ENDBRANCH   1   2
BRANCH   1   6
ATOM      6  C   UNL     1     145.549 128.027 114.339  1.00  0.00     0.000 C 
BRANCH   6   7
ATOM      7  C   UNL     1     145.351 129.503 114.699  1.00  0.00    -0.003 C 
ATOM      8  C   UNL     1     146.040 129.848 116.017  1.00  0.00     0.004 C 
ENDBRANCH   6   7
ENDBRANCH   1   6
TORSDOF 4
ENDMDL
MODEL 4
REMARK VINA RESULT:    -3.038      1.553      2.294
REMARK INTER + INTRA:          -3.976
REMARK INTER:                  -3.730
REMARK INTRA:                  -0.246
REMARK UNBOUND:                -0.228
REMARK SMILES CCCCCC(=O)[O-]
REMARK SMILES IDX 4 1 5 2 6 3 7 4 8 5 3 6 2 7 1 8
REMARK H PARENT
REMARK Flexibility Score: inf
ROOT
ATOM      1  C   UNL     1     145.114 129.692 114.862  1.00  0.00     0.006 C 
ENDROOT
BRANCH   1   2
ATOM      2  C   UNL     1     146.160 130.185 115.872  1.00  0.00     0.053 C 
BRANCH   2   3
ATOM      3  C   UNL     1     145.761 129.876 117.282  1.00  0.00     0.041 C 
ATOM      4  O   UNL     1     145.231 130.765 117.999  1.00  0.00    -0.550 OA
ATOM      5  O   UNL     1     146.007 128.618 117.816  1.00  0.00    -0.550 OA
ENDBRANCH   2   3
ENDBRANCH   1   2
BRANCH   1   6
ATOM      6  C   UNL     1     145.466 128.314 114.286  1.00  0.00     0.000 C 
BRANCH   6   7
ATOM      7  C   UNL     1     144.541 127.231 114.850  1.00  0.00    -0.003 C 
ATOM      8  C   UNL     1     143.178 127.807 115.223  1.00  0.00     0.004 C 
ENDBRANCH   6   7
ENDBRANCH   1   6
TORSDOF 4
ENDMDL
MODEL 5
REMARK VINA RESULT:    -3.012     21.555     22.429
REMARK INTER + INTRA:          -3.945
REMARK INTER:                  -3.704
REMARK INTRA:                  -0.240
REMARK UNBOUND:                -0.228
REMARK SMILES CCCCCC(=O)[O-]
REMARK SMILES IDX 4 1 5 2 6 3 7 4 8 5 3 6 2 7 1 8
REMARK H PARENT
REMARK Flexibility Score: inf
ROOT
ATOM      1  C   UNL     1     128.334 142.701 115.389  1.00  0.00     0.006 C 
ENDROOT
BRANCH   1   2
ATOM      2  C   UNL     1     128.766 142.780 116.860  1.00  0.00     0.053 C 
BRANCH   2   3
ATOM      3  C   UNL     1     129.146 144.175 117.255  1.00  0.00     0.041 C 
ATOM      4  O   UNL     1     128.395 144.845 118.012  1.00  0.00    -0.550 OA
ATOM      5  O   UNL     1     130.310 144.746 116.759  1.00  0.00    -0.550 OA
ENDBRANCH   2   3
ENDBRANCH   1   2
BRANCH   1   6
ATOM      6  C   UNL     1     129.274 141.821 114.554  1.00  0.00     0.000 C 
BRANCH   6   7
ATOM      7  C   UNL     1     130.368 142.663 113.888  1.00  0.00    -0.003 C 
ATOM      8  C   UNL     1     129.786 143.924 113.254  1.00  0.00     0.004 C 
ENDBRANCH   6   7
ENDBRANCH   1   6
TORSDOF 4
ENDMDL
MODEL 6
REMARK VINA RESULT:    -2.975      1.978      2.736
REMARK INTER + INTRA:          -3.899
REMARK INTER:                  -3.720
REMARK INTRA:                  -0.179
REMARK UNBOUND:                -0.228
REMARK SMILES CCCCCC(=O)[O-]
REMARK SMILES IDX 4 1 5 2 6 3 7 4 8 5 3 6 2 7 1 8
REMARK H PARENT
REMARK Flexibility Score: inf
ROOT
ATOM      1  C   UNL     1     145.317 128.529 114.363  1.00  0.00     0.006 C 
ENDROOT
BRANCH   1   2
ATOM      2  C   UNL     1     144.970 129.799 115.151  1.00  0.00     0.053 C 
BRANCH   2   3
ATOM      3  C   UNL     1     146.057 130.172 116.112  1.00  0.00     0.041 C 
ATOM      4  O   UNL     1     146.937 131.008 115.777  1.00  0.00    -0.550 OA
ATOM      5  O   UNL     1     146.118 129.573 117.363  1.00  0.00    -0.550 OA
ENDBRANCH   2   3
ENDBRANCH   1   2
BRANCH   1   6
ATOM      6  C   UNL     1     144.624 127.283 114.931  1.00  0.00     0.000 C 
BRANCH   6   7
ATOM      7  C   UNL     1     143.390 127.668 115.753  1.00  0.00    -0.003 C 
ATOM      8  C   UNL     1     142.102 127.252 115.046  1.00  0.00     0.004 C 
ENDBRANCH   6   7
ENDBRANCH   1   6
TORSDOF 4
ENDMDL
MODEL 7
REMARK VINA RESULT:    -2.959      0.857      1.663
REMARK INTER + INTRA:          -3.879
REMARK INTER:                  -3.652
REMARK INTRA:                  -0.228
REMARK UNBOUND:                -0.228
REMARK SMILES CCCCCC(=O)[O-]
REMARK SMILES IDX 4 1 5 2 6 3 7 4 8 5 3 6 2 7 1 8
REMARK H PARENT
REMARK Flexibility Score: inf
ROOT
ATOM      1  C   UNL     1     143.851 127.738 116.493  1.00  0.00     0.006 C 
ENDROOT
BRANCH   1   2
ATOM      2  C   UNL     1     144.630 126.894 117.511  1.00  0.00     0.053 C 
BRANCH   2   3
ATOM      3  C   UNL     1     145.676 127.700 118.218  1.00  0.00     0.041 C 
ATOM      4  O   UNL     1     146.337 127.191 119.161  1.00  0.00    -0.550 OA
ATOM      5  O   UNL     1     145.899 129.022 117.858  1.00  0.00    -0.550 OA
ENDBRANCH   2   3
ENDBRANCH   1   2
BRANCH   1   6
ATOM      6  C   UNL     1     144.082 127.268 115.050  1.00  0.00     0.000 C 
BRANCH   6   7
ATOM      7  C   UNL     1     145.316 127.945 114.443  1.00  0.00    -0.003 C 
ATOM      8  C   UNL     1     145.160 129.463 114.424  1.00  0.00     0.004 C 
ENDBRANCH   6   7
ENDBRANCH   1   6
TORSDOF 4
ENDMDL
MODEL 8
REMARK VINA RESULT:    -2.917      1.227      1.641
REMARK INTER + INTRA:          -3.827
REMARK INTER:                  -3.589
REMARK INTRA:                  -0.238
REMARK UNBOUND:                -0.228
REMARK SMILES CCCCCC(=O)[O-]
REMARK SMILES IDX 4 1 5 2 6 3 7 4 8 5 3 6 2 7 1 8
REMARK H PARENT
REMARK Flexibility Score: inf
ROOT
ATOM      1  C   UNL     1     144.730 127.633 114.765  1.00  0.00     0.006 C 
ENDROOT
BRANCH   1   2
ATOM      2  C   UNL     1     145.672 126.875 115.710  1.00  0.00     0.053 C 
BRANCH   2   3
ATOM      3  C   UNL     1     145.961 127.658 116.954  1.00  0.00     0.041 C 
ATOM      4  O   UNL     1     145.895 128.916 116.939  1.00  0.00    -0.550 OA
ATOM      5  O   UNL     1     146.337 127.003 118.119  1.00  0.00    -0.550 OA
ENDBRANCH   2   3
ENDBRANCH   1   2
BRANCH   1   6
ATOM      6  C   UNL     1     143.253 127.427 115.127  1.00  0.00     0.000 C 
BRANCH   6   7
ATOM      7  C   UNL     1     142.559 128.768 115.390  1.00  0.00    -0.003 C 
ATOM      8  C   UNL     1     143.311 129.918 114.726  1.00  0.00     0.004 C 
ENDBRANCH   6   7
ENDBRANCH   1   6
TORSDOF 4
ENDMDL
