MODEL 1
REMARK VINA RESULT:    -0.725      0.000      0.000
REMARK INTER + INTRA:          -2.916
REMARK INTER:                  -1.827
REMARK INTRA:                  -1.089
REMARK UNBOUND:                -1.089
REMARK SMILES CCCCCCCCCCCCCCCCCCCCCCCCCCCC(=O)[O-]
REMARK SMILES IDX 15 1 16 2 17 3 18 4 19 5 20 6 21 7 22 8 23 9 24 10 25 11
REMARK SMILES IDX 26 12 27 13 28 14 29 15 30 16 14 17 13 18 12 19 11 20 10 21
REMARK SMILES IDX 9 22 8 23 7 24 6 25 5 26 4 27 3 28 2 29 1 30
REMARK H PARENT
REMARK Flexibility Score: inf
ROOT
ATOM      1  C   UNL     1      45.879  13.146 -32.950  1.00  0.00     0.000 C 
ENDROOT
BRANCH   1   2
ATOM      2  C   UNL     1      45.951  12.801 -34.449  1.00  0.00     0.000 C 
BRANCH   2   3
ATOM      3  C   UNL     1      44.611  12.427 -35.113  1.00  0.00     0.000 C 
BRANCH   3   4
ATOM      4  C   UNL     1      44.434  12.982 -36.542  1.00  0.00     0.000 C 
BRANCH   4   5
ATOM      5  C   UNL     1      43.082  12.600 -37.174  1.00  0.00     0.000 C 
BRANCH   5   6
ATOM      6  C   UNL     1      42.040  12.164 -36.132  1.00  0.00     0.000 C 
BRANCH   6   7
ATOM      7  C   UNL     1      40.616  12.613 -36.491  1.00  0.00     0.000 C 
BRANCH   7   8
ATOM      8  C   UNL     1      40.342  14.033 -35.974  1.00  0.00     0.000 C 
BRANCH   8   9
ATOM      9  C   UNL     1      38.891  14.226 -35.497  1.00  0.00     0.000 C 
BRANCH   9  10
ATOM     10  C   UNL     1      38.269  13.005 -34.793  1.00  0.00     0.000 C 
BRANCH  10  11
ATOM     11  C   UNL     1      36.891  13.249 -34.145  1.00  0.00     0.000 C 
BRANCH  11  12
ATOM     12  C   UNL     1      36.900  13.160 -32.604  1.00  0.00     0.006 C 
BRANCH  12  13
ATOM     13  C   UNL     1      36.882  14.538 -31.928  1.00  0.00     0.053 C 
BRANCH  13  14
ATOM     14  C   UNL     1      37.100  14.399 -30.455  1.00  0.00     0.041 C 
ATOM     15  O   UNL     1      37.347  15.414 -29.751  1.00  0.00    -0.550 OA
ATOM     16  O   UNL     1      36.972  13.156 -29.851  1.00  0.00    -0.550 OA
ENDBRANCH  13  14
ENDBRANCH  12  13
ENDBRANCH  11  12
ENDBRANCH  10  11
ENDBRANCH   9  10
ENDBRANCH   8   9
ENDBRANCH   7   8
ENDBRANCH   6   7
ENDBRANCH   5   6
ENDBRANCH   4   5
ENDBRANCH   3   4
ENDBRANCH   2   3
ENDBRANCH   1   2
BRANCH   1  17
ATOM     17  C   UNL     1      46.575  12.144 -32.010  1.00  0.00     0.000 C 
BRANCH  17  18
ATOM     18  C   UNL     1      45.878  12.014 -30.645  1.00  0.00     0.000 C 
BRANCH  18  19
ATOM     19  C   UNL     1      46.883  11.875 -29.489  1.00  0.00     0.000 C 
BRANCH  19  20
ATOM     20  C   UNL     1      46.387  12.543 -28.194  1.00  0.00     0.000 C 
BRANCH  20  21
ATOM     21  C   UNL     1      47.229  12.150 -26.962  1.00  0.00     0.000 C 
BRANCH  21  22
ATOM     22  C   UNL     1      46.402  11.912 -25.683  1.00  0.00    -0.000 C 
BRANCH  22  23
ATOM     23  C   UNL     1      44.917  12.309 -25.776  1.00  0.00    -0.000 C 
BRANCH  23  24
ATOM     24  C   UNL     1      44.297  12.831 -24.465  1.00  0.00    -0.000 C 
BRANCH  24  25
ATOM     25  C   UNL     1      44.881  14.160 -23.946  1.00  0.00    -0.000 C 
BRANCH  25  26
ATOM     26  C   UNL     1      46.205  14.034 -23.170  1.00  0.00    -0.000 C 
BRANCH  26  27
ATOM     27  C   UNL     1      46.642  15.357 -22.517  1.00  0.00    -0.000 C 
BRANCH  27  28
ATOM     28  C   UNL     1      45.848  16.571 -23.033  1.00  0.00    -0.000 C 
BRANCH  28  29
ATOM     29  C   UNL     1      46.399  17.942 -22.604  1.00  0.00    -0.003 C 
ATOM     30  C   UNL     1      47.018  18.730 -23.757  1.00  0.00     0.004 C 
ENDBRANCH  28  29
ENDBRANCH  27  28
ENDBRANCH  26  27
ENDBRANCH  25  26
ENDBRANCH  24  25
ENDBRANCH  23  24
ENDBRANCH  22  23
ENDBRANCH  21  22
ENDBRANCH  20  21
ENDBRANCH  19  20
ENDBRANCH  18  19
ENDBRANCH  17  18
ENDBRANCH   1  17
TORSDOF 26
ENDMDL
MODEL 2
REMARK VINA RESULT:     0.159      1.860      3.494
REMARK INTER + INTRA:          -0.687
REMARK INTER:                   0.435
REMARK INTRA:                  -1.123
REMARK UNBOUND:                -1.089
REMARK SMILES CCCCCCCCCCCCCCCCCCCCCCCCCCCC(=O)[O-]
REMARK SMILES IDX 15 1 16 2 17 3 18 4 19 5 20 6 21 7 22 8 23 9 24 10 25 11
REMARK SMILES IDX 26 12 27 13 28 14 29 15 30 16 14 17 13 18 12 19 11 20 10 21
REMARK SMILES IDX 9 22 8 23 7 24 6 25 5 26 4 27 3 28 2 29 1 30
REMARK H PARENT
REMARK Flexibility Score: inf
ROOT
ATOM      1  C   UNL     1      45.875  13.732 -30.417  1.00  0.00     0.000 C 
ENDROOT
BRANCH   1   2
ATOM      2  C   UNL     1      45.920  13.111 -31.826  1.00  0.00     0.000 C 
BRANCH   2   3
ATOM      3  C   UNL     1      44.969  11.921 -32.062  1.00  0.00     0.000 C 
BRANCH   3   4
ATOM      4  C   UNL     1      43.793  12.227 -33.013  1.00  0.00     0.000 C 
BRANCH   4   5
ATOM      5  C   UNL     1      44.216  13.038 -34.253  1.00  0.00     0.000 C 
BRANCH   5   6
ATOM      6  C   UNL     1      44.881  12.170 -35.333  1.00  0.00     0.000 C 
BRANCH   6   7
ATOM      7  C   UNL     1      43.993  11.977 -36.571  1.00  0.00     0.000 C 
BRANCH   7   8
ATOM      8  C   UNL     1      42.513  11.876 -36.174  1.00  0.00     0.000 C 
BRANCH   8   9
ATOM      9  C   UNL     1      41.697  13.115 -36.586  1.00  0.00     0.000 C 
BRANCH   9  10
ATOM     10  C   UNL     1      41.373  14.092 -35.439  1.00  0.00     0.000 C 
BRANCH  10  11
ATOM     11  C   UNL     1      40.057  14.880 -35.596  1.00  0.00     0.000 C 
BRANCH  11  12
ATOM     12  C   UNL     1      38.981  14.143 -36.421  1.00  0.00     0.006 C 
BRANCH  12  13
ATOM     13  C   UNL     1      37.560  14.373 -35.887  1.00  0.00     0.053 C 
BRANCH  13  14
ATOM     14  C   UNL     1      37.104  13.189 -35.094  1.00  0.00     0.041 C 
ATOM     15  O   UNL     1      36.887  12.088 -35.666  1.00  0.00    -0.550 OA
ATOM     16  O   UNL     1      36.976  13.287 -33.716  1.00  0.00    -0.550 OA
ENDBRANCH  13  14
ENDBRANCH  12  13
ENDBRANCH  11  12
ENDBRANCH  10  11
ENDBRANCH   9  10
ENDBRANCH   8   9
ENDBRANCH   7   8
ENDBRANCH   6   7
ENDBRANCH   5   6
ENDBRANCH   4   5
ENDBRANCH   3   4
ENDBRANCH   2   3
ENDBRANCH   1   2
BRANCH   1  17
ATOM     17  C   UNL     1      46.033  12.735 -29.254  1.00  0.00     0.000 C 
BRANCH  17  18
ATOM     18  C   UNL     1      45.155  13.081 -28.040  1.00  0.00     0.000 C 
BRANCH  18  19
ATOM     19  C   UNL     1      45.161  11.967 -26.981  1.00  0.00     0.000 C 
BRANCH  19  20
ATOM     20  C   UNL     1      46.502  11.876 -26.229  1.00  0.00     0.000 C 
BRANCH  20  21
ATOM     21  C   UNL     1      46.337  12.006 -24.700  1.00  0.00     0.000 C 
BRANCH  21  22
ATOM     22  C   UNL     1      45.244  13.003 -24.267  1.00  0.00    -0.000 C 
BRANCH  22  23
ATOM     23  C   UNL     1      45.632  13.945 -23.113  1.00  0.00    -0.000 C 
BRANCH  23  24
ATOM     24  C   UNL     1      46.229  15.299 -23.548  1.00  0.00    -0.000 C 
BRANCH  24  25
ATOM     25  C   UNL     1      46.665  16.224 -22.394  1.00  0.00    -0.000 C 
BRANCH  25  26
ATOM     26  C   UNL     1      46.252  17.700 -22.547  1.00  0.00    -0.000 C 
BRANCH  26  27
ATOM     27  C   UNL     1      47.289  18.532 -23.320  1.00  0.00    -0.000 C 
BRANCH  27  28
ATOM     28  C   UNL     1      46.667  19.353 -24.465  1.00  0.00    -0.000 C 
BRANCH  28  29
ATOM     29  C   UNL     1      47.629  20.329 -25.166  1.00  0.00    -0.003 C 
ATOM     30  C   UNL     1      46.969  21.116 -26.297  1.00  0.00     0.004 C 
ENDBRANCH  28  29
ENDBRANCH  27  28
ENDBRANCH  26  27
ENDBRANCH  25  26
ENDBRANCH  24  25
ENDBRANCH  23  24
ENDBRANCH  22  23
ENDBRANCH  21  22
ENDBRANCH  20  21
ENDBRANCH  19  20
ENDBRANCH  18  19
ENDBRANCH  17  18
ENDBRANCH   1  17
TORSDOF 26
ENDMDL
MODEL 3
REMARK VINA RESULT:     1.552      2.307      3.510
REMARK INTER + INTRA:           2.822
REMARK INTER:                   4.004
REMARK INTRA:                  -1.182
REMARK UNBOUND:                -1.089
REMARK SMILES CCCCCCCCCCCCCCCCCCCCCCCCCCCC(=O)[O-]
REMARK SMILES IDX 15 1 16 2 17 3 18 4 19 5 20 6 21 7 22 8 23 9 24 10 25 11
REMARK SMILES IDX 26 12 27 13 28 14 29 15 30 16 14 17 13 18 12 19 11 20 10 21
REMARK SMILES IDX 9 22 8 23 7 24 6 25 5 26 4 27 3 28 2 29 1 30
REMARK H PARENT
REMARK Flexibility Score: inf
ROOT
ATOM      1  C   UNL     1      45.599  13.702 -30.592  1.00  0.00     0.000 C 
ENDROOT
BRANCH   1   2
ATOM      2  C   UNL     1      45.710  12.995 -31.956  1.00  0.00     0.000 C 
BRANCH   2   3
ATOM      3  C   UNL     1      44.682  11.875 -32.213  1.00  0.00     0.000 C 
BRANCH   3   4
ATOM      4  C   UNL     1      43.475  12.307 -33.073  1.00  0.00     0.000 C 
BRANCH   4   5
ATOM      5  C   UNL     1      43.882  13.114 -34.321  1.00  0.00     0.000 C 
BRANCH   5   6
ATOM      6  C   UNL     1      44.333  12.220 -35.486  1.00  0.00     0.000 C 
BRANCH   6   7
ATOM      7  C   UNL     1      43.235  12.018 -36.540  1.00  0.00     0.000 C 
BRANCH   7   8
ATOM      8  C   UNL     1      41.846  11.993 -35.887  1.00  0.00     0.000 C 
BRANCH   8   9
ATOM      9  C   UNL     1      40.832  12.908 -36.600  1.00  0.00     0.000 C 
BRANCH   9  10
ATOM     10  C   UNL     1      40.462  14.191 -35.833  1.00  0.00     0.000 C 
BRANCH  10  11
ATOM     11  C   UNL     1      39.185  14.905 -36.320  1.00  0.00     0.000 C 
BRANCH  11  12
ATOM     12  C   UNL     1      37.909  14.041 -36.224  1.00  0.00     0.006 C 
BRANCH  12  13
ATOM     13  C   UNL     1      37.929  13.083 -35.024  1.00  0.00     0.053 C 
BRANCH  13  14
ATOM     14  C   UNL     1      37.227  13.698 -33.855  1.00  0.00     0.041 C 
ATOM     15  O   UNL     1      36.875  14.907 -33.890  1.00  0.00    -0.550 OA
ATOM     16  O   UNL     1      36.911  12.920 -32.751  1.00  0.00    -0.550 OA
ENDBRANCH  13  14
ENDBRANCH  12  13
ENDBRANCH  11  12
ENDBRANCH  10  11
ENDBRANCH   9  10
ENDBRANCH   8   9
ENDBRANCH   7   8
ENDBRANCH   6   7
ENDBRANCH   5   6
ENDBRANCH   4   5
ENDBRANCH   3   4
ENDBRANCH   2   3
ENDBRANCH   1   2
BRANCH   1  17
ATOM     17  C   UNL     1      45.894  12.817 -29.367  1.00  0.00     0.000 C 
BRANCH  17  18
ATOM     18  C   UNL     1      44.929  13.069 -28.195  1.00  0.00     0.000 C 
BRANCH  18  19
ATOM     19  C   UNL     1      45.077  12.017 -27.084  1.00  0.00     0.000 C 
BRANCH  19  20
ATOM     20  C   UNL     1      46.505  11.960 -26.513  1.00  0.00     0.000 C 
BRANCH  20  21
ATOM     21  C   UNL     1      46.529  11.978 -24.969  1.00  0.00     0.000 C 
BRANCH  21  22
ATOM     22  C   UNL     1      45.153  12.224 -24.320  1.00  0.00    -0.000 C 
BRANCH  22  23
ATOM     23  C   UNL     1      45.164  13.135 -23.079  1.00  0.00    -0.000 C 
BRANCH  23  24
ATOM     24  C   UNL     1      46.230  14.249 -23.095  1.00  0.00    -0.000 C 
BRANCH  24  25
ATOM     25  C   UNL     1      47.056  14.387 -21.801  1.00  0.00    -0.000 C 
BRANCH  25  26
ATOM     26  C   UNL     1      48.131  15.488 -21.825  1.00  0.00    -0.000 C 
BRANCH  26  27
ATOM     27  C   UNL     1      49.082  15.419 -20.618  1.00  0.00    -0.000 C 
BRANCH  27  28
ATOM     28  C   UNL     1      50.566  15.368 -21.026  1.00  0.00    -0.000 C 
BRANCH  28  29
ATOM     29  C   UNL     1      51.370  14.204 -20.420  1.00  0.00    -0.003 C 
ATOM     30  C   UNL     1      52.665  14.654 -19.745  1.00  0.00     0.004 C 
ENDBRANCH  28  29
ENDBRANCH  27  28
ENDBRANCH  26  27
ENDBRANCH  25  26
ENDBRANCH  24  25
ENDBRANCH  23  24
ENDBRANCH  22  23
ENDBRANCH  21  22
ENDBRANCH  20  21
ENDBRANCH  19  20
ENDBRANCH  18  19
ENDBRANCH  17  18
ENDBRANCH   1  17
TORSDOF 26
ENDMDL
