MODEL 1
REMARK VINA RESULT:    -7.059      0.000      0.000
REMARK INTER + INTRA:          -7.059
REMARK INTER:                  -7.059
REMARK INTRA:                   0.000
REMARK UNBOUND:                 0.000
REMARK SMILES C=C1CCC[C@]2(C)Cc3occ(C)c3C[C@H]12
REMARK SMILES IDX 13 1 12 2 11 3 10 4 9 5 14 6 15 7 16 8 2 9 1 10 3 11 4 12
REMARK SMILES IDX 5 13 6 14 8 15 7 16
REMARK H PARENT
REMARK Flexibility Score: inf
ROOT
ATOM      1  C   UNL     1      -6.867 -60.553 -36.629  1.00  0.00     0.048 C 
ATOM      2  C   UNL     1      -7.226 -59.346 -35.826  1.00  0.00    -0.009 A 
ATOM      3  C   UNL     1      -7.411 -59.291 -34.455  1.00  0.00     0.198 A 
ATOM      4  O   UNL     1      -7.590 -58.040 -34.085  1.00  0.00    -0.469 OA
ATOM      5  C   UNL     1      -7.511 -57.279 -35.151  1.00  0.00     0.107 A 
ATOM      6  C   UNL     1      -7.302 -58.041 -36.267  1.00  0.00    -0.003 A 
ATOM      7  C   UNL     1      -6.994 -57.492 -37.620  1.00  0.00     0.048 C 
ATOM      8  C   UNL     1      -7.377 -55.988 -37.738  1.00  0.00     0.025 C 
ATOM      9  C   UNL     1      -6.654 -55.395 -38.935  1.00  0.00    -0.073 C 
ATOM     10  C   UNL     1      -7.281 -55.268 -40.115  1.00  0.00     0.008 C 
ATOM     11  C   UNL     1      -5.171 -55.106 -38.821  1.00  0.00     0.031 C 
ATOM     12  C   UNL     1      -4.827 -54.388 -37.508  1.00  0.00     0.005 C 
ATOM     13  C   UNL     1      -5.517 -55.015 -36.280  1.00  0.00     0.008 C 
ATOM     14  C   UNL     1      -7.059 -55.144 -36.451  1.00  0.00    -0.019 C 
ATOM     15  C   UNL     1      -7.682 -55.797 -35.175  1.00  0.00     0.083 C 
ATOM     16  C   UNL     1      -7.693 -53.733 -36.583  1.00  0.00     0.012 C 
ENDROOT
TORSDOF 0
ENDMDL
MODEL 2
REMARK VINA RESULT:    -6.292     11.480     14.657
REMARK INTER + INTRA:          -6.292
REMARK INTER:                  -6.292
REMARK INTRA:                   0.000
REMARK UNBOUND:                 0.000
REMARK SMILES C=C1CCC[C@]2(C)Cc3occ(C)c3C[C@H]12
REMARK SMILES IDX 13 1 12 2 11 3 10 4 9 5 14 6 15 7 16 8 2 9 1 10 3 11 4 12
REMARK SMILES IDX 5 13 6 14 8 15 7 16
REMARK H PARENT
REMARK Flexibility Score: inf
ROOT
ATOM      1  C   UNL     1      -8.379 -66.692 -31.371  1.00  0.00     0.048 C 
ATOM      2  C   UNL     1      -7.459 -66.446 -30.220  1.00  0.00    -0.009 A 
ATOM      3  C   UNL     1      -6.338 -65.634 -30.217  1.00  0.00     0.198 A 
ATOM      4  O   UNL     1      -5.852 -65.559 -28.996  1.00  0.00    -0.469 OA
ATOM      5  C   UNL     1      -6.618 -66.271 -28.202  1.00  0.00     0.107 A 
ATOM      6  C   UNL     1      -7.626 -66.861 -28.915  1.00  0.00    -0.003 A 
ATOM      7  C   UNL     1      -8.772 -67.598 -28.306  1.00  0.00     0.048 C 
ATOM      8  C   UNL     1      -8.478 -68.018 -26.837  1.00  0.00     0.025 C 
ATOM      9  C   UNL     1      -9.793 -68.350 -26.154  1.00  0.00    -0.073 C 
ATOM     10  C   UNL     1     -10.204 -69.623 -26.048  1.00  0.00     0.008 C 
ATOM     11  C   UNL     1     -10.709 -67.214 -25.745  1.00  0.00     0.031 C 
ATOM     12  C   UNL     1      -9.943 -66.087 -25.036  1.00  0.00     0.005 C 
ATOM     13  C   UNL     1      -8.630 -65.710 -25.751  1.00  0.00     0.008 C 
ATOM     14  C   UNL     1      -7.703 -66.934 -26.003  1.00  0.00    -0.019 C 
ATOM     15  C   UNL     1      -6.403 -66.473 -26.740  1.00  0.00     0.083 C 
ATOM     16  C   UNL     1      -7.253 -67.542 -24.647  1.00  0.00     0.012 C 
ENDROOT
TORSDOF 0
ENDMDL
MODEL 3
REMARK VINA RESULT:    -6.266     11.566     15.167
REMARK INTER + INTRA:          -6.266
REMARK INTER:                  -6.266
REMARK INTRA:                   0.000
REMARK UNBOUND:                 0.000
REMARK SMILES C=C1CCC[C@]2(C)Cc3occ(C)c3C[C@H]12
REMARK SMILES IDX 13 1 12 2 11 3 10 4 9 5 14 6 15 7 16 8 2 9 1 10 3 11 4 12
REMARK SMILES IDX 5 13 6 14 8 15 7 16
REMARK H PARENT
REMARK Flexibility Score: inf
ROOT
ATOM      1  C   UNL     1      -6.137 -65.611 -30.166  1.00  0.00     0.048 C 
ATOM      2  C   UNL     1      -7.371 -66.449 -30.082  1.00  0.00    -0.009 A 
ATOM      3  C   UNL     1      -8.026 -67.062 -31.136  1.00  0.00     0.198 A 
ATOM      4  O   UNL     1      -8.997 -67.820 -30.670  1.00  0.00    -0.469 OA
ATOM      5  C   UNL     1      -8.989 -67.741 -29.359  1.00  0.00     0.107 A 
ATOM      6  C   UNL     1      -8.006 -66.887 -28.939  1.00  0.00    -0.003 A 
ATOM      7  C   UNL     1      -7.607 -66.695 -27.514  1.00  0.00     0.048 C 
ATOM      8  C   UNL     1      -8.698 -67.206 -26.530  1.00  0.00     0.025 C 
ATOM      9  C   UNL     1      -8.069 -67.391 -25.160  1.00  0.00    -0.073 C 
ATOM     10  C   UNL     1      -8.190 -66.441 -24.221  1.00  0.00     0.008 C 
ATOM     11  C   UNL     1      -7.168 -68.587 -24.928  1.00  0.00     0.031 C 
ATOM     12  C   UNL     1      -7.782 -69.883 -25.477  1.00  0.00     0.005 C 
ATOM     13  C   UNL     1      -8.379 -69.715 -26.889  1.00  0.00     0.008 C 
ATOM     14  C   UNL     1      -9.395 -68.540 -26.982  1.00  0.00    -0.019 C 
ATOM     15  C   UNL     1      -9.943 -68.428 -28.442  1.00  0.00     0.083 C 
ATOM     16  C   UNL     1     -10.617 -68.827 -26.068  1.00  0.00     0.012 C 
ENDROOT
TORSDOF 0
ENDMDL
MODEL 4
REMARK VINA RESULT:    -6.266      2.121      4.748
REMARK INTER + INTRA:          -6.266
REMARK INTER:                  -6.266
REMARK INTRA:                   0.000
REMARK UNBOUND:                 0.000
REMARK SMILES C=C1CCC[C@]2(C)Cc3occ(C)c3C[C@H]12
REMARK SMILES IDX 13 1 12 2 11 3 10 4 9 5 14 6 15 7 16 8 2 9 1 10 3 11 4 12
REMARK SMILES IDX 5 13 6 14 8 15 7 16
REMARK H PARENT
REMARK Flexibility Score: inf
ROOT
ATOM      1  C   UNL     1      -7.629 -55.488 -40.495  1.00  0.00     0.048 C 
ATOM      2  C   UNL     1      -6.380 -55.359 -39.686  1.00  0.00    -0.009 A 
ATOM      3  C   UNL     1      -5.283 -54.568 -39.981  1.00  0.00     0.198 A 
ATOM      4  O   UNL     1      -4.429 -54.609 -38.980  1.00  0.00    -0.469 OA
ATOM      5  C   UNL     1      -4.932 -55.376 -38.040  1.00  0.00     0.107 A 
ATOM      6  C   UNL     1      -6.140 -55.884 -38.433  1.00  0.00    -0.003 A 
ATOM      7  C   UNL     1      -7.062 -56.652 -37.547  1.00  0.00     0.048 C 
ATOM      8  C   UNL     1      -6.333 -57.204 -36.288  1.00  0.00     0.025 C 
ATOM      9  C   UNL     1      -7.375 -57.573 -35.247  1.00  0.00    -0.073 C 
ATOM     10  C   UNL     1      -7.785 -58.844 -35.113  1.00  0.00     0.008 C 
ATOM     11  C   UNL     1      -8.061 -56.463 -34.477  1.00  0.00     0.031 C 
ATOM     12  C   UNL     1      -7.060 -55.416 -33.968  1.00  0.00     0.005 C 
ATOM     13  C   UNL     1      -6.029 -54.999 -35.035  1.00  0.00     0.008 C 
ATOM     14  C   UNL     1      -5.285 -56.211 -35.667  1.00  0.00    -0.019 C 
ATOM     15  C   UNL     1      -4.271 -55.709 -36.745  1.00  0.00     0.083 C 
ATOM     16  C   UNL     1      -4.453 -56.943 -34.579  1.00  0.00     0.012 C 
ENDROOT
TORSDOF 0
ENDMDL
MODEL 5
REMARK VINA RESULT:    -6.035     15.381     16.753
REMARK INTER + INTRA:          -6.035
REMARK INTER:                  -6.035
REMARK INTRA:                   0.000
REMARK UNBOUND:                 0.000
REMARK SMILES C=C1CCC[C@]2(C)Cc3occ(C)c3C[C@H]12
REMARK SMILES IDX 13 1 12 2 11 3 10 4 9 5 14 6 15 7 16 8 2 9 1 10 3 11 4 12
REMARK SMILES IDX 5 13 6 14 8 15 7 16
REMARK H PARENT
REMARK Flexibility Score: inf
ROOT
ATOM      1  C   UNL     1      -7.528 -66.868 -25.031  1.00  0.00     0.048 C 
ATOM      2  C   UNL     1      -8.834 -67.521 -25.348  1.00  0.00    -0.009 A 
ATOM      3  C   UNL     1      -9.028 -68.841 -25.718  1.00  0.00     0.198 A 
ATOM      4  O   UNL     1     -10.319 -69.091 -25.790  1.00  0.00    -0.469 OA
ATOM      5  C   UNL     1     -10.971 -67.999 -25.466  1.00  0.00     0.107 A 
ATOM      6  C   UNL     1     -10.094 -66.983 -25.196  1.00  0.00    -0.003 A 
ATOM      7  C   UNL     1     -10.485 -65.658 -24.633  1.00  0.00     0.048 C 
ATOM      8  C   UNL     1     -12.006 -65.378 -24.805  1.00  0.00     0.025 C 
ATOM      9  C   UNL     1     -12.407 -64.266 -23.851  1.00  0.00    -0.073 C 
ATOM     10  C   UNL     1     -12.500 -63.000 -24.282  1.00  0.00     0.008 C 
ATOM     11  C   UNL     1     -12.536 -64.584 -22.375  1.00  0.00     0.031 C 
ATOM     12  C   UNL     1     -13.322 -65.881 -22.135  1.00  0.00     0.005 C 
ATOM     13  C   UNL     1     -12.887 -67.030 -23.066  1.00  0.00     0.008 C 
ATOM     14  C   UNL     1     -12.919 -66.636 -24.571  1.00  0.00    -0.019 C 
ATOM     15  C   UNL     1     -12.454 -67.846 -25.446  1.00  0.00     0.083 C 
ATOM     16  C   UNL     1     -14.375 -66.311 -24.999  1.00  0.00     0.012 C 
ENDROOT
TORSDOF 0
ENDMDL
MODEL 6
REMARK VINA RESULT:    -6.021      1.693      3.831
REMARK INTER + INTRA:          -6.021
REMARK INTER:                  -6.021
REMARK INTRA:                   0.000
REMARK UNBOUND:                 0.000
REMARK SMILES C=C1CCC[C@]2(C)Cc3occ(C)c3C[C@H]12
REMARK SMILES IDX 13 1 12 2 11 3 10 4 9 5 14 6 15 7 16 8 2 9 1 10 3 11 4 12
REMARK SMILES IDX 5 13 6 14 8 15 7 16
REMARK H PARENT
REMARK Flexibility Score: inf
ROOT
ATOM      1  C   UNL     1      -5.578 -52.612 -34.216  1.00  0.00     0.048 C 
ATOM      2  C   UNL     1      -6.265 -53.921 -34.432  1.00  0.00    -0.009 A 
ATOM      3  C   UNL     1      -7.259 -54.472 -33.642  1.00  0.00     0.198 A 
ATOM      4  O   UNL     1      -7.714 -55.569 -34.210  1.00  0.00    -0.469 OA
ATOM      5  C   UNL     1      -7.072 -55.745 -35.342  1.00  0.00     0.107 A 
ATOM      6  C   UNL     1      -6.144 -54.756 -35.523  1.00  0.00    -0.003 A 
ATOM      7  C   UNL     1      -5.361 -54.552 -36.777  1.00  0.00     0.048 C 
ATOM      8  C   UNL     1      -5.365 -55.821 -37.678  1.00  0.00     0.025 C 
ATOM      9  C   UNL     1      -4.951 -55.420 -39.083  1.00  0.00    -0.073 C 
ATOM     10  C   UNL     1      -3.684 -55.582 -39.492  1.00  0.00     0.008 C 
ATOM     11  C   UNL     1      -5.948 -54.683 -39.954  1.00  0.00     0.031 C 
ATOM     12  C   UNL     1      -7.338 -55.335 -39.910  1.00  0.00     0.005 C 
ATOM     13  C   UNL     1      -7.787 -55.700 -38.482  1.00  0.00     0.008 C 
ATOM     14  C   UNL     1      -6.745 -56.571 -37.722  1.00  0.00    -0.019 C 
ATOM     15  C   UNL     1      -7.266 -56.886 -36.282  1.00  0.00     0.083 C 
ATOM     16  C   UNL     1      -6.575 -57.935 -38.443  1.00  0.00     0.012 C 
ENDROOT
TORSDOF 0
ENDMDL
MODEL 7
REMARK VINA RESULT:    -5.972      2.044      3.756
REMARK INTER + INTRA:          -5.972
REMARK INTER:                  -5.972
REMARK INTRA:                   0.000
REMARK UNBOUND:                 0.000
REMARK SMILES C=C1CCC[C@]2(C)Cc3occ(C)c3C[C@H]12
REMARK SMILES IDX 13 1 12 2 11 3 10 4 9 5 14 6 15 7 16 8 2 9 1 10 3 11 4 12
REMARK SMILES IDX 5 13 6 14 8 15 7 16
REMARK H PARENT
REMARK Flexibility Score: inf
ROOT
ATOM      1  C   UNL     1      -7.517 -55.546 -40.327  1.00  0.00     0.048 C 
ATOM      2  C   UNL     1      -7.249 -56.282 -39.054  1.00  0.00    -0.009 A 
ATOM      3  C   UNL     1      -6.874 -57.608 -38.930  1.00  0.00     0.198 A 
ATOM      4  O   UNL     1      -6.602 -57.872 -37.669  1.00  0.00    -0.469 OA
ATOM      5  C   UNL     1      -6.766 -56.771 -36.972  1.00  0.00     0.107 A 
ATOM      6  C   UNL     1      -7.185 -55.752 -37.783  1.00  0.00    -0.003 A 
ATOM      7  C   UNL     1      -7.303 -54.327 -37.355  1.00  0.00     0.048 C 
ATOM      8  C   UNL     1      -7.342 -54.186 -35.806  1.00  0.00     0.025 C 
ATOM      9  C   UNL     1      -7.020 -52.748 -35.440  1.00  0.00    -0.073 C 
ATOM     10  C   UNL     1      -8.004 -51.875 -35.176  1.00  0.00     0.008 C 
ATOM     11  C   UNL     1      -5.584 -52.274 -35.540  1.00  0.00     0.031 C 
ATOM     12  C   UNL     1      -4.605 -53.277 -34.913  1.00  0.00     0.005 C 
ATOM     13  C   UNL     1      -4.895 -54.736 -35.319  1.00  0.00     0.008 C 
ATOM     14  C   UNL     1      -6.368 -55.160 -35.049  1.00  0.00    -0.019 C 
ATOM     15  C   UNL     1      -6.585 -56.642 -35.498  1.00  0.00     0.083 C 
ATOM     16  C   UNL     1      -6.659 -55.109 -33.525  1.00  0.00     0.012 C 
ENDROOT
TORSDOF 0
ENDMDL
MODEL 8
REMARK VINA RESULT:    -5.887      2.131      4.858
REMARK INTER + INTRA:          -5.887
REMARK INTER:                  -5.887
REMARK INTRA:                   0.000
REMARK UNBOUND:                 0.000
REMARK SMILES C=C1CCC[C@]2(C)Cc3occ(C)c3C[C@H]12
REMARK SMILES IDX 13 1 12 2 11 3 10 4 9 5 14 6 15 7 16 8 2 9 1 10 3 11 4 12
REMARK SMILES IDX 5 13 6 14 8 15 7 16
REMARK H PARENT
REMARK Flexibility Score: inf
ROOT
ATOM      1  C   UNL     1      -3.682 -55.046 -39.736  1.00  0.00     0.048 C 
ATOM      2  C   UNL     1      -5.117 -55.068 -39.322  1.00  0.00    -0.009 A 
ATOM      3  C   UNL     1      -6.214 -54.833 -40.134  1.00  0.00     0.198 A 
ATOM      4  O   UNL     1      -7.319 -55.065 -39.456  1.00  0.00    -0.469 OA
ATOM      5  C   UNL     1      -6.989 -55.457 -38.248  1.00  0.00     0.107 A 
ATOM      6  C   UNL     1      -5.628 -55.462 -38.103  1.00  0.00    -0.003 A 
ATOM      7  C   UNL     1      -4.907 -56.014 -36.920  1.00  0.00     0.048 C 
ATOM      8  C   UNL     1      -5.843 -56.167 -35.687  1.00  0.00     0.025 C 
ATOM      9  C   UNL     1      -5.191 -57.115 -34.695  1.00  0.00    -0.073 C 
ATOM     10  C   UNL     1      -4.501 -56.637 -33.649  1.00  0.00     0.008 C 
ATOM     11  C   UNL     1      -5.192 -58.600 -34.998  1.00  0.00     0.031 C 
ATOM     12  C   UNL     1      -6.571 -59.088 -35.464  1.00  0.00     0.005 C 
ATOM     13  C   UNL     1      -7.219 -58.157 -36.508  1.00  0.00     0.008 C 
ATOM     14  C   UNL     1      -7.288 -56.675 -36.039  1.00  0.00    -0.019 C 
ATOM     15  C   UNL     1      -7.943 -55.796 -37.153  1.00  0.00     0.083 C 
ATOM     16  C   UNL     1      -8.201 -56.561 -34.788  1.00  0.00     0.012 C 
ENDROOT
TORSDOF 0
ENDMDL
MODEL 9
REMARK VINA RESULT:    -5.846      2.578      4.627
REMARK INTER + INTRA:          -5.846
REMARK INTER:                  -5.846
REMARK INTRA:                   0.000
REMARK UNBOUND:                 0.000
REMARK SMILES C=C1CCC[C@]2(C)Cc3occ(C)c3C[C@H]12
REMARK SMILES IDX 13 1 12 2 11 3 10 4 9 5 14 6 15 7 16 8 2 9 1 10 3 11 4 12
REMARK SMILES IDX 5 13 6 14 8 15 7 16
REMARK H PARENT
REMARK Flexibility Score: inf
ROOT
ATOM      1  C   UNL     1      -4.079 -54.291 -32.238  1.00  0.00     0.048 C 
ATOM      2  C   UNL     1      -4.971 -53.660 -33.257  1.00  0.00    -0.009 A 
ATOM      3  C   UNL     1      -4.998 -52.324 -33.616  1.00  0.00     0.198 A 
ATOM      4  O   UNL     1      -5.817 -52.159 -34.634  1.00  0.00    -0.469 OA
ATOM      5  C   UNL     1      -6.308 -53.331 -34.963  1.00  0.00     0.107 A 
ATOM      6  C   UNL     1      -5.827 -54.302 -34.127  1.00  0.00    -0.003 A 
ATOM      7  C   UNL     1      -6.043 -55.766 -34.320  1.00  0.00     0.048 C 
ATOM      8  C   UNL     1      -7.227 -56.056 -35.287  1.00  0.00     0.025 C 
ATOM      9  C   UNL     1      -7.114 -57.490 -35.777  1.00  0.00    -0.073 C 
ATOM     10  C   UNL     1      -7.828 -58.466 -35.198  1.00  0.00     0.008 C 
ATOM     11  C   UNL     1      -6.062 -57.823 -36.815  1.00  0.00     0.031 C 
ATOM     12  C   UNL     1      -6.045 -56.803 -37.962  1.00  0.00     0.005 C 
ATOM     13  C   UNL     1      -6.109 -55.343 -37.471  1.00  0.00     0.008 C 
ATOM     14  C   UNL     1      -7.308 -55.078 -36.514  1.00  0.00    -0.019 C 
ATOM     15  C   UNL     1      -7.297 -53.584 -36.051  1.00  0.00     0.083 C 
ATOM     16  C   UNL     1      -8.645 -55.299 -37.271  1.00  0.00     0.012 C 
ENDROOT
TORSDOF 0
ENDMDL
