MODEL 1
REMARK VINA RESULT:    -3.433      0.000      0.000
REMARK INTER + INTRA:          -5.286
REMARK INTER:                  -4.637
REMARK INTRA:                  -0.648
REMARK UNBOUND:                -0.648
REMARK SMILES O=C[C@@H](O)[C@H](O)[C@@H](O)CO
REMARK SMILES IDX 7 1 9 2 10 3 5 5 3 6 2 7 1 8 4 9 6 11 8 13
REMARK H PARENT 10 4 4 10 6 12 8 14
REMARK Flexibility Score: inf
ROOT
ATOM      1  C   UNL     1     169.178 184.398 158.119  1.00  0.00     0.171 C 
ENDROOT
BRANCH   1   2
ATOM      2  C   UNL     1     169.088 185.864 157.650  1.00  0.00     0.190 C 
BRANCH   2   3
ATOM      3  O   UNL     1     168.396 186.655 158.577  1.00  0.00    -0.394 OA
ATOM      4  H   UNL     1     168.775 187.570 158.511  1.00  0.00     0.210 HD
ENDBRANCH   2   3
ENDBRANCH   1   2
BRANCH   1   5
ATOM      5  C   UNL     1     169.172 184.232 159.663  1.00  0.00     0.181 C 
BRANCH   5   6
ATOM      6  C   UNL     1     170.081 183.097 160.206  1.00  0.00     0.209 C 
BRANCH   6   7
ATOM      7  C   UNL     1     169.900 182.870 161.685  1.00  0.00     0.258 C 
ATOM      8  O   UNL     1     169.467 183.761 162.399  1.00  0.00    -0.300 OA
ENDBRANCH   6   7
BRANCH   6   9
ATOM      9  O   UNL     1     169.840 181.909 159.499  1.00  0.00    -0.383 OA
ATOM     10  H   UNL     1     170.266 182.010 158.608  1.00  0.00     0.211 HD
ENDBRANCH   6   9
ENDBRANCH   5   6
BRANCH   5  11
ATOM     11  O   UNL     1     167.847 184.002 160.076  1.00  0.00    -0.387 OA
ATOM     12  H   UNL     1     167.391 184.884 160.098  1.00  0.00     0.211 HD
ENDBRANCH   5  11
ENDBRANCH   1   5
BRANCH   1  13
ATOM     13  O   UNL     1     168.096 183.676 157.588  1.00  0.00    -0.388 OA
ATOM     14  H   UNL     1     167.590 184.298 157.000  1.00  0.00     0.211 HD
ENDBRANCH   1  13
TORSDOF 8
ENDMDL
MODEL 2
REMARK VINA RESULT:    -3.421      1.039      4.363
REMARK INTER + INTRA:          -5.269
REMARK INTER:                  -4.603
REMARK INTRA:                  -0.667
REMARK UNBOUND:                -0.648
REMARK SMILES O=C[C@@H](O)[C@H](O)[C@@H](O)CO
REMARK SMILES IDX 7 1 9 2 10 3 5 5 3 6 2 7 1 8 4 9 6 11 8 13
REMARK H PARENT 10 4 4 10 6 12 8 14
REMARK Flexibility Score: inf
ROOT
ATOM      1  C   UNL     1     169.141 184.236 159.774  1.00  0.00     0.171 C 
ENDROOT
BRANCH   1   2
ATOM      2  C   UNL     1     170.008 183.061 160.267  1.00  0.00     0.190 C 
BRANCH   2   3
ATOM      3  O   UNL     1     169.826 181.921 159.471  1.00  0.00    -0.394 OA
ATOM      4  H   UNL     1     168.852 181.848 159.296  1.00  0.00     0.210 HD
ENDBRANCH   2   3
ENDBRANCH   1   2
BRANCH   1   5
ATOM      5  C   UNL     1     169.199 184.455 158.238  1.00  0.00     0.181 C 
BRANCH   5   6
ATOM      6  C   UNL     1     169.144 185.939 157.783  1.00  0.00     0.209 C 
BRANCH   6   7
ATOM      7  C   UNL     1     168.593 186.096 156.389  1.00  0.00     0.258 C 
ATOM      8  O   UNL     1     169.090 185.486 155.456  1.00  0.00    -0.300 OA
ENDBRANCH   6   7
BRANCH   6   9
ATOM      9  O   UNL     1     168.387 186.693 158.693  1.00  0.00    -0.383 OA
ATOM     10  H   UNL     1     168.779 187.605 158.710  1.00  0.00     0.211 HD
ENDBRANCH   6   9
ENDBRANCH   5   6
BRANCH   5  11
ATOM     11  O   UNL     1     168.130 183.753 157.652  1.00  0.00    -0.387 OA
ATOM     12  H   UNL     1     168.502 183.237 156.890  1.00  0.00     0.211 HD
ENDBRANCH   5  11
ENDBRANCH   1   5
BRANCH   1  13
ATOM     13  O   UNL     1     167.804 184.010 160.143  1.00  0.00    -0.388 OA
ATOM     14  H   UNL     1     167.452 183.299 159.544  1.00  0.00     0.211 HD
ENDBRANCH   1  13
TORSDOF 8
ENDMDL
MODEL 3
REMARK VINA RESULT:    -3.380      1.799      3.649
REMARK INTER + INTRA:          -5.213
REMARK INTER:                  -4.297
REMARK INTRA:                  -0.917
REMARK UNBOUND:                -0.648
REMARK SMILES O=C[C@@H](O)[C@H](O)[C@@H](O)CO
REMARK SMILES IDX 7 1 9 2 10 3 5 5 3 6 2 7 1 8 4 9 6 11 8 13
REMARK H PARENT 10 4 4 10 6 12 8 14
REMARK Flexibility Score: inf
ROOT
ATOM      1  C   UNL     1     169.222 183.810 159.339  1.00  0.00     0.171 C 
ENDROOT
BRANCH   1   2
ATOM      2  C   UNL     1     168.973 183.218 157.937  1.00  0.00     0.190 C 
BRANCH   2   3
ATOM      3  O   UNL     1     167.945 183.898 157.270  1.00  0.00    -0.394 OA
ATOM      4  H   UNL     1     167.205 184.008 157.922  1.00  0.00     0.210 HD
ENDBRANCH   2   3
ENDBRANCH   1   2
BRANCH   1   5
ATOM      5  C   UNL     1     169.993 185.157 159.323  1.00  0.00     0.181 C 
BRANCH   5   6
ATOM      6  C   UNL     1     169.120 186.417 159.567  1.00  0.00     0.209 C 
BRANCH   6   7
ATOM      7  C   UNL     1     169.938 187.618 159.968  1.00  0.00     0.258 C 
ATOM      8  O   UNL     1     170.873 187.988 159.276  1.00  0.00    -0.300 OA
ENDBRANCH   6   7
BRANCH   6   9
ATOM      9  O   UNL     1     168.362 186.706 158.421  1.00  0.00    -0.383 OA
ATOM     10  H   UNL     1     168.209 185.845 157.950  1.00  0.00     0.211 HD
ENDBRANCH   6   9
ENDBRANCH   5   6
BRANCH   5  11
ATOM     11  O   UNL     1     170.643 185.278 158.081  1.00  0.00    -0.387 OA
ATOM     12  H   UNL     1     171.566 184.935 158.200  1.00  0.00     0.211 HD
ENDBRANCH   5  11
ENDBRANCH   1   5
BRANCH   1  13
ATOM     13  O   UNL     1     167.988 184.009 159.982  1.00  0.00    -0.388 OA
ATOM     14  H   UNL     1     167.665 183.116 160.276  1.00  0.00     0.211 HD
ENDBRANCH   1  13
TORSDOF 8
ENDMDL
MODEL 4
REMARK VINA RESULT:    -3.373     19.062     20.666
REMARK INTER + INTRA:          -5.204
REMARK INTER:                  -4.597
REMARK INTRA:                  -0.607
REMARK UNBOUND:                -0.648
REMARK SMILES O=C[C@@H](O)[C@H](O)[C@@H](O)CO
REMARK SMILES IDX 7 1 9 2 10 3 5 5 3 6 2 7 1 8 4 9 6 11 8 13
REMARK H PARENT 10 4 4 10 6 12 8 14
REMARK Flexibility Score: inf
ROOT
ATOM      1  C   UNL     1     185.226 171.701 155.549  1.00  0.00     0.171 C 
ENDROOT
BRANCH   1   2
ATOM      2  C   UNL     1     185.280 170.276 154.962  1.00  0.00     0.190 C 
BRANCH   2   3
ATOM      3  O   UNL     1     186.133 169.449 155.705  1.00  0.00    -0.394 OA
ATOM      4  H   UNL     1     185.556 168.913 156.310  1.00  0.00     0.210 HD
ENDBRANCH   2   3
ENDBRANCH   1   2
BRANCH   1   5
ATOM      5  C   UNL     1     185.332 171.745 157.098  1.00  0.00     0.181 C 
BRANCH   5   6
ATOM      6  C   UNL     1     184.423 172.795 157.789  1.00  0.00     0.209 C 
BRANCH   6   7
ATOM      7  C   UNL     1     184.596 172.813 159.286  1.00  0.00     0.258 C 
ATOM      8  O   UNL     1     185.238 171.937 159.845  1.00  0.00    -0.300 OA
ENDBRANCH   6   7
BRANCH   6   9
ATOM      9  O   UNL     1     184.670 174.070 157.256  1.00  0.00    -0.383 OA
ATOM     10  H   UNL     1     185.640 174.249 157.372  1.00  0.00     0.211 HD
ENDBRANCH   6   9
ENDBRANCH   5   6
BRANCH   5  11
ATOM     11  O   UNL     1     186.673 171.996 157.440  1.00  0.00    -0.387 OA
ATOM     12  H   UNL     1     186.665 172.579 158.244  1.00  0.00     0.211 HD
ENDBRANCH   5  11
ENDBRANCH   1   5
BRANCH   1  13
ATOM     13  O   UNL     1     186.275 172.463 155.007  1.00  0.00    -0.388 OA
ATOM     14  H   UNL     1     185.860 173.197 154.480  1.00  0.00     0.211 HD
ENDBRANCH   1  13
TORSDOF 8
ENDMDL
MODEL 5
REMARK VINA RESULT:    -3.326     19.622     21.254
REMARK INTER + INTRA:          -5.141
REMARK INTER:                  -4.453
REMARK INTRA:                  -0.688
REMARK UNBOUND:                -0.648
REMARK SMILES O=C[C@@H](O)[C@H](O)[C@@H](O)CO
REMARK SMILES IDX 7 1 9 2 10 3 5 5 3 6 2 7 1 8 4 9 6 11 8 13
REMARK H PARENT 10 4 4 10 6 12 8 14
REMARK Flexibility Score: inf
ROOT
ATOM      1  C   UNL     1     185.355 171.781 157.141  1.00  0.00     0.171 C 
ENDROOT
BRANCH   1   2
ATOM      2  C   UNL     1     184.530 172.948 157.719  1.00  0.00     0.190 C 
BRANCH   2   3
ATOM      3  O   UNL     1     184.605 174.082 156.897  1.00  0.00    -0.394 OA
ATOM      4  H   UNL     1     183.914 174.716 157.222  1.00  0.00     0.210 HD
ENDBRANCH   2   3
ENDBRANCH   1   2
BRANCH   1   5
ATOM      5  C   UNL     1     185.243 171.636 155.600  1.00  0.00     0.181 C 
BRANCH   5   6
ATOM      6  C   UNL     1     185.303 170.178 155.070  1.00  0.00     0.209 C 
BRANCH   6   7
ATOM      7  C   UNL     1     185.776 170.102 153.641  1.00  0.00     0.258 C 
ATOM      8  O   UNL     1     185.264 170.802 152.782  1.00  0.00    -0.300 OA
ENDBRANCH   6   7
BRANCH   6   9
ATOM      9  O   UNL     1     186.128 169.400 155.897  1.00  0.00    -0.383 OA
ATOM     10  H   UNL     1     185.738 168.487 155.920  1.00  0.00     0.211 HD
ENDBRANCH   6   9
ENDBRANCH   5   6
BRANCH   5  11
ATOM     11  O   UNL     1     186.277 172.386 155.010  1.00  0.00    -0.387 OA
ATOM     12  H   UNL     1     185.849 173.067 154.428  1.00  0.00     0.211 HD
ENDBRANCH   5  11
ENDBRANCH   1   5
BRANCH   1  13
ATOM     13  O   UNL     1     186.708 171.961 157.476  1.00  0.00    -0.388 OA
ATOM     14  H   UNL     1     186.732 172.523 158.296  1.00  0.00     0.211 HD
ENDBRANCH   1  13
TORSDOF 8
ENDMDL
MODEL 6
REMARK VINA RESULT:    -3.290     20.295     21.336
REMARK INTER + INTRA:          -5.093
REMARK INTER:                  -4.157
REMARK INTRA:                  -0.936
REMARK UNBOUND:                -0.648
REMARK SMILES O=C[C@@H](O)[C@H](O)[C@@H](O)CO
REMARK SMILES IDX 7 1 9 2 10 3 5 5 3 6 2 7 1 8 4 9 6 11 8 13
REMARK H PARENT 10 4 4 10 6 12 8 14
REMARK Flexibility Score: inf
ROOT
ATOM      1  C   UNL     1     185.252 172.245 156.623  1.00  0.00     0.171 C 
ENDROOT
BRANCH   1   2
ATOM      2  C   UNL     1     185.486 172.958 155.277  1.00  0.00     0.190 C 
BRANCH   2   3
ATOM      3  O   UNL     1     186.497 172.332 154.535  1.00  0.00    -0.394 OA
ATOM      4  H   UNL     1     186.062 171.607 154.015  1.00  0.00     0.210 HD
ENDBRANCH   2   3
ENDBRANCH   1   2
BRANCH   1   5
ATOM      5  C   UNL     1     184.479 170.904 156.496  1.00  0.00     0.181 C 
BRANCH   5   6
ATOM      6  C   UNL     1     185.349 169.627 156.650  1.00  0.00     0.209 C 
BRANCH   6   7
ATOM      7  C   UNL     1     184.522 168.392 156.901  1.00  0.00     0.258 C 
ATOM      8  O   UNL     1     183.773 167.963 156.037  1.00  0.00    -0.300 OA
ENDBRANCH   6   7
BRANCH   6   9
ATOM      9  O   UNL     1     186.150 169.452 155.511  1.00  0.00    -0.383 OA
ATOM     10  H   UNL     1     186.913 170.082 155.594  1.00  0.00     0.211 HD
ENDBRANCH   6   9
ENDBRANCH   5   6
BRANCH   5  11
ATOM     11  O   UNL     1     183.840 170.881 155.243  1.00  0.00    -0.387 OA
ATOM     12  H   UNL     1     183.336 170.028 155.188  1.00  0.00     0.211 HD
ENDBRANCH   5  11
ENDBRANCH   1   5
BRANCH   1  13
ATOM     13  O   UNL     1     186.493 171.989 157.232  1.00  0.00    -0.388 OA
ATOM     14  H   UNL     1     186.630 171.005 157.212  1.00  0.00     0.211 HD
ENDBRANCH   1  13
TORSDOF 8
ENDMDL
MODEL 7
REMARK VINA RESULT:    -3.229     17.345     18.073
REMARK INTER + INTRA:          -5.010
REMARK INTER:                  -4.278
REMARK INTRA:                  -0.733
REMARK UNBOUND:                -0.648
REMARK SMILES O=C[C@@H](O)[C@H](O)[C@@H](O)CO
REMARK SMILES IDX 7 1 9 2 10 3 5 5 3 6 2 7 1 8 4 9 6 11 8 13
REMARK H PARENT 10 4 4 10 6 12 8 14
REMARK Flexibility Score: inf
ROOT
ATOM      1  C   UNL     1     183.458 184.445 151.057  1.00  0.00     0.171 C 
ENDROOT
BRANCH   1   2
ATOM      2  C   UNL     1     183.155 182.934 151.008  1.00  0.00     0.190 C 
BRANCH   2   3
ATOM      3  O   UNL     1     183.930 182.289 150.034  1.00  0.00    -0.394 OA
ATOM      4  H   UNL     1     184.663 182.913 149.793  1.00  0.00     0.210 HD
ENDBRANCH   2   3
ENDBRANCH   1   2
BRANCH   1   5
ATOM      5  C   UNL     1     184.661 184.814 151.966  1.00  0.00     0.181 C 
BRANCH   5   6
ATOM      6  C   UNL     1     185.669 185.818 151.345  1.00  0.00     0.209 C 
BRANCH   6   7
ATOM      7  C   UNL     1     186.419 186.604 152.390  1.00  0.00     0.258 C 
ATOM      8  O   UNL     1     186.700 186.094 153.463  1.00  0.00    -0.300 OA
ENDBRANCH   6   7
BRANCH   6   9
ATOM      9  O   UNL     1     186.569 185.141 150.508  1.00  0.00    -0.383 OA
ATOM     10  H   UNL     1     187.420 185.654 150.521  1.00  0.00     0.211 HD
ENDBRANCH   6   9
ENDBRANCH   5   6
BRANCH   5  11
ATOM     11  O   UNL     1     185.338 183.628 152.304  1.00  0.00    -0.387 OA
ATOM     12  H   UNL     1     185.892 183.826 153.103  1.00  0.00     0.211 HD
ENDBRANCH   5  11
ENDBRANCH   1   5
BRANCH   1  13
ATOM     13  O   UNL     1     183.722 184.905 149.756  1.00  0.00    -0.388 OA
ATOM     14  H   UNL     1     182.870 184.846 149.247  1.00  0.00     0.211 HD
ENDBRANCH   1  13
TORSDOF 8
ENDMDL
MODEL 8
REMARK VINA RESULT:    -3.164      1.531      2.109
REMARK INTER + INTRA:          -4.922
REMARK INTER:                  -4.001
REMARK INTRA:                  -0.921
REMARK UNBOUND:                -0.648
REMARK SMILES O=C[C@@H](O)[C@H](O)[C@@H](O)CO
REMARK SMILES IDX 7 1 9 2 10 3 5 5 3 6 2 7 1 8 4 9 6 11 8 13
REMARK H PARENT 10 4 4 10 6 12 8 14
REMARK Flexibility Score: inf
ROOT
ATOM      1  C   UNL     1     169.775 183.199 158.667  1.00  0.00     0.171 C 
ENDROOT
BRANCH   1   2
ATOM      2  C   UNL     1     168.973 182.993 157.366  1.00  0.00     0.190 C 
BRANCH   2   3
ATOM      3  O   UNL     1     167.897 183.888 157.282  1.00  0.00    -0.394 OA
ATOM      4  H   UNL     1     168.021 184.552 158.010  1.00  0.00     0.210 HD
ENDBRANCH   2   3
ENDBRANCH   1   2
BRANCH   1   5
ATOM      5  C   UNL     1     169.168 184.268 159.615  1.00  0.00     0.181 C 
BRANCH   5   6
ATOM      6  C   UNL     1     170.080 184.691 160.798  1.00  0.00     0.209 C 
BRANCH   6   7
ATOM      7  C   UNL     1     169.699 184.018 162.091  1.00  0.00     0.258 C 
ATOM      8  O   UNL     1     169.895 182.823 162.248  1.00  0.00    -0.300 OA
ENDBRANCH   6   7
BRANCH   6   9
ATOM      9  O   UNL     1     171.423 184.424 160.489  1.00  0.00    -0.383 OA
ATOM     10  H   UNL     1     171.868 185.301 160.350  1.00  0.00     0.211 HD
ENDBRANCH   6   9
ENDBRANCH   5   6
BRANCH   5  11
ATOM     11  O   UNL     1     167.955 183.768 160.123  1.00  0.00    -0.387 OA
ATOM     12  H   UNL     1     168.159 183.333 160.992  1.00  0.00     0.211 HD
ENDBRANCH   5  11
ENDBRANCH   1   5
BRANCH   1  13
ATOM     13  O   UNL     1     169.854 181.979 159.359  1.00  0.00    -0.388 OA
ATOM     14  H   UNL     1     169.386 182.106 160.227  1.00  0.00     0.211 HD
ENDBRANCH   1  13
TORSDOF 8
ENDMDL
MODEL 9
REMARK VINA RESULT:    -3.097      1.698      4.159
REMARK INTER + INTRA:          -4.832
REMARK INTER:                  -3.863
REMARK INTRA:                  -0.968
REMARK UNBOUND:                -0.648
REMARK SMILES O=C[C@@H](O)[C@H](O)[C@@H](O)CO
REMARK SMILES IDX 7 1 9 2 10 3 5 5 3 6 2 7 1 8 4 9 6 11 8 13
REMARK H PARENT 10 4 4 10 6 12 8 14
REMARK Flexibility Score: inf
ROOT
ATOM      1  C   UNL     1     169.497 185.593 158.830  1.00  0.00     0.171 C 
ENDROOT
BRANCH   1   2
ATOM      2  C   UNL     1     169.146 184.761 160.079  1.00  0.00     0.190 C 
BRANCH   2   3
ATOM      3  O   UNL     1     167.984 184.002 159.878  1.00  0.00    -0.394 OA
ATOM      4  H   UNL     1     168.202 183.071 160.141  1.00  0.00     0.210 HD
ENDBRANCH   2   3
ENDBRANCH   1   2
BRANCH   1   5
ATOM      5  C   UNL     1     169.849 184.735 157.584  1.00  0.00     0.181 C 
BRANCH   5   6
ATOM      6  C   UNL     1     168.739 184.663 156.501  1.00  0.00     0.209 C 
BRANCH   6   7
ATOM      7  C   UNL     1     169.252 184.141 155.183  1.00  0.00     0.258 C 
ATOM      8  O   UNL     1     169.620 182.982 155.079  1.00  0.00    -0.300 OA
ENDBRANCH   6   7
BRANCH   6   9
ATOM      9  O   UNL     1     167.674 183.872 156.956  1.00  0.00    -0.383 OA
ATOM     10  H   UNL     1     166.924 184.000 156.318  1.00  0.00     0.211 HD
ENDBRANCH   6   9
ENDBRANCH   5   6
BRANCH   5  11
ATOM     11  O   UNL     1     170.157 183.433 158.018  1.00  0.00    -0.387 OA
ATOM     12  H   UNL     1     171.145 183.377 158.098  1.00  0.00     0.211 HD
ENDBRANCH   5  11
ENDBRANCH   1   5
BRANCH   1  13
ATOM     13  O   UNL     1     168.411 186.424 158.508  1.00  0.00    -0.388 OA
ATOM     14  H   UNL     1     168.018 186.076 157.663  1.00  0.00     0.211 HD
ENDBRANCH   1  13
TORSDOF 8
ENDMDL
