MODEL 1
REMARK VINA RESULT:    -3.128      0.000      0.000
REMARK INTER + INTRA:          -3.883
REMARK INTER:                  -3.586
REMARK INTRA:                  -0.297
REMARK UNBOUND:                -0.297
REMARK SMILES COC(=O)c1ccccc1O
REMARK SMILES IDX 5 1 6 2 7 3 8 4 9 5 10 6 3 7 4 8 2 9 1 10 11 11
REMARK H PARENT 11 12
REMARK Flexibility Score: inf
ROOT
ATOM      1  C   UNL     1     143.879 143.176 142.254  1.00  0.00     0.101 A 
ATOM      2  C   UNL     1     143.640 143.124 140.868  1.00  0.00     0.019 A 
ATOM      3  C   UNL     1     144.493 142.407 140.026  1.00  0.00     0.001 A 
ATOM      4  C   UNL     1     145.594 141.734 140.554  1.00  0.00     0.004 A 
ATOM      5  C   UNL     1     145.857 141.792 141.922  1.00  0.00     0.047 A 
ATOM      6  C   UNL     1     145.025 142.524 142.779  1.00  0.00     0.130 A 
ENDROOT
BRANCH   1   7
ATOM      7  C   UNL     1     142.900 143.886 143.106  1.00  0.00     0.341 C 
ATOM      8  O   UNL     1     143.289 144.585 144.081  1.00  0.00    -0.246 OA
BRANCH   7   9
ATOM      9  O   UNL     1     141.532 143.728 142.860  1.00  0.00    -0.465 OA
ATOM     10  C   UNL     1     140.620 144.820 142.861  1.00  0.00     0.282 C 
ENDBRANCH   7   9
ENDBRANCH   1   7
BRANCH   6  11
ATOM     11  O   UNL     1     145.387 142.605 144.125  1.00  0.00    -0.507 OA
ATOM     12  H   UNL     1     145.220 141.866 144.794  1.00  0.00     0.293 HD
ENDBRANCH   6  11
TORSDOF 3
ENDMDL
MODEL 2
REMARK VINA RESULT:    -3.120      5.279      6.010
REMARK INTER + INTRA:          -3.874
REMARK INTER:                  -3.574
REMARK INTRA:                  -0.300
REMARK UNBOUND:                -0.297
REMARK SMILES COC(=O)c1ccccc1O
REMARK SMILES IDX 5 1 6 2 7 3 8 4 9 5 10 6 3 7 4 8 2 9 1 10 11 11
REMARK H PARENT 11 12
REMARK Flexibility Score: inf
ROOT
ATOM      1  C   UNL     1     138.437 143.852 142.278  1.00  0.00     0.101 A 
ATOM      2  C   UNL     1     138.492 143.590 140.896  1.00  0.00     0.019 A 
ATOM      3  C   UNL     1     139.215 144.426 140.041  1.00  0.00     0.001 A 
ATOM      4  C   UNL     1     139.892 145.533 140.552  1.00  0.00     0.004 A 
ATOM      5  C   UNL     1     139.832 145.818 141.916  1.00  0.00     0.047 A 
ATOM      6  C   UNL     1     139.094 145.003 142.785  1.00  0.00     0.130 A 
ENDROOT
BRANCH   1   7
ATOM      7  C   UNL     1     137.721 142.891 143.144  1.00  0.00     0.341 C 
ATOM      8  O   UNL     1     137.024 143.299 144.113  1.00  0.00    -0.246 OA
BRANCH   7   9
ATOM      9  O   UNL     1     137.871 141.518 142.920  1.00  0.00    -0.465 OA
ATOM     10  C   UNL     1     136.764 140.630 142.822  1.00  0.00     0.282 C 
ENDBRANCH   7   9
ENDBRANCH   1   7
BRANCH   6  11
ATOM     11  O   UNL     1     139.012 145.389 144.125  1.00  0.00    -0.507 OA
ATOM     12  H   UNL     1     138.167 145.736 144.556  1.00  0.00     0.293 HD
ENDBRANCH   6  11
TORSDOF 3
ENDMDL
MODEL 3
REMARK VINA RESULT:    -3.111      5.307      6.009
REMARK INTER + INTRA:          -3.863
REMARK INTER:                  -3.561
REMARK INTRA:                  -0.302
REMARK UNBOUND:                -0.297
REMARK SMILES COC(=O)c1ccccc1O
REMARK SMILES IDX 5 1 6 2 7 3 8 4 9 5 10 6 3 7 4 8 2 9 1 10 11 11
REMARK H PARENT 11 12
REMARK Flexibility Score: inf
ROOT
ATOM      1  C   UNL     1     143.164 137.739 142.246  1.00  0.00     0.101 A 
ATOM      2  C   UNL     1     143.107 137.987 140.862  1.00  0.00     0.019 A 
ATOM      3  C   UNL     1     142.404 137.128 140.013  1.00  0.00     0.001 A 
ATOM      4  C   UNL     1     141.749 136.012 140.534  1.00  0.00     0.004 A 
ATOM      5  C   UNL     1     141.813 135.740 141.901  1.00  0.00     0.047 A 
ATOM      6  C   UNL     1     142.531 136.579 142.763  1.00  0.00     0.130 A 
ENDROOT
BRANCH   1   7
ATOM      7  C   UNL     1     143.858 138.724 143.105  1.00  0.00     0.341 C 
ATOM      8  O   UNL     1     144.583 138.338 144.062  1.00  0.00    -0.246 OA
BRANCH   7   9
ATOM      9  O   UNL     1     143.656 140.091 142.886  1.00  0.00    -0.465 OA
ATOM     10  C   UNL     1     144.716 140.982 142.562  1.00  0.00     0.282 C 
ENDBRANCH   7   9
ENDBRANCH   1   7
BRANCH   6  11
ATOM     11  O   UNL     1     142.619 136.208 144.106  1.00  0.00    -0.507 OA
ATOM     12  H   UNL     1     142.081 136.643 144.843  1.00  0.00     0.293 HD
ENDBRANCH   6  11
TORSDOF 3
ENDMDL
MODEL 4
REMARK VINA RESULT:    -3.087      7.214      8.522
REMARK INTER + INTRA:          -3.836
REMARK INTER:                  -3.573
REMARK INTRA:                  -0.263
REMARK UNBOUND:                -0.297
REMARK SMILES COC(=O)c1ccccc1O
REMARK SMILES IDX 5 1 6 2 7 3 8 4 9 5 10 6 3 7 4 8 2 9 1 10 11 11
REMARK H PARENT 11 12
REMARK Flexibility Score: inf
ROOT
ATOM      1  C   UNL     1     137.755 138.382 142.201  1.00  0.00     0.101 A 
ATOM      2  C   UNL     1     137.969 138.488 140.814  1.00  0.00     0.019 A 
ATOM      3  C   UNL     1     137.124 139.268 140.020  1.00  0.00     0.001 A 
ATOM      4  C   UNL     1     136.054 139.950 140.599  1.00  0.00     0.004 A 
ATOM      5  C   UNL     1     135.815 139.840 141.968  1.00  0.00     0.047 A 
ATOM      6  C   UNL     1     136.640 139.046 142.776  1.00  0.00     0.130 A 
ENDROOT
BRANCH   1   7
ATOM      7  C   UNL     1     138.726 137.607 143.002  1.00  0.00     0.341 C 
ATOM      8  O   UNL     1     138.381 137.087 144.098  1.00  0.00    -0.246 OA
BRANCH   7   9
ATOM      9  O   UNL     1     140.051 137.502 142.564  1.00  0.00    -0.465 OA
ATOM     10  C   UNL     1     141.044 136.781 143.284  1.00  0.00     0.282 C 
ENDBRANCH   7   9
ENDBRANCH   1   7
BRANCH   6  11
ATOM     11  O   UNL     1     136.299 138.917 144.124  1.00  0.00    -0.507 OA
ATOM     12  H   UNL     1     135.418 138.538 144.444  1.00  0.00     0.293 HD
ENDBRANCH   6  11
TORSDOF 3
ENDMDL
MODEL 5
REMARK VINA RESULT:    -3.015      1.655      2.444
REMARK INTER + INTRA:          -3.753
REMARK INTER:                  -3.490
REMARK INTRA:                  -0.263
REMARK UNBOUND:                -0.297
REMARK SMILES COC(=O)c1ccccc1O
REMARK SMILES IDX 5 1 6 2 7 3 8 4 9 5 10 6 3 7 4 8 2 9 1 10 11 11
REMARK H PARENT 11 12
REMARK Flexibility Score: inf
ROOT
ATOM      1  C   UNL     1     143.453 143.000 142.871  1.00  0.00     0.101 A 
ATOM      2  C   UNL     1     143.764 142.290 144.046  1.00  0.00     0.019 A 
ATOM      3  C   UNL     1     144.925 141.517 144.125  1.00  0.00     0.001 A 
ATOM      4  C   UNL     1     145.790 141.440 143.033  1.00  0.00     0.004 A 
ATOM      5  C   UNL     1     145.486 142.120 141.854  1.00  0.00     0.047 A 
ATOM      6  C   UNL     1     144.316 142.884 141.750  1.00  0.00     0.130 A 
ENDROOT
BRANCH   1   7
ATOM      7  C   UNL     1     142.252 143.863 142.873  1.00  0.00     0.341 C 
ATOM      8  O   UNL     1     141.660 144.136 141.793  1.00  0.00    -0.246 OA
BRANCH   7   9
ATOM      9  O   UNL     1     141.811 144.426 144.075  1.00  0.00    -0.465 OA
ATOM     10  C   UNL     1     140.870 145.491 144.125  1.00  0.00     0.282 C 
ENDBRANCH   7   9
ENDBRANCH   1   7
BRANCH   6  11
ATOM     11  O   UNL     1     144.033 143.476 140.518  1.00  0.00    -0.507 OA
ATOM     12  H   UNL     1     143.865 142.950 139.671  1.00  0.00     0.293 HD
ENDBRANCH   6  11
TORSDOF 3
ENDMDL
MODEL 6
REMARK VINA RESULT:    -2.987      2.905      4.849
REMARK INTER + INTRA:          -3.721
REMARK INTER:                  -3.427
REMARK INTRA:                  -0.294
REMARK UNBOUND:                -0.297
REMARK SMILES COC(=O)c1ccccc1O
REMARK SMILES IDX 5 1 6 2 7 3 8 4 9 5 10 6 3 7 4 8 2 9 1 10 11 11
REMARK H PARENT 11 12
REMARK Flexibility Score: inf
ROOT
ATOM      1  C   UNL     1     140.684 144.283 142.342  1.00  0.00     0.101 A 
ATOM      2  C   UNL     1     141.285 144.142 141.077  1.00  0.00     0.019 A 
ATOM      3  C   UNL     1     141.006 145.049 140.052  1.00  0.00     0.001 A 
ATOM      4  C   UNL     1     140.124 146.107 140.274  1.00  0.00     0.004 A 
ATOM      5  C   UNL     1     139.504 146.249 141.515  1.00  0.00     0.047 A 
ATOM      6  C   UNL     1     139.756 145.336 142.548  1.00  0.00     0.130 A 
ENDROOT
BRANCH   1   7
ATOM      7  C   UNL     1     141.075 143.339 143.411  1.00  0.00     0.341 C 
ATOM      8  O   UNL     1     140.198 142.703 144.055  1.00  0.00    -0.246 OA
BRANCH   7   9
ATOM      9  O   UNL     1     142.427 143.200 143.746  1.00  0.00    -0.465 OA
ATOM     10  C   UNL     1     143.242 144.303 144.125  1.00  0.00     0.282 C 
ENDBRANCH   7   9
ENDBRANCH   1   7
BRANCH   6  11
ATOM     11  O   UNL     1     139.044 145.491 143.740  1.00  0.00    -0.507 OA
ATOM     12  H   UNL     1     139.130 146.300 144.340  1.00  0.00     0.293 HD
ENDBRANCH   6  11
TORSDOF 3
ENDMDL
MODEL 7
REMARK VINA RESULT:    -2.958      2.450      3.251
REMARK INTER + INTRA:          -3.688
REMARK INTER:                  -3.403
REMARK INTRA:                  -0.284
REMARK UNBOUND:                -0.297
REMARK SMILES COC(=O)c1ccccc1O
REMARK SMILES IDX 5 1 6 2 7 3 8 4 9 5 10 6 3 7 4 8 2 9 1 10 11 11
REMARK H PARENT 11 12
REMARK Flexibility Score: inf
ROOT
ATOM      1  C   UNL     1     144.183 141.001 142.490  1.00  0.00     0.101 A 
ATOM      2  C   UNL     1     144.092 140.472 141.190  1.00  0.00     0.019 A 
ATOM      3  C   UNL     1     145.062 140.772 140.230  1.00  0.00     0.001 A 
ATOM      4  C   UNL     1     146.134 141.603 140.554  1.00  0.00     0.004 A 
ATOM      5  C   UNL     1     146.228 142.153 141.832  1.00  0.00     0.047 A 
ATOM      6  C   UNL     1     145.253 141.880 142.801  1.00  0.00     0.130 A 
ENDROOT
BRANCH   1   7
ATOM      7  C   UNL     1     143.171 140.588 143.486  1.00  0.00     0.341 C 
ATOM      8  O   UNL     1     142.500 141.453 144.112  1.00  0.00    -0.246 OA
BRANCH   7   9
ATOM      9  O   UNL     1     143.004 139.229 143.774  1.00  0.00    -0.465 OA
ATOM     10  C   UNL     1     144.088 138.378 144.125  1.00  0.00     0.282 C 
ENDBRANCH   7   9
ENDBRANCH   1   7
BRANCH   6  11
ATOM     11  O   UNL     1     145.366 142.523 144.035  1.00  0.00    -0.507 OA
ATOM     12  H   UNL     1     144.961 143.428 144.234  1.00  0.00     0.293 HD
ENDBRANCH   6  11
TORSDOF 3
ENDMDL
MODEL 8
REMARK VINA RESULT:    -2.938      5.360      6.157
REMARK INTER + INTRA:          -3.665
REMARK INTER:                  -3.377
REMARK INTRA:                  -0.288
REMARK UNBOUND:                -0.297
REMARK SMILES COC(=O)c1ccccc1O
REMARK SMILES IDX 5 1 6 2 7 3 8 4 9 5 10 6 3 7 4 8 2 9 1 10 11 11
REMARK H PARENT 11 12
REMARK Flexibility Score: inf
ROOT
ATOM      1  C   UNL     1     143.069 138.005 142.974  1.00  0.00     0.101 A 
ATOM      2  C   UNL     1     142.354 137.627 144.125  1.00  0.00     0.019 A 
ATOM      3  C   UNL     1     141.515 136.510 144.107  1.00  0.00     0.001 A 
ATOM      4  C   UNL     1     141.378 135.756 142.941  1.00  0.00     0.004 A 
ATOM      5  C   UNL     1     142.064 136.129 141.786  1.00  0.00     0.047 A 
ATOM      6  C   UNL     1     142.894 137.258 141.780  1.00  0.00     0.130 A 
ENDROOT
BRANCH   1   7
ATOM      7  C   UNL     1     144.001 139.149 143.073  1.00  0.00     0.341 C 
ATOM      8  O   UNL     1     144.672 139.338 144.125  1.00  0.00    -0.246 OA
BRANCH   7   9
ATOM      9  O   UNL     1     144.089 140.059 142.014  1.00  0.00    -0.465 OA
ATOM     10  C   UNL     1     144.939 141.199 142.049  1.00  0.00     0.282 C 
ENDBRANCH   7   9
ENDBRANCH   1   7
BRANCH   6  11
ATOM     11  O   UNL     1     143.490 137.620 140.570  1.00  0.00    -0.507 OA
ATOM     12  H   UNL     1     143.296 138.487 140.088  1.00  0.00     0.293 HD
ENDBRANCH   6  11
TORSDOF 3
ENDMDL
