MODEL 1
REMARK VINA RESULT:    -4.405      0.000      0.000
REMARK INTER + INTRA:          -5.602
REMARK INTER:                  -5.307
REMARK INTRA:                  -0.295
REMARK UNBOUND:                -0.295
REMARK SMILES O=c1c(O)c(-c2ccc(O)c(O)c2)oc2cc(O)cc(O)c12
REMARK SMILES IDX 5 1 3 2 2 3 1 4 22 5 20 6 19 7 17 8 16 9 15 10 14 11 6 12
REMARK SMILES IDX 7 13 8 14 9 15 13 16 11 17 10 18 12 20 4 22 21 24 18 26
REMARK H PARENT 10 19 12 21 4 23 21 25 18 27
REMARK Flexibility Score: inf
ROOT
ATOM      1  C   UNL     1     156.216 158.380 144.753  1.00  0.00     0.180 A 
ATOM      2  C   UNL     1     157.619 158.300 144.799  1.00  0.00     0.208 A 
ATOM      3  C   UNL     1     158.256 158.231 146.048  1.00  0.00     0.238 A 
ATOM      4  O   UNL     1     159.509 158.105 146.081  1.00  0.00    -0.285 OA
ATOM      5  C   UNL     1     157.485 158.258 147.234  1.00  0.00     0.111 A 
ATOM      6  C   UNL     1     158.028 158.234 148.555  1.00  0.00     0.134 A 
ATOM      7  C   UNL     1     157.166 158.132 149.654  1.00  0.00     0.093 A 
ATOM      8  C   UNL     1     155.779 158.122 149.483  1.00  0.00     0.123 A 
ATOM      9  C   UNL     1     155.239 158.204 148.203  1.00  0.00     0.094 A 
ATOM     10  C   UNL     1     156.074 158.270 147.084  1.00  0.00     0.146 A 
ATOM     11  O   UNL     1     155.517 158.336 145.881  1.00  0.00    -0.452 OA
ENDROOT
BRANCH   1  12
ATOM     12  C   UNL     1     155.475 158.481 143.474  1.00  0.00     0.025 A 
ATOM     13  C   UNL     1     154.974 159.711 143.013  1.00  0.00     0.016 A 
ATOM     14  C   UNL     1     154.256 159.778 141.817  1.00  0.00     0.051 A 
ATOM     15  C   UNL     1     154.017 158.617 141.070  1.00  0.00     0.157 A 
ATOM     16  C   UNL     1     155.214 157.317 142.733  1.00  0.00     0.062 A 
ATOM     17  C   UNL     1     154.495 157.380 141.533  1.00  0.00     0.158 A 
BRANCH  15  18
ATOM     18  O   UNL     1     153.302 158.688 139.875  1.00  0.00    -0.504 OA
ATOM     19  H   UNL     1     152.531 159.334 139.755  1.00  0.00     0.293 HD
ENDBRANCH  15  18
BRANCH  17  20
ATOM     20  O   UNL     1     154.268 156.206 140.817  1.00  0.00    -0.504 OA
ATOM     21  H   UNL     1     154.384 155.290 141.235  1.00  0.00     0.293 HD
ENDBRANCH  17  20
ENDBRANCH   1  12
BRANCH   2  22
ATOM     22  O   UNL     1     158.360 158.253 143.614  1.00  0.00    -0.502 OA
ATOM     23  H   UNL     1     159.113 157.591 143.470  1.00  0.00     0.293 HD
ENDBRANCH   2  22
BRANCH   6  24
ATOM     24  O   UNL     1     159.393 158.334 148.838  1.00  0.00    -0.507 OA
ATOM     25  H   UNL     1     159.781 158.821 149.632  1.00  0.00     0.293 HD
ENDBRANCH   6  24
BRANCH   8  26
ATOM     26  O   UNL     1     154.929 158.036 150.583  1.00  0.00    -0.508 OA
ATOM     27  H   UNL     1     154.964 158.715 151.334  1.00  0.00     0.293 HD
ENDBRANCH   8  26
TORSDOF 6
ENDMDL
MODEL 2
REMARK VINA RESULT:    -4.085     14.433     15.163
REMARK INTER + INTRA:          -5.216
REMARK INTER:                  -4.883
REMARK INTRA:                  -0.333
REMARK UNBOUND:                -0.295
REMARK SMILES O=c1c(O)c(-c2ccc(O)c(O)c2)oc2cc(O)cc(O)c12
REMARK SMILES IDX 5 1 3 2 2 3 1 4 22 5 20 6 19 7 17 8 16 9 15 10 14 11 6 12
REMARK SMILES IDX 7 13 8 14 9 15 13 16 11 17 10 18 12 20 4 22 21 24 18 26
REMARK H PARENT 10 19 12 21 4 23 21 25 18 27
REMARK Flexibility Score: inf
ROOT
ATOM      1  C   UNL     1     158.005 143.448 144.391  1.00  0.00     0.180 A 
ATOM      2  C   UNL     1     158.064 142.046 144.304  1.00  0.00     0.208 A 
ATOM      3  C   UNL     1     157.843 141.283 145.461  1.00  0.00     0.238 A 
ATOM      4  O   UNL     1     157.844 140.027 145.366  1.00  0.00    -0.285 OA
ATOM      5  C   UNL     1     157.583 141.930 146.693  1.00  0.00     0.111 A 
ATOM      6  C   UNL     1     157.384 141.257 147.936  1.00  0.00     0.134 A 
ATOM      7  C   UNL     1     157.003 141.991 149.066  1.00  0.00     0.093 A 
ATOM      8  C   UNL     1     156.879 143.382 149.013  1.00  0.00     0.123 A 
ATOM      9  C   UNL     1     157.128 144.053 147.819  1.00  0.00     0.094 A 
ATOM     10  C   UNL     1     157.474 143.345 146.666  1.00  0.00     0.146 A 
ATOM     11  O   UNL     1     157.693 144.023 145.546  1.00  0.00    -0.452 OA
ENDROOT
BRANCH   1  12
ATOM     12  C   UNL     1     158.251 144.321 143.220  1.00  0.00     0.025 A 
ATOM     13  C   UNL     1     159.544 144.771 142.900  1.00  0.00     0.016 A 
ATOM     14  C   UNL     1     159.748 145.613 141.805  1.00  0.00     0.051 A 
ATOM     15  C   UNL     1     158.665 146.030 141.020  1.00  0.00     0.157 A 
ATOM     16  C   UNL     1     157.165 144.758 142.443  1.00  0.00     0.062 A 
ATOM     17  C   UNL     1     157.366 145.602 141.345  1.00  0.00     0.158 A 
BRANCH  15  18
ATOM     18  O   UNL     1     158.872 146.868 139.927  1.00  0.00    -0.504 OA
ATOM     19  H   UNL     1     158.712 147.867 139.986  1.00  0.00     0.293 HD
ENDBRANCH  15  18
BRANCH  17  20
ATOM     20  O   UNL     1     156.266 146.003 140.588  1.00  0.00    -0.504 OA
ATOM     21  H   UNL     1     155.314 145.808 140.877  1.00  0.00     0.293 HD
ENDBRANCH  17  20
ENDBRANCH   1  12
BRANCH   2  22
ATOM     22  O   UNL     1     158.302 141.428 143.073  1.00  0.00    -0.502 OA
ATOM     23  H   UNL     1     159.041 141.727 142.448  1.00  0.00     0.293 HD
ENDBRANCH   2  22
BRANCH   6  24
ATOM     24  O   UNL     1     157.574 139.884 148.118  1.00  0.00    -0.507 OA
ATOM     25  H   UNL     1     157.370 139.179 147.427  1.00  0.00     0.293 HD
ENDBRANCH   6  24
BRANCH   8  26
ATOM     26  O   UNL     1     156.515 144.106 150.146  1.00  0.00    -0.508 OA
ATOM     27  H   UNL     1     155.721 143.837 150.715  1.00  0.00     0.293 HD
ENDBRANCH   8  26
TORSDOF 6
ENDMDL
MODEL 3
REMARK VINA RESULT:    -4.028      2.965      4.271
REMARK INTER + INTRA:          -5.148
REMARK INTER:                  -4.826
REMARK INTRA:                  -0.322
REMARK UNBOUND:                -0.295
REMARK SMILES O=c1c(O)c(-c2ccc(O)c(O)c2)oc2cc(O)cc(O)c12
REMARK SMILES IDX 5 1 3 2 2 3 1 4 22 5 20 6 19 7 17 8 16 9 15 10 14 11 6 12
REMARK SMILES IDX 7 13 8 14 9 15 13 16 11 17 10 18 12 20 4 22 21 24 18 26
REMARK H PARENT 10 19 12 21 4 23 21 25 18 27
REMARK Flexibility Score: inf
ROOT
ATOM      1  C   UNL     1     157.129 157.543 146.275  1.00  0.00     0.180 A 
ATOM      2  C   UNL     1     155.784 157.952 146.292  1.00  0.00     0.208 A 
ATOM      3  C   UNL     1     155.205 158.336 147.511  1.00  0.00     0.238 A 
ATOM      4  O   UNL     1     154.016 158.752 147.512  1.00  0.00    -0.285 OA
ATOM      5  C   UNL     1     155.971 158.291 148.701  1.00  0.00     0.111 A 
ATOM      6  C   UNL     1     155.474 158.618 149.998  1.00  0.00     0.134 A 
ATOM      7  C   UNL     1     156.357 158.665 151.084  1.00  0.00     0.093 A 
ATOM      8  C   UNL     1     157.705 158.330 150.932  1.00  0.00     0.123 A 
ATOM      9  C   UNL     1     158.186 157.951 149.681  1.00  0.00     0.094 A 
ATOM     10  C   UNL     1     157.338 157.931 148.572  1.00  0.00     0.146 A 
ATOM     11  O   UNL     1     157.841 157.575 147.395  1.00  0.00    -0.452 OA
ENDROOT
BRANCH   1  12
ATOM     12  C   UNL     1     157.803 157.100 145.032  1.00  0.00     0.025 A 
ATOM     13  C   UNL     1     157.666 155.786 144.553  1.00  0.00     0.016 A 
ATOM     14  C   UNL     1     158.330 155.384 143.392  1.00  0.00     0.051 A 
ATOM     15  C   UNL     1     159.150 156.284 142.699  1.00  0.00     0.157 A 
ATOM     16  C   UNL     1     158.642 157.993 144.345  1.00  0.00     0.062 A 
ATOM     17  C   UNL     1     159.309 157.594 143.181  1.00  0.00     0.158 A 
BRANCH  15  18
ATOM     18  O   UNL     1     159.810 155.881 141.539  1.00  0.00    -0.504 OA
ATOM     19  H   UNL     1     160.160 156.553 140.866  1.00  0.00     0.293 HD
ENDBRANCH  15  18
BRANCH  17  20
ATOM     20  O   UNL     1     160.123 158.512 142.519  1.00  0.00    -0.504 OA
ATOM     21  H   UNL     1     160.834 158.222 141.857  1.00  0.00     0.293 HD
ENDBRANCH  17  20
ENDBRANCH   1  12
BRANCH   2  22
ATOM     22  O   UNL     1     155.052 158.010 145.102  1.00  0.00    -0.502 OA
ATOM     23  H   UNL     1     154.650 158.871 144.752  1.00  0.00     0.293 HD
ENDBRANCH   2  22
BRANCH   6  24
ATOM     24  O   UNL     1     154.129 158.877 150.275  1.00  0.00    -0.507 OA
ATOM     25  H   UNL     1     153.540 159.493 149.737  1.00  0.00     0.293 HD
ENDBRANCH   6  24
BRANCH   8  26
ATOM     26  O   UNL     1     158.573 158.363 152.021  1.00  0.00    -0.508 OA
ATOM     27  H   UNL     1     158.570 157.633 152.723  1.00  0.00     0.293 HD
ENDBRANCH   8  26
TORSDOF 6
ENDMDL
MODEL 4
REMARK VINA RESULT:    -4.022     12.823     14.660
REMARK INTER + INTRA:          -5.140
REMARK INTER:                  -4.806
REMARK INTRA:                  -0.335
REMARK UNBOUND:                -0.295
REMARK SMILES O=c1c(O)c(-c2ccc(O)c(O)c2)oc2cc(O)cc(O)c12
REMARK SMILES IDX 5 1 3 2 2 3 1 4 22 5 20 6 19 7 17 8 16 9 15 10 14 11 6 12
REMARK SMILES IDX 7 13 8 14 9 15 13 16 11 17 10 18 12 20 4 22 21 24 18 26
REMARK H PARENT 10 19 12 21 4 23 21 25 18 27
REMARK Flexibility Score: inf
ROOT
ATOM      1  C   UNL     1     142.175 155.548 143.411  1.00  0.00     0.180 A 
ATOM      2  C   UNL     1     143.308 156.185 142.875  1.00  0.00     0.208 A 
ATOM      3  C   UNL     1     143.773 157.365 143.476  1.00  0.00     0.238 A 
ATOM      4  O   UNL     1     144.819 157.902 143.025  1.00  0.00    -0.285 OA
ATOM      5  C   UNL     1     143.091 157.902 144.594  1.00  0.00     0.111 A 
ATOM      6  C   UNL     1     143.450 159.115 145.257  1.00  0.00     0.134 A 
ATOM      7  C   UNL     1     142.785 159.482 146.433  1.00  0.00     0.093 A 
ATOM      8  C   UNL     1     141.729 158.716 146.933  1.00  0.00     0.123 A 
ATOM      9  C   UNL     1     141.332 157.563 146.260  1.00  0.00     0.094 A 
ATOM     10  C   UNL     1     142.001 157.151 145.104  1.00  0.00     0.146 A 
ATOM     11  O   UNL     1     141.597 156.040 144.500  1.00  0.00    -0.452 OA
ENDROOT
BRANCH   1  12
ATOM     12  C   UNL     1     141.610 154.314 142.817  1.00  0.00     0.025 A 
ATOM     13  C   UNL     1     140.641 154.368 141.799  1.00  0.00     0.016 A 
ATOM     14  C   UNL     1     140.105 153.191 141.272  1.00  0.00     0.051 A 
ATOM     15  C   UNL     1     140.519 151.944 141.759  1.00  0.00     0.157 A 
ATOM     16  C   UNL     1     142.006 153.063 143.317  1.00  0.00     0.062 A 
ATOM     17  C   UNL     1     141.472 151.881 142.790  1.00  0.00     0.158 A 
BRANCH  15  18
ATOM     18  O   UNL     1     139.984 150.771 141.229  1.00  0.00    -0.504 OA
ATOM     19  H   UNL     1     140.236 149.860 141.594  1.00  0.00     0.293 HD
ENDBRANCH  15  18
BRANCH  17  20
ATOM     20  O   UNL     1     141.899 150.657 143.303  1.00  0.00    -0.504 OA
ATOM     21  H   UNL     1     142.240 149.913 142.705  1.00  0.00     0.293 HD
ENDBRANCH  17  20
ENDBRANCH   1  12
BRANCH   2  22
ATOM     22  O   UNL     1     143.979 155.625 141.784  1.00  0.00    -0.502 OA
ATOM     23  H   UNL     1     144.623 156.157 141.211  1.00  0.00     0.293 HD
ENDBRANCH   2  22
BRANCH   6  24
ATOM     24  O   UNL     1     144.427 159.999 144.790  1.00  0.00    -0.507 OA
ATOM     25  H   UNL     1     144.340 160.566 143.961  1.00  0.00     0.293 HD
ENDBRANCH   6  24
BRANCH   8  26
ATOM     26  O   UNL     1     141.062 159.097 148.094  1.00  0.00    -0.508 OA
ATOM     27  H   UNL     1     140.233 158.610 148.414  1.00  0.00     0.293 HD
ENDBRANCH   8  26
TORSDOF 6
ENDMDL
MODEL 5
REMARK VINA RESULT:    -3.952      7.917     11.826
REMARK INTER + INTRA:          -5.056
REMARK INTER:                  -4.765
REMARK INTRA:                  -0.290
REMARK UNBOUND:                -0.295
REMARK SMILES O=c1c(O)c(-c2ccc(O)c(O)c2)oc2cc(O)cc(O)c12
REMARK SMILES IDX 5 1 3 2 2 3 1 4 22 5 20 6 19 7 17 8 16 9 15 10 14 11 6 12
REMARK SMILES IDX 7 13 8 14 9 15 13 16 11 17 10 18 12 20 4 22 21 24 18 26
REMARK H PARENT 10 19 12 21 4 23 21 25 18 27
REMARK Flexibility Score: inf
ROOT
ATOM      1  C   UNL     1     157.454 156.349 155.914  1.00  0.00     0.180 A 
ATOM      2  C   UNL     1     156.170 156.437 156.478  1.00  0.00     0.208 A 
ATOM      3  C   UNL     1     155.884 155.700 157.639  1.00  0.00     0.238 A 
ATOM      4  O   UNL     1     154.749 155.824 158.170  1.00  0.00    -0.285 OA
ATOM      5  C   UNL     1     156.880 154.873 158.211  1.00  0.00     0.111 A 
ATOM      6  C   UNL     1     156.689 154.051 159.363  1.00  0.00     0.134 A 
ATOM      7  C   UNL     1     157.782 153.376 159.919  1.00  0.00     0.093 A 
ATOM      8  C   UNL     1     159.045 153.439 159.325  1.00  0.00     0.123 A 
ATOM      9  C   UNL     1     159.229 154.190 158.167  1.00  0.00     0.094 A 
ATOM     10  C   UNL     1     158.166 154.905 157.610  1.00  0.00     0.146 A 
ATOM     11  O   UNL     1     158.387 155.617 156.512  1.00  0.00    -0.452 OA
ENDROOT
BRANCH   1  12
ATOM     12  C   UNL     1     157.823 157.077 154.677  1.00  0.00     0.025 A 
ATOM     13  C   UNL     1     158.153 158.443 154.702  1.00  0.00     0.016 A 
ATOM     14  C   UNL     1     158.473 159.114 153.519  1.00  0.00     0.051 A 
ATOM     15  C   UNL     1     158.456 158.435 152.294  1.00  0.00     0.157 A 
ATOM     16  C   UNL     1     157.787 156.405 153.444  1.00  0.00     0.062 A 
ATOM     17  C   UNL     1     158.107 157.074 152.257  1.00  0.00     0.158 A 
BRANCH  15  18
ATOM     18  O   UNL     1     158.778 159.106 151.116  1.00  0.00    -0.504 OA
ATOM     19  H   UNL     1     158.137 159.141 150.332  1.00  0.00     0.293 HD
ENDBRANCH  15  18
BRANCH  17  20
ATOM     20  O   UNL     1     158.074 156.371 151.053  1.00  0.00    -0.504 OA
ATOM     21  H   UNL     1     157.851 156.821 150.173  1.00  0.00     0.293 HD
ENDBRANCH  17  20
ENDBRANCH   1  12
BRANCH   2  22
ATOM     22  O   UNL     1     155.208 157.276 155.909  1.00  0.00    -0.502 OA
ATOM     23  H   UNL     1     154.747 157.059 155.033  1.00  0.00     0.293 HD
ENDBRANCH   2  22
BRANCH   6  24
ATOM     24  O   UNL     1     155.450 153.847 159.977  1.00  0.00    -0.507 OA
ATOM     25  H   UNL     1     154.798 153.119 159.727  1.00  0.00     0.293 HD
ENDBRANCH   6  24
BRANCH   8  26
ATOM     26  O   UNL     1     160.124 152.751 159.876  1.00  0.00    -0.508 OA
ATOM     27  H   UNL     1     160.680 152.108 159.325  1.00  0.00     0.293 HD
ENDBRANCH   8  26
TORSDOF 6
ENDMDL
MODEL 6
REMARK VINA RESULT:    -3.916      2.042      3.013
REMARK INTER + INTRA:          -5.012
REMARK INTER:                  -4.689
REMARK INTRA:                  -0.323
REMARK UNBOUND:                -0.295
REMARK SMILES O=c1c(O)c(-c2ccc(O)c(O)c2)oc2cc(O)cc(O)c12
REMARK SMILES IDX 5 1 3 2 2 3 1 4 22 5 20 6 19 7 17 8 16 9 15 10 14 11 6 12
REMARK SMILES IDX 7 13 8 14 9 15 13 16 11 17 10 18 12 20 4 22 21 24 18 26
REMARK H PARENT 10 19 12 21 4 23 21 25 18 27
REMARK Flexibility Score: inf
ROOT
ATOM      1  C   UNL     1     155.640 157.996 143.437  1.00  0.00     0.180 A 
ATOM      2  C   UNL     1     156.361 156.903 142.924  1.00  0.00     0.208 A 
ATOM      3  C   UNL     1     157.503 156.458 143.609  1.00  0.00     0.238 A 
ATOM      4  O   UNL     1     158.113 155.446 143.175  1.00  0.00    -0.285 OA
ATOM      5  C   UNL     1     157.918 157.120 144.789  1.00  0.00     0.111 A 
ATOM      6  C   UNL     1     159.082 156.780 145.543  1.00  0.00     0.134 A 
ATOM      7  C   UNL     1     159.324 157.418 146.765  1.00  0.00     0.093 A 
ATOM      8  C   UNL     1     158.481 158.431 147.229  1.00  0.00     0.123 A 
ATOM      9  C   UNL     1     157.375 158.811 146.472  1.00  0.00     0.094 A 
ATOM     10  C   UNL     1     157.087 158.167 145.266  1.00  0.00     0.146 A 
ATOM     11  O   UNL     1     156.017 158.553 144.581  1.00  0.00    -0.452 OA
ENDROOT
BRANCH   1  12
ATOM     12  C   UNL     1     154.441 158.538 142.757  1.00  0.00     0.025 A 
ATOM     13  C   UNL     1     154.533 159.614 141.857  1.00  0.00     0.016 A 
ATOM     14  C   UNL     1     153.385 160.124 141.246  1.00  0.00     0.051 A 
ATOM     15  C   UNL     1     152.128 159.577 141.534  1.00  0.00     0.157 A 
ATOM     16  C   UNL     1     153.176 158.006 143.058  1.00  0.00     0.062 A 
ATOM     17  C   UNL     1     152.024 158.514 142.447  1.00  0.00     0.158 A 
BRANCH  15  18
ATOM     18  O   UNL     1     150.985 160.087 140.921  1.00  0.00    -0.504 OA
ATOM     19  H   UNL     1     150.821 159.976 139.927  1.00  0.00     0.293 HD
ENDBRANCH  15  18
BRANCH  17  20
ATOM     20  O   UNL     1     150.787 157.951 142.760  1.00  0.00    -0.504 OA
ATOM     21  H   UNL     1     150.448 157.894 143.713  1.00  0.00     0.293 HD
ENDBRANCH  17  20
ENDBRANCH   1  12
BRANCH   2  22
ATOM     22  O   UNL     1     155.921 156.251 141.769  1.00  0.00    -0.502 OA
ATOM     23  H   UNL     1     155.603 155.289 141.775  1.00  0.00     0.293 HD
ENDBRANCH   2  22
BRANCH   6  24
ATOM     24  O   UNL     1     160.038 155.850 145.123  1.00  0.00    -0.507 OA
ATOM     25  H   UNL     1     159.889 155.156 144.407  1.00  0.00     0.293 HD
ENDBRANCH   6  24
BRANCH   8  26
ATOM     26  O   UNL     1     158.738 159.071 148.439  1.00  0.00    -0.508 OA
ATOM     27  H   UNL     1     158.544 160.057 148.569  1.00  0.00     0.293 HD
ENDBRANCH   8  26
TORSDOF 6
ENDMDL
MODEL 7
REMARK VINA RESULT:    -3.901      8.437     12.773
REMARK INTER + INTRA:          -4.994
REMARK INTER:                  -4.670
REMARK INTRA:                  -0.324
REMARK UNBOUND:                -0.295
REMARK SMILES O=c1c(O)c(-c2ccc(O)c(O)c2)oc2cc(O)cc(O)c12
REMARK SMILES IDX 5 1 3 2 2 3 1 4 22 5 20 6 19 7 17 8 16 9 15 10 14 11 6 12
REMARK SMILES IDX 7 13 8 14 9 15 13 16 11 17 10 18 12 20 4 22 21 24 18 26
REMARK H PARENT 10 19 12 21 4 23 21 25 18 27
REMARK Flexibility Score: inf
ROOT
ATOM      1  C   UNL     1     157.955 155.666 156.307  1.00  0.00     0.180 A 
ATOM      2  C   UNL     1     156.827 156.349 156.795  1.00  0.00     0.208 A 
ATOM      3  C   UNL     1     156.407 157.520 156.145  1.00  0.00     0.238 A 
ATOM      4  O   UNL     1     155.365 158.098 156.553  1.00  0.00    -0.285 OA
ATOM      5  C   UNL     1     157.129 158.003 155.026  1.00  0.00     0.111 A 
ATOM      6  C   UNL     1     156.817 159.201 154.316  1.00  0.00     0.134 A 
ATOM      7  C   UNL     1     157.519 159.512 153.145  1.00  0.00     0.093 A 
ATOM      8  C   UNL     1     158.566 158.703 152.696  1.00  0.00     0.123 A 
ATOM      9  C   UNL     1     158.916 157.563 153.415  1.00  0.00     0.094 A 
ATOM     10  C   UNL     1     158.211 157.207 154.567  1.00  0.00     0.146 A 
ATOM     11  O   UNL     1     158.571 156.107 155.217  1.00  0.00    -0.452 OA
ENDROOT
BRANCH   1  12
ATOM     12  C   UNL     1     158.473 154.438 156.954  1.00  0.00     0.025 A 
ATOM     13  C   UNL     1     159.326 154.502 158.069  1.00  0.00     0.016 A 
ATOM     14  C   UNL     1     159.822 153.331 158.648  1.00  0.00     0.051 A 
ATOM     15  C   UNL     1     159.484 152.080 158.114  1.00  0.00     0.157 A 
ATOM     16  C   UNL     1     158.153 153.183 156.410  1.00  0.00     0.062 A 
ATOM     17  C   UNL     1     158.648 152.008 156.987  1.00  0.00     0.158 A 
BRANCH  15  18
ATOM     18  O   UNL     1     159.978 150.914 158.695  1.00  0.00    -0.504 OA
ATOM     19  H   UNL     1     160.115 150.068 158.154  1.00  0.00     0.293 HD
ENDBRANCH  15  18
BRANCH  17  20
ATOM     20  O   UNL     1     158.298 150.779 156.428  1.00  0.00    -0.504 OA
ATOM     21  H   UNL     1     157.818 150.710 155.538  1.00  0.00     0.293 HD
ENDBRANCH  17  20
ENDBRANCH   1  12
BRANCH   2  22
ATOM     22  O   UNL     1     156.117 155.843 157.887  1.00  0.00    -0.502 OA
ATOM     23  H   UNL     1     155.633 156.442 158.545  1.00  0.00     0.293 HD
ENDBRANCH   2  22
BRANCH   6  24
ATOM     24  O   UNL     1     155.853 160.125 154.731  1.00  0.00    -0.507 OA
ATOM     25  H   UNL     1     155.287 160.683 154.110  1.00  0.00     0.293 HD
ENDBRANCH   6  24
BRANCH   8  26
ATOM     26  O   UNL     1     159.269 159.029 151.539  1.00  0.00    -0.508 OA
ATOM     27  H   UNL     1     158.835 158.986 150.625  1.00  0.00     0.293 HD
ENDBRANCH   8  26
TORSDOF 6
ENDMDL
MODEL 8
REMARK VINA RESULT:    -3.886     13.975     15.163
REMARK INTER + INTRA:          -4.976
REMARK INTER:                  -4.661
REMARK INTRA:                  -0.316
REMARK UNBOUND:                -0.295
REMARK SMILES O=c1c(O)c(-c2ccc(O)c(O)c2)oc2cc(O)cc(O)c12
REMARK SMILES IDX 5 1 3 2 2 3 1 4 22 5 20 6 19 7 17 8 16 9 15 10 14 11 6 12
REMARK SMILES IDX 7 13 8 14 9 15 13 16 11 17 10 18 12 20 4 22 21 24 18 26
REMARK H PARENT 10 19 12 21 4 23 21 25 18 27
REMARK Flexibility Score: inf
ROOT
ATOM      1  C   UNL     1     157.700 144.190 143.617  1.00  0.00     0.180 A 
ATOM      2  C   UNL     1     156.537 143.606 143.084  1.00  0.00     0.208 A 
ATOM      3  C   UNL     1     156.011 142.458 143.696  1.00  0.00     0.238 A 
ATOM      4  O   UNL     1     154.940 141.971 143.247  1.00  0.00    -0.285 OA
ATOM      5  C   UNL     1     156.662 141.898 144.822  1.00  0.00     0.111 A 
ATOM      6  C   UNL     1     156.240 140.713 145.496  1.00  0.00     0.134 A 
ATOM      7  C   UNL     1     156.882 140.325 146.678  1.00  0.00     0.093 A 
ATOM      8  C   UNL     1     157.975 141.042 147.173  1.00  0.00     0.123 A 
ATOM      9  C   UNL     1     158.431 142.166 146.489  1.00  0.00     0.094 A 
ATOM     10  C   UNL     1     157.788 142.599 145.327  1.00  0.00     0.146 A 
ATOM     11  O   UNL     1     158.249 143.681 144.713  1.00  0.00    -0.452 OA
ENDROOT
BRANCH   1  12
ATOM     12  C   UNL     1     158.328 145.388 143.011  1.00  0.00     0.025 A 
ATOM     13  C   UNL     1     159.401 145.275 142.110  1.00  0.00     0.016 A 
ATOM     14  C   UNL     1     159.993 146.420 141.571  1.00  0.00     0.051 A 
ATOM     15  C   UNL     1     159.533 147.693 141.933  1.00  0.00     0.157 A 
ATOM     16  C   UNL     1     157.884 146.666 143.388  1.00  0.00     0.062 A 
ATOM     17  C   UNL     1     158.475 147.815 142.850  1.00  0.00     0.158 A 
BRANCH  15  18
ATOM     18  O   UNL     1     160.125 148.832 141.392  1.00  0.00    -0.504 OA
ATOM     19  H   UNL     1     159.822 149.218 140.505  1.00  0.00     0.293 HD
ENDBRANCH  15  18
BRANCH  17  20
ATOM     20  O   UNL     1     157.998 149.067 143.236  1.00  0.00    -0.504 OA
ATOM     21  H   UNL     1     157.356 149.599 142.661  1.00  0.00     0.293 HD
ENDBRANCH  17  20
ENDBRANCH   1  12
BRANCH   2  22
ATOM     22  O   UNL     1     155.899 144.188 141.984  1.00  0.00    -0.502 OA
ATOM     23  H   UNL     1     155.080 144.775 142.079  1.00  0.00     0.293 HD
ENDBRANCH   2  22
BRANCH   6  24
ATOM     24  O   UNL     1     155.220 139.875 145.035  1.00  0.00    -0.507 OA
ATOM     25  H   UNL     1     155.033 138.950 145.389  1.00  0.00     0.293 HD
ENDBRANCH   6  24
BRANCH   8  26
ATOM     26  O   UNL     1     158.618 140.639 148.341  1.00  0.00    -0.508 OA
ATOM     27  H   UNL     1     158.499 141.142 149.212  1.00  0.00     0.293 HD
ENDBRANCH   8  26
TORSDOF 6
ENDMDL
MODEL 9
REMARK VINA RESULT:    -3.853      4.400      7.561
REMARK INTER + INTRA:          -4.936
REMARK INTER:                  -4.681
REMARK INTRA:                  -0.255
REMARK UNBOUND:                -0.295
REMARK SMILES O=c1c(O)c(-c2ccc(O)c(O)c2)oc2cc(O)cc(O)c12
REMARK SMILES IDX 5 1 3 2 2 3 1 4 22 5 20 6 19 7 17 8 16 9 15 10 14 11 6 12
REMARK SMILES IDX 7 13 8 14 9 15 13 16 11 17 10 18 12 20 4 22 21 24 18 26
REMARK H PARENT 10 19 12 21 4 23 21 25 18 27
REMARK Flexibility Score: inf
ROOT
ATOM      1  C   UNL     1     157.549 157.767 151.768  1.00  0.00     0.180 A 
ATOM      2  C   UNL     1     157.446 158.965 152.497  1.00  0.00     0.208 A 
ATOM      3  C   UNL     1     157.868 158.986 153.835  1.00  0.00     0.238 A 
ATOM      4  O   UNL     1     157.824 160.075 154.466  1.00  0.00    -0.285 OA
ATOM      5  C   UNL     1     158.373 157.806 154.433  1.00  0.00     0.111 A 
ATOM      6  C   UNL     1     158.791 157.702 155.794  1.00  0.00     0.134 A 
ATOM      7  C   UNL     1     159.396 156.522 156.242  1.00  0.00     0.093 A 
ATOM      8  C   UNL     1     159.536 155.418 155.397  1.00  0.00     0.123 A 
ATOM      9  C   UNL     1     159.077 155.490 154.084  1.00  0.00     0.094 A 
ATOM     10  C   UNL     1     158.502 156.667 153.598  1.00  0.00     0.146 A 
ATOM     11  O   UNL     1     158.087 156.695 152.337  1.00  0.00    -0.452 OA
ENDROOT
BRANCH   1  12
ATOM     12  C   UNL     1     157.100 157.661 150.360  1.00  0.00     0.025 A 
ATOM     13  C   UNL     1     155.924 156.973 150.016  1.00  0.00     0.016 A 
ATOM     14  C   UNL     1     155.534 156.865 148.679  1.00  0.00     0.051 A 
ATOM     15  C   UNL     1     156.319 157.430 147.665  1.00  0.00     0.157 A 
ATOM     16  C   UNL     1     157.895 158.207 149.339  1.00  0.00     0.062 A 
ATOM     17  C   UNL     1     157.508 158.101 147.998  1.00  0.00     0.158 A 
BRANCH  15  18
ATOM     18  O   UNL     1     155.926 157.322 146.332  1.00  0.00    -0.504 OA
ATOM     19  H   UNL     1     156.418 156.721 145.681  1.00  0.00     0.293 HD
ENDBRANCH  15  18
BRANCH  17  20
ATOM     20  O   UNL     1     158.315 158.668 147.013  1.00  0.00    -0.504 OA
ATOM     21  H   UNL     1     158.243 159.646 146.755  1.00  0.00     0.293 HD
ENDBRANCH  17  20
ENDBRANCH   1  12
BRANCH   2  22
ATOM     22  O   UNL     1     156.965 160.124 151.880  1.00  0.00    -0.502 OA
ATOM     23  H   UNL     1     157.568 160.898 151.631  1.00  0.00     0.293 HD
ENDBRANCH   2  22
BRANCH   6  24
ATOM     24  O   UNL     1     158.613 158.712 156.744  1.00  0.00    -0.507 OA
ATOM     25  H   UNL     1     158.258 158.568 157.677  1.00  0.00     0.293 HD
ENDBRANCH   6  24
BRANCH   8  26
ATOM     26  O   UNL     1     160.125 154.242 155.856  1.00  0.00    -0.508 OA
ATOM     27  H   UNL     1     159.904 153.859 156.767  1.00  0.00     0.293 HD
ENDBRANCH   8  26
TORSDOF 6
ENDMDL
