MODEL 1
REMARK VINA RESULT:    -6.755      0.000      0.000
REMARK INTER + INTRA:          -6.755
REMARK INTER:                  -6.755
REMARK INTRA:                   0.000
REMARK UNBOUND:                 0.000
REMARK SMILES C=C1CCC[C@]2(C)CC(=O)C(=C(C)C)C[C@@H]12
REMARK SMILES IDX 13 1 12 2 11 3 15 4 16 5 2 6 1 7 3 8 4 9 5 10 6 11 8 12 9 13
REMARK SMILES IDX 10 14 7 15 14 16
REMARK H PARENT
REMARK Flexibility Score: inf
ROOT
ATOM      1  C   UNL     1       4.379  -3.437  43.979  1.00  0.00     0.039 C 
ATOM      2  C   UNL     1       4.754  -2.214  44.784  1.00  0.00    -0.070 C 
ATOM      3  C   UNL     1       5.212  -2.322  46.066  1.00  0.00    -0.006 C 
ATOM      4  C   UNL     1       5.341  -3.679  46.745  1.00  0.00     0.047 C 
ATOM      5  C   UNL     1       5.136  -3.606  48.279  1.00  0.00     0.025 C 
ATOM      6  C   UNL     1       5.295  -4.933  49.020  1.00  0.00    -0.073 C 
ATOM      7  C   UNL     1       5.600  -6.099  48.421  1.00  0.00     0.008 C 
ATOM      8  C   UNL     1       5.040  -4.901  50.509  1.00  0.00     0.031 C 
ATOM      9  C   UNL     1       5.890  -3.813  51.171  1.00  0.00     0.005 C 
ATOM     10  C   UNL     1       5.717  -2.454  50.472  1.00  0.00     0.008 C 
ATOM     11  C   UNL     1       6.023  -2.508  48.945  1.00  0.00    -0.018 C 
ATOM     12  C   UNL     1       5.655  -1.134  48.331  1.00  0.00     0.088 C 
ATOM     13  C   UNL     1       5.724  -1.147  46.831  1.00  0.00     0.159 C 
ATOM     14  O   UNL     1       6.235  -0.157  46.243  1.00  0.00    -0.295 OA
ATOM     15  C   UNL     1       7.538  -2.778  48.728  1.00  0.00     0.012 C 
ATOM     16  C   UNL     1       4.562  -0.871  44.117  1.00  0.00     0.039 C 
ENDROOT
TORSDOF 0
ENDMDL
MODEL 2
REMARK VINA RESULT:    -6.325      1.516      2.298
REMARK INTER + INTRA:          -6.325
REMARK INTER:                  -6.325
REMARK INTRA:                   0.000
REMARK UNBOUND:                 0.000
REMARK SMILES C=C1CCC[C@]2(C)CC(=O)C(=C(C)C)C[C@@H]12
REMARK SMILES IDX 13 1 12 2 11 3 15 4 16 5 2 6 1 7 3 8 4 9 5 10 6 11 8 12 9 13
REMARK SMILES IDX 10 14 7 15 14 16
REMARK H PARENT
REMARK Flexibility Score: inf
ROOT
ATOM      1  C   UNL     1       5.125  -1.304  45.323  1.00  0.00     0.039 C 
ATOM      2  C   UNL     1       6.022  -1.191  46.535  1.00  0.00    -0.070 C 
ATOM      3  C   UNL     1       6.087  -2.189  47.465  1.00  0.00    -0.006 C 
ATOM      4  C   UNL     1       5.239  -3.447  47.331  1.00  0.00     0.047 C 
ATOM      5  C   UNL     1       4.859  -4.063  48.701  1.00  0.00     0.025 C 
ATOM      6  C   UNL     1       4.042  -5.353  48.628  1.00  0.00    -0.073 C 
ATOM      7  C   UNL     1       3.668  -5.946  47.478  1.00  0.00     0.008 C 
ATOM      8  C   UNL     1       3.606  -5.942  49.949  1.00  0.00     0.031 C 
ATOM      9  C   UNL     1       4.812  -6.124  50.875  1.00  0.00     0.005 C 
ATOM     10  C   UNL     1       5.630  -4.828  51.002  1.00  0.00     0.008 C 
ATOM     11  C   UNL     1       6.099  -4.264  49.627  1.00  0.00    -0.018 C 
ATOM     12  C   UNL     1       6.761  -2.885  49.872  1.00  0.00     0.088 C 
ATOM     13  C   UNL     1       7.067  -2.167  48.590  1.00  0.00     0.159 C 
ATOM     14  O   UNL     1       8.169  -1.565  48.485  1.00  0.00    -0.295 OA
ATOM     15  C   UNL     1       7.142  -5.229  48.997  1.00  0.00     0.012 C 
ATOM     16  C   UNL     1       6.811   0.090  46.684  1.00  0.00     0.039 C 
ENDROOT
TORSDOF 0
ENDMDL
MODEL 3
REMARK VINA RESULT:    -5.839      2.218      3.857
REMARK INTER + INTRA:          -5.839
REMARK INTER:                  -5.839
REMARK INTRA:                   0.000
REMARK UNBOUND:                 0.000
REMARK SMILES C=C1CCC[C@]2(C)CC(=O)C(=C(C)C)C[C@@H]12
REMARK SMILES IDX 13 1 12 2 11 3 15 4 16 5 2 6 1 7 3 8 4 9 5 10 6 11 8 12 9 13
REMARK SMILES IDX 10 14 7 15 14 16
REMARK H PARENT
REMARK Flexibility Score: inf
ROOT
ATOM      1  C   UNL     1       4.170  -3.486  44.120  1.00  0.00     0.039 C 
ATOM      2  C   UNL     1       4.379  -4.559  45.163  1.00  0.00    -0.070 C 
ATOM      3  C   UNL     1       5.156  -4.337  46.264  1.00  0.00    -0.006 C 
ATOM      4  C   UNL     1       5.863  -3.005  46.472  1.00  0.00     0.047 C 
ATOM      5  C   UNL     1       7.192  -3.146  47.256  1.00  0.00     0.025 C 
ATOM      6  C   UNL     1       7.927  -1.834  47.532  1.00  0.00    -0.073 C 
ATOM      7  C   UNL     1       7.480  -0.624  47.147  1.00  0.00     0.008 C 
ATOM      8  C   UNL     1       9.255  -1.950  48.242  1.00  0.00     0.031 C 
ATOM      9  C   UNL     1       9.100  -2.758  49.534  1.00  0.00     0.005 C 
ATOM     10  C   UNL     1       8.402  -4.104  49.280  1.00  0.00     0.008 C 
ATOM     11  C   UNL     1       7.017  -3.953  48.581  1.00  0.00    -0.018 C 
ATOM     12  C   UNL     1       6.496  -5.370  48.232  1.00  0.00     0.088 C 
ATOM     13  C   UNL     1       5.262  -5.325  47.377  1.00  0.00     0.159 C 
ATOM     14  O   UNL     1       4.323  -6.125  47.633  1.00  0.00    -0.295 OA
ATOM     15  C   UNL     1       6.018  -3.263  49.551  1.00  0.00     0.012 C 
ATOM     16  C   UNL     1       3.719  -5.896  44.911  1.00  0.00     0.039 C 
ENDROOT
TORSDOF 0
ENDMDL
MODEL 4
REMARK VINA RESULT:    -5.822      8.400     10.135
REMARK INTER + INTRA:          -5.822
REMARK INTER:                  -5.822
REMARK INTRA:                   0.000
REMARK UNBOUND:                 0.000
REMARK SMILES C=C1CCC[C@]2(C)CC(=O)C(=C(C)C)C[C@@H]12
REMARK SMILES IDX 13 1 12 2 11 3 15 4 16 5 2 6 1 7 3 8 4 9 5 10 6 11 8 12 9 13
REMARK SMILES IDX 10 14 7 15 14 16
REMARK H PARENT
REMARK Flexibility Score: inf
ROOT
ATOM      1  C   UNL     1       5.563   4.764  52.741  1.00  0.00     0.039 C 
ATOM      2  C   UNL     1       6.800   5.510  53.185  1.00  0.00    -0.070 C 
ATOM      3  C   UNL     1       7.906   4.846  53.634  1.00  0.00    -0.006 C 
ATOM      4  C   UNL     1       7.928   3.326  53.728  1.00  0.00     0.047 C 
ATOM      5  C   UNL     1       8.840   2.808  54.868  1.00  0.00     0.025 C 
ATOM      6  C   UNL     1       8.934   1.286  54.984  1.00  0.00    -0.073 C 
ATOM      7  C   UNL     1       8.294   0.427  54.168  1.00  0.00     0.008 C 
ATOM      8  C   UNL     1       9.768   0.754  56.125  1.00  0.00     0.031 C 
ATOM      9  C   UNL     1      11.168   1.376  56.097  1.00  0.00     0.005 C 
ATOM     10  C   UNL     1      11.104   2.911  56.024  1.00  0.00     0.008 C 
ATOM     11  C   UNL     1      10.269   3.432  54.815  1.00  0.00    -0.018 C 
ATOM     12  C   UNL     1      10.142   4.971  54.946  1.00  0.00     0.088 C 
ATOM     13  C   UNL     1       9.187   5.547  53.941  1.00  0.00     0.159 C 
ATOM     14  O   UNL     1       9.500   6.619  53.358  1.00  0.00    -0.295 OA
ATOM     15  C   UNL     1      11.003   3.088  53.490  1.00  0.00     0.012 C 
ATOM     16  C   UNL     1       6.740   7.020  53.144  1.00  0.00     0.039 C 
ENDROOT
TORSDOF 0
ENDMDL
MODEL 5
REMARK VINA RESULT:    -5.603      8.586     10.782
REMARK INTER + INTRA:          -5.603
REMARK INTER:                  -5.603
REMARK INTRA:                   0.000
REMARK UNBOUND:                 0.000
REMARK SMILES C=C1CCC[C@]2(C)CC(=O)C(=C(C)C)C[C@@H]12
REMARK SMILES IDX 13 1 12 2 11 3 15 4 16 5 2 6 1 7 3 8 4 9 5 10 6 11 8 12 9 13
REMARK SMILES IDX 10 14 7 15 14 16
REMARK H PARENT
REMARK Flexibility Score: inf
ROOT
ATOM      1  C   UNL     1       5.889   4.586  52.737  1.00  0.00     0.039 C 
ATOM      2  C   UNL     1       6.573   3.374  53.328  1.00  0.00    -0.070 C 
ATOM      3  C   UNL     1       7.889   3.409  53.690  1.00  0.00    -0.006 C 
ATOM      4  C   UNL     1       8.728   4.664  53.491  1.00  0.00     0.047 C 
ATOM      5  C   UNL     1      10.224   4.353  53.233  1.00  0.00     0.025 C 
ATOM      6  C   UNL     1      11.123   5.578  53.067  1.00  0.00    -0.073 C 
ATOM      7  C   UNL     1      10.687   6.849  53.142  1.00  0.00     0.008 C 
ATOM      8  C   UNL     1      12.575   5.302  52.754  1.00  0.00     0.031 C 
ATOM      9  C   UNL     1      13.169   4.338  53.786  1.00  0.00     0.005 C 
ATOM     10  C   UNL     1      12.306   3.074  53.944  1.00  0.00     0.008 C 
ATOM     11  C   UNL     1      10.822   3.387  54.304  1.00  0.00    -0.018 C 
ATOM     12  C   UNL     1      10.028   2.058  54.270  1.00  0.00     0.088 C 
ATOM     13  C   UNL     1       8.549   2.278  54.406  1.00  0.00     0.159 C 
ATOM     14  O   UNL     1       7.890   1.500  55.146  1.00  0.00    -0.295 OA
ATOM     15  C   UNL     1      10.751   3.992  55.733  1.00  0.00     0.012 C 
ATOM     16  C   UNL     1       5.743   2.118  53.462  1.00  0.00     0.039 C 
ENDROOT
TORSDOF 0
ENDMDL
MODEL 6
REMARK VINA RESULT:    -5.527     13.897     14.565
REMARK INTER + INTRA:          -5.527
REMARK INTER:                  -5.527
REMARK INTRA:                   0.000
REMARK UNBOUND:                 0.000
REMARK SMILES C=C1CCC[C@]2(C)CC(=O)C(=C(C)C)C[C@@H]12
REMARK SMILES IDX 13 1 12 2 11 3 15 4 16 5 2 6 1 7 3 8 4 9 5 10 6 11 8 12 9 13
REMARK SMILES IDX 10 14 7 15 14 16
REMARK H PARENT
REMARK Flexibility Score: inf
ROOT
ATOM      1  C   UNL     1       2.134  11.033  46.746  1.00  0.00     0.039 C 
ATOM      2  C   UNL     1       2.993  10.968  47.988  1.00  0.00    -0.070 C 
ATOM      3  C   UNL     1       4.349  11.108  47.921  1.00  0.00    -0.006 C 
ATOM      4  C   UNL     1       5.055  11.313  46.587  1.00  0.00     0.047 C 
ATOM      5  C   UNL     1       6.488  10.726  46.569  1.00  0.00     0.025 C 
ATOM      6  C   UNL     1       7.261  10.939  45.268  1.00  0.00    -0.073 C 
ATOM      7  C   UNL     1       6.770  11.591  44.197  1.00  0.00     0.008 C 
ATOM      8  C   UNL     1       8.640  10.324  45.202  1.00  0.00     0.031 C 
ATOM      9  C   UNL     1       9.480  10.771  46.402  1.00  0.00     0.005 C 
ATOM     10  C   UNL     1       8.744  10.529  47.731  1.00  0.00     0.008 C 
ATOM     11  C   UNL     1       7.341  11.206  47.786  1.00  0.00    -0.018 C 
ATOM     12  C   UNL     1       6.639  10.755  49.091  1.00  0.00     0.088 C 
ATOM     13  C   UNL     1       5.203  11.192  49.142  1.00  0.00     0.159 C 
ATOM     14  O   UNL     1       4.749  11.641  50.227  1.00  0.00    -0.295 OA
ATOM     15  C   UNL     1       7.510  12.751  47.801  1.00  0.00     0.012 C 
ATOM     16  C   UNL     1       2.283  10.703  49.297  1.00  0.00     0.039 C 
ENDROOT
TORSDOF 0
ENDMDL
MODEL 7
REMARK VINA RESULT:    -5.512      9.809     11.970
REMARK INTER + INTRA:          -5.512
REMARK INTER:                  -5.512
REMARK INTRA:                   0.000
REMARK UNBOUND:                 0.000
REMARK SMILES C=C1CCC[C@]2(C)CC(=O)C(=C(C)C)C[C@@H]12
REMARK SMILES IDX 13 1 12 2 11 3 15 4 16 5 2 6 1 7 3 8 4 9 5 10 6 11 8 12 9 13
REMARK SMILES IDX 10 14 7 15 14 16
REMARK H PARENT
REMARK Flexibility Score: inf
ROOT
ATOM      1  C   UNL     1      12.212   7.822  54.179  1.00  0.00     0.039 C 
ATOM      2  C   UNL     1      12.491   6.641  55.081  1.00  0.00    -0.070 C 
ATOM      3  C   UNL     1      11.774   5.484  54.976  1.00  0.00    -0.006 C 
ATOM      4  C   UNL     1      10.648   5.343  53.960  1.00  0.00     0.047 C 
ATOM      5  C   UNL     1       9.528   4.384  54.433  1.00  0.00     0.025 C 
ATOM      6  C   UNL     1       8.390   4.171  53.435  1.00  0.00    -0.073 C 
ATOM      7  C   UNL     1       8.334   4.750  52.221  1.00  0.00     0.008 C 
ATOM      8  C   UNL     1       7.255   3.287  53.896  1.00  0.00     0.031 C 
ATOM      9  C   UNL     1       7.794   1.940  54.387  1.00  0.00     0.005 C 
ATOM     10  C   UNL     1       8.913   2.123  55.426  1.00  0.00     0.008 C 
ATOM     11  C   UNL     1      10.089   3.007  54.911  1.00  0.00    -0.018 C 
ATOM     12  C   UNL     1      11.061   3.252  56.092  1.00  0.00     0.088 C 
ATOM     13  C   UNL     1      12.123   4.258  55.752  1.00  0.00     0.159 C 
ATOM     14  O   UNL     1      13.305   4.033  56.123  1.00  0.00    -0.295 OA
ATOM     15  C   UNL     1      10.840   2.261  53.773  1.00  0.00     0.012 C 
ATOM     16  C   UNL     1      13.570   6.818  56.125  1.00  0.00     0.039 C 
ENDROOT
TORSDOF 0
ENDMDL
MODEL 8
REMARK VINA RESULT:    -5.413      9.307     10.626
REMARK INTER + INTRA:          -5.413
REMARK INTER:                  -5.413
REMARK INTRA:                   0.000
REMARK UNBOUND:                 0.000
REMARK SMILES C=C1CCC[C@]2(C)CC(=O)C(=C(C)C)C[C@@H]12
REMARK SMILES IDX 13 1 12 2 11 3 15 4 16 5 2 6 1 7 3 8 4 9 5 10 6 11 8 12 9 13
REMARK SMILES IDX 10 14 7 15 14 16
REMARK H PARENT
REMARK Flexibility Score: inf
ROOT
ATOM      1  C   UNL     1       6.429   4.613  52.751  1.00  0.00     0.039 C 
ATOM      2  C   UNL     1       7.750   4.039  53.209  1.00  0.00    -0.070 C 
ATOM      3  C   UNL     1       8.904   4.278  52.520  1.00  0.00    -0.006 C 
ATOM      4  C   UNL     1       8.903   5.116  51.248  1.00  0.00     0.047 C 
ATOM      5  C   UNL     1      10.009   4.693  50.249  1.00  0.00     0.025 C 
ATOM      6  C   UNL     1      10.083   5.527  48.970  1.00  0.00    -0.073 C 
ATOM      7  C   UNL     1       9.270   6.566  48.699  1.00  0.00     0.008 C 
ATOM      8  C   UNL     1      11.114   5.098  47.953  1.00  0.00     0.031 C 
ATOM      9  C   UNL     1      12.496   4.996  48.605  1.00  0.00     0.005 C 
ATOM     10  C   UNL     1      12.461   4.126  49.873  1.00  0.00     0.008 C 
ATOM     11  C   UNL     1      11.416   4.614  50.921  1.00  0.00    -0.018 C 
ATOM     12  C   UNL     1      11.360   3.571  52.066  1.00  0.00     0.088 C 
ATOM     13  C   UNL     1      10.239   3.846  53.027  1.00  0.00     0.159 C 
ATOM     14  O   UNL     1      10.459   3.718  54.261  1.00  0.00    -0.295 OA
ATOM     15  C   UNL     1      11.861   5.986  51.498  1.00  0.00     0.012 C 
ATOM     16  C   UNL     1       7.724   3.160  54.438  1.00  0.00     0.039 C 
ENDROOT
TORSDOF 0
ENDMDL
MODEL 9
REMARK VINA RESULT:    -5.276     12.280     14.425
REMARK INTER + INTRA:          -5.276
REMARK INTER:                  -5.276
REMARK INTRA:                   0.000
REMARK UNBOUND:                 0.000
REMARK SMILES C=C1CCC[C@]2(C)CC(=O)C(=C(C)C)C[C@@H]12
REMARK SMILES IDX 13 1 12 2 11 3 15 4 16 5 2 6 1 7 3 8 4 9 5 10 6 11 8 12 9 13
REMARK SMILES IDX 10 14 7 15 14 16
REMARK H PARENT
REMARK Flexibility Score: inf
ROOT
ATOM      1  C   UNL     1       8.520   7.238  47.453  1.00  0.00     0.039 C 
ATOM      2  C   UNL     1       8.820   8.209  46.335  1.00  0.00    -0.070 C 
ATOM      3  C   UNL     1       8.300   9.472  46.334  1.00  0.00    -0.006 C 
ATOM      4  C   UNL     1       7.379   9.945  47.450  1.00  0.00     0.047 C 
ATOM      5  C   UNL     1       6.346  10.997  46.972  1.00  0.00     0.025 C 
ATOM      6  C   UNL     1       5.420  11.540  48.060  1.00  0.00    -0.073 C 
ATOM      7  C   UNL     1       5.472  11.164  49.351  1.00  0.00     0.008 C 
ATOM      8  C   UNL     1       4.364  12.522  47.608  1.00  0.00     0.031 C 
ATOM      9  C   UNL     1       5.006  13.673  46.829  1.00  0.00     0.005 C 
ATOM     10  C   UNL     1       5.912  13.157  45.698  1.00  0.00     0.008 C 
ATOM     11  C   UNL     1       7.015  12.176  46.198  1.00  0.00    -0.018 C 
ATOM     12  C   UNL     1       7.747  11.602  44.958  1.00  0.00     0.088 C 
ATOM     13  C   UNL     1       8.694  10.495  45.322  1.00  0.00     0.159 C 
ATOM     14  O   UNL     1       9.824  10.464  44.766  1.00  0.00    -0.295 OA
ATOM     15  C   UNL     1       8.033  12.947  47.083  1.00  0.00     0.012 C 
ATOM     16  C   UNL     1       9.686   7.704  45.204  1.00  0.00     0.039 C 
ENDROOT
TORSDOF 0
ENDMDL
