MODEL 1
REMARK VINA RESULT:    -3.627      0.000      0.000
REMARK INTER + INTRA:          -4.361
REMARK INTER:                  -4.263
REMARK INTRA:                  -0.097
REMARK UNBOUND:                -0.097
REMARK SMILES O=C([O-])CCC(=O)[O-]
REMARK SMILES IDX 4 1 2 2 1 3 3 4 5 5 6 6 7 7 8 8
REMARK H PARENT
REMARK Flexibility Score: inf
ROOT
ATOM      1  C   UNL     1      14.792  12.835   5.187  1.00  0.00     0.059 C 
ENDROOT
BRANCH   1   2
ATOM      2  C   UNL     1      13.342  12.490   5.031  1.00  0.00     0.042 C 
ATOM      3  O   UNL     1      12.958  11.782   4.063  1.00  0.00    -0.550 OA
ATOM      4  O   UNL     1      12.420  12.921   5.978  1.00  0.00    -0.550 OA
ENDBRANCH   1   2
BRANCH   1   5
ATOM      5  C   UNL     1      15.217  13.941   4.216  1.00  0.00     0.059 C 
BRANCH   5   6
ATOM      6  C   UNL     1      16.293  13.473   3.285  1.00  0.00     0.042 C 
ATOM      7  O   UNL     1      15.993  12.878   2.216  1.00  0.00    -0.550 OA
ATOM      8  O   UNL     1      17.626  13.731   3.578  1.00  0.00    -0.550 OA
ENDBRANCH   5   6
ENDBRANCH   1   5
TORSDOF 3
ENDMDL
MODEL 2
REMARK VINA RESULT:    -3.588      0.279      3.919
REMARK INTER + INTRA:          -4.315
REMARK INTER:                  -4.197
REMARK INTRA:                  -0.118
REMARK UNBOUND:                -0.097
REMARK SMILES O=C([O-])CCC(=O)[O-]
REMARK SMILES IDX 4 1 2 2 1 3 3 4 5 5 6 6 7 7 8 8
REMARK H PARENT
REMARK Flexibility Score: inf
ROOT
ATOM      1  C   UNL     1      15.144  13.962   4.115  1.00  0.00     0.059 C 
ENDROOT
BRANCH   1   2
ATOM      2  C   UNL     1      16.273  13.395   3.309  1.00  0.00     0.042 C 
ATOM      3  O   UNL     1      16.039  12.768   2.242  1.00  0.00    -0.550 OA
ATOM      4  O   UNL     1      17.586  13.594   3.717  1.00  0.00    -0.550 OA
ENDBRANCH   1   2
BRANCH   1   5
ATOM      5  C   UNL     1      14.621  12.953   5.141  1.00  0.00     0.059 C 
BRANCH   5   6
ATOM      6  C   UNL     1      13.236  12.491   4.804  1.00  0.00     0.042 C 
ATOM      7  O   UNL     1      12.985  12.017   3.664  1.00  0.00    -0.550 OA
ATOM      8  O   UNL     1      12.232  12.547   5.762  1.00  0.00    -0.550 OA
ENDBRANCH   5   6
ENDBRANCH   1   5
TORSDOF 3
ENDMDL
MODEL 3
REMARK VINA RESULT:    -3.434      1.624      1.820
REMARK INTER + INTRA:          -4.134
REMARK INTER:                  -4.040
REMARK INTRA:                  -0.095
REMARK UNBOUND:                -0.097
REMARK SMILES O=C([O-])CCC(=O)[O-]
REMARK SMILES IDX 4 1 2 2 1 3 3 4 5 5 6 6 7 7 8 8
REMARK H PARENT
REMARK Flexibility Score: inf
ROOT
ATOM      1  C   UNL     1      14.066  13.466   2.616  1.00  0.00     0.059 C 
ENDROOT
BRANCH   1   2
ATOM      2  C   UNL     1      13.294  12.521   3.485  1.00  0.00     0.042 C 
ATOM      3  O   UNL     1      12.237  11.987   3.058  1.00  0.00    -0.550 OA
ATOM      4  O   UNL     1      13.766  12.200   4.752  1.00  0.00    -0.550 OA
ENDBRANCH   1   2
BRANCH   1   5
ATOM      5  C   UNL     1      15.543  13.069   2.523  1.00  0.00     0.059 C 
BRANCH   5   6
ATOM      6  C   UNL     1      16.423  14.043   3.246  1.00  0.00     0.042 C 
ATOM      7  O   UNL     1      15.996  15.194   3.530  1.00  0.00    -0.550 OA
ATOM      8  O   UNL     1      17.700  13.666   3.640  1.00  0.00    -0.550 OA
ENDBRANCH   5   6
ENDBRANCH   1   5
TORSDOF 3
ENDMDL
MODEL 4
REMARK VINA RESULT:    -3.420      1.662      3.882
REMARK INTER + INTRA:          -4.118
REMARK INTER:                  -4.024
REMARK INTRA:                  -0.094
REMARK UNBOUND:                -0.097
REMARK SMILES O=C([O-])CCC(=O)[O-]
REMARK SMILES IDX 4 1 2 2 1 3 3 4 5 5 6 6 7 7 8 8
REMARK H PARENT
REMARK Flexibility Score: inf
ROOT
ATOM      1  C   UNL     1      15.645  13.070   2.490  1.00  0.00     0.059 C 
ENDROOT
BRANCH   1   2
ATOM      2  C   UNL     1      16.455  14.094   3.224  1.00  0.00     0.042 C 
ATOM      3  O   UNL     1      17.668  13.878   3.482  1.00  0.00    -0.550 OA
ATOM      4  O   UNL     1      15.878  15.304   3.588  1.00  0.00    -0.550 OA
ENDBRANCH   1   2
BRANCH   1   5
ATOM      5  C   UNL     1      14.159  13.443   2.457  1.00  0.00     0.059 C 
BRANCH   5   6
ATOM      6  C   UNL     1      13.354  12.580   3.380  1.00  0.00     0.042 C 
ATOM      7  O   UNL     1      12.252  12.102   3.002  1.00  0.00    -0.550 OA
ATOM      8  O   UNL     1      13.840  12.271   4.644  1.00  0.00    -0.550 OA
ENDBRANCH   5   6
ENDBRANCH   1   5
TORSDOF 3
ENDMDL
MODEL 5
REMARK VINA RESULT:    -3.393      5.598      7.084
REMARK INTER + INTRA:          -4.086
REMARK INTER:                  -4.052
REMARK INTRA:                  -0.034
REMARK UNBOUND:                -0.097
REMARK SMILES O=C([O-])CCC(=O)[O-]
REMARK SMILES IDX 4 1 2 2 1 3 3 4 5 5 6 6 7 7 8 8
REMARK H PARENT
REMARK Flexibility Score: inf
ROOT
ATOM      1  C   UNL     1       8.585  11.530   6.950  1.00  0.00     0.059 C 
ENDROOT
BRANCH   1   2
ATOM      2  C   UNL     1       7.186  11.807   7.410  1.00  0.00     0.042 C 
ATOM      3  O   UNL     1       6.426  12.541   6.725  1.00  0.00    -0.550 OA
ATOM      4  O   UNL     1       6.710  11.221   8.576  1.00  0.00    -0.550 OA
ENDBRANCH   1   2
BRANCH   1   5
ATOM      5  C   UNL     1       8.646  11.305   5.435  1.00  0.00     0.059 C 
BRANCH   5   6
ATOM      6  C   UNL     1       9.851  10.504   5.046  1.00  0.00     0.042 C 
ATOM      7  O   UNL     1      10.635  10.928   4.156  1.00  0.00    -0.550 OA
ATOM      8  O   UNL     1      10.129   9.307   5.694  1.00  0.00    -0.550 OA
ENDBRANCH   5   6
ENDBRANCH   1   5
TORSDOF 3
ENDMDL
MODEL 6
REMARK VINA RESULT:    -3.387      1.393      1.739
REMARK INTER + INTRA:          -4.079
REMARK INTER:                  -4.006
REMARK INTRA:                  -0.073
REMARK UNBOUND:                -0.097
REMARK SMILES O=C([O-])CCC(=O)[O-]
REMARK SMILES IDX 4 1 2 2 1 3 3 4 5 5 6 6 7 7 8 8
REMARK H PARENT
REMARK Flexibility Score: inf
ROOT
ATOM      1  C   UNL     1      14.156  13.417   3.068  1.00  0.00     0.059 C 
ENDROOT
BRANCH   1   2
ATOM      2  C   UNL     1      13.803  12.581   4.260  1.00  0.00     0.042 C 
ATOM      3  O   UNL     1      12.994  11.623   4.147  1.00  0.00    -0.550 OA
ATOM      4  O   UNL     1      14.398  12.838   5.489  1.00  0.00    -0.550 OA
ENDBRANCH   1   2
BRANCH   1   5
ATOM      5  C   UNL     1      15.579  13.127   2.578  1.00  0.00     0.059 C 
BRANCH   5   6
ATOM      6  C   UNL     1      16.577  14.051   3.206  1.00  0.00     0.042 C 
ATOM      7  O   UNL     1      17.635  13.592   3.712  1.00  0.00    -0.550 OA
ATOM      8  O   UNL     1      16.357  15.422   3.196  1.00  0.00    -0.550 OA
ENDBRANCH   5   6
ENDBRANCH   1   5
TORSDOF 3
ENDMDL
MODEL 7
REMARK VINA RESULT:    -3.352     13.042     13.695
REMARK INTER + INTRA:          -4.037
REMARK INTER:                  -3.982
REMARK INTRA:                  -0.055
REMARK UNBOUND:                -0.097
REMARK SMILES O=C([O-])CCC(=O)[O-]
REMARK SMILES IDX 4 1 2 2 1 3 3 4 5 5 6 6 7 7 8 8
REMARK H PARENT
REMARK Flexibility Score: inf
ROOT
ATOM      1  C   UNL     1       8.004  25.515   6.172  1.00  0.00     0.059 C 
ENDROOT
BRANCH   1   2
ATOM      2  C   UNL     1       6.918  24.746   5.483  1.00  0.00     0.042 C 
ATOM      3  O   UNL     1       5.982  25.353   4.900  1.00  0.00    -0.550 OA
ATOM      4  O   UNL     1       6.964  23.358   5.452  1.00  0.00    -0.550 OA
ENDBRANCH   1   2
BRANCH   1   5
ATOM      5  C   UNL     1       9.008  24.583   6.858  1.00  0.00     0.059 C 
BRANCH   5   6
ATOM      6  C   UNL     1      10.409  25.103   6.745  1.00  0.00     0.042 C 
ATOM      7  O   UNL     1      10.735  25.844   5.781  1.00  0.00    -0.550 OA
ATOM      8  O   UNL     1      11.343  24.801   7.728  1.00  0.00    -0.550 OA
ENDBRANCH   5   6
ENDBRANCH   1   5
TORSDOF 3
ENDMDL
MODEL 8
REMARK VINA RESULT:    -3.344     12.993     13.988
REMARK INTER + INTRA:          -4.028
REMARK INTER:                  -3.968
REMARK INTRA:                  -0.060
REMARK UNBOUND:                -0.097
REMARK SMILES O=C([O-])CCC(=O)[O-]
REMARK SMILES IDX 4 1 2 2 1 3 3 4 5 5 6 6 7 7 8 8
REMARK H PARENT
REMARK Flexibility Score: inf
ROOT
ATOM      1  C   UNL     1       9.114  24.673   6.986  1.00  0.00     0.059 C 
ENDROOT
BRANCH   1   2
ATOM      2  C   UNL     1      10.539  25.113   6.843  1.00  0.00     0.042 C 
ATOM      3  O   UNL     1      10.878  25.870   5.896  1.00  0.00    -0.550 OA
ATOM      4  O   UNL     1      11.485  24.716   7.780  1.00  0.00    -0.550 OA
ENDBRANCH   1   2
BRANCH   1   5
ATOM      5  C   UNL     1       8.178  25.497   6.095  1.00  0.00     0.059 C 
BRANCH   5   6
ATOM      6  C   UNL     1       7.100  24.647   5.494  1.00  0.00     0.042 C 
ATOM      7  O   UNL     1       7.226  23.394   5.457  1.00  0.00    -0.550 OA
ATOM      8  O   UNL     1       5.939  25.236   5.010  1.00  0.00    -0.550 OA
ENDBRANCH   5   6
ENDBRANCH   1   5
TORSDOF 3
ENDMDL
MODEL 9
REMARK VINA RESULT:    -3.344     11.199     12.044
REMARK INTER + INTRA:          -4.028
REMARK INTER:                  -3.979
REMARK INTRA:                  -0.050
REMARK UNBOUND:                -0.097
REMARK SMILES O=C([O-])CCC(=O)[O-]
REMARK SMILES IDX 4 1 2 2 1 3 3 4 5 5 6 6 7 7 8 8
REMARK H PARENT
REMARK Flexibility Score: inf
ROOT
ATOM      1  C   UNL     1       9.813  23.962   7.333  1.00  0.00     0.059 C 
ENDROOT
BRANCH   1   2
ATOM      2  C   UNL     1      10.024  25.212   6.534  1.00  0.00     0.042 C 
ATOM      3  O   UNL     1       9.060  25.745   5.923  1.00  0.00    -0.550 OA
ATOM      4  O   UNL     1      11.278  25.809   6.499  1.00  0.00    -0.550 OA
ENDBRANCH   1   2
BRANCH   1   5
ATOM      5  C   UNL     1       9.531  22.756   6.431  1.00  0.00     0.059 C 
BRANCH   5   6
ATOM      6  C   UNL     1      10.790  22.026   6.077  1.00  0.00     0.042 C 
ATOM      7  O   UNL     1      11.676  22.589   5.380  1.00  0.00    -0.550 OA
ATOM      8  O   UNL     1      11.003  20.738   6.550  1.00  0.00    -0.550 OA
ENDBRANCH   5   6
ENDBRANCH   1   5
TORSDOF 3
ENDMDL
