MODEL 1
REMARK VINA RESULT:    -2.369      0.000      0.000
REMARK INTER + INTRA:          -2.369
REMARK INTER:                  -2.369
REMARK INTRA:                   0.000
REMARK UNBOUND:                 0.000
REMARK SMILES CC1=CC(=O)[C@@H]2C[C@H]1C2(C)C
REMARK SMILES IDX 1 1 2 2 3 3 4 4 5 5 6 6 7 7 8 8 9 9 10 10 11 11
REMARK H PARENT
REMARK Flexibility Score: inf
ROOT
ATOM      1  C   UNL     1      11.760  68.036  24.974  1.00  0.00     0.040 C 
ATOM      2  C   UNL     1      11.469  66.575  25.118  1.00  0.00    -0.066 C 
ATOM      3  C   UNL     1      11.385  65.987  26.343  1.00  0.00     0.047 C 
ATOM      4  C   UNL     1      11.059  64.524  26.356  1.00  0.00     0.159 C 
ATOM      5  O   UNL     1      10.915  63.876  27.425  1.00  0.00    -0.295 OA
ATOM      6  C   UNL     1      10.912  63.875  24.980  1.00  0.00     0.067 C 
ATOM      7  C   UNL     1      12.122  64.405  24.181  1.00  0.00     0.021 C 
ATOM      8  C   UNL     1      11.270  65.661  23.890  1.00  0.00     0.022 C 
ATOM      9  C   UNL     1      10.004  64.781  24.099  1.00  0.00    -0.019 C 
ATOM     10  C   UNL     1       8.755  65.435  24.755  1.00  0.00     0.012 C 
ATOM     11  C   UNL     1       9.554  64.076  22.795  1.00  0.00     0.012 C 
ENDROOT
TORSDOF 0
ENDMDL
MODEL 2
REMARK VINA RESULT:    -2.240      1.737      2.897
REMARK INTER + INTRA:          -2.240
REMARK INTER:                  -2.240
REMARK INTRA:                   0.000
REMARK UNBOUND:                 0.000
REMARK SMILES CC1=CC(=O)[C@@H]2C[C@H]1C2(C)C
REMARK SMILES IDX 1 1 2 2 3 3 4 4 5 5 6 6 7 7 8 8 9 9 10 10 11 11
REMARK H PARENT
REMARK Flexibility Score: inf
ROOT
ATOM      1  C   UNL     1      11.947  63.875  22.306  1.00  0.00     0.040 C 
ATOM      2  C   UNL     1      11.664  64.607  23.580  1.00  0.00    -0.066 C 
ATOM      3  C   UNL     1      11.888  65.946  23.694  1.00  0.00     0.047 C 
ATOM      4  C   UNL     1      11.536  66.567  25.012  1.00  0.00     0.159 C 
ATOM      5  O   UNL     1      11.659  67.801  25.227  1.00  0.00    -0.295 OA
ATOM      6  C   UNL     1      11.016  65.599  26.073  1.00  0.00     0.067 C 
ATOM      7  C   UNL     1      11.989  64.402  26.003  1.00  0.00     0.021 C 
ATOM      8  C   UNL     1      11.126  63.881  24.831  1.00  0.00     0.022 C 
ATOM      9  C   UNL     1       9.934  64.687  25.425  1.00  0.00    -0.019 C 
ATOM     10  C   UNL     1       8.919  65.332  24.440  1.00  0.00     0.012 C 
ATOM     11  C   UNL     1       9.140  63.875  26.478  1.00  0.00     0.012 C 
ENDROOT
TORSDOF 0
ENDMDL
MODEL 3
REMARK VINA RESULT:    -2.044      1.721      2.820
REMARK INTER + INTRA:          -2.044
REMARK INTER:                  -2.044
REMARK INTRA:                   0.000
REMARK UNBOUND:                 0.000
REMARK SMILES CC1=CC(=O)[C@@H]2C[C@H]1C2(C)C
REMARK SMILES IDX 1 1 2 2 3 3 4 4 5 5 6 6 7 7 8 8 9 9 10 10 11 11
REMARK H PARENT
REMARK Flexibility Score: inf
ROOT
ATOM      1  C   UNL     1      11.766  68.112  25.182  1.00  0.00     0.040 C 
ATOM      2  C   UNL     1      11.377  66.713  24.823  1.00  0.00    -0.066 C 
ATOM      3  C   UNL     1      12.021  66.029  23.837  1.00  0.00     0.047 C 
ATOM      4  C   UNL     1      11.558  64.624  23.593  1.00  0.00     0.159 C 
ATOM      5  O   UNL     1      12.100  63.877  22.737  1.00  0.00    -0.295 OA
ATOM      6  C   UNL     1      10.384  64.163  24.457  1.00  0.00     0.067 C 
ATOM      7  C   UNL     1       9.388  65.341  24.401  1.00  0.00     0.021 C 
ATOM      8  C   UNL     1      10.218  65.984  25.535  1.00  0.00     0.022 C 
ATOM      9  C   UNL     1      10.675  64.551  25.935  1.00  0.00    -0.019 C 
ATOM     10  C   UNL     1      12.120  64.366  26.477  1.00  0.00     0.012 C 
ATOM     11  C   UNL     1       9.694  63.875  26.926  1.00  0.00     0.012 C 
ENDROOT
TORSDOF 0
ENDMDL
MODEL 4
REMARK VINA RESULT:    -1.996      1.767      3.490
REMARK INTER + INTRA:          -1.996
REMARK INTER:                  -1.996
REMARK INTRA:                   0.000
REMARK UNBOUND:                 0.000
REMARK SMILES CC1=CC(=O)[C@@H]2C[C@H]1C2(C)C
REMARK SMILES IDX 1 1 2 2 3 3 4 4 5 5 6 6 7 7 8 8 9 9 10 10 11 11
REMARK H PARENT
REMARK Flexibility Score: inf
ROOT
ATOM      1  C   UNL     1       7.789  65.366  24.710  1.00  0.00     0.040 C 
ATOM      2  C   UNL     1       9.272  65.181  24.640  1.00  0.00    -0.066 C 
ATOM      3  C   UNL     1       9.919  65.078  23.446  1.00  0.00     0.047 C 
ATOM      4  C   UNL     1      11.409  64.927  23.510  1.00  0.00     0.159 C 
ATOM      5  O   UNL     1      12.122  64.862  22.475  1.00  0.00    -0.295 OA
ATOM      6  C   UNL     1      12.000  64.858  24.918  1.00  0.00     0.067 C 
ATOM      7  C   UNL     1      11.076  63.875  25.668  1.00  0.00     0.021 C 
ATOM      8  C   UNL     1      10.138  65.079  25.914  1.00  0.00     0.022 C 
ATOM      9  C   UNL     1      11.381  66.004  25.770  1.00  0.00    -0.019 C 
ATOM     10  C   UNL     1      11.189  67.397  25.107  1.00  0.00     0.012 C 
ATOM     11  C   UNL     1      12.125  66.205  27.115  1.00  0.00     0.012 C 
ENDROOT
TORSDOF 0
ENDMDL
MODEL 5
REMARK VINA RESULT:    -0.775      1.130      2.695
REMARK INTER + INTRA:          -0.775
REMARK INTER:                  -0.775
REMARK INTRA:                   0.000
REMARK UNBOUND:                 0.000
REMARK SMILES CC1=CC(=O)[C@@H]2C[C@H]1C2(C)C
REMARK SMILES IDX 1 1 2 2 3 3 4 4 5 5 6 6 7 7 8 8 9 9 10 10 11 11
REMARK H PARENT
REMARK Flexibility Score: inf
ROOT
ATOM      1  C   UNL     1       7.502  65.092  24.931  1.00  0.00     0.040 C 
ATOM      2  C   UNL     1       8.950  65.166  25.301  1.00  0.00    -0.066 C 
ATOM      3  C   UNL     1       9.463  64.408  26.310  1.00  0.00     0.047 C 
ATOM      4  C   UNL     1      10.934  64.550  26.563  1.00  0.00     0.159 C 
ATOM      5  O   UNL     1      11.533  63.875  27.441  1.00  0.00    -0.295 OA
ATOM      6  C   UNL     1      11.654  65.570  25.681  1.00  0.00     0.067 C 
ATOM      7  C   UNL     1      10.729  66.806  25.699  1.00  0.00     0.021 C 
ATOM      8  C   UNL     1       9.927  66.114  24.574  1.00  0.00     0.022 C 
ATOM      9  C   UNL     1      11.224  65.338  24.204  1.00  0.00    -0.019 C 
ATOM     10  C   UNL     1      11.085  63.875  23.696  1.00  0.00     0.012 C 
ATOM     11  C   UNL     1      12.112  66.118  23.202  1.00  0.00     0.012 C 
ENDROOT
TORSDOF 0
ENDMDL
MODEL 6
REMARK VINA RESULT:    -0.610     13.600     15.584
REMARK INTER + INTRA:          -0.610
REMARK INTER:                  -0.610
REMARK INTRA:                   0.000
REMARK UNBOUND:                 0.000
REMARK SMILES CC1=CC(=O)[C@@H]2C[C@H]1C2(C)C
REMARK SMILES IDX 1 1 2 2 3 3 4 4 5 5 6 6 7 7 8 8 9 9 10 10 11 11
REMARK H PARENT
REMARK Flexibility Score: inf
ROOT
ATOM      1  C   UNL     1      12.121  77.687  20.803  1.00  0.00     0.040 C 
ATOM      2  C   UNL     1      11.506  78.156  19.522  1.00  0.00    -0.066 C 
ATOM      3  C   UNL     1      10.379  77.575  19.023  1.00  0.00     0.047 C 
ATOM      4  C   UNL     1       9.843  78.155  17.749  1.00  0.00     0.159 C 
ATOM      5  O   UNL     1       8.787  77.732  17.210  1.00  0.00    -0.295 OA
ATOM      6  C   UNL     1      10.667  79.296  17.152  1.00  0.00     0.067 C 
ATOM      7  C   UNL     1      12.125  78.793  17.236  1.00  0.00     0.021 C 
ATOM      8  C   UNL     1      12.125  79.302  18.696  1.00  0.00     0.022 C 
ATOM      9  C   UNL     1      11.008  80.306  18.285  1.00  0.00    -0.019 C 
ATOM     10  C   UNL     1       9.906  80.646  19.328  1.00  0.00     0.012 C 
ATOM     11  C   UNL     1      11.583  81.636  17.736  1.00  0.00     0.012 C 
ENDROOT
TORSDOF 0
ENDMDL
MODEL 7
REMARK VINA RESULT:    -0.378      1.521      3.318
REMARK INTER + INTRA:          -0.378
REMARK INTER:                  -0.378
REMARK INTRA:                   0.000
REMARK UNBOUND:                 0.000
REMARK SMILES CC1=CC(=O)[C@@H]2C[C@H]1C2(C)C
REMARK SMILES IDX 1 1 2 2 3 3 4 4 5 5 6 6 7 7 8 8 9 9 10 10 11 11
REMARK H PARENT
REMARK Flexibility Score: inf
ROOT
ATOM      1  C   UNL     1      11.734  64.345  22.394  1.00  0.00     0.040 C 
ATOM      2  C   UNL     1      10.958  64.841  23.574  1.00  0.00    -0.066 C 
ATOM      3  C   UNL     1       9.686  64.418  23.815  1.00  0.00     0.047 C 
ATOM      4  C   UNL     1       9.027  64.964  25.045  1.00  0.00     0.159 C 
ATOM      5  O   UNL     1       7.869  64.619  25.397  1.00  0.00    -0.295 OA
ATOM      6  C   UNL     1       9.860  65.968  25.842  1.00  0.00     0.067 C 
ATOM      7  C   UNL     1      10.436  66.918  24.770  1.00  0.00     0.021 C 
ATOM      8  C   UNL     1      11.550  65.867  24.562  1.00  0.00     0.022 C 
ATOM      9  C   UNL     1      11.293  65.390  26.021  1.00  0.00    -0.019 C 
ATOM     10  C   UNL     1      11.445  63.875  26.336  1.00  0.00     0.012 C 
ATOM     11  C   UNL     1      12.125  66.187  27.057  1.00  0.00     0.012 C 
ENDROOT
TORSDOF 0
ENDMDL
