MODEL 1
REMARK VINA RESULT:    -5.585      0.000      0.000
REMARK INTER + INTRA:          -7.213
REMARK INTER:                  -7.544
REMARK INTRA:                   0.331
REMARK UNBOUND:                 0.331
REMARK SMILES O=c1c(-c2ccc(O)cc2)coc2c([C@@H]3O[C@H](CO)[C@H](O)[C@@H](O)[C@H]3O)c(O)ccc12
REMARK SMILES IDX 3 1 11 2 12 3 13 4 30 5 2 6 1 7 29 8 28 9 26 10 14 11 4 12
REMARK SMILES IDX 5 13 6 14 7 15 10 16 9 17 8 18 15 20 24 21 16 22 22 23 17 24
REMARK SMILES IDX 20 25 25 26 23 28 18 30 19 31 21 33 27 35
REMARK H PARENT 8 19 25 27 23 29 19 32 21 34 27 36
REMARK Flexibility Score: inf
ROOT
ATOM      1  C   UNL     1      42.325  12.884  36.136  1.00  0.00     0.065 A 
ATOM      2  C   UNL     1      42.191  12.546  37.488  1.00  0.00     0.208 A 
ATOM      3  O   UNL     1      42.143  13.486  38.423  1.00  0.00    -0.463 OA
ATOM      4  C   UNL     1      42.206  14.790  38.160  1.00  0.00     0.147 A 
ATOM      5  C   UNL     1      42.348  15.218  36.821  1.00  0.00     0.066 A 
ATOM      6  C   UNL     1      42.407  14.248  35.801  1.00  0.00     0.200 A 
ATOM      7  O   UNL     1      42.521  14.598  34.594  1.00  0.00    -0.288 OA
ATOM      8  C   UNL     1      42.421  16.586  36.538  1.00  0.00     0.020 A 
ATOM      9  C   UNL     1      42.371  17.516  37.569  1.00  0.00     0.047 A 
ATOM     10  C   UNL     1      42.230  17.110  38.903  1.00  0.00     0.125 A 
ATOM     11  C   UNL     1      42.118  15.729  39.223  1.00  0.00     0.069 A 
ENDROOT
BRANCH   1  12
ATOM     12  C   UNL     1      42.354  11.812  35.108  1.00  0.00    -0.011 A 
ATOM     13  C   UNL     1      41.272  10.924  34.983  1.00  0.00     0.013 A 
ATOM     14  C   UNL     1      41.301   9.903  34.032  1.00  0.00     0.047 A 
ATOM     15  C   UNL     1      42.418   9.745  33.200  1.00  0.00     0.115 A 
ATOM     16  C   UNL     1      43.471  11.651  34.269  1.00  0.00     0.013 A 
ATOM     17  C   UNL     1      43.499  10.624  33.322  1.00  0.00     0.047 A 
BRANCH  15  18
ATOM     18  O   UNL     1      42.463   8.721  32.256  1.00  0.00    -0.508 OA
ATOM     19  H   UNL     1      42.447   7.746  32.533  1.00  0.00     0.293 HD
ENDBRANCH  15  18
ENDBRANCH   1  12
BRANCH  11  20
ATOM     20  C   UNL     1      41.972  15.161  40.652  1.00  0.00     0.188 C 
ATOM     21  C   UNL     1      42.269  13.666  40.955  1.00  0.00     0.179 C 
ATOM     22  O   UNL     1      42.627  15.993  41.595  1.00  0.00    -0.362 OA
ATOM     23  C   UNL     1      43.792  13.351  40.985  1.00  0.00     0.177 C 
ATOM     24  C   UNL     1      44.034  15.798  41.724  1.00  0.00     0.176 C 
ATOM     25  C   UNL     1      44.664  14.625  40.917  1.00  0.00     0.177 C 
BRANCH  21  26
ATOM     26  O   UNL     1      41.659  13.300  42.172  1.00  0.00    -0.387 OA
ATOM     27  H   UNL     1      41.408  14.129  42.655  1.00  0.00     0.211 HD
ENDBRANCH  21  26
BRANCH  23  28
ATOM     28  O   UNL     1      44.116  12.623  42.147  1.00  0.00    -0.387 OA
ATOM     29  H   UNL     1      43.639  11.754  42.090  1.00  0.00     0.211 HD
ENDBRANCH  23  28
BRANCH  24  30
ATOM     30  C   UNL     1      44.740  17.134  41.444  1.00  0.00     0.191 C 
BRANCH  30  31
ATOM     31  O   UNL     1      46.132  16.979  41.539  1.00  0.00    -0.394 OA
ATOM     32  H   UNL     1      46.323  16.788  42.494  1.00  0.00     0.210 HD
ENDBRANCH  30  31
ENDBRANCH  24  30
BRANCH  25  33
ATOM     33  O   UNL     1      44.881  15.002  39.580  1.00  0.00    -0.388 OA
ATOM     34  H   UNL     1      45.864  15.015  39.437  1.00  0.00     0.211 HD
ENDBRANCH  25  33
ENDBRANCH  11  20
BRANCH  10  35
ATOM     35  O   UNL     1      42.175  18.098  39.881  1.00  0.00    -0.507 OA
ATOM     36  H   UNL     1      42.926  18.764  40.019  1.00  0.00     0.293 HD
ENDBRANCH  10  35
TORSDOF 9
ENDMDL
MODEL 2
REMARK VINA RESULT:    -5.004      2.095      4.185
REMARK INTER + INTRA:          -6.428
REMARK INTER:                  -6.657
REMARK INTRA:                   0.229
REMARK UNBOUND:                 0.331
REMARK SMILES O=c1c(-c2ccc(O)cc2)coc2c([C@@H]3O[C@H](CO)[C@H](O)[C@@H](O)[C@H]3O)c(O)ccc12
REMARK SMILES IDX 3 1 11 2 12 3 13 4 30 5 2 6 1 7 29 8 28 9 26 10 14 11 4 12
REMARK SMILES IDX 5 13 6 14 7 15 10 16 9 17 8 18 15 20 24 21 16 22 22 23 17 24
REMARK SMILES IDX 20 25 25 26 23 28 18 30 19 31 21 33 27 35
REMARK H PARENT 8 19 25 27 23 29 19 32 21 34 27 36
REMARK Flexibility Score: inf
ROOT
ATOM      1  C   UNL     1      41.978  10.259  37.288  1.00  0.00     0.065 A 
ATOM      2  C   UNL     1      41.473  11.539  37.031  1.00  0.00     0.208 A 
ATOM      3  O   UNL     1      41.621  12.519  37.911  1.00  0.00    -0.463 OA
ATOM      4  C   UNL     1      42.254  12.375  39.074  1.00  0.00     0.147 A 
ATOM      5  C   UNL     1      42.790  11.113  39.416  1.00  0.00     0.066 A 
ATOM      6  C   UNL     1      42.647  10.047  38.507  1.00  0.00     0.200 A 
ATOM      7  O   UNL     1      43.127   8.911  38.778  1.00  0.00    -0.288 OA
ATOM      8  C   UNL     1      43.450  10.953  40.639  1.00  0.00     0.020 A 
ATOM      9  C   UNL     1      43.563  12.024  41.518  1.00  0.00     0.047 A 
ATOM     10  C   UNL     1      43.038  13.282  41.195  1.00  0.00     0.125 A 
ATOM     11  C   UNL     1      42.391  13.490  39.945  1.00  0.00     0.069 A 
ENDROOT
BRANCH   1  12
ATOM     12  C   UNL     1      41.818   9.185  36.275  1.00  0.00    -0.011 A 
ATOM     13  C   UNL     1      42.386   9.329  34.998  1.00  0.00     0.013 A 
ATOM     14  C   UNL     1      42.222   8.332  34.034  1.00  0.00     0.047 A 
ATOM     15  C   UNL     1      41.477   7.183  34.329  1.00  0.00     0.115 A 
ATOM     16  C   UNL     1      41.073   8.029  36.566  1.00  0.00     0.013 A 
ATOM     17  C   UNL     1      40.906   7.035  35.597  1.00  0.00     0.047 A 
BRANCH  15  18
ATOM     18  O   UNL     1      41.296   6.187  33.370  1.00  0.00    -0.508 OA
ATOM     19  H   UNL     1      41.890   6.128  32.550  1.00  0.00     0.293 HD
ENDBRANCH  15  18
ENDBRANCH   1  12
BRANCH  11  20
ATOM     20  C   UNL     1      41.763  14.823  39.485  1.00  0.00     0.188 C 
ATOM     21  C   UNL     1      41.913  16.116  40.335  1.00  0.00     0.179 C 
ATOM     22  O   UNL     1      42.077  15.088  38.128  1.00  0.00    -0.362 OA
ATOM     23  C   UNL     1      43.330  16.746  40.224  1.00  0.00     0.177 C 
ATOM     24  C   UNL     1      43.355  15.675  37.890  1.00  0.00     0.176 C 
ATOM     25  C   UNL     1      44.198  16.069  39.139  1.00  0.00     0.177 C 
BRANCH  21  26
ATOM     26  O   UNL     1      40.922  17.046  39.960  1.00  0.00    -0.387 OA
ATOM     27  H   UNL     1      40.631  17.535  40.773  1.00  0.00     0.211 HD
ENDBRANCH  21  26
BRANCH  23  28
ATOM     28  O   UNL     1      43.231  18.124  39.952  1.00  0.00    -0.387 OA
ATOM     29  H   UNL     1      43.046  18.219  38.982  1.00  0.00     0.211 HD
ENDBRANCH  23  28
BRANCH  24  30
ATOM     30  C   UNL     1      44.139  14.767  36.929  1.00  0.00     0.191 C 
BRANCH  30  31
ATOM     31  O   UNL     1      43.277  14.214  35.970  1.00  0.00    -0.394 OA
ATOM     32  H   UNL     1      43.065  13.297  36.287  1.00  0.00     0.210 HD
ENDBRANCH  30  31
ENDBRANCH  24  30
BRANCH  25  33
ATOM     33  O   UNL     1      44.859  14.946  39.666  1.00  0.00    -0.388 OA
ATOM     34  H   UNL     1      45.598  14.724  39.041  1.00  0.00     0.211 HD
ENDBRANCH  25  33
ENDBRANCH  11  20
BRANCH  10  35
ATOM     35  O   UNL     1      43.199  14.310  42.119  1.00  0.00    -0.507 OA
ATOM     36  H   UNL     1      43.819  15.094  41.953  1.00  0.00     0.293 HD
ENDBRANCH  10  35
TORSDOF 9
ENDMDL
MODEL 3
REMARK VINA RESULT:    -4.850      2.063      4.284
REMARK INTER + INTRA:          -6.220
REMARK INTER:                  -6.682
REMARK INTRA:                   0.462
REMARK UNBOUND:                 0.331
REMARK SMILES O=c1c(-c2ccc(O)cc2)coc2c([C@@H]3O[C@H](CO)[C@H](O)[C@@H](O)[C@H]3O)c(O)ccc12
REMARK SMILES IDX 3 1 11 2 12 3 13 4 30 5 2 6 1 7 29 8 28 9 26 10 14 11 4 12
REMARK SMILES IDX 5 13 6 14 7 15 10 16 9 17 8 18 15 20 24 21 16 22 22 23 17 24
REMARK SMILES IDX 20 25 25 26 23 28 18 30 19 31 21 33 27 35
REMARK H PARENT 8 19 25 27 23 29 19 32 21 34 27 36
REMARK Flexibility Score: inf
ROOT
ATOM      1  C   UNL     1      41.771  10.181  36.872  1.00  0.00     0.065 A 
ATOM      2  C   UNL     1      41.287  11.450  36.533  1.00  0.00     0.208 A 
ATOM      3  O   UNL     1      41.435  12.478  37.357  1.00  0.00    -0.463 OA
ATOM      4  C   UNL     1      42.049  12.394  38.536  1.00  0.00     0.147 A 
ATOM      5  C   UNL     1      42.563  11.148  38.959  1.00  0.00     0.066 A 
ATOM      6  C   UNL     1      42.419  10.032  38.112  1.00  0.00     0.200 A 
ATOM      7  O   UNL     1      42.879   8.908  38.455  1.00  0.00    -0.288 OA
ATOM      8  C   UNL     1      43.203  11.051  40.199  1.00  0.00     0.020 A 
ATOM      9  C   UNL     1      43.318  12.170  41.016  1.00  0.00     0.047 A 
ATOM     10  C   UNL     1      42.815  13.414  40.613  1.00  0.00     0.125 A 
ATOM     11  C   UNL     1      42.188  13.556  39.343  1.00  0.00     0.069 A 
ENDROOT
BRANCH   1  12
ATOM     12  C   UNL     1      41.611   9.052  35.921  1.00  0.00    -0.011 A 
ATOM     13  C   UNL     1      41.010   7.854  36.341  1.00  0.00     0.013 A 
ATOM     14  C   UNL     1      40.875   6.781  35.457  1.00  0.00     0.047 A 
ATOM     15  C   UNL     1      41.351   6.887  34.144  1.00  0.00     0.115 A 
ATOM     16  C   UNL     1      42.085   9.153  34.600  1.00  0.00     0.013 A 
ATOM     17  C   UNL     1      41.953   8.076  33.719  1.00  0.00     0.047 A 
BRANCH  15  18
ATOM     18  O   UNL     1      41.233   5.818  33.257  1.00  0.00    -0.508 OA
ATOM     19  H   UNL     1      41.505   5.905  32.284  1.00  0.00     0.293 HD
ENDBRANCH  15  18
ENDBRANCH   1  12
BRANCH  11  20
ATOM     20  C   UNL     1      41.585  14.868  38.796  1.00  0.00     0.188 C 
ATOM     21  C   UNL     1      41.851  16.227  39.501  1.00  0.00     0.179 C 
ATOM     22  O   UNL     1      41.811  14.986  37.402  1.00  0.00    -0.362 OA
ATOM     23  C   UNL     1      43.282  16.773  39.232  1.00  0.00     0.177 C 
ATOM     24  C   UNL     1      43.092  15.484  37.020  1.00  0.00     0.176 C 
ATOM     25  C   UNL     1      44.039  15.954  38.163  1.00  0.00     0.177 C 
BRANCH  21  26
ATOM     26  O   UNL     1      40.875  17.165  39.104  1.00  0.00    -0.387 OA
ATOM     27  H   UNL     1      40.228  17.273  39.848  1.00  0.00     0.211 HD
ENDBRANCH  21  26
BRANCH  23  28
ATOM     28  O   UNL     1      43.222  18.123  38.832  1.00  0.00    -0.387 OA
ATOM     29  H   UNL     1      42.273  18.321  38.614  1.00  0.00     0.211 HD
ENDBRANCH  23  28
BRANCH  24  30
ATOM     30  C   UNL     1      43.765  14.450  36.103  1.00  0.00     0.191 C 
BRANCH  30  31
ATOM     31  O   UNL     1      42.847  13.967  35.158  1.00  0.00    -0.394 OA
ATOM     32  H   UNL     1      41.989  14.428  35.348  1.00  0.00     0.210 HD
ENDBRANCH  30  31
ENDBRANCH  24  30
BRANCH  25  33
ATOM     33  O   UNL     1      44.689  14.856  38.752  1.00  0.00    -0.388 OA
ATOM     34  H   UNL     1      44.359  14.041  38.292  1.00  0.00     0.211 HD
ENDBRANCH  25  33
ENDBRANCH  11  20
BRANCH  10  35
ATOM     35  O   UNL     1      42.976  14.492  41.477  1.00  0.00    -0.507 OA
ATOM     36  H   UNL     1      42.766  14.428  42.466  1.00  0.00     0.293 HD
ENDBRANCH  10  35
TORSDOF 9
ENDMDL
MODEL 4
REMARK VINA RESULT:    -4.732      3.716      8.329
REMARK INTER + INTRA:          -6.061
REMARK INTER:                  -7.792
REMARK INTRA:                   1.730
REMARK UNBOUND:                 0.331
REMARK SMILES O=c1c(-c2ccc(O)cc2)coc2c([C@@H]3O[C@H](CO)[C@H](O)[C@@H](O)[C@H]3O)c(O)ccc12
REMARK SMILES IDX 3 1 11 2 12 3 13 4 30 5 2 6 1 7 29 8 28 9 26 10 14 11 4 12
REMARK SMILES IDX 5 13 6 14 7 15 10 16 9 17 8 18 15 20 24 21 16 22 22 23 17 24
REMARK SMILES IDX 20 25 25 26 23 28 18 30 19 31 21 33 27 35
REMARK H PARENT 8 19 25 27 23 29 19 32 21 34 27 36
REMARK Flexibility Score: inf
ROOT
ATOM      1  C   UNL     1      42.698  10.372  39.601  1.00  0.00     0.065 A 
ATOM      2  C   UNL     1      42.715  11.524  38.806  1.00  0.00     0.208 A 
ATOM      3  O   UNL     1      42.372  11.473  37.526  1.00  0.00    -0.463 OA
ATOM      4  C   UNL     1      41.985  10.357  36.912  1.00  0.00     0.147 A 
ATOM      5  C   UNL     1      41.944   9.147  37.640  1.00  0.00     0.066 A 
ATOM      6  C   UNL     1      42.306   9.162  39.001  1.00  0.00     0.200 A 
ATOM      7  O   UNL     1      42.267   8.100  39.681  1.00  0.00    -0.288 OA
ATOM      8  C   UNL     1      41.544   7.969  36.999  1.00  0.00     0.020 A 
ATOM      9  C   UNL     1      41.205   7.988  35.651  1.00  0.00     0.047 A 
ATOM     10  C   UNL     1      41.239   9.179  34.913  1.00  0.00     0.125 A 
ATOM     11  C   UNL     1      41.608  10.401  35.542  1.00  0.00     0.069 A 
ENDROOT
BRANCH   1  12
ATOM     12  C   UNL     1      43.064  10.462  41.038  1.00  0.00    -0.011 A 
ATOM     13  C   UNL     1      43.778  11.574  41.517  1.00  0.00     0.013 A 
ATOM     14  C   UNL     1      44.143  11.654  42.862  1.00  0.00     0.047 A 
ATOM     15  C   UNL     1      43.811  10.619  43.745  1.00  0.00     0.115 A 
ATOM     16  C   UNL     1      42.732   9.427  41.930  1.00  0.00     0.013 A 
ATOM     17  C   UNL     1      43.103   9.508  43.275  1.00  0.00     0.047 A 
BRANCH  15  18
ATOM     18  O   UNL     1      44.182  10.683  45.088  1.00  0.00    -0.508 OA
ATOM     19  H   UNL     1      43.796  11.385  45.709  1.00  0.00     0.293 HD
ENDBRANCH  15  18
ENDBRANCH   1  12
BRANCH  11  20
ATOM     20  C   UNL     1      41.695  11.769  34.832  1.00  0.00     0.188 C 
ATOM     21  C   UNL     1      42.782  12.808  35.223  1.00  0.00     0.179 C 
ATOM     22  O   UNL     1      41.650  11.612  33.423  1.00  0.00    -0.362 OA
ATOM     23  C   UNL     1      44.190  12.437  34.678  1.00  0.00     0.177 C 
ATOM     24  C   UNL     1      42.886  11.274  32.797  1.00  0.00     0.176 C 
ATOM     25  C   UNL     1      44.153  11.240  33.701  1.00  0.00     0.177 C 
BRANCH  21  26
ATOM     26  O   UNL     1      42.395  14.089  34.777  1.00  0.00    -0.387 OA
ATOM     27  H   UNL     1      42.572  14.738  35.506  1.00  0.00     0.211 HD
ENDBRANCH  21  26
BRANCH  23  28
ATOM     28  O   UNL     1      44.774  13.547  34.036  1.00  0.00    -0.387 OA
ATOM     29  H   UNL     1      44.682  13.401  33.059  1.00  0.00     0.211 HD
ENDBRANCH  23  28
BRANCH  24  30
ATOM     30  C   UNL     1      42.697   9.962  32.020  1.00  0.00     0.191 C 
BRANCH  30  31
ATOM     31  O   UNL     1      43.943   9.403  31.697  1.00  0.00    -0.394 OA
ATOM     32  H   UNL     1      44.308   9.954  30.956  1.00  0.00     0.210 HD
ENDBRANCH  30  31
ENDBRANCH  24  30
BRANCH  25  33
ATOM     33  O   UNL     1      44.227  10.026  34.405  1.00  0.00    -0.388 OA
ATOM     34  H   UNL     1      44.769   9.402  33.855  1.00  0.00     0.211 HD
ENDBRANCH  25  33
ENDBRANCH  11  20
BRANCH  10  35
ATOM     35  O   UNL     1      40.875   9.124  33.572  1.00  0.00    -0.507 OA
ATOM     36  H   UNL     1      40.999   9.910  32.945  1.00  0.00     0.293 HD
ENDBRANCH  10  35
TORSDOF 9
ENDMDL
MODEL 5
REMARK VINA RESULT:    -4.607      2.049      3.717
REMARK INTER + INTRA:          -5.893
REMARK INTER:                  -6.092
REMARK INTRA:                   0.199
REMARK UNBOUND:                 0.331
REMARK SMILES O=c1c(-c2ccc(O)cc2)coc2c([C@@H]3O[C@H](CO)[C@H](O)[C@@H](O)[C@H]3O)c(O)ccc12
REMARK SMILES IDX 3 1 11 2 12 3 13 4 30 5 2 6 1 7 29 8 28 9 26 10 14 11 4 12
REMARK SMILES IDX 5 13 6 14 7 15 10 16 9 17 8 18 15 20 24 21 16 22 22 23 17 24
REMARK SMILES IDX 20 25 25 26 23 28 18 30 19 31 21 33 27 35
REMARK H PARENT 8 19 25 27 23 29 19 32 21 34 27 36
REMARK Flexibility Score: inf
ROOT
ATOM      1  C   UNL     1      42.057  11.675  37.669  1.00  0.00     0.065 A 
ATOM      2  C   UNL     1      41.716  12.990  38.004  1.00  0.00     0.208 A 
ATOM      3  O   UNL     1      41.839  13.430  39.249  1.00  0.00    -0.463 OA
ATOM      4  C   UNL     1      42.295  12.682  40.252  1.00  0.00     0.147 A 
ATOM      5  C   UNL     1      42.658  11.339  40.002  1.00  0.00     0.066 A 
ATOM      6  C   UNL     1      42.535  10.836  38.693  1.00  0.00     0.200 A 
ATOM      7  O   UNL     1      42.863   9.645  38.435  1.00  0.00    -0.288 OA
ATOM      8  C   UNL     1      43.131  10.546  41.053  1.00  0.00     0.020 A 
ATOM      9  C   UNL     1      43.228  11.071  42.336  1.00  0.00     0.047 A 
ATOM     10  C   UNL     1      42.874  12.400  42.602  1.00  0.00     0.125 A 
ATOM     11  C   UNL     1      42.421  13.245  41.551  1.00  0.00     0.069 A 
ENDROOT
BRANCH   1  12
ATOM     12  C   UNL     1      41.931  11.216  36.263  1.00  0.00    -0.011 A 
ATOM     13  C   UNL     1      40.985  10.234  35.922  1.00  0.00     0.013 A 
ATOM     14  C   UNL     1      40.875   9.783  34.606  1.00  0.00     0.047 A 
ATOM     15  C   UNL     1      41.718  10.298  33.612  1.00  0.00     0.115 A 
ATOM     16  C   UNL     1      42.772  11.730  35.260  1.00  0.00     0.013 A 
ATOM     17  C   UNL     1      42.663  11.273  33.944  1.00  0.00     0.047 A 
BRANCH  15  18
ATOM     18  O   UNL     1      41.625   9.846  32.296  1.00  0.00    -0.508 OA
ATOM     19  H   UNL     1      40.992   9.098  32.038  1.00  0.00     0.293 HD
ENDBRANCH  15  18
ENDBRANCH   1  12
BRANCH  11  20
ATOM     20  C   UNL     1      41.991  14.718  41.724  1.00  0.00     0.188 C 
ATOM     21  C   UNL     1      42.163  15.449  43.084  1.00  0.00     0.179 C 
ATOM     22  O   UNL     1      42.495  15.519  40.668  1.00  0.00    -0.362 OA
ATOM     23  C   UNL     1      43.639  15.848  43.368  1.00  0.00     0.177 C 
ATOM     24  C   UNL     1      43.845  15.958  40.811  1.00  0.00     0.176 C 
ATOM     25  C   UNL     1      44.562  15.617  42.151  1.00  0.00     0.177 C 
BRANCH  21  26
ATOM     26  O   UNL     1      41.323  16.582  43.122  1.00  0.00    -0.387 OA
ATOM     27  H   UNL     1      41.224  16.925  42.196  1.00  0.00     0.211 HD
ENDBRANCH  21  26
BRANCH  23  28
ATOM     28  O   UNL     1      43.712  17.199  43.762  1.00  0.00    -0.387 OA
ATOM     29  H   UNL     1      42.808  17.590  43.635  1.00  0.00     0.211 HD
ENDBRANCH  23  28
BRANCH  24  30
ATOM     30  C   UNL     1      44.646  15.479  39.591  1.00  0.00     0.191 C 
BRANCH  30  31
ATOM     31  O   UNL     1      43.854  15.538  38.434  1.00  0.00    -0.394 OA
ATOM     32  H   UNL     1      44.183  16.318  37.915  1.00  0.00     0.210 HD
ENDBRANCH  30  31
ENDBRANCH  24  30
BRANCH  25  33
ATOM     33  O   UNL     1      45.038  14.295  42.137  1.00  0.00    -0.388 OA
ATOM     34  H   UNL     1      46.029  14.343  42.103  1.00  0.00     0.211 HD
ENDBRANCH  25  33
ENDBRANCH  11  20
BRANCH  10  35
ATOM     35  O   UNL     1      43.009  12.860  43.908  1.00  0.00    -0.507 OA
ATOM     36  H   UNL     1      43.319  12.260  44.663  1.00  0.00     0.293 HD
ENDBRANCH  10  35
TORSDOF 9
ENDMDL
MODEL 6
REMARK VINA RESULT:    -4.478      2.180      2.904
REMARK INTER + INTRA:          -5.719
REMARK INTER:                  -6.021
REMARK INTRA:                   0.302
REMARK UNBOUND:                 0.331
REMARK SMILES O=c1c(-c2ccc(O)cc2)coc2c([C@@H]3O[C@H](CO)[C@H](O)[C@@H](O)[C@H]3O)c(O)ccc12
REMARK SMILES IDX 3 1 11 2 12 3 13 4 30 5 2 6 1 7 29 8 28 9 26 10 14 11 4 12
REMARK SMILES IDX 5 13 6 14 7 15 10 16 9 17 8 18 15 20 24 21 16 22 22 23 17 24
REMARK SMILES IDX 20 25 25 26 23 28 18 30 19 31 21 33 27 35
REMARK H PARENT 8 19 25 27 23 29 19 32 21 34 27 36
REMARK Flexibility Score: inf
ROOT
ATOM      1  C   UNL     1      42.119  11.960  36.826  1.00  0.00     0.065 A 
ATOM      2  C   UNL     1      41.917  11.048  37.868  1.00  0.00     0.208 A 
ATOM      3  O   UNL     1      41.673  11.467  39.103  1.00  0.00    -0.463 OA
ATOM      4  C   UNL     1      41.593  12.752  39.441  1.00  0.00     0.147 A 
ATOM      5  C   UNL     1      41.789  13.740  38.450  1.00  0.00     0.066 A 
ATOM      6  C   UNL     1      42.055  13.332  37.129  1.00  0.00     0.200 A 
ATOM      7  O   UNL     1      42.223  14.191  36.219  1.00  0.00    -0.288 OA
ATOM      8  C   UNL     1      41.712  15.093  38.800  1.00  0.00     0.020 A 
ATOM      9  C   UNL     1      41.460  15.461  40.117  1.00  0.00     0.047 A 
ATOM     10  C   UNL     1      41.262  14.495  41.112  1.00  0.00     0.125 A 
ATOM     11  C   UNL     1      41.299  13.110  40.785  1.00  0.00     0.069 A 
ENDROOT
BRANCH   1  12
ATOM     12  C   UNL     1      42.367  11.463  35.449  1.00  0.00    -0.011 A 
ATOM     13  C   UNL     1      41.443  10.605  34.829  1.00  0.00     0.013 A 
ATOM     14  C   UNL     1      41.680  10.119  33.543  1.00  0.00     0.047 A 
ATOM     15  C   UNL     1      42.852  10.472  32.861  1.00  0.00     0.115 A 
ATOM     16  C   UNL     1      43.541  11.816  34.759  1.00  0.00     0.013 A 
ATOM     17  C   UNL     1      43.778  11.323  33.472  1.00  0.00     0.047 A 
BRANCH  15  18
ATOM     18  O   UNL     1      43.105   9.982  31.581  1.00  0.00    -0.508 OA
ATOM     19  H   UNL     1      42.812  10.488  30.753  1.00  0.00     0.293 HD
ENDBRANCH  15  18
ENDBRANCH   1  12
BRANCH  11  20
ATOM     20  C   UNL     1      41.109  11.958  41.794  1.00  0.00     0.188 C 
ATOM     21  C   UNL     1      41.538  10.506  41.443  1.00  0.00     0.179 C 
ATOM     22  O   UNL     1      41.602  12.320  43.073  1.00  0.00    -0.362 OA
ATOM     23  C   UNL     1      43.078  10.304  41.503  1.00  0.00     0.177 C 
ATOM     24  C   UNL     1      43.009  12.174  43.260  1.00  0.00     0.176 C 
ATOM     25  C   UNL     1      43.815  11.525  42.098  1.00  0.00     0.177 C 
BRANCH  21  26
ATOM     26  O   UNL     1      40.881   9.599  42.300  1.00  0.00    -0.387 OA
ATOM     27  H   UNL     1      41.559   9.188  42.897  1.00  0.00     0.211 HD
ENDBRANCH  21  26
BRANCH  23  28
ATOM     28  O   UNL     1      43.391   9.155  42.257  1.00  0.00    -0.387 OA
ATOM     29  H   UNL     1      42.538   8.811  42.632  1.00  0.00     0.211 HD
ENDBRANCH  23  28
BRANCH  24  30
ATOM     30  C   UNL     1      43.590  13.535  43.675  1.00  0.00     0.191 C 
BRANCH  30  31
ATOM     31  O   UNL     1      42.810  14.109  44.691  1.00  0.00    -0.394 OA
ATOM     32  H   UNL     1      42.837  15.089  44.538  1.00  0.00     0.210 HD
ENDBRANCH  30  31
ENDBRANCH  24  30
BRANCH  25  33
ATOM     33  O   UNL     1      44.090  12.471  41.095  1.00  0.00    -0.388 OA
ATOM     34  H   UNL     1      43.592  12.189  40.284  1.00  0.00     0.211 HD
ENDBRANCH  25  33
ENDBRANCH  11  20
BRANCH  10  35
ATOM     35  O   UNL     1      41.002  14.937  42.405  1.00  0.00    -0.507 OA
ATOM     36  H   UNL     1      40.529  15.813  42.592  1.00  0.00     0.293 HD
ENDBRANCH  10  35
TORSDOF 9
ENDMDL
MODEL 7
REMARK VINA RESULT:    -4.313      2.758      6.752
REMARK INTER + INTRA:          -5.495
REMARK INTER:                  -5.903
REMARK INTRA:                   0.408
REMARK UNBOUND:                 0.331
REMARK SMILES O=c1c(-c2ccc(O)cc2)coc2c([C@@H]3O[C@H](CO)[C@H](O)[C@@H](O)[C@H]3O)c(O)ccc12
REMARK SMILES IDX 3 1 11 2 12 3 13 4 30 5 2 6 1 7 29 8 28 9 26 10 14 11 4 12
REMARK SMILES IDX 5 13 6 14 7 15 10 16 9 17 8 18 15 20 24 21 16 22 22 23 17 24
REMARK SMILES IDX 20 25 25 26 23 28 18 30 19 31 21 33 27 35
REMARK H PARENT 8 19 25 27 23 29 19 32 21 34 27 36
REMARK Flexibility Score: inf
ROOT
ATOM      1  C   UNL     1      42.777  12.529  42.314  1.00  0.00     0.065 A 
ATOM      2  C   UNL     1      41.762  13.083  41.524  1.00  0.00     0.208 A 
ATOM      3  O   UNL     1      41.970  14.194  40.830  1.00  0.00    -0.463 OA
ATOM      4  C   UNL     1      43.129  14.849  40.818  1.00  0.00     0.147 A 
ATOM      5  C   UNL     1      44.205  14.361  41.592  1.00  0.00     0.066 A 
ATOM      6  C   UNL     1      44.021  13.186  42.347  1.00  0.00     0.200 A 
ATOM      7  O   UNL     1      44.967  12.718  43.038  1.00  0.00    -0.288 OA
ATOM      8  C   UNL     1      45.424  15.048  41.590  1.00  0.00     0.020 A 
ATOM      9  C   UNL     1      45.569  16.211  40.843  1.00  0.00     0.047 A 
ATOM     10  C   UNL     1      44.512  16.710  40.069  1.00  0.00     0.125 A 
ATOM     11  C   UNL     1      43.270  16.017  40.021  1.00  0.00     0.069 A 
ENDROOT
BRANCH   1  12
ATOM     12  C   UNL     1      42.525  11.271  43.063  1.00  0.00    -0.011 A 
ATOM     13  C   UNL     1      43.175  10.083  42.689  1.00  0.00     0.013 A 
ATOM     14  C   UNL     1      42.927   8.894  43.376  1.00  0.00     0.047 A 
ATOM     15  C   UNL     1      42.016   8.871  44.440  1.00  0.00     0.115 A 
ATOM     16  C   UNL     1      41.613  11.243  44.133  1.00  0.00     0.013 A 
ATOM     17  C   UNL     1      41.363  10.050  44.816  1.00  0.00     0.047 A 
BRANCH  15  18
ATOM     18  O   UNL     1      41.751   7.687  45.125  1.00  0.00    -0.508 OA
ATOM     19  H   UNL     1      42.191   6.813  44.860  1.00  0.00     0.293 HD
ENDBRANCH  15  18
ENDBRANCH   1  12
BRANCH  11  20
ATOM     20  C   UNL     1      42.033  16.474  39.218  1.00  0.00     0.188 C 
ATOM     21  C   UNL     1      42.150  17.569  38.121  1.00  0.00     0.179 C 
ATOM     22  O   UNL     1      41.310  15.359  38.725  1.00  0.00    -0.362 OA
ATOM     23  C   UNL     1      42.803  17.040  36.813  1.00  0.00     0.177 C 
ATOM     24  C   UNL     1      41.808  14.781  37.519  1.00  0.00     0.176 C 
ATOM     25  C   UNL     1      42.996  15.507  36.822  1.00  0.00     0.177 C 
BRANCH  21  26
ATOM     26  O   UNL     1      40.875  18.113  37.859  1.00  0.00    -0.387 OA
ATOM     27  H   UNL     1      40.193  17.433  38.096  1.00  0.00     0.211 HD
ENDBRANCH  21  26
BRANCH  23  28
ATOM     28  O   UNL     1      42.026  17.407  35.696  1.00  0.00    -0.387 OA
ATOM     29  H   UNL     1      41.088  17.497  36.010  1.00  0.00     0.211 HD
ENDBRANCH  23  28
BRANCH  24  30
ATOM     30  C   UNL     1      42.110  13.296  37.777  1.00  0.00     0.191 C 
BRANCH  30  31
ATOM     31  O   UNL     1      42.768  12.734  36.672  1.00  0.00    -0.394 OA
ATOM     32  H   UNL     1      42.309  11.873  36.488  1.00  0.00     0.210 HD
ENDBRANCH  30  31
ENDBRANCH  24  30
BRANCH  25  33
ATOM     33  O   UNL     1      44.213  15.167  37.437  1.00  0.00    -0.388 OA
ATOM     34  H   UNL     1      44.902  15.787  37.081  1.00  0.00     0.211 HD
ENDBRANCH  25  33
ENDBRANCH  11  20
BRANCH  10  35
ATOM     35  O   UNL     1      44.734  17.872  39.338  1.00  0.00    -0.507 OA
ATOM     36  H   UNL     1      45.394  18.580  39.636  1.00  0.00     0.293 HD
ENDBRANCH  10  35
TORSDOF 9
ENDMDL
MODEL 8
REMARK VINA RESULT:    -4.252      2.780      3.878
REMARK INTER + INTRA:          -5.413
REMARK INTER:                  -6.186
REMARK INTRA:                   0.774
REMARK UNBOUND:                 0.331
REMARK SMILES O=c1c(-c2ccc(O)cc2)coc2c([C@@H]3O[C@H](CO)[C@H](O)[C@@H](O)[C@H]3O)c(O)ccc12
REMARK SMILES IDX 3 1 11 2 12 3 13 4 30 5 2 6 1 7 29 8 28 9 26 10 14 11 4 12
REMARK SMILES IDX 5 13 6 14 7 15 10 16 9 17 8 18 15 20 24 21 16 22 22 23 17 24
REMARK SMILES IDX 20 25 25 26 23 28 18 30 19 31 21 33 27 35
REMARK H PARENT 8 19 25 27 23 29 19 32 21 34 27 36
REMARK Flexibility Score: inf
ROOT
ATOM      1  C   UNL     1      41.609   9.937  37.935  1.00  0.00     0.065 A 
ATOM      2  C   UNL     1      41.435   9.442  39.232  1.00  0.00     0.208 A 
ATOM      3  O   UNL     1      41.445  10.256  40.279  1.00  0.00    -0.463 OA
ATOM      4  C   UNL     1      41.607  11.574  40.185  1.00  0.00     0.147 A 
ATOM      5  C   UNL     1      41.795  12.157  38.911  1.00  0.00     0.066 A 
ATOM      6  C   UNL     1      41.795  11.323  37.777  1.00  0.00     0.200 A 
ATOM      7  O   UNL     1      41.947  11.815  36.625  1.00  0.00    -0.288 OA
ATOM      8  C   UNL     1      41.973  13.541  38.805  1.00  0.00     0.020 A 
ATOM      9  C   UNL     1      41.980  14.334  39.947  1.00  0.00     0.047 A 
ATOM     10  C   UNL     1      41.794  13.773  41.218  1.00  0.00     0.125 A 
ATOM     11  C   UNL     1      41.577  12.374  41.359  1.00  0.00     0.069 A 
ENDROOT
BRANCH   1  12
ATOM     12  C   UNL     1      41.570   9.006  36.778  1.00  0.00    -0.011 A 
ATOM     13  C   UNL     1      40.912   7.769  36.889  1.00  0.00     0.013 A 
ATOM     14  C   UNL     1      40.890   6.881  35.813  1.00  0.00     0.047 A 
ATOM     15  C   UNL     1      41.534   7.211  34.613  1.00  0.00     0.115 A 
ATOM     16  C   UNL     1      42.213   9.333  35.571  1.00  0.00     0.013 A 
ATOM     17  C   UNL     1      42.192   8.439  34.497  1.00  0.00     0.047 A 
BRANCH  15  18
ATOM     18  O   UNL     1      41.528   6.326  33.536  1.00  0.00    -0.508 OA
ATOM     19  H   UNL     1      42.388   6.037  33.084  1.00  0.00     0.293 HD
ENDBRANCH  15  18
ENDBRANCH   1  12
BRANCH  11  20
ATOM     20  C   UNL     1      41.374  11.642  42.704  1.00  0.00     0.188 C 
ATOM     21  C   UNL     1      41.521  10.098  42.806  1.00  0.00     0.179 C 
ATOM     22  O   UNL     1      42.107  12.275  43.739  1.00  0.00    -0.362 OA
ATOM     23  C   UNL     1      43.004   9.634  42.777  1.00  0.00     0.177 C 
ATOM     24  C   UNL     1      43.488  11.927  43.825  1.00  0.00     0.176 C 
ATOM     25  C   UNL     1      43.999  10.813  42.864  1.00  0.00     0.177 C 
BRANCH  21  26
ATOM     26  O   UNL     1      40.875   9.639  43.972  1.00  0.00    -0.387 OA
ATOM     27  H   UNL     1      41.571   9.364  44.624  1.00  0.00     0.211 HD
ENDBRANCH  21  26
BRANCH  23  28
ATOM     28  O   UNL     1      43.253   8.732  43.830  1.00  0.00    -0.387 OA
ATOM     29  H   UNL     1      42.375   8.505  44.235  1.00  0.00     0.211 HD
ENDBRANCH  23  28
BRANCH  24  30
ATOM     30  C   UNL     1      44.324  13.212  43.712  1.00  0.00     0.191 C 
BRANCH  30  31
ATOM     31  O   UNL     1      45.691  12.901  43.668  1.00  0.00    -0.394 OA
ATOM     32  H   UNL     1      45.747  11.930  43.466  1.00  0.00     0.210 HD
ENDBRANCH  30  31
ENDBRANCH  24  30
BRANCH  25  33
ATOM     33  O   UNL     1      44.254  11.338  41.586  1.00  0.00    -0.388 OA
ATOM     34  H   UNL     1      43.396  11.321  41.087  1.00  0.00     0.211 HD
ENDBRANCH  25  33
ENDBRANCH  11  20
BRANCH  10  35
ATOM     35  O   UNL     1      41.802  14.630  42.314  1.00  0.00    -0.507 OA
ATOM     36  H   UNL     1      41.516  15.599  42.245  1.00  0.00     0.293 HD
ENDBRANCH  10  35
TORSDOF 9
ENDMDL
MODEL 9
REMARK VINA RESULT:    -4.007      2.551      3.676
REMARK INTER + INTRA:          -5.081
REMARK INTER:                  -5.535
REMARK INTRA:                   0.454
REMARK UNBOUND:                 0.331
REMARK SMILES O=c1c(-c2ccc(O)cc2)coc2c([C@@H]3O[C@H](CO)[C@H](O)[C@@H](O)[C@H]3O)c(O)ccc12
REMARK SMILES IDX 3 1 11 2 12 3 13 4 30 5 2 6 1 7 29 8 28 9 26 10 14 11 4 12
REMARK SMILES IDX 5 13 6 14 7 15 10 16 9 17 8 18 15 20 24 21 16 22 22 23 17 24
REMARK SMILES IDX 20 25 25 26 23 28 18 30 19 31 21 33 27 35
REMARK H PARENT 8 19 25 27 23 29 19 32 21 34 27 36
REMARK Flexibility Score: inf
ROOT
ATOM      1  C   UNL     1      42.274  14.825  37.332  1.00  0.00     0.065 A 
ATOM      2  C   UNL     1      41.928  13.626  37.967  1.00  0.00     0.208 A 
ATOM      3  O   UNL     1      41.884  13.544  39.290  1.00  0.00    -0.463 OA
ATOM      4  C   UNL     1      42.147  14.568  40.100  1.00  0.00     0.147 A 
ATOM      5  C   UNL     1      42.509  15.815  39.541  1.00  0.00     0.066 A 
ATOM      6  C   UNL     1      42.571  15.938  38.140  1.00  0.00     0.200 A 
ATOM      7  O   UNL     1      42.880  17.041  37.610  1.00  0.00    -0.288 OA
ATOM      8  C   UNL     1      42.793  16.893  40.387  1.00  0.00     0.020 A 
ATOM      9  C   UNL     1      42.734  16.734  41.766  1.00  0.00     0.047 A 
ATOM     10  C   UNL     1      42.376  15.505  42.338  1.00  0.00     0.125 A 
ATOM     11  C   UNL     1      42.047  14.397  41.507  1.00  0.00     0.069 A 
ENDROOT
BRANCH   1  12
ATOM     12  C   UNL     1      42.293  14.895  35.849  1.00  0.00    -0.011 A 
ATOM     13  C   UNL     1      43.005  13.939  35.105  1.00  0.00     0.013 A 
ATOM     14  C   UNL     1      43.044  14.011  33.712  1.00  0.00     0.047 A 
ATOM     15  C   UNL     1      42.381  15.048  33.041  1.00  0.00     0.115 A 
ATOM     16  C   UNL     1      41.627  15.932  35.170  1.00  0.00     0.013 A 
ATOM     17  C   UNL     1      41.672  16.004  33.775  1.00  0.00     0.047 A 
BRANCH  15  18
ATOM     18  O   UNL     1      42.424  15.136  31.650  1.00  0.00    -0.508 OA
ATOM     19  H   UNL     1      41.693  15.606  31.128  1.00  0.00     0.293 HD
ENDBRANCH  15  18
ENDBRANCH   1  12
BRANCH  11  20
ATOM     20  C   UNL     1      41.652  12.995  42.019  1.00  0.00     0.188 C 
ATOM     21  C   UNL     1      41.670  11.762  41.073  1.00  0.00     0.179 C 
ATOM     22  O   UNL     1      42.320  12.693  43.233  1.00  0.00    -0.362 OA
ATOM     23  C   UNL     1      43.109  11.250  40.783  1.00  0.00     0.177 C 
ATOM     24  C   UNL     1      43.655  12.206  43.102  1.00  0.00     0.176 C 
ATOM     25  C   UNL     1      44.176  11.945  41.659  1.00  0.00     0.177 C 
BRANCH  21  26
ATOM     26  O   UNL     1      40.875  10.735  41.622  1.00  0.00    -0.387 OA
ATOM     27  H   UNL     1      41.427   9.912  41.679  1.00  0.00     0.211 HD
ENDBRANCH  21  26
BRANCH  23  28
ATOM     28  O   UNL     1      43.179   9.856  40.977  1.00  0.00    -0.387 OA
ATOM     29  H   UNL     1      44.006   9.540  40.526  1.00  0.00     0.211 HD
ENDBRANCH  23  28
BRANCH  24  30
ATOM     30  C   UNL     1      44.593  13.130  43.895  1.00  0.00     0.191 C 
BRANCH  30  31
ATOM     31  O   UNL     1      45.932  12.803  43.636  1.00  0.00    -0.394 OA
ATOM     32  H   UNL     1      46.046  11.860  43.924  1.00  0.00     0.210 HD
ENDBRANCH  30  31
ENDBRANCH  24  30
BRANCH  25  33
ATOM     33  O   UNL     1      44.601  13.143  41.060  1.00  0.00    -0.388 OA
ATOM     34  H   UNL     1      44.754  12.950  40.098  1.00  0.00     0.211 HD
ENDBRANCH  25  33
ENDBRANCH  11  20
BRANCH  10  35
ATOM     35  O   UNL     1      42.326  15.423  43.725  1.00  0.00    -0.507 OA
ATOM     36  H   UNL     1      41.578  14.945  44.212  1.00  0.00     0.293 HD
ENDBRANCH  10  35
TORSDOF 9
ENDMDL
