MODEL 1
REMARK VINA RESULT:    -2.987      0.000      0.000
REMARK INTER + INTRA:          -6.976
REMARK INTER:                  -5.082
REMARK INTRA:                  -1.893
REMARK UNBOUND:                -1.893
REMARK SMILES CCCCCCCCCCCCCC(=O)[O-]
REMARK SMILES IDX 8 1 9 2 10 3 11 4 12 5 13 6 14 7 15 8 16 9 7 10 6 11 5 12
REMARK SMILES IDX 4 13 3 14 2 15 1 16
REMARK H PARENT
REMARK Flexibility Score: inf
ROOT
ATOM      1  C   UNL     1      19.288  28.789  57.179  1.00  0.00     0.000 C 
ENDROOT
BRANCH   1   2
ATOM      2  C   UNL     1      19.166  27.721  56.077  1.00  0.00     0.000 C 
BRANCH   2   3
ATOM      3  C   UNL     1      19.146  28.268  54.636  1.00  0.00     0.000 C 
BRANCH   3   4
ATOM      4  C   UNL     1      18.925  29.787  54.518  1.00  0.00     0.000 C 
BRANCH   4   5
ATOM      5  C   UNL     1      17.656  30.145  53.730  1.00  0.00     0.006 C 
BRANCH   5   6
ATOM      6  C   UNL     1      16.403  29.635  54.448  1.00  0.00     0.053 C 
BRANCH   6   7
ATOM      7  C   UNL     1      15.654  28.676  53.578  1.00  0.00     0.041 C 
ATOM      8  O   UNL     1      15.891  28.623  52.342  1.00  0.00    -0.550 OA
ATOM      9  O   UNL     1      14.660  27.874  54.122  1.00  0.00    -0.550 OA
ENDBRANCH   6   7
ENDBRANCH   5   6
ENDBRANCH   4   5
ENDBRANCH   3   4
ENDBRANCH   2   3
ENDBRANCH   1   2
BRANCH   1  10
ATOM     10  C   UNL     1      20.334  28.432  58.245  1.00  0.00     0.000 C 
BRANCH  10  11
ATOM     11  C   UNL     1      21.054  29.692  58.750  1.00  0.00    -0.000 C 
BRANCH  11  12
ATOM     12  C   UNL     1      21.477  30.633  57.610  1.00  0.00    -0.000 C 
BRANCH  12  13
ATOM     13  C   UNL     1      22.721  30.128  56.859  1.00  0.00    -0.000 C 
BRANCH  13  14
ATOM     14  C   UNL     1      22.519  30.103  55.334  1.00  0.00    -0.000 C 
BRANCH  14  15
ATOM     15  C   UNL     1      22.789  28.720  54.723  1.00  0.00    -0.003 C 
ATOM     16  C   UNL     1      23.012  27.673  55.810  1.00  0.00     0.004 C 
ENDBRANCH  14  15
ENDBRANCH  13  14
ENDBRANCH  12  13
ENDBRANCH  11  12
ENDBRANCH  10  11
ENDBRANCH   1  10
TORSDOF 12
ENDMDL
MODEL 2
REMARK VINA RESULT:    -2.916      8.853     11.646
REMARK INTER + INTRA:          -6.854
REMARK INTER:                  -5.006
REMARK INTRA:                  -1.848
REMARK UNBOUND:                -1.893
REMARK SMILES CCCCCCCCCCCCCC(=O)[O-]
REMARK SMILES IDX 8 1 9 2 10 3 11 4 12 5 13 6 14 7 15 8 16 9 7 10 6 11 5 12
REMARK SMILES IDX 4 13 3 14 2 15 1 16
REMARK H PARENT
REMARK Flexibility Score: inf
ROOT
ATOM      1  C   UNL     1      30.598  32.648  52.551  1.00  0.00     0.000 C 
ENDROOT
BRANCH   1   2
ATOM      2  C   UNL     1      29.759  31.375  52.332  1.00  0.00     0.000 C 
BRANCH   2   3
ATOM      3  C   UNL     1      29.615  30.467  53.569  1.00  0.00     0.000 C 
BRANCH   3   4
ATOM      4  C   UNL     1      28.502  30.875  54.552  1.00  0.00     0.000 C 
BRANCH   4   5
ATOM      5  C   UNL     1      29.018  31.741  55.710  1.00  0.00     0.006 C 
BRANCH   5   6
ATOM      6  C   UNL     1      30.377  31.238  56.207  1.00  0.00     0.053 C 
BRANCH   6   7
ATOM      7  C   UNL     1      31.377  32.350  56.213  1.00  0.00     0.041 C 
ATOM      8  O   UNL     1      31.004  33.539  56.028  1.00  0.00    -0.550 OA
ATOM      9  O   UNL     1      32.728  32.071  56.373  1.00  0.00    -0.550 OA
ENDBRANCH   6   7
ENDBRANCH   5   6
ENDBRANCH   4   5
ENDBRANCH   3   4
ENDBRANCH   2   3
ENDBRANCH   1   2
BRANCH   1  10
ATOM     10  C   UNL     1      29.759  33.932  52.501  1.00  0.00     0.000 C 
BRANCH  10  11
ATOM     11  C   UNL     1      28.288  33.615  52.187  1.00  0.00    -0.000 C 
BRANCH  11  12
ATOM     12  C   UNL     1      27.314  34.248  53.193  1.00  0.00    -0.000 C 
BRANCH  12  13
ATOM     13  C   UNL     1      25.857  33.816  52.956  1.00  0.00    -0.000 C 
BRANCH  13  14
ATOM     14  C   UNL     1      25.729  32.754  51.851  1.00  0.00    -0.000 C 
BRANCH  14  15
ATOM     15  C   UNL     1      25.247  31.396  52.384  1.00  0.00    -0.003 C 
ATOM     16  C   UNL     1      24.966  31.464  53.882  1.00  0.00     0.004 C 
ENDBRANCH  14  15
ENDBRANCH  13  14
ENDBRANCH  12  13
ENDBRANCH  11  12
ENDBRANCH  10  11
ENDBRANCH   1  10
TORSDOF 12
ENDMDL
MODEL 3
REMARK VINA RESULT:    -2.906      3.641      6.347
REMARK INTER + INTRA:          -6.839
REMARK INTER:                  -5.184
REMARK INTRA:                  -1.655
REMARK UNBOUND:                -1.893
REMARK SMILES CCCCCCCCCCCCCC(=O)[O-]
REMARK SMILES IDX 8 1 9 2 10 3 11 4 12 5 13 6 14 7 15 8 16 9 7 10 6 11 5 12
REMARK SMILES IDX 4 13 3 14 2 15 1 16
REMARK H PARENT
REMARK Flexibility Score: inf
ROOT
ATOM      1  C   UNL     1      18.663  28.422  56.596  1.00  0.00     0.000 C 
ENDROOT
BRANCH   1   2
ATOM      2  C   UNL     1      19.540  28.439  57.860  1.00  0.00     0.000 C 
BRANCH   2   3
ATOM      3  C   UNL     1      21.060  28.390  57.601  1.00  0.00     0.000 C 
BRANCH   3   4
ATOM      4  C   UNL     1      21.767  29.757  57.605  1.00  0.00     0.000 C 
BRANCH   4   5
ATOM      5  C   UNL     1      21.869  30.380  56.205  1.00  0.00     0.006 C 
BRANCH   5   6
ATOM      6  C   UNL     1      22.966  29.698  55.382  1.00  0.00     0.053 C 
BRANCH   6   7
ATOM      7  C   UNL     1      24.250  30.459  55.486  1.00  0.00     0.041 C 
ATOM      8  O   UNL     1      24.983  30.328  56.502  1.00  0.00    -0.550 OA
ATOM      9  O   UNL     1      24.613  31.352  54.486  1.00  0.00    -0.550 OA
ENDBRANCH   6   7
ENDBRANCH   5   6
ENDBRANCH   4   5
ENDBRANCH   3   4
ENDBRANCH   2   3
ENDBRANCH   1   2
BRANCH   1  10
ATOM     10  C   UNL     1      19.318  27.681  55.422  1.00  0.00     0.000 C 
BRANCH  10  11
ATOM     11  C   UNL     1      19.322  28.553  54.157  1.00  0.00    -0.000 C 
BRANCH  11  12
ATOM     12  C   UNL     1      18.668  29.926  54.378  1.00  0.00    -0.000 C 
BRANCH  12  13
ATOM     13  C   UNL     1      17.359  30.090  53.586  1.00  0.00    -0.000 C 
BRANCH  13  14
ATOM     14  C   UNL     1      16.119  29.697  54.407  1.00  0.00    -0.000 C 
BRANCH  14  15
ATOM     15  C   UNL     1      15.407  28.455  53.848  1.00  0.00    -0.003 C 
ATOM     16  C   UNL     1      15.573  27.260  54.782  1.00  0.00     0.004 C 
ENDBRANCH  14  15
ENDBRANCH  13  14
ENDBRANCH  12  13
ENDBRANCH  11  12
ENDBRANCH  10  11
ENDBRANCH   1  10
TORSDOF 12
ENDMDL
MODEL 4
REMARK VINA RESULT:    -2.889     11.485     13.617
REMARK INTER + INTRA:          -6.808
REMARK INTER:                  -5.151
REMARK INTRA:                  -1.657
REMARK UNBOUND:                -1.893
REMARK SMILES CCCCCCCCCCCCCC(=O)[O-]
REMARK SMILES IDX 8 1 9 2 10 3 11 4 12 5 13 6 14 7 15 8 16 9 7 10 6 11 5 12
REMARK SMILES IDX 4 13 3 14 2 15 1 16
REMARK H PARENT
REMARK Flexibility Score: inf
ROOT
ATOM      1  C   UNL     1      15.782  19.710  49.568  1.00  0.00     0.000 C 
ENDROOT
BRANCH   1   2
ATOM      2  C   UNL     1      16.230  18.251  49.764  1.00  0.00     0.000 C 
BRANCH   2   3
ATOM      3  C   UNL     1      17.752  18.049  49.907  1.00  0.00     0.000 C 
BRANCH   3   4
ATOM      4  C   UNL     1      18.192  17.271  51.161  1.00  0.00     0.000 C 
BRANCH   4   5
ATOM      5  C   UNL     1      17.074  17.143  52.206  1.00  0.00     0.006 C 
BRANCH   5   6
ATOM      6  C   UNL     1      17.280  18.135  53.354  1.00  0.00     0.053 C 
BRANCH   6   7
ATOM      7  C   UNL     1      15.962  18.595  53.892  1.00  0.00     0.041 C 
ATOM      8  O   UNL     1      15.683  18.430  55.109  1.00  0.00    -0.550 OA
ATOM      9  O   UNL     1      15.022  19.161  53.042  1.00  0.00    -0.550 OA
ENDBRANCH   6   7
ENDBRANCH   5   6
ENDBRANCH   4   5
ENDBRANCH   3   4
ENDBRANCH   2   3
ENDBRANCH   1   2
BRANCH   1  10
ATOM     10  C   UNL     1      14.894  19.902  48.330  1.00  0.00     0.000 C 
BRANCH  10  11
ATOM     11  C   UNL     1      14.267  18.568  47.894  1.00  0.00    -0.000 C 
BRANCH  11  12
ATOM     12  C   UNL     1      14.451  18.286  46.394  1.00  0.00    -0.000 C 
BRANCH  12  13
ATOM     13  C   UNL     1      15.686  17.415  46.105  1.00  0.00    -0.000 C 
BRANCH  13  14
ATOM     14  C   UNL     1      16.799  18.192  45.381  1.00  0.00    -0.000 C 
BRANCH  14  15
ATOM     15  C   UNL     1      17.961  18.571  46.311  1.00  0.00    -0.003 C 
ATOM     16  C   UNL     1      18.040  20.083  46.501  1.00  0.00     0.004 C 
ENDBRANCH  14  15
ENDBRANCH  13  14
ENDBRANCH  12  13
ENDBRANCH  11  12
ENDBRANCH  10  11
ENDBRANCH   1  10
TORSDOF 12
ENDMDL
MODEL 5
REMARK VINA RESULT:    -2.850      3.452      5.837
REMARK INTER + INTRA:          -6.743
REMARK INTER:                  -4.911
REMARK INTRA:                  -1.832
REMARK UNBOUND:                -1.893
REMARK SMILES CCCCCCCCCCCCCC(=O)[O-]
REMARK SMILES IDX 8 1 9 2 10 3 11 4 12 5 13 6 14 7 15 8 16 9 7 10 6 11 5 12
REMARK SMILES IDX 4 13 3 14 2 15 1 16
REMARK H PARENT
REMARK Flexibility Score: inf
ROOT
ATOM      1  C   UNL     1      16.382  29.265  55.483  1.00  0.00     0.000 C 
ENDROOT
BRANCH   1   2
ATOM      2  C   UNL     1      17.383  28.120  55.726  1.00  0.00     0.000 C 
BRANCH   2   3
ATOM      3  C   UNL     1      18.700  28.538  56.410  1.00  0.00     0.000 C 
BRANCH   3   4
ATOM      4  C   UNL     1      19.917  28.641  55.473  1.00  0.00     0.000 C 
BRANCH   4   5
ATOM      5  C   UNL     1      20.435  30.080  55.323  1.00  0.00     0.006 C 
BRANCH   5   6
ATOM      6  C   UNL     1      21.916  30.170  55.699  1.00  0.00     0.053 C 
BRANCH   6   7
ATOM      7  C   UNL     1      22.115  29.807  57.137  1.00  0.00     0.041 C 
ATOM      8  O   UNL     1      22.725  28.749  57.444  1.00  0.00    -0.550 OA
ATOM      9  O   UNL     1      21.585  30.610  58.138  1.00  0.00    -0.550 OA
ENDBRANCH   6   7
ENDBRANCH   5   6
ENDBRANCH   4   5
ENDBRANCH   3   4
ENDBRANCH   2   3
ENDBRANCH   1   2
BRANCH   1  10
ATOM     10  C   UNL     1      16.146  29.545  53.992  1.00  0.00     0.000 C 
BRANCH  10  11
ATOM     11  C   UNL     1      17.308  30.355  53.396  1.00  0.00    -0.000 C 
BRANCH  11  12
ATOM     12  C   UNL     1      17.952  29.668  52.181  1.00  0.00    -0.000 C 
BRANCH  12  13
ATOM     13  C   UNL     1      17.086  28.524  51.623  1.00  0.00    -0.000 C 
BRANCH  13  14
ATOM     14  C   UNL     1      17.911  27.270  51.288  1.00  0.00    -0.000 C 
BRANCH  14  15
ATOM     15  C   UNL     1      19.072  27.043  52.269  1.00  0.00    -0.003 C 
ATOM     16  C   UNL     1      18.802  25.841  53.168  1.00  0.00     0.004 C 
ENDBRANCH  14  15
ENDBRANCH  13  14
ENDBRANCH  12  13
ENDBRANCH  11  12
ENDBRANCH  10  11
ENDBRANCH   1  10
TORSDOF 12
ENDMDL
MODEL 6
REMARK VINA RESULT:    -2.846     11.017     12.558
REMARK INTER + INTRA:          -6.735
REMARK INTER:                  -4.932
REMARK INTRA:                  -1.804
REMARK UNBOUND:                -1.893
REMARK SMILES CCCCCCCCCCCCCC(=O)[O-]
REMARK SMILES IDX 8 1 9 2 10 3 11 4 12 5 13 6 14 7 15 8 16 9 7 10 6 11 5 12
REMARK SMILES IDX 4 13 3 14 2 15 1 16
REMARK H PARENT
REMARK Flexibility Score: inf
ROOT
ATOM      1  C   UNL     1      15.917  20.575  51.717  1.00  0.00     0.000 C 
ENDROOT
BRANCH   1   2
ATOM      2  C   UNL     1      16.480  20.854  50.312  1.00  0.00     0.000 C 
BRANCH   2   3
ATOM      3  C   UNL     1      16.233  19.739  49.276  1.00  0.00     0.000 C 
BRANCH   3   4
ATOM      4  C   UNL     1      17.430  19.423  48.361  1.00  0.00     0.000 C 
BRANCH   4   5
ATOM      5  C   UNL     1      17.381  17.999  47.785  1.00  0.00     0.006 C 
BRANCH   5   6
ATOM      6  C   UNL     1      17.098  18.027  46.280  1.00  0.00     0.053 C 
BRANCH   6   7
ATOM      7  C   UNL     1      15.626  17.969  46.023  1.00  0.00     0.041 C 
ATOM      8  O   UNL     1      14.952  19.031  45.954  1.00  0.00    -0.550 OA
ATOM      9  O   UNL     1      14.987  16.741  45.908  1.00  0.00    -0.550 OA
ENDBRANCH   6   7
ENDBRANCH   5   6
ENDBRANCH   4   5
ENDBRANCH   3   4
ENDBRANCH   2   3
ENDBRANCH   1   2
BRANCH   1  10
ATOM     10  C   UNL     1      15.268  19.189  51.837  1.00  0.00     0.000 C 
BRANCH  10  11
ATOM     11  C   UNL     1      15.641  18.523  53.171  1.00  0.00    -0.000 C 
BRANCH  11  12
ATOM     12  C   UNL     1      16.988  17.785  53.112  1.00  0.00    -0.000 C 
BRANCH  12  13
ATOM     13  C   UNL     1      17.238  17.122  51.746  1.00  0.00    -0.000 C 
BRANCH  13  14
ATOM     14  C   UNL     1      18.688  17.295  51.263  1.00  0.00    -0.000 C 
BRANCH  14  15
ATOM     15  C   UNL     1      19.236  18.707  51.524  1.00  0.00    -0.003 C 
ATOM     16  C   UNL     1      20.670  18.652  52.044  1.00  0.00     0.004 C 
ENDBRANCH  14  15
ENDBRANCH  13  14
ENDBRANCH  12  13
ENDBRANCH  11  12
ENDBRANCH  10  11
ENDBRANCH   1  10
TORSDOF 12
ENDMDL
MODEL 7
REMARK VINA RESULT:    -2.803     17.745     19.901
REMARK INTER + INTRA:          -6.663
REMARK INTER:                  -5.654
REMARK INTRA:                  -1.009
REMARK UNBOUND:                -1.893
REMARK SMILES CCCCCCCCCCCCCC(=O)[O-]
REMARK SMILES IDX 8 1 9 2 10 3 11 4 12 5 13 6 14 7 15 8 16 9 7 10 6 11 5 12
REMARK SMILES IDX 4 13 3 14 2 15 1 16
REMARK H PARENT
REMARK Flexibility Score: inf
ROOT
ATOM      1  C   UNL     1      25.809  21.515  42.050  1.00  0.00     0.000 C 
ENDROOT
BRANCH   1   2
ATOM      2  C   UNL     1      26.858  20.507  42.553  1.00  0.00     0.000 C 
BRANCH   2   3
ATOM      3  C   UNL     1      28.321  20.867  42.225  1.00  0.00     0.000 C 
BRANCH   3   4
ATOM      4  C   UNL     1      28.732  20.655  40.757  1.00  0.00     0.000 C 
BRANCH   4   5
ATOM      5  C   UNL     1      30.177  20.155  40.607  1.00  0.00     0.006 C 
BRANCH   5   6
ATOM      6  C   UNL     1      30.279  19.097  39.505  1.00  0.00     0.053 C 
BRANCH   6   7
ATOM      7  C   UNL     1      31.232  18.016  39.903  1.00  0.00     0.041 C 
ATOM      8  O   UNL     1      32.229  18.284  40.625  1.00  0.00    -0.550 OA
ATOM      9  O   UNL     1      31.050  16.720  39.436  1.00  0.00    -0.550 OA
ENDBRANCH   6   7
ENDBRANCH   5   6
ENDBRANCH   4   5
ENDBRANCH   3   4
ENDBRANCH   2   3
ENDBRANCH   1   2
BRANCH   1  10
ATOM     10  C   UNL     1      24.820  20.900  41.051  1.00  0.00     0.000 C 
BRANCH  10  11
ATOM     11  C   UNL     1      24.972  19.371  40.998  1.00  0.00    -0.000 C 
BRANCH  11  12
ATOM     12  C   UNL     1      23.812  18.682  40.262  1.00  0.00    -0.000 C 
BRANCH  12  13
ATOM     13  C   UNL     1      23.095  17.638  41.136  1.00  0.00    -0.000 C 
BRANCH  13  14
ATOM     14  C   UNL     1      22.591  18.228  42.464  1.00  0.00    -0.000 C 
BRANCH  14  15
ATOM     15  C   UNL     1      23.082  17.438  43.687  1.00  0.00    -0.003 C 
ATOM     16  C   UNL     1      24.144  18.220  44.455  1.00  0.00     0.004 C 
ENDBRANCH  14  15
ENDBRANCH  13  14
ENDBRANCH  12  13
ENDBRANCH  11  12
ENDBRANCH  10  11
ENDBRANCH   1  10
TORSDOF 12
ENDMDL
MODEL 8
REMARK VINA RESULT:    -2.800      7.531      9.843
REMARK INTER + INTRA:          -6.657
REMARK INTER:                  -4.604
REMARK INTRA:                  -2.053
REMARK UNBOUND:                -1.893
REMARK SMILES CCCCCCCCCCCCCC(=O)[O-]
REMARK SMILES IDX 8 1 9 2 10 3 11 4 12 5 13 6 14 7 15 8 16 9 7 10 6 11 5 12
REMARK SMILES IDX 4 13 3 14 2 15 1 16
REMARK H PARENT
REMARK Flexibility Score: inf
ROOT
ATOM      1  C   UNL     1      30.013  34.670  53.662  1.00  0.00     0.000 C 
ENDROOT
BRANCH   1   2
ATOM      2  C   UNL     1      29.704  33.705  52.503  1.00  0.00     0.000 C 
BRANCH   2   3
ATOM      3  C   UNL     1      28.214  33.597  52.122  1.00  0.00     0.000 C 
BRANCH   3   4
ATOM      4  C   UNL     1      27.231  34.150  53.169  1.00  0.00     0.000 C 
BRANCH   4   5
ATOM      5  C   UNL     1      25.762  33.893  52.802  1.00  0.00     0.006 C 
BRANCH   5   6
ATOM      6  C   UNL     1      25.625  32.640  51.933  1.00  0.00     0.053 C 
BRANCH   6   7
ATOM      7  C   UNL     1      25.178  31.475  52.759  1.00  0.00     0.041 C 
ATOM      8  O   UNL     1      25.072  30.334  52.238  1.00  0.00    -0.550 OA
ATOM      9  O   UNL     1      24.830  31.659  54.091  1.00  0.00    -0.550 OA
ENDBRANCH   6   7
ENDBRANCH   5   6
ENDBRANCH   4   5
ENDBRANCH   3   4
ENDBRANCH   2   3
ENDBRANCH   1   2
BRANCH   1  10
ATOM     10  C   UNL     1      30.777  33.999  54.812  1.00  0.00     0.000 C 
BRANCH  10  11
ATOM     11  C   UNL     1      31.205  32.574  54.427  1.00  0.00    -0.000 C 
BRANCH  11  12
ATOM     12  C   UNL     1      30.780  31.524  55.466  1.00  0.00    -0.000 C 
BRANCH  12  13
ATOM     13  C   UNL     1      29.366  31.778  56.017  1.00  0.00    -0.000 C 
BRANCH  13  14
ATOM     14  C   UNL     1      28.264  31.292  55.061  1.00  0.00    -0.000 C 
BRANCH  14  15
ATOM     15  C   UNL     1      28.593  29.936  54.417  1.00  0.00    -0.003 C 
ATOM     16  C   UNL     1      28.618  30.042  52.896  1.00  0.00     0.004 C 
ENDBRANCH  14  15
ENDBRANCH  13  14
ENDBRANCH  12  13
ENDBRANCH  11  12
ENDBRANCH  10  11
ENDBRANCH   1  10
TORSDOF 12
ENDMDL
MODEL 9
REMARK VINA RESULT:    -2.785      2.995      5.702
REMARK INTER + INTRA:          -6.632
REMARK INTER:                  -4.690
REMARK INTRA:                  -1.942
REMARK UNBOUND:                -1.893
REMARK SMILES CCCCCCCCCCCCCC(=O)[O-]
REMARK SMILES IDX 8 1 9 2 10 3 11 4 12 5 13 6 14 7 15 8 16 9 7 10 6 11 5 12
REMARK SMILES IDX 4 13 3 14 2 15 1 16
REMARK H PARENT
REMARK Flexibility Score: inf
ROOT
ATOM      1  C   UNL     1      19.019  26.268  53.563  1.00  0.00     0.000 C 
ENDROOT
BRANCH   1   2
ATOM      2  C   UNL     1      19.674  27.356  54.433  1.00  0.00     0.000 C 
BRANCH   2   3
ATOM      3  C   UNL     1      20.689  28.256  53.700  1.00  0.00     0.000 C 
BRANCH   3   4
ATOM      4  C   UNL     1      21.526  29.172  54.611  1.00  0.00     0.000 C 
BRANCH   4   5
ATOM      5  C   UNL     1      20.667  30.163  55.411  1.00  0.00     0.006 C 
BRANCH   5   6
ATOM      6  C   UNL     1      21.166  30.278  56.854  1.00  0.00     0.053 C 
BRANCH   6   7
ATOM      7  C   UNL     1      20.800  29.055  57.635  1.00  0.00     0.041 C 
ATOM      8  O   UNL     1      19.595  28.821  57.916  1.00  0.00    -0.550 OA
ATOM      9  O   UNL     1      21.793  28.200  58.096  1.00  0.00    -0.550 OA
ENDBRANCH   6   7
ENDBRANCH   5   6
ENDBRANCH   4   5
ENDBRANCH   3   4
ENDBRANCH   2   3
ENDBRANCH   1   2
BRANCH   1  10
ATOM     10  C   UNL     1      17.487  26.269  53.657  1.00  0.00     0.000 C 
BRANCH  10  11
ATOM     11  C   UNL     1      17.013  27.089  54.868  1.00  0.00    -0.000 C 
BRANCH  11  12
ATOM     12  C   UNL     1      15.645  27.752  54.638  1.00  0.00    -0.000 C 
BRANCH  12  13
ATOM     13  C   UNL     1      15.755  29.080  53.869  1.00  0.00    -0.000 C 
BRANCH  13  14
ATOM     14  C   UNL     1      16.967  29.918  54.310  1.00  0.00    -0.000 C 
BRANCH  14  15
ATOM     15  C   UNL     1      17.729  30.529  53.124  1.00  0.00    -0.003 C 
ATOM     16  C   UNL     1      17.731  29.583  51.927  1.00  0.00     0.004 C 
ENDBRANCH  14  15
ENDBRANCH  13  14
ENDBRANCH  12  13
ENDBRANCH  11  12
ENDBRANCH  10  11
ENDBRANCH   1  10
TORSDOF 12
ENDMDL
