MODEL 1
REMARK VINA RESULT:    -6.218      0.000      0.000
REMARK INTER + INTRA:         -12.604
REMARK INTER:                 -10.944
REMARK INTRA:                  -1.660
REMARK UNBOUND:                -1.660
REMARK SMILES CCCCCCC=CCCCCCCCC(=O)[O-]
REMARK SMILES IDX 10 1 11 2 12 3 13 4 14 5 15 6 16 7 17 8 18 9 9 10 8 11 7 12
REMARK SMILES IDX 6 13 5 14 4 15 3 16 2 17 1 18
REMARK H PARENT
REMARK Flexibility Score: inf
ROOT
ATOM      1  C   UNL     1      51.160  52.318   6.991  1.00  0.00     0.004 C 
ENDROOT
BRANCH   1   2
ATOM      2  C   UNL     1      51.661  50.862   6.877  1.00  0.00     0.000 C 
BRANCH   2   3
ATOM      3  C   UNL     1      53.148  50.688   7.241  1.00  0.00     0.000 C 
BRANCH   3   4
ATOM      4  C   UNL     1      53.911  52.001   7.489  1.00  0.00     0.000 C 
BRANCH   4   5
ATOM      5  C   UNL     1      55.014  52.253   6.448  1.00  0.00     0.006 C 
BRANCH   5   6
ATOM      6  C   UNL     1      54.483  52.162   5.011  1.00  0.00     0.053 C 
BRANCH   6   7
ATOM      7  C   UNL     1      55.231  51.139   4.211  1.00  0.00     0.041 C 
ATOM      8  O   UNL     1      54.669  50.063   3.874  1.00  0.00    -0.550 OA
ATOM      9  O   UNL     1      56.536  51.390   3.808  1.00  0.00    -0.550 OA
ENDBRANCH   6   7
ENDBRANCH   5   6
ENDBRANCH   4   5
ENDBRANCH   3   4
ENDBRANCH   2   3
ENDBRANCH   1   2
BRANCH   1  10
ATOM     10  C   UNL     1      51.053  53.006   5.621  1.00  0.00     0.027 C 
BRANCH  10  11
ATOM     11  C   UNL     1      50.015  52.342   4.760  1.00  0.00    -0.031 C 
ATOM     12  C   UNL     1      49.148  53.057   4.026  1.00  0.00    -0.031 C 
BRANCH  12  13
ATOM     13  C   UNL     1      48.122  52.392   3.150  1.00  0.00     0.027 C 
BRANCH  13  14
ATOM     14  C   UNL     1      47.733  51.012   3.705  1.00  0.00     0.004 C 
BRANCH  14  15
ATOM     15  C   UNL     1      47.862  49.895   2.656  1.00  0.00     0.000 C 
BRANCH  15  16
ATOM     16  C   UNL     1      49.327  49.568   2.317  1.00  0.00    -0.000 C 
BRANCH  16  17
ATOM     17  C   UNL     1      49.961  48.596   3.323  1.00  0.00    -0.003 C 
ATOM     18  C   UNL     1      51.359  49.027   3.766  1.00  0.00     0.004 C 
ENDBRANCH  16  17
ENDBRANCH  15  16
ENDBRANCH  14  15
ENDBRANCH  13  14
ENDBRANCH  12  13
ENDBRANCH  10  11
ENDBRANCH   1  10
TORSDOF 13
ENDMDL
MODEL 2
REMARK VINA RESULT:    -6.048      2.210      5.928
REMARK INTER + INTRA:         -12.304
REMARK INTER:                 -10.450
REMARK INTRA:                  -1.854
REMARK UNBOUND:                -1.660
REMARK SMILES CCCCCCC=CCCCCCCCC(=O)[O-]
REMARK SMILES IDX 10 1 11 2 12 3 13 4 14 5 15 6 16 7 17 8 18 9 9 10 8 11 7 12
REMARK SMILES IDX 6 13 5 14 4 15 3 16 2 17 1 18
REMARK H PARENT
REMARK Flexibility Score: inf
ROOT
ATOM      1  C   UNL     1      49.821  49.079   2.854  1.00  0.00     0.004 C 
ENDROOT
BRANCH   1   2
ATOM      2  C   UNL     1      48.389  49.250   3.405  1.00  0.00     0.000 C 
BRANCH   2   3
ATOM      3  C   UNL     1      48.138  50.619   4.066  1.00  0.00     0.000 C 
BRANCH   3   4
ATOM      4  C   UNL     1      48.921  51.789   3.447  1.00  0.00     0.000 C 
BRANCH   4   5
ATOM      5  C   UNL     1      49.381  52.817   4.493  1.00  0.00     0.006 C 
BRANCH   5   6
ATOM      6  C   UNL     1      50.760  52.474   5.072  1.00  0.00     0.053 C 
BRANCH   6   7
ATOM      7  C   UNL     1      50.665  52.042   6.504  1.00  0.00     0.041 C 
ATOM      8  O   UNL     1      50.289  50.875   6.791  1.00  0.00    -0.550 OA
ATOM      9  O   UNL     1      51.024  52.919   7.519  1.00  0.00    -0.550 OA
ENDBRANCH   6   7
ENDBRANCH   5   6
ENDBRANCH   4   5
ENDBRANCH   3   4
ENDBRANCH   2   3
ENDBRANCH   1   2
BRANCH   1  10
ATOM     10  C   UNL     1      50.848  48.835   3.970  1.00  0.00     0.027 C 
BRANCH  10  11
ATOM     11  C   UNL     1      52.099  49.637   3.742  1.00  0.00    -0.031 C 
ATOM     12  C   UNL     1      53.231  49.383   4.416  1.00  0.00    -0.031 C 
BRANCH  12  13
ATOM     13  C   UNL     1      54.487  50.173   4.174  1.00  0.00     0.027 C 
BRANCH  13  14
ATOM     14  C   UNL     1      54.268  51.664   4.478  1.00  0.00     0.004 C 
BRANCH  14  15
ATOM     15  C   UNL     1      55.140  52.166   5.641  1.00  0.00     0.000 C 
BRANCH  15  16
ATOM     16  C   UNL     1      54.306  52.611   6.855  1.00  0.00    -0.000 C 
BRANCH  16  17
ATOM     17  C   UNL     1      54.419  51.633   8.035  1.00  0.00    -0.003 C 
ATOM     18  C   UNL     1      53.688  50.314   7.786  1.00  0.00     0.004 C 
ENDBRANCH  16  17
ENDBRANCH  15  16
ENDBRANCH  14  15
ENDBRANCH  13  14
ENDBRANCH  12  13
ENDBRANCH  10  11
ENDBRANCH   1  10
TORSDOF 13
ENDMDL
MODEL 3
REMARK VINA RESULT:    -6.012      1.634      5.824
REMARK INTER + INTRA:         -12.240
REMARK INTER:                 -10.664
REMARK INTRA:                  -1.576
REMARK UNBOUND:                -1.660
REMARK SMILES CCCCCCC=CCCCCCCCC(=O)[O-]
REMARK SMILES IDX 10 1 11 2 12 3 13 4 14 5 15 6 16 7 17 8 18 9 9 10 8 11 7 12
REMARK SMILES IDX 6 13 5 14 4 15 3 16 2 17 1 18
REMARK H PARENT
REMARK Flexibility Score: inf
ROOT
ATOM      1  C   UNL     1      50.306  52.482   4.980  1.00  0.00     0.004 C 
ENDROOT
BRANCH   1   2
ATOM      2  C   UNL     1      49.160  52.880   4.025  1.00  0.00     0.000 C 
BRANCH   2   3
ATOM      3  C   UNL     1      47.921  51.971   4.131  1.00  0.00     0.000 C 
BRANCH   3   4
ATOM      4  C   UNL     1      47.678  51.066   2.911  1.00  0.00     0.000 C 
BRANCH   4   5
ATOM      5  C   UNL     1      48.212  49.639   3.114  1.00  0.00     0.006 C 
BRANCH   5   6
ATOM      6  C   UNL     1      49.601  49.449   2.491  1.00  0.00     0.053 C 
BRANCH   6   7
ATOM      7  C   UNL     1      50.486  48.610   3.362  1.00  0.00     0.041 C 
ATOM      8  O   UNL     1      50.131  47.449   3.697  1.00  0.00    -0.550 OA
ATOM      9  O   UNL     1      51.719  49.098   3.776  1.00  0.00    -0.550 OA
ENDBRANCH   6   7
ENDBRANCH   5   6
ENDBRANCH   4   5
ENDBRANCH   3   4
ENDBRANCH   2   3
ENDBRANCH   1   2
BRANCH   1  10
ATOM     10  C   UNL     1      49.889  51.377   5.962  1.00  0.00     0.027 C 
BRANCH  10  11
ATOM     11  C   UNL     1      51.089  50.742   6.608  1.00  0.00    -0.031 C 
ATOM     12  C   UNL     1      52.206  51.443   6.859  1.00  0.00    -0.031 C 
BRANCH  12  13
ATOM     13  C   UNL     1      53.399  50.813   7.522  1.00  0.00     0.027 C 
BRANCH  13  14
ATOM     14  C   UNL     1      54.703  51.490   7.071  1.00  0.00     0.004 C 
BRANCH  14  15
ATOM     15  C   UNL     1      54.459  52.649   6.090  1.00  0.00     0.000 C 
BRANCH  15  16
ATOM     16  C   UNL     1      54.968  52.341   4.671  1.00  0.00    -0.000 C 
BRANCH  16  17
ATOM     17  C   UNL     1      54.751  50.873   4.275  1.00  0.00    -0.003 C 
ATOM     18  C   UNL     1      55.967  50.259   3.580  1.00  0.00     0.004 C 
ENDBRANCH  16  17
ENDBRANCH  15  16
ENDBRANCH  14  15
ENDBRANCH  13  14
ENDBRANCH  12  13
ENDBRANCH  10  11
ENDBRANCH   1  10
TORSDOF 13
ENDMDL
MODEL 4
REMARK VINA RESULT:    -5.901      1.191      1.790
REMARK INTER + INTRA:         -12.045
REMARK INTER:                 -10.381
REMARK INTRA:                  -1.664
REMARK UNBOUND:                -1.660
REMARK SMILES CCCCCCC=CCCCCCCCC(=O)[O-]
REMARK SMILES IDX 10 1 11 2 12 3 13 4 14 5 15 6 16 7 17 8 18 9 9 10 8 11 7 12
REMARK SMILES IDX 6 13 5 14 4 15 3 16 2 17 1 18
REMARK H PARENT
REMARK Flexibility Score: inf
ROOT
ATOM      1  C   UNL     1      52.060  50.467   6.746  1.00  0.00     0.004 C 
ENDROOT
BRANCH   1   2
ATOM      2  C   UNL     1      53.459  50.712   7.351  1.00  0.00     0.000 C 
BRANCH   2   3
ATOM      3  C   UNL     1      53.783  52.200   7.582  1.00  0.00     0.000 C 
BRANCH   3   4
ATOM      4  C   UNL     1      54.752  52.817   6.559  1.00  0.00     0.000 C 
BRANCH   4   5
ATOM      5  C   UNL     1      54.329  52.553   5.105  1.00  0.00     0.006 C 
BRANCH   5   6
ATOM      6  C   UNL     1      55.477  51.976   4.266  1.00  0.00     0.053 C 
BRANCH   6   7
ATOM      7  C   UNL     1      55.217  50.550   3.884  1.00  0.00     0.041 C 
ATOM      8  O   UNL     1      54.062  50.062   4.005  1.00  0.00    -0.550 OA
ATOM      9  O   UNL     1      56.242  49.773   3.361  1.00  0.00    -0.550 OA
ENDBRANCH   6   7
ENDBRANCH   5   6
ENDBRANCH   4   5
ENDBRANCH   3   4
ENDBRANCH   2   3
ENDBRANCH   1   2
BRANCH   1  10
ATOM     10  C   UNL     1      51.121  51.666   6.945  1.00  0.00     0.027 C 
BRANCH  10  11
ATOM     11  C   UNL     1      49.797  51.437   6.270  1.00  0.00    -0.031 C 
ATOM     12  C   UNL     1      49.081  50.323   6.486  1.00  0.00    -0.031 C 
BRANCH  12  13
ATOM     13  C   UNL     1      47.748  50.103   5.826  1.00  0.00     0.027 C 
BRANCH  13  14
ATOM     14  C   UNL     1      47.518  51.118   4.695  1.00  0.00     0.004 C 
BRANCH  14  15
ATOM     15  C   UNL     1      47.657  50.491   3.298  1.00  0.00     0.000 C 
BRANCH  15  16
ATOM     16  C   UNL     1      49.102  50.535   2.771  1.00  0.00    -0.000 C 
BRANCH  16  17
ATOM     17  C   UNL     1      49.706  49.134   2.594  1.00  0.00    -0.003 C 
ATOM     18  C   UNL     1      50.740  48.792   3.666  1.00  0.00     0.004 C 
ENDBRANCH  16  17
ENDBRANCH  15  16
ENDBRANCH  14  15
ENDBRANCH  13  14
ENDBRANCH  12  13
ENDBRANCH  10  11
ENDBRANCH   1  10
TORSDOF 13
ENDMDL
MODEL 5
REMARK VINA RESULT:    -5.869      3.372      6.646
REMARK INTER + INTRA:         -11.989
REMARK INTER:                 -10.657
REMARK INTRA:                  -1.332
REMARK UNBOUND:                -1.660
REMARK SMILES CCCCCCC=CCCCCCCCC(=O)[O-]
REMARK SMILES IDX 10 1 11 2 12 3 13 4 14 5 15 6 16 7 17 8 18 9 9 10 8 11 7 12
REMARK SMILES IDX 6 13 5 14 4 15 3 16 2 17 1 18
REMARK H PARENT
REMARK Flexibility Score: inf
ROOT
ATOM      1  C   UNL     1      49.458  48.910   5.250  1.00  0.00     0.004 C 
ENDROOT
BRANCH   1   2
ATOM      2  C   UNL     1      50.563  49.111   4.191  1.00  0.00     0.000 C 
BRANCH   2   3
ATOM      3  C   UNL     1      50.029  49.211   2.749  1.00  0.00     0.000 C 
BRANCH   3   4
ATOM      4  C   UNL     1      48.510  49.426   2.636  1.00  0.00     0.000 C 
BRANCH   4   5
ATOM      5  C   UNL     1      47.849  48.481   1.619  1.00  0.00     0.006 C 
BRANCH   5   6
ATOM      6  C   UNL     1      47.211  47.261   2.295  1.00  0.00     0.053 C 
BRANCH   6   7
ATOM      7  C   UNL     1      47.773  45.978   1.762  1.00  0.00     0.041 C 
ATOM      8  O   UNL     1      48.684  45.376   2.389  1.00  0.00    -0.550 OA
ATOM      9  O   UNL     1      47.266  45.431   0.591  1.00  0.00    -0.550 OA
ENDBRANCH   6   7
ENDBRANCH   5   6
ENDBRANCH   4   5
ENDBRANCH   3   4
ENDBRANCH   2   3
ENDBRANCH   1   2
BRANCH   1  10
ATOM     10  C   UNL     1      49.221  50.173   6.092  1.00  0.00     0.027 C 
BRANCH  10  11
ATOM     11  C   UNL     1      50.289  51.201   5.840  1.00  0.00    -0.031 C 
ATOM     12  C   UNL     1      51.036  51.698   6.838  1.00  0.00    -0.031 C 
BRANCH  12  13
ATOM     13  C   UNL     1      52.117  52.712   6.583  1.00  0.00     0.027 C 
BRANCH  13  14
ATOM     14  C   UNL     1      52.884  52.388   5.292  1.00  0.00     0.004 C 
BRANCH  14  15
ATOM     15  C   UNL     1      53.924  51.273   5.485  1.00  0.00     0.000 C 
BRANCH  15  16
ATOM     16  C   UNL     1      53.999  50.317   4.281  1.00  0.00    -0.000 C 
BRANCH  16  17
ATOM     17  C   UNL     1      55.434  50.130   3.768  1.00  0.00    -0.003 C 
ATOM     18  C   UNL     1      56.264  51.412   3.841  1.00  0.00     0.004 C 
ENDBRANCH  16  17
ENDBRANCH  15  16
ENDBRANCH  14  15
ENDBRANCH  13  14
ENDBRANCH  12  13
ENDBRANCH  10  11
ENDBRANCH   1  10
TORSDOF 13
ENDMDL
MODEL 6
REMARK VINA RESULT:    -5.690      1.147      2.563
REMARK INTER + INTRA:         -11.675
REMARK INTER:                 -10.065
REMARK INTRA:                  -1.610
REMARK UNBOUND:                -1.660
REMARK SMILES CCCCCCC=CCCCCCCCC(=O)[O-]
REMARK SMILES IDX 10 1 11 2 12 3 13 4 14 5 15 6 16 7 17 8 18 9 9 10 8 11 7 12
REMARK SMILES IDX 6 13 5 14 4 15 3 16 2 17 1 18
REMARK H PARENT
REMARK Flexibility Score: inf
ROOT
ATOM      1  C   UNL     1      51.951  51.866   7.325  1.00  0.00     0.004 C 
ENDROOT
BRANCH   1   2
ATOM      2  C   UNL     1      53.197  50.958   7.236  1.00  0.00     0.000 C 
BRANCH   2   3
ATOM      3  C   UNL     1      54.528  51.733   7.209  1.00  0.00     0.000 C 
BRANCH   3   4
ATOM      4  C   UNL     1      54.553  52.941   6.257  1.00  0.00     0.000 C 
BRANCH   4   5
ATOM      5  C   UNL     1      54.497  52.533   4.776  1.00  0.00     0.006 C 
BRANCH   5   6
ATOM      6  C   UNL     1      55.777  51.817   4.326  1.00  0.00     0.053 C 
BRANCH   6   7
ATOM      7  C   UNL     1      55.494  50.417   3.873  1.00  0.00     0.041 C 
ATOM      8  O   UNL     1      56.354  49.781   3.206  1.00  0.00    -0.550 OA
ATOM      9  O   UNL     1      54.297  49.803   4.216  1.00  0.00    -0.550 OA
ENDBRANCH   6   7
ENDBRANCH   5   6
ENDBRANCH   4   5
ENDBRANCH   3   4
ENDBRANCH   2   3
ENDBRANCH   1   2
BRANCH   1  10
ATOM     10  C   UNL     1      51.098  51.809   6.048  1.00  0.00     0.027 C 
BRANCH  10  11
ATOM     11  C   UNL     1      50.970  50.399   5.543  1.00  0.00    -0.031 C 
ATOM     12  C   UNL     1      51.071  50.109   4.236  1.00  0.00    -0.031 C 
BRANCH  12  13
ATOM     13  C   UNL     1      50.962  48.696   3.732  1.00  0.00     0.027 C 
BRANCH  13  14
ATOM     14  C   UNL     1      49.591  48.445   3.086  1.00  0.00     0.004 C 
BRANCH  14  15
ATOM     15  C   UNL     1      49.071  49.665   2.308  1.00  0.00     0.000 C 
BRANCH  15  16
ATOM     16  C   UNL     1      47.542  49.814   2.395  1.00  0.00    -0.000 C 
BRANCH  16  17
ATOM     17  C   UNL     1      47.117  51.120   3.084  1.00  0.00    -0.003 C 
ATOM     18  C   UNL     1      47.417  51.125   4.584  1.00  0.00     0.004 C 
ENDBRANCH  16  17
ENDBRANCH  15  16
ENDBRANCH  14  15
ENDBRANCH  13  14
ENDBRANCH  12  13
ENDBRANCH  10  11
ENDBRANCH   1  10
TORSDOF 13
ENDMDL
MODEL 7
REMARK VINA RESULT:    -5.680      2.169      6.190
REMARK INTER + INTRA:         -11.656
REMARK INTER:                 -10.281
REMARK INTRA:                  -1.375
REMARK UNBOUND:                -1.660
REMARK SMILES CCCCCCC=CCCCCCCCC(=O)[O-]
REMARK SMILES IDX 10 1 11 2 12 3 13 4 14 5 15 6 16 7 17 8 18 9 9 10 8 11 7 12
REMARK SMILES IDX 6 13 5 14 4 15 3 16 2 17 1 18
REMARK H PARENT
REMARK Flexibility Score: inf
ROOT
ATOM      1  C   UNL     1      48.725  48.009   2.549  1.00  0.00     0.004 C 
ENDROOT
BRANCH   1   2
ATOM      2  C   UNL     1      48.554  49.499   2.184  1.00  0.00     0.000 C 
BRANCH   2   3
ATOM      3  C   UNL     1      47.258  50.128   2.732  1.00  0.00     0.000 C 
BRANCH   3   4
ATOM      4  C   UNL     1      47.399  51.583   3.211  1.00  0.00     0.000 C 
BRANCH   4   5
ATOM      5  C   UNL     1      48.826  52.131   3.038  1.00  0.00     0.006 C 
BRANCH   5   6
ATOM      6  C   UNL     1      49.223  53.074   4.181  1.00  0.00     0.053 C 
BRANCH   6   7
ATOM      7  C   UNL     1      49.935  52.342   5.278  1.00  0.00     0.041 C 
ATOM      8  O   UNL     1      50.978  52.826   5.791  1.00  0.00    -0.550 OA
ATOM      9  O   UNL     1      49.426  51.142   5.757  1.00  0.00    -0.550 OA
ENDBRANCH   6   7
ENDBRANCH   5   6
ENDBRANCH   4   5
ENDBRANCH   3   4
ENDBRANCH   2   3
ENDBRANCH   1   2
BRANCH   1  10
ATOM     10  C   UNL     1      49.923  47.772   3.482  1.00  0.00     0.027 C 
BRANCH  10  11
ATOM     11  C   UNL     1      50.744  49.021   3.638  1.00  0.00    -0.031 C 
ATOM     12  C   UNL     1      51.968  48.993   4.188  1.00  0.00    -0.031 C 
BRANCH  12  13
ATOM     13  C   UNL     1      52.798  50.240   4.327  1.00  0.00     0.027 C 
BRANCH  13  14
ATOM     14  C   UNL     1      53.370  50.367   5.748  1.00  0.00     0.004 C 
BRANCH  14  15
ATOM     15  C   UNL     1      54.501  51.405   5.840  1.00  0.00     0.000 C 
BRANCH  15  16
ATOM     16  C   UNL     1      54.936  51.931   4.461  1.00  0.00    -0.000 C 
BRANCH  16  17
ATOM     17  C   UNL     1      56.312  51.396   4.036  1.00  0.00    -0.003 C 
ATOM     18  C   UNL     1      56.243  49.998   3.421  1.00  0.00     0.004 C 
ENDBRANCH  16  17
ENDBRANCH  15  16
ENDBRANCH  14  15
ENDBRANCH  13  14
ENDBRANCH  12  13
ENDBRANCH  10  11
ENDBRANCH   1  10
TORSDOF 13
ENDMDL
MODEL 8
REMARK VINA RESULT:    -5.677      2.108      2.706
REMARK INTER + INTRA:         -11.651
REMARK INTER:                 -10.069
REMARK INTRA:                  -1.582
REMARK UNBOUND:                -1.660
REMARK SMILES CCCCCCC=CCCCCCCCC(=O)[O-]
REMARK SMILES IDX 10 1 11 2 12 3 13 4 14 5 15 6 16 7 17 8 18 9 9 10 8 11 7 12
REMARK SMILES IDX 6 13 5 14 4 15 3 16 2 17 1 18
REMARK H PARENT
REMARK Flexibility Score: inf
ROOT
ATOM      1  C   UNL     1      51.360  50.136   6.230  1.00  0.00     0.004 C 
ENDROOT
BRANCH   1   2
ATOM      2  C   UNL     1      51.878  50.644   4.867  1.00  0.00     0.000 C 
BRANCH   2   3
ATOM      3  C   UNL     1      52.980  49.758   4.253  1.00  0.00     0.000 C 
BRANCH   3   4
ATOM      4  C   UNL     1      54.385  50.385   4.249  1.00  0.00     0.000 C 
BRANCH   4   5
ATOM      5  C   UNL     1      54.387  51.843   4.737  1.00  0.00     0.006 C 
BRANCH   5   6
ATOM      6  C   UNL     1      55.163  52.010   6.050  1.00  0.00     0.053 C 
BRANCH   6   7
ATOM      7  C   UNL     1      54.242  52.087   7.230  1.00  0.00     0.041 C 
ATOM      8  O   UNL     1      53.325  52.950   7.263  1.00  0.00    -0.550 OA
ATOM      9  O   UNL     1      54.375  51.183   8.275  1.00  0.00    -0.550 OA
ENDBRANCH   6   7
ENDBRANCH   5   6
ENDBRANCH   4   5
ENDBRANCH   3   4
ENDBRANCH   2   3
ENDBRANCH   1   2
BRANCH   1  10
ATOM     10  C   UNL     1      50.235  51.019   6.791  1.00  0.00     0.027 C 
BRANCH  10  11
ATOM     11  C   UNL     1      48.901  50.625   6.223  1.00  0.00    -0.031 C 
ATOM     12  C   UNL     1      48.388  51.234   5.143  1.00  0.00    -0.031 C 
BRANCH  12  13
ATOM     13  C   UNL     1      47.061  50.826   4.563  1.00  0.00     0.027 C 
BRANCH  13  14
ATOM     14  C   UNL     1      46.875  49.302   4.632  1.00  0.00     0.004 C 
BRANCH  14  15
ATOM     15  C   UNL     1      47.179  48.608   3.294  1.00  0.00     0.000 C 
BRANCH  15  16
ATOM     16  C   UNL     1      47.999  49.495   2.340  1.00  0.00    -0.000 C 
BRANCH  16  17
ATOM     17  C   UNL     1      49.502  49.183   2.395  1.00  0.00    -0.003 C 
ATOM     18  C   UNL     1      49.835  48.022   3.332  1.00  0.00     0.004 C 
ENDBRANCH  16  17
ENDBRANCH  15  16
ENDBRANCH  14  15
ENDBRANCH  13  14
ENDBRANCH  12  13
ENDBRANCH  10  11
ENDBRANCH   1  10
TORSDOF 13
ENDMDL
MODEL 9
REMARK VINA RESULT:    -5.573      1.055      2.968
REMARK INTER + INTRA:         -11.469
REMARK INTER:                 -10.003
REMARK INTRA:                  -1.466
REMARK UNBOUND:                -1.660
REMARK SMILES CCCCCCC=CCCCCCCCC(=O)[O-]
REMARK SMILES IDX 10 1 11 2 12 3 13 4 14 5 15 6 16 7 17 8 18 9 9 10 8 11 7 12
REMARK SMILES IDX 6 13 5 14 4 15 3 16 2 17 1 18
REMARK H PARENT
REMARK Flexibility Score: inf
ROOT
ATOM      1  C   UNL     1      51.248  50.412   5.712  1.00  0.00     0.004 C 
ENDROOT
BRANCH   1   2
ATOM      2  C   UNL     1      50.959  51.918   5.524  1.00  0.00     0.000 C 
BRANCH   2   3
ATOM      3  C   UNL     1      52.229  52.786   5.435  1.00  0.00     0.000 C 
BRANCH   3   4
ATOM      4  C   UNL     1      53.220  52.603   6.596  1.00  0.00     0.000 C 
BRANCH   4   5
ATOM      5  C   UNL     1      54.651  52.308   6.116  1.00  0.00     0.006 C 
BRANCH   5   6
ATOM      6  C   UNL     1      54.746  52.255   4.586  1.00  0.00     0.053 C 
BRANCH   6   7
ATOM      7  C   UNL     1      55.678  51.173   4.129  1.00  0.00     0.041 C 
ATOM      8  O   UNL     1      56.923  51.315   4.253  1.00  0.00    -0.550 OA
ATOM      9  O   UNL     1      55.169  49.995   3.599  1.00  0.00    -0.550 OA
ENDBRANCH   6   7
ENDBRANCH   5   6
ENDBRANCH   4   5
ENDBRANCH   3   4
ENDBRANCH   2   3
ENDBRANCH   1   2
BRANCH   1  10
ATOM     10  C   UNL     1      51.887  49.783   4.464  1.00  0.00     0.027 C 
BRANCH  10  11
ATOM     11  C   UNL     1      50.838  49.304   3.500  1.00  0.00    -0.031 C 
ATOM     12  C   UNL     1      50.090  48.219   3.756  1.00  0.00    -0.031 C 
BRANCH  12  13
ATOM     13  C   UNL     1      49.028  47.751   2.799  1.00  0.00     0.027 C 
BRANCH  13  14
ATOM     14  C   UNL     1      48.254  48.941   2.209  1.00  0.00     0.004 C 
BRANCH  14  15
ATOM     15  C   UNL     1      47.388  49.661   3.256  1.00  0.00     0.000 C 
BRANCH  15  16
ATOM     16  C   UNL     1      46.968  51.072   2.807  1.00  0.00    -0.000 C 
BRANCH  16  17
ATOM     17  C   UNL     1      47.493  52.168   3.746  1.00  0.00    -0.003 C 
ATOM     18  C   UNL     1      48.666  52.948   3.151  1.00  0.00     0.004 C 
ENDBRANCH  16  17
ENDBRANCH  15  16
ENDBRANCH  14  15
ENDBRANCH  13  14
ENDBRANCH  12  13
ENDBRANCH  10  11
ENDBRANCH   1  10
TORSDOF 13
ENDMDL
