MODEL 1
REMARK VINA RESULT:    -4.999      0.000      0.000
REMARK INTER + INTRA:          -5.655
REMARK INTER:                  -5.437
REMARK INTRA:                  -0.217
REMARK UNBOUND:                -0.217
REMARK SMILES CC(C)(C)[C@@H]1C=C[C@@H](O)CC1
REMARK SMILES IDX 5 1 11 2 10 3 8 4 7 5 6 6 2 7 1 8 3 9 4 10 9 11
REMARK H PARENT 9 12
REMARK Flexibility Score: inf
ROOT
ATOM      1  C   UNL     1      -4.201  23.402  48.764  1.00  0.00     0.017 C 
ATOM      2  C   UNL     1      -3.411  22.282  49.494  1.00  0.00     0.011 C 
ATOM      3  C   UNL     1      -3.093  21.126  48.547  1.00  0.00     0.037 C 
ATOM      4  C   UNL     1      -4.396  20.494  48.036  1.00  0.00     0.137 C 
ATOM      5  C   UNL     1      -5.352  21.535  47.505  1.00  0.00     0.000 C 
ATOM      6  C   UNL     1      -5.312  22.823  47.891  1.00  0.00    -0.025 C 
ENDROOT
BRANCH   1   7
ATOM      7  C   UNL     1      -4.722  24.536  49.732  1.00  0.00    -0.032 C 
ATOM      8  C   UNL     1      -6.219  24.849  49.496  1.00  0.00     0.011 C 
ATOM      9  C   UNL     1      -4.535  24.124  51.211  1.00  0.00     0.011 C 
ATOM     10  C   UNL     1      -3.909  25.836  49.514  1.00  0.00     0.011 C 
ENDBRANCH   1   7
BRANCH   4  11
ATOM     11  O   UNL     1      -4.125  19.527  47.055  1.00  0.00    -0.389 OA
ATOM     12  H   UNL     1      -3.529  18.844  47.463  1.00  0.00     0.211 HD
ENDBRANCH   4  11
TORSDOF 2
ENDMDL
MODEL 2
REMARK VINA RESULT:    -4.961      2.544      4.308
REMARK INTER + INTRA:          -5.614
REMARK INTER:                  -5.394
REMARK INTRA:                  -0.220
REMARK UNBOUND:                -0.217
REMARK SMILES CC(C)(C)[C@@H]1C=C[C@@H](O)CC1
REMARK SMILES IDX 5 1 11 2 10 3 8 4 7 5 6 6 2 7 1 8 3 9 4 10 9 11
REMARK H PARENT 9 12
REMARK Flexibility Score: inf
ROOT
ATOM      1  C   UNL     1      -4.454  22.483  49.165  1.00  0.00     0.017 C 
ATOM      2  C   UNL     1      -3.745  23.338  50.251  1.00  0.00     0.011 C 
ATOM      3  C   UNL     1      -4.741  24.239  50.980  1.00  0.00     0.037 C 
ATOM      4  C   UNL     1      -5.384  25.219  49.988  1.00  0.00     0.137 C 
ATOM      5  C   UNL     1      -5.912  24.510  48.764  1.00  0.00     0.000 C 
ATOM      6  C   UNL     1      -5.441  23.320  48.354  1.00  0.00    -0.025 C 
ENDROOT
BRANCH   1   7
ATOM      7  C   UNL     1      -3.455  21.671  48.252  1.00  0.00    -0.032 C 
ATOM      8  C   UNL     1      -2.065  22.349  48.179  1.00  0.00     0.011 C 
ATOM      9  C   UNL     1      -3.270  20.231  48.786  1.00  0.00     0.011 C 
ATOM     10  C   UNL     1      -4.021  21.556  46.815  1.00  0.00     0.011 C 
ENDBRANCH   1   7
BRANCH   4  11
ATOM     11  O   UNL     1      -6.404  25.955  50.612  1.00  0.00    -0.389 OA
ATOM     12  H   UNL     1      -5.982  26.524  51.308  1.00  0.00     0.211 HD
ENDBRANCH   4  11
TORSDOF 2
ENDMDL
MODEL 3
REMARK VINA RESULT:    -4.941      2.662      4.020
REMARK INTER + INTRA:          -5.592
REMARK INTER:                  -5.374
REMARK INTRA:                  -0.218
REMARK UNBOUND:                -0.217
REMARK SMILES CC(C)(C)[C@@H]1C=C[C@@H](O)CC1
REMARK SMILES IDX 5 1 11 2 10 3 8 4 7 5 6 6 2 7 1 8 3 9 4 10 9 11
REMARK H PARENT 9 12
REMARK Flexibility Score: inf
ROOT
ATOM      1  C   UNL     1      -4.013  19.831  47.292  1.00  0.00     0.017 C 
ATOM      2  C   UNL     1      -2.868  19.491  46.299  1.00  0.00     0.011 C 
ATOM      3  C   UNL     1      -2.773  17.984  46.064  1.00  0.00     0.037 C 
ATOM      4  C   UNL     1      -2.448  17.269  47.383  1.00  0.00     0.137 C 
ATOM      5  C   UNL     1      -3.369  17.703  48.497  1.00  0.00     0.000 C 
ATOM      6  C   UNL     1      -4.010  18.886  48.491  1.00  0.00    -0.025 C 
ENDROOT
BRANCH   1   7
ATOM      7  C   UNL     1      -4.042  21.351  47.720  1.00  0.00    -0.032 C 
ATOM      8  C   UNL     1      -5.482  21.918  47.723  1.00  0.00     0.011 C 
ATOM      9  C   UNL     1      -3.441  21.534  49.134  1.00  0.00     0.011 C 
ATOM     10  C   UNL     1      -3.184  22.195  46.746  1.00  0.00     0.011 C 
ENDBRANCH   1   7
BRANCH   4  11
ATOM     11  O   UNL     1      -2.499  15.875  47.215  1.00  0.00    -0.389 OA
ATOM     12  H   UNL     1      -1.728  15.613  46.646  1.00  0.00     0.211 HD
ENDBRANCH   4  11
TORSDOF 2
ENDMDL
MODEL 4
REMARK VINA RESULT:    -4.921      2.536      4.285
REMARK INTER + INTRA:          -5.570
REMARK INTER:                  -5.351
REMARK INTRA:                  -0.219
REMARK UNBOUND:                -0.217
REMARK SMILES CC(C)(C)[C@@H]1C=C[C@@H](O)CC1
REMARK SMILES IDX 5 1 11 2 10 3 8 4 7 5 6 6 2 7 1 8 3 9 4 10 9 11
REMARK H PARENT 9 12
REMARK Flexibility Score: inf
ROOT
ATOM      1  C   UNL     1      -3.021  19.989  48.560  1.00  0.00     0.017 C 
ATOM      2  C   UNL     1      -3.970  18.769  48.407  1.00  0.00     0.011 C 
ATOM      3  C   UNL     1      -3.221  17.457  48.636  1.00  0.00     0.037 C 
ATOM      4  C   UNL     1      -2.112  17.296  47.587  1.00  0.00     0.137 C 
ATOM      5  C   UNL     1      -1.254  18.534  47.486  1.00  0.00     0.000 C 
ATOM      6  C   UNL     1      -1.690  19.752  47.851  1.00  0.00    -0.025 C 
ENDROOT
BRANCH   1   7
ATOM      7  C   UNL     1      -3.689  21.360  48.152  1.00  0.00    -0.032 C 
ATOM      8  C   UNL     1      -3.794  22.327  49.355  1.00  0.00     0.011 C 
ATOM      9  C   UNL     1      -2.876  22.055  47.034  1.00  0.00     0.011 C 
ATOM     10  C   UNL     1      -5.112  21.113  47.595  1.00  0.00     0.011 C 
ENDBRANCH   1   7
BRANCH   4  11
ATOM     11  O   UNL     1      -1.323  16.169  47.870  1.00  0.00    -0.389 OA
ATOM     12  H   UNL     1      -1.806  15.628  48.549  1.00  0.00     0.211 HD
ENDBRANCH   4  11
TORSDOF 2
ENDMDL
MODEL 5
REMARK VINA RESULT:    -4.915      4.269      5.946
REMARK INTER + INTRA:          -5.563
REMARK INTER:                  -5.348
REMARK INTRA:                  -0.216
REMARK UNBOUND:                -0.217
REMARK SMILES CC(C)(C)[C@@H]1C=C[C@@H](O)CC1
REMARK SMILES IDX 5 1 11 2 10 3 8 4 7 5 6 6 2 7 1 8 3 9 4 10 9 11
REMARK H PARENT 9 12
REMARK Flexibility Score: inf
ROOT
ATOM      1  C   UNL     1      -2.258  18.276  47.147  1.00  0.00     0.017 C 
ATOM      2  C   UNL     1      -1.477  16.934  47.183  1.00  0.00     0.011 C 
ATOM      3  C   UNL     1      -0.965  16.558  45.794  1.00  0.00     0.037 C 
ATOM      4  C   UNL     1      -2.148  16.362  44.835  1.00  0.00     0.137 C 
ATOM      5  C   UNL     1      -3.110  17.524  44.889  1.00  0.00     0.000 C 
ATOM      6  C   UNL     1      -3.212  18.334  45.957  1.00  0.00    -0.025 C 
ENDROOT
BRANCH   1   7
ATOM      7  C   UNL     1      -2.972  18.624  48.512  1.00  0.00    -0.032 C 
ATOM      8  C   UNL     1      -4.505  18.438  48.422  1.00  0.00     0.011 C 
ATOM      9  C   UNL     1      -2.436  17.730  49.656  1.00  0.00     0.011 C 
ATOM     10  C   UNL     1      -2.679  20.093  48.906  1.00  0.00     0.011 C 
ENDBRANCH   1   7
BRANCH   4  11
ATOM     11  O   UNL     1      -1.692  16.158  43.522  1.00  0.00    -0.389 OA
ATOM     12  H   UNL     1      -0.700  16.111  43.553  1.00  0.00     0.211 HD
ENDBRANCH   4  11
TORSDOF 2
ENDMDL
MODEL 6
REMARK VINA RESULT:    -4.898      2.556      4.134
REMARK INTER + INTRA:          -5.545
REMARK INTER:                  -5.329
REMARK INTRA:                  -0.217
REMARK UNBOUND:                -0.217
REMARK SMILES CC(C)(C)[C@@H]1C=C[C@@H](O)CC1
REMARK SMILES IDX 5 1 11 2 10 3 8 4 7 5 6 6 2 7 1 8 3 9 4 10 9 11
REMARK H PARENT 9 12
REMARK Flexibility Score: inf
ROOT
ATOM      1  C   UNL     1      -3.053  19.954  48.463  1.00  0.00     0.017 C 
ATOM      2  C   UNL     1      -3.994  18.725  48.336  1.00  0.00     0.011 C 
ATOM      3  C   UNL     1      -3.230  17.421  48.562  1.00  0.00     0.037 C 
ATOM      4  C   UNL     1      -2.139  17.262  47.494  1.00  0.00     0.137 C 
ATOM      5  C   UNL     1      -1.294  18.506  47.367  1.00  0.00     0.000 C 
ATOM      6  C   UNL     1      -1.734  19.724  47.731  1.00  0.00    -0.025 C 
ENDROOT
BRANCH   1   7
ATOM      7  C   UNL     1      -3.741  21.316  48.056  1.00  0.00    -0.032 C 
ATOM      8  C   UNL     1      -5.169  21.096  47.504  1.00  0.00     0.011 C 
ATOM      9  C   UNL     1      -3.827  22.271  49.270  1.00  0.00     0.011 C 
ATOM     10  C   UNL     1      -2.900  22.033  46.971  1.00  0.00     0.011 C 
ENDBRANCH   1   7
BRANCH   4  11
ATOM     11  O   UNL     1      -1.335  16.145  47.771  1.00  0.00    -0.389 OA
ATOM     12  H   UNL     1      -1.117  15.709  46.905  1.00  0.00     0.211 HD
ENDBRANCH   4  11
TORSDOF 2
ENDMDL
MODEL 7
REMARK VINA RESULT:    -4.866      3.244      5.798
REMARK INTER + INTRA:          -5.510
REMARK INTER:                  -5.295
REMARK INTRA:                  -0.216
REMARK UNBOUND:                -0.217
REMARK SMILES CC(C)(C)[C@@H]1C=C[C@@H](O)CC1
REMARK SMILES IDX 5 1 11 2 10 3 8 4 7 5 6 6 2 7 1 8 3 9 4 10 9 11
REMARK H PARENT 9 12
REMARK Flexibility Score: inf
ROOT
ATOM      1  C   UNL     1      -3.445  18.806  47.056  1.00  0.00     0.017 C 
ATOM      2  C   UNL     1      -3.939  19.666  48.251  1.00  0.00     0.011 C 
ATOM      3  C   UNL     1      -4.727  20.881  47.765  1.00  0.00     0.037 C 
ATOM      4  C   UNL     1      -3.826  21.781  46.908  1.00  0.00     0.137 C 
ATOM      5  C   UNL     1      -3.105  20.996  45.839  1.00  0.00     0.000 C 
ATOM      6  C   UNL     1      -2.868  19.676  45.943  1.00  0.00    -0.025 C 
ENDROOT
BRANCH   1   7
ATOM      7  C   UNL     1      -2.468  17.641  47.481  1.00  0.00    -0.032 C 
ATOM      8  C   UNL     1      -1.031  18.159  47.728  1.00  0.00     0.011 C 
ATOM      9  C   UNL     1      -2.968  16.948  48.771  1.00  0.00     0.011 C 
ATOM     10  C   UNL     1      -2.416  16.559  46.374  1.00  0.00     0.011 C 
ENDBRANCH   1   7
BRANCH   4  11
ATOM     11  O   UNL     1      -4.571  22.825  46.335  1.00  0.00    -0.389 OA
ATOM     12  H   UNL     1      -4.039  23.660  46.427  1.00  0.00     0.211 HD
ENDBRANCH   4  11
TORSDOF 2
ENDMDL
MODEL 8
REMARK VINA RESULT:    -4.834      0.816      2.155
REMARK INTER + INTRA:          -5.476
REMARK INTER:                  -5.257
REMARK INTRA:                  -0.219
REMARK UNBOUND:                -0.217
REMARK SMILES CC(C)(C)[C@@H]1C=C[C@@H](O)CC1
REMARK SMILES IDX 5 1 11 2 10 3 8 4 7 5 6 6 2 7 1 8 3 9 4 10 9 11
REMARK H PARENT 9 12
REMARK Flexibility Score: inf
ROOT
ATOM      1  C   UNL     1      -4.394  22.773  49.386  1.00  0.00     0.017 C 
ATOM      2  C   UNL     1      -5.323  22.748  48.141  1.00  0.00     0.011 C 
ATOM      3  C   UNL     1      -5.223  21.411  47.407  1.00  0.00     0.037 C 
ATOM      4  C   UNL     1      -3.790  21.198  46.901  1.00  0.00     0.137 C 
ATOM      5  C   UNL     1      -2.771  21.426  47.992  1.00  0.00     0.000 C 
ATOM      6  C   UNL     1      -3.018  22.195  49.067  1.00  0.00    -0.025 C 
ENDROOT
BRANCH   1   7
ATOM      7  C   UNL     1      -4.310  24.189  50.079  1.00  0.00    -0.032 C 
ATOM      8  C   UNL     1      -3.787  24.088  51.531  1.00  0.00     0.011 C 
ATOM      9  C   UNL     1      -3.375  25.133  49.286  1.00  0.00     0.011 C 
ATOM     10  C   UNL     1      -5.709  24.852  50.106  1.00  0.00     0.011 C 
ENDBRANCH   1   7
BRANCH   4  11
ATOM     11  O   UNL     1      -3.646  19.913  46.352  1.00  0.00    -0.389 OA
ATOM     12  H   UNL     1      -4.553  19.516  46.274  1.00  0.00     0.211 HD
ENDBRANCH   4  11
TORSDOF 2
ENDMDL
MODEL 9
REMARK VINA RESULT:    -4.761      2.191      4.695
REMARK INTER + INTRA:          -5.396
REMARK INTER:                  -5.181
REMARK INTRA:                  -0.215
REMARK UNBOUND:                -0.217
REMARK SMILES CC(C)(C)[C@@H]1C=C[C@@H](O)CC1
REMARK SMILES IDX 5 1 11 2 10 3 8 4 7 5 6 6 2 7 1 8 3 9 4 10 9 11
REMARK H PARENT 9 12
REMARK Flexibility Score: inf
ROOT
ATOM      1  C   UNL     1      -3.950  20.518  48.349  1.00  0.00     0.017 C 
ATOM      2  C   UNL     1      -3.019  21.593  48.973  1.00  0.00     0.011 C 
ATOM      3  C   UNL     1      -3.830  22.705  49.638  1.00  0.00     0.037 C 
ATOM      4  C   UNL     1      -4.698  23.417  48.591  1.00  0.00     0.137 C 
ATOM      5  C   UNL     1      -5.487  22.437  47.757  1.00  0.00     0.000 C 
ATOM      6  C   UNL     1      -5.109  21.158  47.587  1.00  0.00    -0.025 C 
ENDROOT
BRANCH   1   7
ATOM      7  C   UNL     1      -3.179  19.443  47.487  1.00  0.00    -0.032 C 
ATOM      8  C   UNL     1      -3.063  19.872  46.005  1.00  0.00     0.011 C 
ATOM      9  C   UNL     1      -1.754  19.212  48.044  1.00  0.00     0.011 C 
ATOM     10  C   UNL     1      -3.918  18.084  47.547  1.00  0.00     0.011 C 
ENDBRANCH   1   7
BRANCH   4  11
ATOM     11  O   UNL     1      -5.556  24.343  49.207  1.00  0.00    -0.389 OA
ATOM     12  H   UNL     1      -5.433  25.217  48.750  1.00  0.00     0.211 HD
ENDBRANCH   4  11
TORSDOF 2
ENDMDL
