MODEL 1
REMARK VINA RESULT:    -6.142      0.000      0.000
REMARK INTER + INTRA:          -6.681
REMARK INTER:                  -6.681
REMARK INTRA:                   0.000
REMARK UNBOUND:                 0.000
REMARK SMILES Cc1cc(O)c2c(c1)C(=O)c1cc(O)cc(O)c1C2=O
REMARK SMILES IDX 1 1 2 2 8 3 7 4 6 5 4 6 3 7 19 8 20 9 18 10 11 11 9 12 10 13
REMARK SMILES IDX 12 14 13 15 15 16 16 17 5 18 17 20 14 22
REMARK H PARENT 5 19 17 21 14 23
REMARK Flexibility Score: inf
ROOT
ATOM      1  C   UNL     1      -4.936   0.634  17.928  1.00  0.00     0.044 C 
ATOM      2  C   UNL     1      -4.319   0.104  19.190  1.00  0.00    -0.047 A 
ATOM      3  C   UNL     1      -2.931  -0.046  19.286  1.00  0.00     0.016 A 
ATOM      4  C   UNL     1      -2.340  -0.510  20.474  1.00  0.00     0.038 A 
ATOM      5  C   UNL     1      -3.150  -0.808  21.590  1.00  0.00     0.076 A 
ATOM      6  C   UNL     1      -4.551  -0.644  21.493  1.00  0.00     0.127 A 
ATOM      7  C   UNL     1      -5.121  -0.183  20.300  1.00  0.00     0.050 A 
ATOM      8  C   UNL     1      -2.506  -1.260  22.852  1.00  0.00     0.201 C 
ATOM      9  O   UNL     1      -3.144  -1.184  23.936  1.00  0.00    -0.288 OA
ATOM     10  C   UNL     1      -1.080  -1.689  22.852  1.00  0.00     0.076 A 
ATOM     11  C   UNL     1      -0.267  -1.324  21.752  1.00  0.00     0.041 A 
ATOM     12  C   UNL     1      -0.873  -0.680  20.562  1.00  0.00     0.194 C 
ATOM     13  O   UNL     1      -0.136  -0.292  19.613  1.00  0.00    -0.289 OA
ATOM     14  C   UNL     1       1.114  -1.583  21.785  1.00  0.00     0.059 A 
ATOM     15  C   UNL     1       1.692  -2.211  22.886  1.00  0.00     0.120 A 
ATOM     16  C   UNL     1       0.891  -2.616  23.954  1.00  0.00     0.093 A 
ATOM     17  C   UNL     1      -0.490  -2.396  23.936  1.00  0.00     0.131 A 
ENDROOT
BRANCH   6  18
ATOM     18  O   UNL     1      -5.380  -0.943  22.575  1.00  0.00    -0.507 OA
ATOM     19  H   UNL     1      -5.093  -0.770  23.531  1.00  0.00     0.293 HD
ENDBRANCH   6  18
BRANCH  17  20
ATOM     20  O   UNL     1      -1.234  -2.928  24.993  1.00  0.00    -0.507 OA
ATOM     21  H   UNL     1      -1.335  -3.918  25.165  1.00  0.00     0.293 HD
ENDBRANCH  17  20
BRANCH  15  22
ATOM     22  O   UNL     1       3.066  -2.441  22.902  1.00  0.00    -0.508 OA
ATOM     23  H   UNL     1       3.503  -3.091  22.259  1.00  0.00     0.293 HD
ENDBRANCH  15  22
TORSDOF 3
ENDMDL
MODEL 2
REMARK VINA RESULT:    -5.973      3.901      6.670
REMARK INTER + INTRA:          -6.497
REMARK INTER:                  -6.497
REMARK INTRA:                   0.000
REMARK UNBOUND:                 0.000
REMARK SMILES Cc1cc(O)c2c(c1)C(=O)c1cc(O)cc(O)c1C2=O
REMARK SMILES IDX 1 1 2 2 8 3 7 4 6 5 4 6 3 7 19 8 20 9 18 10 11 11 9 12 10 13
REMARK SMILES IDX 12 14 13 15 15 16 16 17 5 18 17 20 14 22
REMARK H PARENT 5 19 17 21 14 23
REMARK Flexibility Score: inf
ROOT
ATOM      1  C   UNL     1       3.115  -3.875  27.388  1.00  0.00     0.044 C 
ATOM      2  C   UNL     1       2.535  -3.477  26.061  1.00  0.00    -0.047 A 
ATOM      3  C   UNL     1       2.777  -4.257  24.924  1.00  0.00     0.016 A 
ATOM      4  C   UNL     1       2.212  -3.913  23.684  1.00  0.00     0.038 A 
ATOM      5  C   UNL     1       1.375  -2.781  23.585  1.00  0.00     0.076 A 
ATOM      6  C   UNL     1       1.124  -2.002  24.739  1.00  0.00     0.127 A 
ATOM      7  C   UNL     1       1.698  -2.360  25.964  1.00  0.00     0.050 A 
ATOM      8  C   UNL     1       0.754  -2.452  22.275  1.00  0.00     0.201 C 
ATOM      9  O   UNL     1      -0.251  -1.693  22.238  1.00  0.00    -0.288 OA
ATOM     10  C   UNL     1       1.242  -3.107  21.030  1.00  0.00     0.076 A 
ATOM     11  C   UNL     1       2.027  -4.279  21.150  1.00  0.00     0.041 A 
ATOM     12  C   UNL     1       2.484  -4.734  22.484  1.00  0.00     0.194 C 
ATOM     13  O   UNL     1       3.125  -5.817  22.595  1.00  0.00    -0.289 OA
ATOM     14  C   UNL     1       2.382  -5.005  20.000  1.00  0.00     0.059 A 
ATOM     15  C   UNL     1       1.981  -4.575  18.737  1.00  0.00     0.120 A 
ATOM     16  C   UNL     1       1.248  -3.395  18.606  1.00  0.00     0.093 A 
ATOM     17  C   UNL     1       0.904  -2.638  19.731  1.00  0.00     0.131 A 
ENDROOT
BRANCH   6  18
ATOM     18  O   UNL     1       0.312  -0.870  24.670  1.00  0.00    -0.507 OA
ATOM     19  H   UNL     1       0.692   0.050  24.480  1.00  0.00     0.293 HD
ENDBRANCH   6  18
BRANCH  17  20
ATOM     20  O   UNL     1       0.263  -1.416  19.506  1.00  0.00    -0.507 OA
ATOM     21  H   UNL     1      -0.086  -1.124  18.604  1.00  0.00     0.293 HD
ENDBRANCH  17  20
BRANCH  15  22
ATOM     22  O   UNL     1       2.331  -5.321  17.613  1.00  0.00    -0.508 OA
ATOM     23  H   UNL     1       1.795  -6.131  17.326  1.00  0.00     0.293 HD
ENDBRANCH  15  22
TORSDOF 3
ENDMDL
MODEL 3
REMARK VINA RESULT:    -5.906      3.429      5.919
REMARK INTER + INTRA:          -6.424
REMARK INTER:                  -6.424
REMARK INTRA:                   0.000
REMARK UNBOUND:                 0.000
REMARK SMILES Cc1cc(O)c2c(c1)C(=O)c1cc(O)cc(O)c1C2=O
REMARK SMILES IDX 1 1 2 2 8 3 7 4 6 5 4 6 3 7 19 8 20 9 18 10 11 11 9 12 10 13
REMARK SMILES IDX 12 14 13 15 15 16 16 17 5 18 17 20 14 22
REMARK H PARENT 5 19 17 21 14 23
REMARK Flexibility Score: inf
ROOT
ATOM      1  C   UNL     1      -1.037  -0.823  26.094  1.00  0.00     0.044 C 
ATOM      2  C   UNL     1      -0.273  -1.628  25.083  1.00  0.00    -0.047 A 
ATOM      3  C   UNL     1      -0.430  -1.374  23.716  1.00  0.00     0.016 A 
ATOM      4  C   UNL     1       0.306  -2.098  22.762  1.00  0.00     0.038 A 
ATOM      5  C   UNL     1       1.228  -3.079  23.185  1.00  0.00     0.076 A 
ATOM      6  C   UNL     1       1.392  -3.324  24.568  1.00  0.00     0.127 A 
ATOM      7  C   UNL     1       0.649  -2.593  25.503  1.00  0.00     0.050 A 
ATOM      8  C   UNL     1       2.027  -3.809  22.165  1.00  0.00     0.201 C 
ATOM      9  O   UNL     1       3.081  -4.404  22.513  1.00  0.00    -0.288 OA
ATOM     10  C   UNL     1       1.648  -3.739  20.727  1.00  0.00     0.076 A 
ATOM     11  C   UNL     1       0.771  -2.708  20.312  1.00  0.00     0.041 A 
ATOM     12  C   UNL     1       0.122  -1.834  21.318  1.00  0.00     0.194 C 
ATOM     13  O   UNL     1      -0.604  -0.872  20.942  1.00  0.00    -0.289 OA
ATOM     14  C   UNL     1       0.507  -2.521  18.944  1.00  0.00     0.059 A 
ATOM     15  C   UNL     1       1.089  -3.352  17.989  1.00  0.00     0.120 A 
ATOM     16  C   UNL     1       1.917  -4.400  18.393  1.00  0.00     0.093 A 
ATOM     17  C   UNL     1       2.175  -4.626  19.749  1.00  0.00     0.131 A 
ENDROOT
BRANCH   6  18
ATOM     18  O   UNL     1       2.288  -4.296  25.017  1.00  0.00    -0.507 OA
ATOM     19  H   UNL     1       3.287  -4.207  24.877  1.00  0.00     0.293 HD
ENDBRANCH   6  18
BRANCH  17  20
ATOM     20  O   UNL     1       2.926  -5.759  20.075  1.00  0.00    -0.507 OA
ATOM     21  H   UNL     1       3.844  -5.950  19.701  1.00  0.00     0.293 HD
ENDBRANCH  17  20
BRANCH  15  22
ATOM     22  O   UNL     1       0.826  -3.137  16.638  1.00  0.00    -0.508 OA
ATOM     23  H   UNL     1       1.041  -3.836  15.937  1.00  0.00     0.293 HD
ENDBRANCH  15  22
TORSDOF 3
ENDMDL
MODEL 4
REMARK VINA RESULT:    -5.674      3.870      5.532
REMARK INTER + INTRA:          -6.171
REMARK INTER:                  -6.171
REMARK INTRA:                   0.000
REMARK UNBOUND:                 0.000
REMARK SMILES Cc1cc(O)c2c(c1)C(=O)c1cc(O)cc(O)c1C2=O
REMARK SMILES IDX 1 1 2 2 8 3 7 4 6 5 4 6 3 7 19 8 20 9 18 10 11 11 9 12 10 13
REMARK SMILES IDX 12 14 13 15 15 16 16 17 5 18 17 20 14 22
REMARK H PARENT 5 19 17 21 14 23
REMARK Flexibility Score: inf
ROOT
ATOM      1  C   UNL     1      -3.023  -0.411  26.931  1.00  0.00     0.044 C 
ATOM      2  C   UNL     1      -1.947  -1.331  26.430  1.00  0.00    -0.047 A 
ATOM      3  C   UNL     1      -1.560  -1.295  25.086  1.00  0.00     0.016 A 
ATOM      4  C   UNL     1      -0.530  -2.128  24.613  1.00  0.00     0.038 A 
ATOM      5  C   UNL     1       0.135  -2.995  25.505  1.00  0.00     0.076 A 
ATOM      6  C   UNL     1      -0.252  -3.019  26.866  1.00  0.00     0.127 A 
ATOM      7  C   UNL     1      -1.280  -2.183  27.316  1.00  0.00     0.050 A 
ATOM      8  C   UNL     1       1.248  -3.841  24.998  1.00  0.00     0.201 C 
ATOM      9  O   UNL     1       2.073  -4.334  25.812  1.00  0.00    -0.288 OA
ATOM     10  C   UNL     1       1.453  -4.007  23.532  1.00  0.00     0.076 A 
ATOM     11  C   UNL     1       0.828  -3.087  22.657  1.00  0.00     0.041 A 
ATOM     12  C   UNL     1      -0.137  -2.095  23.187  1.00  0.00     0.194 C 
ATOM     13  O   UNL     1      -0.641  -1.231  22.415  1.00  0.00    -0.289 OA
ATOM     14  C   UNL     1       1.116  -3.123  21.282  1.00  0.00     0.059 A 
ATOM     15  C   UNL     1       2.001  -4.067  20.766  1.00  0.00     0.120 A 
ATOM     16  C   UNL     1       2.585  -5.007  21.615  1.00  0.00     0.093 A 
ATOM     17  C   UNL     1       2.296  -5.012  22.984  1.00  0.00     0.131 A 
ENDROOT
BRANCH   6  18
ATOM     18  O   UNL     1       0.379  -3.875  27.770  1.00  0.00    -0.507 OA
ATOM     19  H   UNL     1      -0.144  -4.408  28.454  1.00  0.00     0.293 HD
ENDBRANCH   6  18
BRANCH  17  20
ATOM     20  O   UNL     1       2.837  -6.052  23.746  1.00  0.00    -0.507 OA
ATOM     21  H   UNL     1       2.281  -6.760  24.202  1.00  0.00     0.293 HD
ENDBRANCH  17  20
BRANCH  15  22
ATOM     22  O   UNL     1       2.283  -4.071  19.401  1.00  0.00    -0.508 OA
ATOM     23  H   UNL     1       2.609  -3.239  18.924  1.00  0.00     0.293 HD
ENDBRANCH  15  22
TORSDOF 3
ENDMDL
MODEL 5
REMARK VINA RESULT:    -5.673      1.832      5.883
REMARK INTER + INTRA:          -6.171
REMARK INTER:                  -6.171
REMARK INTRA:                   0.000
REMARK UNBOUND:                 0.000
REMARK SMILES Cc1cc(O)c2c(c1)C(=O)c1cc(O)cc(O)c1C2=O
REMARK SMILES IDX 1 1 2 2 8 3 7 4 6 5 4 6 3 7 19 8 20 9 18 10 11 11 9 12 10 13
REMARK SMILES IDX 12 14 13 15 15 16 16 17 5 18 17 20 14 22
REMARK H PARENT 5 19 17 21 14 23
REMARK Flexibility Score: inf
ROOT
ATOM      1  C   UNL     1       0.920  -2.059  23.007  1.00  0.00     0.044 C 
ATOM      2  C   UNL     1      -0.496  -1.629  22.756  1.00  0.00    -0.047 A 
ATOM      3  C   UNL     1      -0.902  -1.258  21.469  1.00  0.00     0.016 A 
ATOM      4  C   UNL     1      -2.234  -0.887  21.215  1.00  0.00     0.038 A 
ATOM      5  C   UNL     1      -3.179  -0.908  22.262  1.00  0.00     0.076 A 
ATOM      6  C   UNL     1      -2.768  -1.296  23.559  1.00  0.00     0.127 A 
ATOM      7  C   UNL     1      -1.436  -1.660  23.792  1.00  0.00     0.050 A 
ATOM      8  C   UNL     1      -4.592  -0.551  21.969  1.00  0.00     0.201 C 
ATOM      9  O   UNL     1      -5.499  -0.903  22.769  1.00  0.00    -0.288 OA
ATOM     10  C   UNL     1      -4.945   0.113  20.683  1.00  0.00     0.076 A 
ATOM     11  C   UNL     1      -4.008   0.068  19.624  1.00  0.00     0.041 A 
ATOM     12  C   UNL     1      -2.650  -0.480  19.855  1.00  0.00     0.194 C 
ATOM     13  O   UNL     1      -1.840  -0.584  18.891  1.00  0.00    -0.289 OA
ATOM     14  C   UNL     1      -4.363   0.554  18.354  1.00  0.00     0.059 A 
ATOM     15  C   UNL     1      -5.626   1.096  18.129  1.00  0.00     0.120 A 
ATOM     16  C   UNL     1      -6.539   1.188  19.180  1.00  0.00     0.093 A 
ATOM     17  C   UNL     1      -6.203   0.737  20.461  1.00  0.00     0.131 A 
ENDROOT
BRANCH   6  18
ATOM     18  O   UNL     1      -3.676  -1.316  24.617  1.00  0.00    -0.507 OA
ATOM     19  H   UNL     1      -4.612  -0.939  24.525  1.00  0.00     0.293 HD
ENDBRANCH   6  18
BRANCH  17  20
ATOM     20  O   UNL     1      -7.132   0.963  21.480  1.00  0.00    -0.507 OA
ATOM     21  H   UNL     1      -7.374   0.276  22.180  1.00  0.00     0.293 HD
ENDBRANCH  17  20
BRANCH  15  22
ATOM     22  O   UNL     1      -5.960   1.556  16.857  1.00  0.00    -0.508 OA
ATOM     23  H   UNL     1      -5.456   2.318  16.418  1.00  0.00     0.293 HD
ENDBRANCH  15  22
TORSDOF 3
ENDMDL
MODEL 6
REMARK VINA RESULT:    -5.634      2.479      6.330
REMARK INTER + INTRA:          -6.128
REMARK INTER:                  -6.128
REMARK INTRA:                   0.000
REMARK UNBOUND:                 0.000
REMARK SMILES Cc1cc(O)c2c(c1)C(=O)c1cc(O)cc(O)c1C2=O
REMARK SMILES IDX 1 1 2 2 8 3 7 4 6 5 4 6 3 7 19 8 20 9 18 10 11 11 9 12 10 13
REMARK SMILES IDX 12 14 13 15 15 16 16 17 5 18 17 20 14 22
REMARK H PARENT 5 19 17 21 14 23
REMARK Flexibility Score: inf
ROOT
ATOM      1  C   UNL     1       3.124  -5.772  23.639  1.00  0.00     0.044 C 
ATOM      2  C   UNL     1       2.082  -4.748  23.292  1.00  0.00    -0.047 A 
ATOM      3  C   UNL     1       1.113  -4.384  24.233  1.00  0.00     0.016 A 
ATOM      4  C   UNL     1       0.153  -3.402  23.931  1.00  0.00     0.038 A 
ATOM      5  C   UNL     1       0.177  -2.761  22.675  1.00  0.00     0.076 A 
ATOM      6  C   UNL     1       1.166  -3.124  21.731  1.00  0.00     0.127 A 
ATOM      7  C   UNL     1       2.112  -4.105  22.050  1.00  0.00     0.050 A 
ATOM      8  C   UNL     1      -0.820  -1.697  22.385  1.00  0.00     0.201 C 
ATOM      9  O   UNL     1      -0.603  -0.881  21.450  1.00  0.00    -0.288 OA
ATOM     10  C   UNL     1      -2.008  -1.525  23.267  1.00  0.00     0.076 A 
ATOM     11  C   UNL     1      -1.986  -2.124  24.549  1.00  0.00     0.041 A 
ATOM     12  C   UNL     1      -0.879  -3.033  24.926  1.00  0.00     0.194 C 
ATOM     13  O   UNL     1      -0.825  -3.510  26.094  1.00  0.00    -0.289 OA
ATOM     14  C   UNL     1      -3.023  -1.862  25.462  1.00  0.00     0.059 A 
ATOM     15  C   UNL     1      -4.084  -1.030  25.112  1.00  0.00     0.120 A 
ATOM     16  C   UNL     1      -4.137  -0.474  23.833  1.00  0.00     0.093 A 
ATOM     17  C   UNL     1      -3.134  -0.739  22.895  1.00  0.00     0.131 A 
ENDROOT
BRANCH   6  18
ATOM     18  O   UNL     1       1.209  -2.517  20.475  1.00  0.00    -0.507 OA
ATOM     19  H   UNL     1       0.436  -2.583  19.824  1.00  0.00     0.293 HD
ENDBRANCH   6  18
BRANCH  17  20
ATOM     20  O   UNL     1      -3.316  -0.232  21.606  1.00  0.00    -0.507 OA
ATOM     21  H   UNL     1      -2.985  -0.693  20.770  1.00  0.00     0.293 HD
ENDBRANCH  17  20
BRANCH  15  22
ATOM     22  O   UNL     1      -5.091  -0.772  26.040  1.00  0.00    -0.508 OA
ATOM     23  H   UNL     1      -5.430   0.167  26.208  1.00  0.00     0.293 HD
ENDBRANCH  15  22
TORSDOF 3
ENDMDL
MODEL 7
REMARK VINA RESULT:    -5.593      1.400      3.733
REMARK INTER + INTRA:          -6.083
REMARK INTER:                  -6.083
REMARK INTRA:                   0.000
REMARK UNBOUND:                 0.000
REMARK SMILES Cc1cc(O)c2c(c1)C(=O)c1cc(O)cc(O)c1C2=O
REMARK SMILES IDX 1 1 2 2 8 3 7 4 6 5 4 6 3 7 19 8 20 9 18 10 11 11 9 12 10 13
REMARK SMILES IDX 12 14 13 15 15 16 16 17 5 18 17 20 14 22
REMARK H PARENT 5 19 17 21 14 23
REMARK Flexibility Score: inf
ROOT
ATOM      1  C   UNL     1      -3.832   0.628  19.391  1.00  0.00     0.044 C 
ATOM      2  C   UNL     1      -2.659  -0.118  19.959  1.00  0.00    -0.047 A 
ATOM      3  C   UNL     1      -2.658  -0.512  21.301  1.00  0.00     0.016 A 
ATOM      4  C   UNL     1      -1.581  -1.242  21.835  1.00  0.00     0.038 A 
ATOM      5  C   UNL     1      -0.497  -1.598  21.005  1.00  0.00     0.076 A 
ATOM      6  C   UNL     1      -0.508  -1.208  19.646  1.00  0.00     0.127 A 
ATOM      7  C   UNL     1      -1.589  -0.481  19.134  1.00  0.00     0.050 A 
ATOM      8  C   UNL     1       0.616  -2.403  21.574  1.00  0.00     0.201 C 
ATOM      9  O   UNL     1       1.389  -3.028  20.800  1.00  0.00    -0.288 OA
ATOM     10  C   UNL     1       0.745  -2.564  23.049  1.00  0.00     0.076 A 
ATOM     11  C   UNL     1      -0.375  -2.261  23.859  1.00  0.00     0.041 A 
ATOM     12  C   UNL     1      -1.581  -1.641  23.260  1.00  0.00     0.194 C 
ATOM     13  O   UNL     1      -2.604  -1.436  23.971  1.00  0.00    -0.289 OA
ATOM     14  C   UNL     1      -0.340  -2.539  25.237  1.00  0.00     0.059 A 
ATOM     15  C   UNL     1       0.796  -3.097  25.819  1.00  0.00     0.120 A 
ATOM     16  C   UNL     1       1.922  -3.355  25.036  1.00  0.00     0.093 A 
ATOM     17  C   UNL     1       1.924  -3.063  23.668  1.00  0.00     0.131 A 
ENDROOT
BRANCH   6  18
ATOM     18  O   UNL     1       0.555  -1.535  18.803  1.00  0.00    -0.507 OA
ATOM     19  H   UNL     1       0.670  -1.101  17.895  1.00  0.00     0.293 HD
ENDBRANCH   6  18
BRANCH  17  20
ATOM     20  O   UNL     1       3.125  -3.250  22.978  1.00  0.00    -0.507 OA
ATOM     21  H   UNL     1       3.794  -2.513  22.808  1.00  0.00     0.293 HD
ENDBRANCH  17  20
BRANCH  15  22
ATOM     22  O   UNL     1       0.801  -3.380  27.184  1.00  0.00    -0.508 OA
ATOM     23  H   UNL     1       0.372  -4.220  27.553  1.00  0.00     0.293 HD
ENDBRANCH  15  22
TORSDOF 3
ENDMDL
MODEL 8
REMARK VINA RESULT:    -5.544      2.616      5.575
REMARK INTER + INTRA:          -6.030
REMARK INTER:                  -6.030
REMARK INTRA:                   0.000
REMARK UNBOUND:                 0.000
REMARK SMILES Cc1cc(O)c2c(c1)C(=O)c1cc(O)cc(O)c1C2=O
REMARK SMILES IDX 1 1 2 2 8 3 7 4 6 5 4 6 3 7 19 8 20 9 18 10 11 11 9 12 10 13
REMARK SMILES IDX 12 14 13 15 15 16 16 17 5 18 17 20 14 22
REMARK H PARENT 5 19 17 21 14 23
REMARK Flexibility Score: inf
ROOT
ATOM      1  C   UNL     1      -1.034  -0.954  20.103  1.00  0.00     0.044 C 
ATOM      2  C   UNL     1      -0.333  -1.595  21.266  1.00  0.00    -0.047 A 
ATOM      3  C   UNL     1      -0.943  -1.625  22.526  1.00  0.00     0.016 A 
ATOM      4  C   UNL     1      -0.311  -2.253  23.614  1.00  0.00     0.038 A 
ATOM      5  C   UNL     1       0.941  -2.877  23.433  1.00  0.00     0.076 A 
ATOM      6  C   UNL     1       1.548  -2.854  22.155  1.00  0.00     0.127 A 
ATOM      7  C   UNL     1       0.904  -2.223  21.085  1.00  0.00     0.050 A 
ATOM      8  C   UNL     1       1.578  -3.570  24.584  1.00  0.00     0.201 C 
ATOM      9  O   UNL     1       2.484  -4.419  24.372  1.00  0.00    -0.288 OA
ATOM     10  C   UNL     1       1.068  -3.348  25.965  1.00  0.00     0.076 A 
ATOM     11  C   UNL     1      -0.217  -2.779  26.125  1.00  0.00     0.041 A 
ATOM     12  C   UNL     1      -0.955  -2.267  24.946  1.00  0.00     0.194 C 
ATOM     13  O   UNL     1      -2.130  -1.824  25.082  1.00  0.00    -0.289 OA
ATOM     14  C   UNL     1      -0.790  -2.690  27.406  1.00  0.00     0.059 A 
ATOM     15  C   UNL     1      -0.098  -3.144  28.526  1.00  0.00     0.120 A 
ATOM     16  C   UNL     1       1.190  -3.663  28.383  1.00  0.00     0.093 A 
ATOM     17  C   UNL     1       1.795  -3.738  27.124  1.00  0.00     0.131 A 
ENDROOT
BRANCH   6  18
ATOM     18  O   UNL     1       2.792  -3.452  21.947  1.00  0.00    -0.507 OA
ATOM     19  H   UNL     1       3.545  -2.966  21.476  1.00  0.00     0.293 HD
ENDBRANCH   6  18
BRANCH  17  20
ATOM     20  O   UNL     1       3.124  -4.169  27.081  1.00  0.00    -0.507 OA
ATOM     21  H   UNL     1       3.593  -4.455  26.233  1.00  0.00     0.293 HD
ENDBRANCH  17  20
BRANCH  15  22
ATOM     22  O   UNL     1      -0.694  -3.061  29.783  1.00  0.00    -0.508 OA
ATOM     23  H   UNL     1      -0.155  -3.171  30.634  1.00  0.00     0.293 HD
ENDBRANCH  15  22
TORSDOF 3
ENDMDL
MODEL 9
REMARK VINA RESULT:    -5.430      4.793      6.143
REMARK INTER + INTRA:          -5.906
REMARK INTER:                  -5.906
REMARK INTRA:                   0.000
REMARK UNBOUND:                 0.000
REMARK SMILES Cc1cc(O)c2c(c1)C(=O)c1cc(O)cc(O)c1C2=O
REMARK SMILES IDX 1 1 2 2 8 3 7 4 6 5 4 6 3 7 19 8 20 9 18 10 11 11 9 12 10 13
REMARK SMILES IDX 12 14 13 15 15 16 16 17 5 18 17 20 14 22
REMARK H PARENT 5 19 17 21 14 23
REMARK Flexibility Score: inf
ROOT
ATOM      1  C   UNL     1      -4.994  -0.651  28.054  1.00  0.00     0.044 C 
ATOM      2  C   UNL     1      -3.573  -1.065  27.801  1.00  0.00    -0.047 A 
ATOM      3  C   UNL     1      -3.252  -1.826  26.672  1.00  0.00     0.016 A 
ATOM      4  C   UNL     1      -1.920  -2.191  26.407  1.00  0.00     0.038 A 
ATOM      5  C   UNL     1      -0.892  -1.768  27.276  1.00  0.00     0.076 A 
ATOM      6  C   UNL     1      -1.220  -0.989  28.410  1.00  0.00     0.127 A 
ATOM      7  C   UNL     1      -2.552  -0.638  28.657  1.00  0.00     0.050 A 
ATOM      8  C   UNL     1       0.516  -2.129  26.961  1.00  0.00     0.201 C 
ATOM      9  O   UNL     1       1.456  -1.482  27.494  1.00  0.00    -0.288 OA
ATOM     10  C   UNL     1       0.811  -3.167  25.935  1.00  0.00     0.076 A 
ATOM     11  C   UNL     1      -0.216  -3.531  25.032  1.00  0.00     0.041 A 
ATOM     12  C   UNL     1      -1.591  -3.009  25.219  1.00  0.00     0.194 C 
ATOM     13  O   UNL     1      -2.488  -3.278  24.372  1.00  0.00    -0.289 OA
ATOM     14  C   UNL     1       0.067  -4.397  23.961  1.00  0.00     0.059 A 
ATOM     15  C   UNL     1       1.348  -4.916  23.788  1.00  0.00     0.120 A 
ATOM     16  C   UNL     1       2.354  -4.600  24.702  1.00  0.00     0.093 A 
ATOM     17  C   UNL     1       2.094  -3.763  25.792  1.00  0.00     0.131 A 
ENDROOT
BRANCH   6  18
ATOM     18  O   UNL     1      -0.227  -0.567  29.295  1.00  0.00    -0.507 OA
ATOM     19  H   UNL     1       0.534   0.032  28.997  1.00  0.00     0.293 HD
ENDBRANCH   6  18
BRANCH  17  20
ATOM     20  O   UNL     1       3.125  -3.584  26.718  1.00  0.00    -0.507 OA
ATOM     21  H   UNL     1       3.213  -2.768  27.307  1.00  0.00     0.293 HD
ENDBRANCH  17  20
BRANCH  15  22
ATOM     22  O   UNL     1       1.608  -5.759  22.710  1.00  0.00    -0.508 OA
ATOM     23  H   UNL     1       2.532  -6.142  22.546  1.00  0.00     0.293 HD
ENDBRANCH  15  22
TORSDOF 3
ENDMDL
