MODEL 1
REMARK VINA RESULT:    -3.681      0.000      0.000
REMARK INTER + INTRA:          -3.780
REMARK INTER:                  -4.541
REMARK INTRA:                   0.761
REMARK UNBOUND:                 0.761
REMARK SMILES CC1=CC=CC(C)(C)CC1=O
REMARK SMILES IDX 1 1 2 2 3 3 10 4 11 5 9 6 4 8 5 9 6 10 7 11 8 12
REMARK H PARENT
REMARK Flexibility Score: 80.00
ROOT
ATOM      1  C   UNL     1      22.927  12.087  52.948  1.00  0.00     0.048 C 
ATOM      2  C   UNL     1      21.674  11.400  53.438  1.00  0.00    -0.008 C 
ATOM      3  C   UNL     1      20.500  12.045  53.268  1.00  0.00     0.007 C 
ENDROOT
BRANCH   2   4
ATOM      4  C   UNL     1      21.828  10.035  54.000  1.00  0.00     0.159 C 
ATOM      5  O   UNL     1      22.924   9.430  53.838  1.00  0.00    -0.295 OA
BRANCH   4   6
ATOM      6  C   UNL     1      20.752   9.332  54.767  1.00  0.00     0.091 CG0
ATOM      7  G   UNL     1      19.464   9.104  53.943  1.00  0.00     0.000 G0
ENDBRANCH   4   6
ENDBRANCH   2   4
BRANCH   3   8
ATOM      8  C   UNL     1      19.123  11.621  53.616  1.00  0.00    -0.003 C 
ATOM      9  C   UNL     1      18.662  10.395  53.892  1.00  0.00    -0.020 C 
BRANCH   9  10
ATOM     10  C   UNL     1      19.472   9.122  53.942  1.00  0.00    -0.010 CG0
ATOM     11  C   UNL     1      19.774   8.631  52.507  1.00  0.00     0.016 C 
ATOM     12  C   UNL     1      18.628   8.037  54.650  1.00  0.00     0.016 C 
ATOM     13  G   UNL     1      20.753   9.352  54.774  1.00  0.00     0.000 G0
ENDBRANCH   9  10
ENDBRANCH   3   8
TORSDOF 0
ENDMDL
MODEL 2
REMARK VINA RESULT:    -3.650     12.550     13.995
REMARK INTER + INTRA:          -3.743
REMARK INTER:                  -4.517
REMARK INTRA:                   0.774
REMARK UNBOUND:                 0.761
REMARK SMILES CC1=CC=CC(C)(C)CC1=O
REMARK SMILES IDX 1 1 2 2 3 3 10 4 11 5 9 6 4 8 5 9 6 10 7 11 8 12
REMARK H PARENT
REMARK Flexibility Score: 80.00
ROOT
ATOM      1  C   UNL     1       7.982  18.003  59.919  1.00  0.00     0.048 C 
ATOM      2  C   UNL     1       9.390  17.890  59.382  1.00  0.00    -0.008 C 
ATOM      3  C   UNL     1       9.539  17.551  58.084  1.00  0.00     0.007 C 
ENDROOT
BRANCH   2   4
ATOM      4  C   UNL     1      10.496  18.238  60.309  1.00  0.00     0.159 C 
ATOM      5  O   UNL     1      10.218  18.790  61.409  1.00  0.00    -0.295 OA
BRANCH   4   6
ATOM      6  C   UNL     1      11.937  17.956  60.017  1.00  0.00     0.091 CG0
ATOM      7  G   UNL     1      12.442  18.638  58.725  1.00  0.00     0.000 G0
ENDBRANCH   4   6
ENDBRANCH   2   4
BRANCH   3   8
ATOM      8  C   UNL     1      10.772  17.391  57.278  1.00  0.00    -0.003 C 
ATOM      9  C   UNL     1      12.006  17.851  57.523  1.00  0.00    -0.020 C 
BRANCH   9  10
ATOM     10  C   UNL     1      12.446  18.640  58.732  1.00  0.00    -0.010 CG0
ATOM     11  C   UNL     1      11.959  20.103  58.615  1.00  0.00     0.016 C 
ATOM     12  C   UNL     1      13.991  18.653  58.768  1.00  0.00     0.016 C 
ATOM     13  G   UNL     1      11.942  17.948  60.018  1.00  0.00     0.000 G0
ENDBRANCH   9  10
ENDBRANCH   3   8
TORSDOF 0
ENDMDL
MODEL 3
REMARK VINA RESULT:    -3.526     11.272     12.524
REMARK INTER + INTRA:          -3.590
REMARK INTER:                  -4.344
REMARK INTRA:                   0.754
REMARK UNBOUND:                 0.761
REMARK SMILES CC1=CC=CC(C)(C)CC1=O
REMARK SMILES IDX 1 1 2 2 3 3 10 4 11 5 9 6 4 8 5 9 6 10 7 11 8 12
REMARK H PARENT
REMARK Flexibility Score: 80.00
ROOT
ATOM      1  C   UNL     1      15.281  17.615  56.433  1.00  0.00     0.048 C 
ATOM      2  C   UNL     1      13.904  17.924  56.971  1.00  0.00    -0.008 C 
ATOM      3  C   UNL     1      12.882  17.143  56.560  1.00  0.00     0.007 C 
ENDROOT
BRANCH   2   4
ATOM      4  C   UNL     1      13.798  19.016  57.972  1.00  0.00     0.159 C 
ATOM      5  O   UNL     1      14.856  19.482  58.477  1.00  0.00    -0.295 OA
BRANCH   4   6
ATOM      6  C   UNL     1      12.496  19.611  58.410  1.00  0.00     0.091 CG0
ATOM      7  G   UNL     1      11.537  18.579  59.046  1.00  0.00     0.000 G0
ENDBRANCH   4   6
ENDBRANCH   2   4
BRANCH   3   8
ATOM      8  C   UNL     1      11.446  17.182  56.927  1.00  0.00    -0.003 C 
ATOM      9  C   UNL     1      10.861  17.769  57.979  1.00  0.00    -0.020 C 
BRANCH   9  10
ATOM     10  C   UNL     1      11.547  18.577  59.054  1.00  0.00    -0.010 CG0
ATOM     11  C   UNL     1      12.271  17.634  60.042  1.00  0.00     0.016 C 
ATOM     12  C   UNL     1      10.468  19.355  59.840  1.00  0.00     0.016 C 
ATOM     13  G   UNL     1      12.501  19.604  58.404  1.00  0.00     0.000 G0
ENDBRANCH   9  10
ENDBRANCH   3   8
TORSDOF 0
ENDMDL
MODEL 4
REMARK VINA RESULT:    -3.516     11.085     12.350
REMARK INTER + INTRA:          -3.578
REMARK INTER:                  -4.329
REMARK INTRA:                   0.751
REMARK UNBOUND:                 0.761
REMARK SMILES CC1=CC=CC(C)(C)CC1=O
REMARK SMILES IDX 1 1 2 2 3 3 10 4 11 5 9 6 4 8 5 9 6 10 7 11 8 12
REMARK H PARENT
REMARK Flexibility Score: 80.00
ROOT
ATOM      1  C   UNL     1      15.538  18.099  56.613  1.00  0.00     0.048 C 
ATOM      2  C   UNL     1      14.315  17.948  57.487  1.00  0.00    -0.008 C 
ATOM      3  C   UNL     1      14.502  17.919  58.824  1.00  0.00     0.007 C 
ENDROOT
BRANCH   2   4
ATOM      4  C   UNL     1      12.997  17.922  56.805  1.00  0.00     0.159 C 
ATOM      5  O   UNL     1      12.936  18.237  55.585  1.00  0.00    -0.295 OA
BRANCH   4   6
ATOM      6  C   UNL     1      11.724  17.525  57.486  1.00  0.00     0.091 CG0
ATOM      7  G   UNL     1      11.367  18.428  58.688  1.00  0.00     0.000 G0
ENDBRANCH   4   6
ENDBRANCH   2   4
BRANCH   3   8
ATOM      8  C   UNL     1      13.511  17.808  59.921  1.00  0.00    -0.003 C 
ATOM      9  C   UNL     1      12.191  18.032  59.890  1.00  0.00    -0.020 C 
BRANCH   9  10
ATOM     10  C   UNL     1      11.376  18.434  58.685  1.00  0.00    -0.010 CG0
ATOM     11  C   UNL     1      11.586  19.935  58.381  1.00  0.00     0.016 C 
ATOM     12  C   UNL     1       9.881  18.218  59.016  1.00  0.00     0.016 C 
ATOM     13  G   UNL     1      11.737  17.528  57.486  1.00  0.00     0.000 G0
ENDBRANCH   9  10
ENDBRANCH   3   8
TORSDOF 0
ENDMDL
MODEL 5
REMARK VINA RESULT:    -3.452     12.163     13.471
REMARK INTER + INTRA:          -3.498
REMARK INTER:                  -4.258
REMARK INTRA:                   0.759
REMARK UNBOUND:                 0.761
REMARK SMILES CC1=CC=CC(C)(C)CC1=O
REMARK SMILES IDX 1 1 2 2 3 3 10 4 11 5 9 6 4 8 5 9 6 10 7 11 8 12
REMARK H PARENT
REMARK Flexibility Score: 80.00
ROOT
ATOM      1  C   UNL     1      13.915  17.877  60.057  1.00  0.00     0.048 C 
ATOM      2  C   UNL     1      12.523  17.884  59.471  1.00  0.00    -0.008 C 
ATOM      3  C   UNL     1      11.482  17.911  60.331  1.00  0.00     0.007 C 
ENDROOT
BRANCH   2   4
ATOM      4  C   UNL     1      12.413  17.939  57.992  1.00  0.00     0.159 C 
ATOM      5  O   UNL     1      13.447  18.188  57.313  1.00  0.00    -0.295 OA
BRANCH   4   6
ATOM      6  C   UNL     1      11.134  17.701  57.250  1.00  0.00     0.091 CG0
ATOM      7  G   UNL     1      10.012  18.692  57.634  1.00  0.00     0.000 G0
ENDBRANCH   4   6
ENDBRANCH   2   4
BRANCH   3   8
ATOM      8  C   UNL     1      10.025  17.949  60.061  1.00  0.00    -0.003 C 
ATOM      9  C   UNL     1       9.385  18.291  58.937  1.00  0.00    -0.020 C 
BRANCH   9  10
ATOM     10  C   UNL     1      10.020  18.703  57.631  1.00  0.00    -0.010 CG0
ATOM     11  C   UNL     1      10.536  20.157  57.729  1.00  0.00     0.016 C 
ATOM     12  C   UNL     1       8.939  18.653  56.527  1.00  0.00     0.016 C 
ATOM     13  G   UNL     1      11.136  17.701  57.256  1.00  0.00     0.000 G0
ENDBRANCH   9  10
ENDBRANCH   3   8
TORSDOF 0
ENDMDL
MODEL 6
REMARK VINA RESULT:    -3.447     17.553     18.978
REMARK INTER + INTRA:          -3.492
REMARK INTER:                  -4.252
REMARK INTRA:                   0.761
REMARK UNBOUND:                 0.761
REMARK SMILES CC1=CC=CC(C)(C)CC1=O
REMARK SMILES IDX 1 1 2 2 3 3 10 4 11 5 9 6 4 8 5 9 6 10 7 11 8 12
REMARK H PARENT
REMARK Flexibility Score: 80.00
ROOT
ATOM      1  C   UNL     1       9.474  21.742  57.830  1.00  0.00     0.048 C 
ATOM      2  C   UNL     1       8.373  22.551  57.186  1.00  0.00    -0.008 C 
ATOM      3  C   UNL     1       8.596  23.869  56.992  1.00  0.00     0.007 C 
ENDROOT
BRANCH   2   4
ATOM      4  C   UNL     1       7.161  21.814  56.747  1.00  0.00     0.159 C 
ATOM      5  O   UNL     1       7.177  20.552  56.762  1.00  0.00    -0.295 OA
BRANCH   4   6
ATOM      6  C   UNL     1       5.903  22.488  56.295  1.00  0.00     0.091 CG0
ATOM      7  G   UNL     1       6.115  23.431  55.089  1.00  0.00     0.000 G0
ENDBRANCH   4   6
ENDBRANCH   2   4
BRANCH   3   8
ATOM      8  C   UNL     1       7.730  24.899  56.371  1.00  0.00    -0.003 C 
ATOM      9  C   UNL     1       6.681  24.738  55.554  1.00  0.00    -0.020 C 
BRANCH   9  10
ATOM     10  C   UNL     1       6.101  23.426  55.084  1.00  0.00    -0.010 CG0
ATOM     11  C   UNL     1       6.999  22.815  53.984  1.00  0.00     0.016 C 
ATOM     12  C   UNL     1       4.712  23.703  54.466  1.00  0.00     0.016 C 
ATOM     13  G   UNL     1       5.911  22.479  56.290  1.00  0.00     0.000 G0
ENDBRANCH   9  10
ENDBRANCH   3   8
TORSDOF 0
ENDMDL
MODEL 7
REMARK VINA RESULT:    -3.442      2.181      4.074
REMARK INTER + INTRA:          -3.486
REMARK INTER:                  -4.241
REMARK INTRA:                   0.754
REMARK UNBOUND:                 0.761
REMARK SMILES CC1=CC=CC(C)(C)CC1=O
REMARK SMILES IDX 1 1 2 2 3 3 10 4 11 5 9 6 4 8 5 9 6 10 7 11 8 12
REMARK H PARENT
REMARK Flexibility Score: 80.00
ROOT
ATOM      1  C   UNL     1      16.519   8.467  55.087  1.00  0.00     0.048 C 
ATOM      2  C   UNL     1      17.878   8.982  54.676  1.00  0.00    -0.008 C 
ATOM      3  C   UNL     1      18.962   8.302  55.110  1.00  0.00     0.007 C 
ENDROOT
BRANCH   2   4
ATOM      4  C   UNL     1      17.910  10.151  53.762  1.00  0.00     0.159 C 
ATOM      5  O   UNL     1      16.834  10.535  53.227  1.00  0.00    -0.295 OA
BRANCH   4   6
ATOM      6  C   UNL     1      19.157  10.918  53.447  1.00  0.00     0.091 CG0
ATOM      7  G   UNL     1      20.268  10.046  52.820  1.00  0.00     0.000 G0
ENDBRANCH   4   6
ENDBRANCH   2   4
BRANCH   3   8
ATOM      8  C   UNL     1      20.402   8.545  54.856  1.00  0.00    -0.003 C 
ATOM      9  C   UNL     1      20.977   9.270  53.889  1.00  0.00    -0.020 C 
BRANCH   9  10
ATOM     10  C   UNL     1      20.267  10.059  52.815  1.00  0.00    -0.010 CG0
ATOM     11  C   UNL     1      19.735   9.104  51.721  1.00  0.00     0.016 C 
ATOM     12  C   UNL     1      21.288  11.015  52.158  1.00  0.00     0.016 C 
ATOM     13  G   UNL     1      19.148  10.915  53.451  1.00  0.00     0.000 G0
ENDBRANCH   9  10
ENDBRANCH   3   8
TORSDOF 0
ENDMDL
MODEL 8
REMARK VINA RESULT:    -3.430     17.743     19.194
REMARK INTER + INTRA:          -3.471
REMARK INTER:                  -4.230
REMARK INTRA:                   0.759
REMARK UNBOUND:                 0.761
REMARK SMILES CC1=CC=CC(C)(C)CC1=O
REMARK SMILES IDX 1 1 2 2 3 3 10 4 11 5 9 6 4 8 5 9 6 10 7 11 8 12
REMARK H PARENT
REMARK Flexibility Score: 80.00
ROOT
ATOM      1  C   UNL     1       5.141  25.870  55.115  1.00  0.00     0.048 C 
ATOM      2  C   UNL     1       6.271  24.968  55.553  1.00  0.00    -0.008 C 
ATOM      3  C   UNL     1       6.975  25.332  56.646  1.00  0.00     0.007 C 
ENDROOT
BRANCH   2   4
ATOM      4  C   UNL     1       6.466  23.710  54.788  1.00  0.00     0.159 C 
ATOM      5  O   UNL     1       5.589  23.366  53.950  1.00  0.00    -0.295 OA
BRANCH   4   6
ATOM      6  C   UNL     1       7.664  22.825  54.947  1.00  0.00     0.091 CG0
ATOM      7  G   UNL     1       7.838  22.287  56.384  1.00  0.00     0.000 G0
ENDBRANCH   4   6
ENDBRANCH   2   4
BRANCH   3   8
ATOM      8  C   UNL     1       8.104  24.649  57.322  1.00  0.00    -0.003 C 
ATOM      9  C   UNL     1       8.486  23.369  57.240  1.00  0.00    -0.020 C 
BRANCH   9  10
ATOM     10  C   UNL     1       7.851  22.295  56.391  1.00  0.00    -0.010 CG0
ATOM     11  C   UNL     1       6.529  21.821  57.038  1.00  0.00     0.016 C 
ATOM     12  C   UNL     1       8.814  21.088  56.334  1.00  0.00     0.016 C 
ATOM     13  G   UNL     1       7.652  22.819  54.950  1.00  0.00     0.000 G0
ENDBRANCH   9  10
ENDBRANCH   3   8
TORSDOF 0
ENDMDL
MODEL 9
REMARK VINA RESULT:    -3.427     17.709     19.016
REMARK INTER + INTRA:          -3.467
REMARK INTER:                  -4.214
REMARK INTRA:                   0.747
REMARK UNBOUND:                 0.761
REMARK SMILES CC1=CC=CC(C)(C)CC1=O
REMARK SMILES IDX 1 1 2 2 3 3 10 4 11 5 9 6 4 8 5 9 6 10 7 11 8 12
REMARK H PARENT
REMARK Flexibility Score: 80.00
ROOT
ATOM      1  C   UNL     1       7.284  25.423  57.378  1.00  0.00     0.048 C 
ATOM      2  C   UNL     1       7.460  24.439  56.244  1.00  0.00    -0.008 C 
ATOM      3  C   UNL     1       8.666  23.849  56.110  1.00  0.00     0.007 C 
ENDROOT
BRANCH   2   4
ATOM      4  C   UNL     1       6.264  24.144  55.415  1.00  0.00     0.159 C 
ATOM      5  O   UNL     1       5.135  24.548  55.808  1.00  0.00    -0.295 OA
BRANCH   4   6
ATOM      6  C   UNL     1       6.323  23.398  54.118  1.00  0.00     0.091 CG0
ATOM      7  G   UNL     1       6.892  21.968  54.262  1.00  0.00     0.000 G0
ENDBRANCH   4   6
ENDBRANCH   2   4
BRANCH   3   8
ATOM      8  C   UNL     1       9.128  22.839  55.128  1.00  0.00    -0.003 C 
ATOM      9  C   UNL     1       8.402  22.029  54.347  1.00  0.00    -0.020 C 
BRANCH   9  10
ATOM     10  C   UNL     1       6.896  21.974  54.264  1.00  0.00    -0.010 CG0
ATOM     11  C   UNL     1       6.325  21.221  55.487  1.00  0.00     0.016 C 
ATOM     12  C   UNL     1       6.508  21.185  52.993  1.00  0.00     0.016 C 
ATOM     13  G   UNL     1       6.329  23.406  54.131  1.00  0.00     0.000 G0
ENDBRANCH   9  10
ENDBRANCH   3   8
TORSDOF 0
ENDMDL
