MODEL 1
REMARK VINA RESULT:    -8.023      0.000      0.000
REMARK INTER + INTRA:          -8.452
REMARK INTER:                  -8.727
REMARK INTRA:                   0.275
REMARK UNBOUND:                 0.275
REMARK SMILES CC1(C)CC[C@]2(C(=O)[O-])CC[C@@]3(C)C(=CC[C@@H]4[C@@]5(C)CC[C@H](O)C(C)(C)[C@@H]5CC[C@]43C)[C@H]2C1
REMARK SMILES IDX 6 1 5 2 10 3 32 4 4 5 11 6 14 7 33 8 2 9 12 10 15 11 1 12
REMARK SMILES IDX 3 13 13 14 30 15 16 16 17 17 29 18 31 19 18 20 28 21 27 22
REMARK SMILES IDX 20 23 19 24 24 25 21 26 22 27 25 28 26 29 7 30 8 31 9 32
REMARK SMILES IDX 23 33
REMARK H PARENT 23 34
REMARK Flexibility Score: inf
ROOT
ATOM      1  C   UNL     1      12.611  27.312 -10.016  1.00  0.00     0.017 C 
ATOM      2  C   UNL     1      11.723  26.596 -11.125  1.00  0.00     0.014 C 
ATOM      3  C   UNL     1      13.809  28.086 -10.723  1.00  0.00     0.014 C 
ATOM      4  C   UNL     1      13.232  26.191  -9.049  1.00  0.00     0.028 C 
ATOM      5  C   UNL     1      11.252  25.149 -10.823  1.00  0.00     0.007 C 
ATOM      6  C   UNL     1      15.184  27.903 -10.065  1.00  0.00     0.013 C 
ATOM      7  C   UNL     1      14.328  26.763  -8.087  1.00  0.00    -0.064 C 
ATOM      8  C   UNL     1      12.193  25.140  -8.427  1.00  0.00     0.015 C 
ATOM      9  C   UNL     1      10.934  24.810  -9.330  1.00  0.00    -0.035 C 
ATOM     10  C   UNL     1      15.156  28.053  -8.520  1.00  0.00    -0.006 C 
ATOM     11  C   UNL     1      14.896  25.868  -7.188  1.00  0.00    -0.027 C 
ATOM     12  C   UNL     1       9.653  25.504  -8.788  1.00  0.00     0.011 C 
ATOM     13  C   UNL     1      10.642  23.285  -9.318  1.00  0.00     0.011 C 
ATOM     14  C   UNL     1      14.374  29.347  -8.083  1.00  0.00     0.017 C 
ATOM     15  C   UNL     1      16.633  28.127  -7.821  1.00  0.00    -0.020 C 
ATOM     16  C   UNL     1      16.396  25.741  -6.905  1.00  0.00     0.032 C 
ATOM     17  C   UNL     1      17.282  26.700  -7.773  1.00  0.00     0.006 C 
ATOM     18  C   UNL     1      17.546  29.088  -8.703  1.00  0.00     0.008 C 
ATOM     19  C   UNL     1      16.565  28.674  -6.321  1.00  0.00     0.012 C 
ATOM     20  C   UNL     1      18.880  26.611  -7.445  1.00  0.00    -0.025 C 
ATOM     21  C   UNL     1      18.956  29.097  -8.238  1.00  0.00     0.005 C 
ATOM     22  C   UNL     1      19.502  27.654  -8.421  1.00  0.00     0.003 C 
ATOM     23  C   UNL     1      19.472  25.133  -7.736  1.00  0.00     0.010 C 
ATOM     24  C   UNL     1      19.288  26.932  -5.949  1.00  0.00     0.012 C 
ATOM     25  C   UNL     1      21.006  27.585  -8.877  1.00  0.00    -0.006 C 
ATOM     26  C   UNL     1      20.411  25.058  -8.955  1.00  0.00     0.033 C 
ATOM     27  C   UNL     1      21.535  26.104  -8.798  1.00  0.00     0.120 C 
ATOM     28  C   UNL     1      21.887  28.618  -8.116  1.00  0.00     0.014 C 
ATOM     29  C   UNL     1      21.034  28.035 -10.415  1.00  0.00     0.014 C 
ENDROOT
BRANCH   1  30
ATOM     30  C   UNL     1      11.721  28.279  -9.266  1.00  0.00     0.048 C 
ATOM     31  O   UNL     1      11.388  28.094  -8.047  1.00  0.00    -0.550 OA
ATOM     32  O   UNL     1      11.243  29.432  -9.930  1.00  0.00    -0.550 OA
ENDBRANCH   1  30
BRANCH  27  33
ATOM     33  O   UNL     1      22.289  25.725  -7.628  1.00  0.00    -0.393 OA
ATOM     34  H   UNL     1      22.079  24.792  -7.284  1.00  0.00     0.210 HD
ENDBRANCH  27  33
TORSDOF 2
ENDMDL
MODEL 2
REMARK VINA RESULT:    -7.600      1.735      8.735
REMARK INTER + INTRA:          -7.992
REMARK INTER:                  -8.266
REMARK INTRA:                   0.274
REMARK UNBOUND:                 0.275
REMARK SMILES CC1(C)CC[C@]2(C(=O)[O-])CC[C@@]3(C)C(=CC[C@@H]4[C@@]5(C)CC[C@H](O)C(C)(C)[C@@H]5CC[C@]43C)[C@H]2C1
REMARK SMILES IDX 6 1 5 2 10 3 32 4 4 5 11 6 14 7 33 8 2 9 12 10 15 11 1 12
REMARK SMILES IDX 3 13 13 14 30 15 16 16 17 17 29 18 31 19 18 20 28 21 27 22
REMARK SMILES IDX 20 23 19 24 24 25 21 26 22 27 25 28 26 29 7 30 8 31 9 32
REMARK SMILES IDX 23 33
REMARK H PARENT 23 34
REMARK Flexibility Score: inf
ROOT
ATOM      1  C   UNL     1      22.158  26.591 -10.052  1.00  0.00     0.017 C 
ATOM      2  C   UNL     1      23.090  27.445 -11.018  1.00  0.00     0.014 C 
ATOM      3  C   UNL     1      20.947  25.987 -10.890  1.00  0.00     0.014 C 
ATOM      4  C   UNL     1      21.559  27.562  -8.922  1.00  0.00     0.028 C 
ATOM      5  C   UNL     1      23.605  28.804 -10.479  1.00  0.00     0.007 C 
ATOM      6  C   UNL     1      19.568  26.111 -10.227  1.00  0.00     0.013 C 
ATOM      7  C   UNL     1      20.427  26.882  -8.079  1.00  0.00    -0.064 C 
ATOM      8  C   UNL     1      22.623  28.458  -8.125  1.00  0.00     0.015 C 
ATOM      9  C   UNL     1      23.908  28.883  -8.947  1.00  0.00    -0.035 C 
ATOM     10  C   UNL     1      19.563  25.711  -8.728  1.00  0.00    -0.006 C 
ATOM     11  C   UNL     1      19.875  27.638  -7.053  1.00  0.00    -0.027 C 
ATOM     12  C   UNL     1      25.155  28.064  -8.510  1.00  0.00     0.011 C 
ATOM     13  C   UNL     1      24.252  30.375  -8.682  1.00  0.00     0.011 C 
ATOM     14  C   UNL     1      20.292  24.335  -8.498  1.00  0.00     0.017 C 
ATOM     15  C   UNL     1      18.072  25.579  -8.067  1.00  0.00    -0.020 C 
ATOM     16  C   UNL     1      18.376  27.773  -6.771  1.00  0.00     0.032 C 
ATOM     17  C   UNL     1      17.472  27.002  -7.795  1.00  0.00     0.006 C 
ATOM     18  C   UNL     1      17.142  24.809  -9.105  1.00  0.00     0.008 C 
ATOM     19  C   UNL     1      18.094  24.792  -6.676  1.00  0.00     0.012 C 
ATOM     20  C   UNL     1      15.872  27.096  -7.476  1.00  0.00    -0.025 C 
ATOM     21  C   UNL     1      15.725  24.776  -8.665  1.00  0.00     0.005 C 
ATOM     22  C   UNL     1      15.232  26.249  -8.616  1.00  0.00     0.003 C 
ATOM     23  C   UNL     1      15.338  28.622  -7.527  1.00  0.00     0.010 C 
ATOM     24  C   UNL     1      15.427  26.550  -6.056  1.00  0.00     0.012 C 
ATOM     25  C   UNL     1      13.740  26.447  -9.072  1.00  0.00    -0.006 C 
ATOM     26  C   UNL     1      14.423  28.930  -8.729  1.00  0.00     0.033 C 
ATOM     27  C   UNL     1      13.262  27.914  -8.758  1.00  0.00     0.120 C 
ATOM     28  C   UNL     1      12.811  25.338  -8.500  1.00  0.00     0.014 C 
ATOM     29  C   UNL     1      13.723  26.255 -10.663  1.00  0.00     0.014 C 
ENDROOT
BRANCH   1  30
ATOM     30  C   UNL     1      23.001  25.483  -9.459  1.00  0.00     0.048 C 
ATOM     31  O   UNL     1      23.294  25.438  -8.218  1.00  0.00    -0.550 OA
ATOM     32  O   UNL     1      23.478  24.454 -10.304  1.00  0.00    -0.550 OA
ENDBRANCH   1  30
BRANCH  27  33
ATOM     33  O   UNL     1      12.501  28.125  -7.551  1.00  0.00    -0.393 OA
ATOM     34  H   UNL     1      12.566  29.069  -7.179  1.00  0.00     0.210 HD
ENDBRANCH  27  33
TORSDOF 2
ENDMDL
MODEL 3
REMARK VINA RESULT:    -7.491      4.304      7.861
REMARK INTER + INTRA:          -7.873
REMARK INTER:                  -8.227
REMARK INTRA:                   0.354
REMARK UNBOUND:                 0.275
REMARK SMILES CC1(C)CC[C@]2(C(=O)[O-])CC[C@@]3(C)C(=CC[C@@H]4[C@@]5(C)CC[C@H](O)C(C)(C)[C@@H]5CC[C@]43C)[C@H]2C1
REMARK SMILES IDX 6 1 5 2 10 3 32 4 4 5 11 6 14 7 33 8 2 9 12 10 15 11 1 12
REMARK SMILES IDX 3 13 13 14 30 15 16 16 17 17 29 18 31 19 18 20 28 21 27 22
REMARK SMILES IDX 20 23 19 24 24 25 21 26 22 27 25 28 26 29 7 30 8 31 9 32
REMARK SMILES IDX 23 33
REMARK H PARENT 23 34
REMARK Flexibility Score: inf
ROOT
ATOM      1  C   UNL     1      18.625  26.776  -1.229  1.00  0.00     0.017 C 
ATOM      2  C   UNL     1      18.961  27.631   0.070  1.00  0.00     0.014 C 
ATOM      3  C   UNL     1      19.786  26.973  -2.300  1.00  0.00     0.014 C 
ATOM      4  C   UNL     1      17.253  27.318  -1.862  1.00  0.00     0.028 C 
ATOM      5  C   UNL     1      17.791  28.416   0.718  1.00  0.00     0.007 C 
ATOM      6  C   UNL     1      19.312  27.218  -3.739  1.00  0.00     0.013 C 
ATOM      7  C   UNL     1      16.968  26.724  -3.284  1.00  0.00    -0.064 C 
ATOM      8  C   UNL     1      16.009  27.434  -0.858  1.00  0.00     0.015 C 
ATOM      9  C   UNL     1      16.376  27.754   0.649  1.00  0.00    -0.035 C 
ATOM     10  C   UNL     1      18.187  26.251  -4.194  1.00  0.00    -0.006 C 
ATOM     11  C   UNL     1      15.782  27.112  -3.894  1.00  0.00    -0.027 C 
ATOM     12  C   UNL     1      16.228  26.494   1.547  1.00  0.00     0.011 C 
ATOM     13  C   UNL     1      15.405  28.819   1.229  1.00  0.00     0.011 C 
ATOM     14  C   UNL     1      18.543  24.756  -3.855  1.00  0.00     0.017 C 
ATOM     15  C   UNL     1      17.848  26.312  -5.793  1.00  0.00    -0.020 C 
ATOM     16  C   UNL     1      15.650  27.561  -5.352  1.00  0.00     0.032 C 
ATOM     17  C   UNL     1      17.015  27.599  -6.123  1.00  0.00     0.006 C 
ATOM     18  C   UNL     1      19.228  26.364  -6.586  1.00  0.00     0.008 C 
ATOM     19  C   UNL     1      16.995  25.050  -6.279  1.00  0.00     0.012 C 
ATOM     20  C   UNL     1      16.883  28.028  -7.694  1.00  0.00    -0.025 C 
ATOM     21  C   UNL     1      19.027  26.579  -8.041  1.00  0.00     0.005 C 
ATOM     22  C   UNL     1      18.354  27.970  -8.203  1.00  0.00     0.003 C 
ATOM     23  C   UNL     1      16.278  29.519  -7.861  1.00  0.00     0.010 C 
ATOM     24  C   UNL     1      15.948  27.103  -8.577  1.00  0.00     0.012 C 
ATOM     25  C   UNL     1      18.839  28.779  -9.462  1.00  0.00    -0.006 C 
ATOM     26  C   UNL     1      17.296  30.560  -8.368  1.00  0.00     0.033 C 
ATOM     27  C   UNL     1      17.935  30.051  -9.677  1.00  0.00     0.120 C 
ATOM     28  C   UNL     1      18.968  27.870 -10.718  1.00  0.00     0.014 C 
ATOM     29  C   UNL     1      20.324  29.284  -9.132  1.00  0.00     0.014 C 
ENDROOT
BRANCH   1  30
ATOM     30  C   UNL     1      18.524  25.325  -0.813  1.00  0.00     0.048 C 
ATOM     31  O   UNL     1      19.530  24.667  -0.383  1.00  0.00    -0.550 OA
ATOM     32  O   UNL     1      17.273  24.671  -0.895  1.00  0.00    -0.550 OA
ENDBRANCH   1  30
BRANCH  27  33
ATOM     33  O   UNL     1      16.870  29.958 -10.645  1.00  0.00    -0.393 OA
ATOM     34  H   UNL     1      15.942  30.103 -10.257  1.00  0.00     0.210 HD
ENDBRANCH  27  33
TORSDOF 2
ENDMDL
MODEL 4
REMARK VINA RESULT:    -7.013      4.497      7.318
REMARK INTER + INTRA:          -7.353
REMARK INTER:                  -7.672
REMARK INTRA:                   0.318
REMARK UNBOUND:                 0.275
REMARK SMILES CC1(C)CC[C@]2(C(=O)[O-])CC[C@@]3(C)C(=CC[C@@H]4[C@@]5(C)CC[C@H](O)C(C)(C)[C@@H]5CC[C@]43C)[C@H]2C1
REMARK SMILES IDX 6 1 5 2 10 3 32 4 4 5 11 6 14 7 33 8 2 9 12 10 15 11 1 12
REMARK SMILES IDX 3 13 13 14 30 15 16 16 17 17 29 18 31 19 18 20 28 21 27 22
REMARK SMILES IDX 20 23 19 24 24 25 21 26 22 27 25 28 26 29 7 30 8 31 9 32
REMARK SMILES IDX 23 33
REMARK H PARENT 23 34
REMARK Flexibility Score: inf
ROOT
ATOM      1  C   UNL     1      15.696  26.247  -1.471  1.00  0.00     0.017 C 
ATOM      2  C   UNL     1      15.286  25.256  -0.296  1.00  0.00     0.014 C 
ATOM      3  C   UNL     1      14.605  26.171  -2.627  1.00  0.00     0.014 C 
ATOM      4  C   UNL     1      17.108  25.776  -2.074  1.00  0.00     0.028 C 
ATOM      5  C   UNL     1      16.419  24.402   0.332  1.00  0.00     0.007 C 
ATOM      6  C   UNL     1      15.168  26.085  -4.052  1.00  0.00     0.013 C 
ATOM      7  C   UNL     1      17.476  26.522  -3.401  1.00  0.00    -0.064 C 
ATOM      8  C   UNL     1      18.289  25.550  -1.014  1.00  0.00     0.015 C 
ATOM      9  C   UNL     1      17.832  25.066   0.423  1.00  0.00    -0.035 C 
ATOM     10  C   UNL     1      16.313  27.094  -4.328  1.00  0.00    -0.006 C 
ATOM     11  C   UNL     1      18.700  26.203  -3.976  1.00  0.00    -0.027 C 
ATOM     12  C   UNL     1      17.917  26.220   1.461  1.00  0.00     0.011 C 
ATOM     13  C   UNL     1      18.771  23.943   0.942  1.00  0.00     0.011 C 
ATOM     14  C   UNL     1      15.929  28.544  -3.849  1.00  0.00     0.017 C 
ATOM     15  C   UNL     1      16.750  27.209  -5.900  1.00  0.00    -0.020 C 
ATOM     16  C   UNL     1      18.923  25.916  -5.464  1.00  0.00     0.032 C 
ATOM     17  C   UNL     1      17.608  25.965  -6.317  1.00  0.00     0.006 C 
ATOM     18  C   UNL     1      15.421  27.246  -6.777  1.00  0.00     0.008 C 
ATOM     19  C   UNL     1      17.624  28.515  -6.191  1.00  0.00     0.012 C 
ATOM     20  C   UNL     1      17.839  25.711  -7.914  1.00  0.00    -0.025 C 
ATOM     21  C   UNL     1      15.713  27.192  -8.232  1.00  0.00     0.005 C 
ATOM     22  C   UNL     1      16.402  25.826  -8.504  1.00  0.00     0.003 C 
ATOM     23  C   UNL     1      18.461  24.246  -8.206  1.00  0.00     0.010 C 
ATOM     24  C   UNL     1      18.821  26.726  -8.632  1.00  0.00     0.012 C 
ATOM     25  C   UNL     1      16.000  25.160  -9.872  1.00  0.00    -0.006 C 
ATOM     26  C   UNL     1      17.482  23.268  -8.886  1.00  0.00     0.033 C 
ATOM     27  C   UNL     1      16.922  23.918 -10.168  1.00  0.00     0.120 C 
ATOM     28  C   UNL     1      15.943  26.202 -11.025  1.00  0.00     0.014 C 
ATOM     29  C   UNL     1      14.500  24.625  -9.690  1.00  0.00     0.014 C 
ENDROOT
BRANCH   1  30
ATOM     30  C   UNL     1      15.764  27.644  -0.893  1.00  0.00     0.048 C 
ATOM     31  O   UNL     1      16.829  28.346  -0.928  1.00  0.00    -0.550 OA
ATOM     32  O   UNL     1      14.608  28.199  -0.296  1.00  0.00    -0.550 OA
ENDBRANCH   1  30
BRANCH  27  33
ATOM     33  O   UNL     1      18.044  24.116 -11.053  1.00  0.00    -0.393 OA
ATOM     34  H   UNL     1      18.947  24.099 -10.588  1.00  0.00     0.210 HD
ENDBRANCH  27  33
TORSDOF 2
ENDMDL
MODEL 5
REMARK VINA RESULT:    -6.541      4.867      7.157
REMARK INTER + INTRA:          -6.840
REMARK INTER:                  -7.115
REMARK INTRA:                   0.275
REMARK UNBOUND:                 0.275
REMARK SMILES CC1(C)CC[C@]2(C(=O)[O-])CC[C@@]3(C)C(=CC[C@@H]4[C@@]5(C)CC[C@H](O)C(C)(C)[C@@H]5CC[C@]43C)[C@H]2C1
REMARK SMILES IDX 6 1 5 2 10 3 32 4 4 5 11 6 14 7 33 8 2 9 12 10 15 11 1 12
REMARK SMILES IDX 3 13 13 14 30 15 16 16 17 17 29 18 31 19 18 20 28 21 27 22
REMARK SMILES IDX 20 23 19 24 24 25 21 26 22 27 25 28 26 29 7 30 8 31 9 32
REMARK SMILES IDX 23 33
REMARK H PARENT 23 34
REMARK Flexibility Score: inf
ROOT
ATOM      1  C   UNL     1      17.337  25.871  -7.607  1.00  0.00     0.017 C 
ATOM      2  C   UNL     1      17.439  24.852  -8.825  1.00  0.00     0.014 C 
ATOM      3  C   UNL     1      18.396  25.462  -6.491  1.00  0.00     0.014 C 
ATOM      4  C   UNL     1      15.866  25.770  -6.972  1.00  0.00     0.028 C 
ATOM      5  C   UNL     1      16.105  24.357  -9.441  1.00  0.00     0.007 C 
ATOM      6  C   UNL     1      17.865  25.474  -5.051  1.00  0.00     0.013 C 
ATOM      7  C   UNL     1      15.742  26.535  -5.610  1.00  0.00    -0.064 C 
ATOM      8  C   UNL     1      14.643  25.907  -7.998  1.00  0.00     0.015 C 
ATOM      9  C   UNL     1      14.920  25.376  -9.465  1.00  0.00    -0.035 C 
ATOM     10  C   UNL     1      17.037  26.740  -4.706  1.00  0.00    -0.006 C 
ATOM     11  C   UNL     1      14.492  26.531  -5.005  1.00  0.00    -0.027 C 
ATOM     12  C   UNL     1      15.121  26.550 -10.463  1.00  0.00     0.011 C 
ATOM     13  C   UNL     1      13.702  24.564  -9.986  1.00  0.00     0.011 C 
ATOM     14  C   UNL     1      17.784  28.053  -5.152  1.00  0.00     0.017 C 
ATOM     15  C   UNL     1      16.685  26.906  -3.117  1.00  0.00    -0.020 C 
ATOM     16  C   UNL     1      14.235  26.256  -3.521  1.00  0.00     0.032 C 
ATOM     17  C   UNL     1      15.535  25.920  -2.711  1.00  0.00     0.006 C 
ATOM     18  C   UNL     1      17.996  26.554  -2.284  1.00  0.00     0.008 C 
ATOM     19  C   UNL     1      16.199  28.386  -2.757  1.00  0.00     0.012 C 
ATOM     20  C   UNL     1      15.283  25.675  -1.115  1.00  0.00    -0.025 C 
ATOM     21  C   UNL     1      17.735  26.523  -0.823  1.00  0.00     0.005 C 
ATOM     22  C   UNL     1      16.712  25.381  -0.570  1.00  0.00     0.003 C 
ATOM     23  C   UNL     1      14.299  24.419  -0.849  1.00  0.00     0.010 C 
ATOM     24  C   UNL     1      14.626  26.887  -0.335  1.00  0.00     0.012 C 
ATOM     25  C   UNL     1      16.954  24.580   0.762  1.00  0.00    -0.006 C 
ATOM     26  C   UNL     1      14.997  23.191  -0.232  1.00  0.00     0.033 C 
ATOM     27  C   UNL     1      15.741  23.618   1.050  1.00  0.00     0.120 C 
ATOM     28  C   UNL     1      17.315  25.524   1.945  1.00  0.00     0.014 C 
ATOM     29  C   UNL     1      18.252  23.671   0.514  1.00  0.00     0.014 C 
ENDROOT
BRANCH   1  30
ATOM     30  C   UNL     1      17.632  27.257  -8.139  1.00  0.00     0.048 C 
ATOM     31  O   UNL     1      16.741  28.169  -8.196  1.00  0.00    -0.550 OA
ATOM     32  O   UNL     1      18.939  27.560  -8.585  1.00  0.00    -0.550 OA
ENDBRANCH   1  30
BRANCH  27  33
ATOM     33  O   UNL     1      14.734  24.073   1.978  1.00  0.00    -0.393 OA
ATOM     34  H   UNL     1      15.023  24.041   2.952  1.00  0.00     0.210 HD
ENDBRANCH  27  33
TORSDOF 2
ENDMDL
MODEL 6
REMARK VINA RESULT:    -6.475      1.422      1.939
REMARK INTER + INTRA:          -6.768
REMARK INTER:                  -7.045
REMARK INTRA:                   0.277
REMARK UNBOUND:                 0.275
REMARK SMILES CC1(C)CC[C@]2(C(=O)[O-])CC[C@@]3(C)C(=CC[C@@H]4[C@@]5(C)CC[C@H](O)C(C)(C)[C@@H]5CC[C@]43C)[C@H]2C1
REMARK SMILES IDX 6 1 5 2 10 3 32 4 4 5 11 6 14 7 33 8 2 9 12 10 15 11 1 12
REMARK SMILES IDX 3 13 13 14 30 15 16 16 17 17 29 18 31 19 18 20 28 21 27 22
REMARK SMILES IDX 20 23 19 24 24 25 21 26 22 27 25 28 26 29 7 30 8 31 9 32
REMARK SMILES IDX 23 33
REMARK H PARENT 23 34
REMARK Flexibility Score: inf
ROOT
ATOM      1  C   UNL     1      14.123  28.069  -9.723  1.00  0.00     0.017 C 
ATOM      2  C   UNL     1      13.043  27.857 -10.872  1.00  0.00     0.014 C 
ATOM      3  C   UNL     1      15.284  29.015 -10.264  1.00  0.00     0.014 C 
ATOM      4  C   UNL     1      14.763  26.646  -9.347  1.00  0.00     0.028 C 
ATOM      5  C   UNL     1      12.490  26.420 -11.061  1.00  0.00     0.007 C 
ATOM      6  C   UNL     1      16.710  28.552  -9.936  1.00  0.00     0.013 C 
ATOM      7  C   UNL     1      16.018  26.774  -8.418  1.00  0.00    -0.064 C 
ATOM      8  C   UNL     1      13.725  25.471  -9.011  1.00  0.00     0.015 C 
ATOM      9  C   UNL     1      12.337  25.549  -9.771  1.00  0.00    -0.035 C 
ATOM     10  C   UNL     1      16.892  28.105  -8.461  1.00  0.00    -0.006 C 
ATOM     11  C   UNL     1      16.616  25.588  -8.012  1.00  0.00    -0.027 C 
ATOM     12  C   UNL     1      11.200  26.026  -8.824  1.00  0.00     0.011 C 
ATOM     13  C   UNL     1      11.919  24.143 -10.282  1.00  0.00     0.011 C 
ATOM     14  C   UNL     1      16.287  29.160  -7.462  1.00  0.00     0.017 C 
ATOM     15  C   UNL     1      18.447  27.860  -8.016  1.00  0.00    -0.020 C 
ATOM     16  C   UNL     1      18.123  25.314  -8.026  1.00  0.00     0.032 C 
ATOM     17  C   UNL     1      18.971  26.502  -8.599  1.00  0.00     0.006 C 
ATOM     18  C   UNL     1      19.320  29.055  -8.604  1.00  0.00     0.008 C 
ATOM     19  C   UNL     1      18.618  27.799  -6.427  1.00  0.00     0.012 C 
ATOM     20  C   UNL     1      20.584  26.245  -8.572  1.00  0.00    -0.025 C 
ATOM     21  C   UNL     1      20.773  28.842  -8.387  1.00  0.00     0.005 C 
ATOM     22  C   UNL     1      21.164  27.560  -9.173  1.00  0.00     0.003 C 
ATOM     23  C   UNL     1      21.004  24.970  -9.476  1.00  0.00     0.010 C 
ATOM     24  C   UNL     1      21.206  25.960  -7.143  1.00  0.00     0.012 C 
ATOM     25  C   UNL     1      22.587  27.621  -9.842  1.00  0.00    -0.006 C 
ATOM     26  C   UNL     1      21.770  25.333 -10.763  1.00  0.00     0.033 C 
ATOM     27  C   UNL     1      22.991  26.205 -10.400  1.00  0.00     0.120 C 
ATOM     28  C   UNL     1      23.643  28.258  -8.894  1.00  0.00     0.014 C 
ATOM     29  C   UNL     1      22.457  28.620 -11.089  1.00  0.00     0.014 C 
ENDROOT
BRANCH   1  30
ATOM     30  C   UNL     1      13.423  28.706  -8.543  1.00  0.00     0.048 C 
ATOM     31  O   UNL     1      13.262  28.095  -7.434  1.00  0.00    -0.550 OA
ATOM     32  O   UNL     1      12.931  30.027  -8.665  1.00  0.00    -0.550 OA
ENDBRANCH   1  30
BRANCH  27  33
ATOM     33  O   UNL     1      23.852  25.386  -9.581  1.00  0.00    -0.393 OA
ATOM     34  H   UNL     1      24.749  25.814  -9.367  1.00  0.00     0.210 HD
ENDBRANCH  27  33
TORSDOF 2
ENDMDL
MODEL 7
REMARK VINA RESULT:    -6.189      4.655      8.062
REMARK INTER + INTRA:          -6.457
REMARK INTER:                  -6.732
REMARK INTRA:                   0.276
REMARK UNBOUND:                 0.275
REMARK SMILES CC1(C)CC[C@]2(C(=O)[O-])CC[C@@]3(C)C(=CC[C@@H]4[C@@]5(C)CC[C@H](O)C(C)(C)[C@@H]5CC[C@]43C)[C@H]2C1
REMARK SMILES IDX 6 1 5 2 10 3 32 4 4 5 11 6 14 7 33 8 2 9 12 10 15 11 1 12
REMARK SMILES IDX 3 13 13 14 30 15 16 16 17 17 29 18 31 19 18 20 28 21 27 22
REMARK SMILES IDX 20 23 19 24 24 25 21 26 22 27 25 28 26 29 7 30 8 31 9 32
REMARK SMILES IDX 23 33
REMARK H PARENT 23 34
REMARK Flexibility Score: inf
ROOT
ATOM      1  C   UNL     1      17.483  27.862  -7.415  1.00  0.00     0.017 C 
ATOM      2  C   UNL     1      17.490  29.009  -8.517  1.00  0.00     0.014 C 
ATOM      3  C   UNL     1      16.307  28.136  -6.378  1.00  0.00     0.014 C 
ATOM      4  C   UNL     1      18.878  27.901  -6.621  1.00  0.00     0.028 C 
ATOM      5  C   UNL     1      18.871  29.580  -8.931  1.00  0.00     0.007 C 
ATOM      6  C   UNL     1      16.685  27.967  -4.901  1.00  0.00     0.013 C 
ATOM      7  C   UNL     1      18.874  26.990  -5.347  1.00  0.00    -0.064 C 
ATOM      8  C   UNL     1      20.204  27.888  -7.521  1.00  0.00     0.015 C 
ATOM      9  C   UNL     1      20.071  28.578  -8.941  1.00  0.00    -0.035 C 
ATOM     10  C   UNL     1      17.496  26.676  -4.612  1.00  0.00    -0.006 C 
ATOM     11  C   UNL     1      20.054  26.935  -4.616  1.00  0.00    -0.027 C 
ATOM     12  C   UNL     1      19.997  27.522 -10.078  1.00  0.00     0.011 C 
ATOM     13  C   UNL     1      21.321  29.452  -9.239  1.00  0.00     0.011 C 
ATOM     14  C   UNL     1      16.825  25.416  -5.277  1.00  0.00     0.017 C 
ATOM     15  C   UNL     1      17.684  26.336  -3.023  1.00  0.00    -0.020 C 
ATOM     16  C   UNL     1      20.150  27.044  -3.092  1.00  0.00     0.032 C 
ATOM     17  C   UNL     1      18.766  27.279  -2.391  1.00  0.00     0.006 C 
ATOM     18  C   UNL     1      16.287  26.584  -2.299  1.00  0.00     0.008 C 
ATOM     19  C   UNL     1      18.158  24.829  -2.779  1.00  0.00     0.012 C 
ATOM     20  C   UNL     1      18.847  27.346  -0.761  1.00  0.00    -0.025 C 
ATOM     21  C   UNL     1      16.394  26.453  -0.825  1.00  0.00     0.005 C 
ATOM     22  C   UNL     1      17.363  27.568  -0.341  1.00  0.00     0.003 C 
ATOM     23  C   UNL     1      19.774  28.571  -0.255  1.00  0.00     0.010 C 
ATOM     24  C   UNL     1      19.442  26.059  -0.054  1.00  0.00     0.012 C 
ATOM     25  C   UNL     1      16.969  28.213   1.039  1.00  0.00    -0.006 C 
ATOM     26  C   UNL     1      18.992  29.718   0.416  1.00  0.00     0.033 C 
ATOM     27  C   UNL     1      18.127  29.145   1.558  1.00  0.00     0.120 C 
ATOM     28  C   UNL     1      16.505  27.141   2.065  1.00  0.00     0.014 C 
ATOM     29  C   UNL     1      15.687  29.134   0.757  1.00  0.00     0.014 C 
ENDROOT
BRANCH   1  30
ATOM     30  C   UNL     1      17.272  26.542  -8.124  1.00  0.00     0.048 C 
ATOM     31  O   UNL     1      18.182  25.650  -8.192  1.00  0.00    -0.550 OA
ATOM     32  O   UNL     1      16.022  26.279  -8.732  1.00  0.00    -0.550 OA
ENDBRANCH   1  30
BRANCH  27  33
ATOM     33  O   UNL     1      19.040  28.596   2.530  1.00  0.00    -0.393 OA
ATOM     34  H   UNL     1      19.435  27.697   2.268  1.00  0.00     0.210 HD
ENDBRANCH  27  33
TORSDOF 2
ENDMDL
MODEL 8
REMARK VINA RESULT:    -5.796      2.098      8.369
REMARK INTER + INTRA:          -6.030
REMARK INTER:                  -6.422
REMARK INTRA:                   0.392
REMARK UNBOUND:                 0.275
REMARK SMILES CC1(C)CC[C@]2(C(=O)[O-])CC[C@@]3(C)C(=CC[C@@H]4[C@@]5(C)CC[C@H](O)C(C)(C)[C@@H]5CC[C@]43C)[C@H]2C1
REMARK SMILES IDX 6 1 5 2 10 3 32 4 4 5 11 6 14 7 33 8 2 9 12 10 15 11 1 12
REMARK SMILES IDX 3 13 13 14 30 15 16 16 17 17 29 18 31 19 18 20 28 21 27 22
REMARK SMILES IDX 20 23 19 24 24 25 21 26 22 27 25 28 26 29 7 30 8 31 9 32
REMARK SMILES IDX 23 33
REMARK H PARENT 23 34
REMARK Flexibility Score: inf
ROOT
ATOM      1  C   UNL     1      22.019  25.933  -8.539  1.00  0.00     0.017 C 
ATOM      2  C   UNL     1      22.956  24.772  -7.987  1.00  0.00     0.014 C 
ATOM      3  C   UNL     1      21.099  26.471  -7.357  1.00  0.00     0.014 C 
ATOM      4  C   UNL     1      21.070  25.329  -9.685  1.00  0.00     0.028 C 
ATOM      5  C   UNL     1      23.131  23.521  -8.887  1.00  0.00     0.007 C 
ATOM      6  C   UNL     1      19.621  26.673  -7.718  1.00  0.00     0.013 C 
ATOM      7  C   UNL     1      19.932  26.318 -10.111  1.00  0.00    -0.064 C 
ATOM      8  C   UNL     1      21.805  24.517 -10.855  1.00  0.00     0.015 C 
ATOM      9  C   UNL     1      23.130  23.760 -10.432  1.00  0.00    -0.035 C 
ATOM     10  C   UNL     1      19.409  27.405  -9.070  1.00  0.00    -0.006 C 
ATOM     11  C   UNL     1      19.083  25.892 -11.124  1.00  0.00    -0.027 C 
ATOM     12  C   UNL     1      24.394  24.499 -10.953  1.00  0.00     0.011 C 
ATOM     13  C   UNL     1      23.167  22.339 -11.058  1.00  0.00     0.011 C 
ATOM     14  C   UNL     1      20.302  28.697  -9.170  1.00  0.00     0.017 C 
ATOM     15  C   UNL     1      17.865  27.867  -9.354  1.00  0.00    -0.020 C 
ATOM     16  C   UNL     1      17.556  26.010 -11.098  1.00  0.00     0.032 C 
ATOM     17  C   UNL     1      16.997  26.629  -9.771  1.00  0.00     0.006 C 
ATOM     18  C   UNL     1      17.282  28.485  -8.007  1.00  0.00     0.008 C 
ATOM     19  C   UNL     1      17.763  28.944 -10.531  1.00  0.00     0.012 C 
ATOM     20  C   UNL     1      15.373  26.808  -9.751  1.00  0.00    -0.025 C 
ATOM     21  C   UNL     1      15.834  28.792  -8.117  1.00  0.00     0.005 C 
ATOM     22  C   UNL     1      15.102  27.441  -8.353  1.00  0.00     0.003 C 
ATOM     23  C   UNL     1      14.610  25.388  -9.892  1.00  0.00     0.010 C 
ATOM     24  C   UNL     1      14.772  27.716 -10.902  1.00  0.00     0.012 C 
ATOM     25  C   UNL     1      13.707  27.328  -7.636  1.00  0.00    -0.006 C 
ATOM     26  C   UNL     1      13.893  24.926  -8.609  1.00  0.00     0.033 C 
ATOM     27  C   UNL     1      12.942  26.042  -8.127  1.00  0.00     0.120 C 
ATOM     28  C   UNL     1      12.886  28.644  -7.760  1.00  0.00     0.014 C 
ATOM     29  C   UNL     1      14.014  27.149  -6.073  1.00  0.00     0.014 C 
ENDROOT
BRANCH   1  30
ATOM     30  C   UNL     1      22.911  27.036  -9.065  1.00  0.00     0.048 C 
ATOM     31  O   UNL     1      23.776  27.622  -8.331  1.00  0.00    -0.550 OA
ATOM     32  O   UNL     1      22.792  27.433 -10.417  1.00  0.00    -0.550 OA
ENDBRANCH   1  30
BRANCH  27  33
ATOM     33  O   UNL     1      11.948  26.210  -9.160  1.00  0.00    -0.393 OA
ATOM     34  H   UNL     1      12.151  25.702 -10.016  1.00  0.00     0.210 HD
ENDBRANCH  27  33
TORSDOF 2
ENDMDL
