MODEL 1
REMARK VINA RESULT:    -6.022      0.000      0.000
REMARK INTER + INTRA:          -9.630
REMARK INTER:                  -8.310
REMARK INTRA:                  -1.320
REMARK UNBOUND:                -1.320
REMARK SMILES CC[C@@H](CC[C@H](C)[C@H]1CC[C@@H]2[C@H]3CC=C4C[C@H](O)CC[C@]4(C)[C@@H]3CC[C@]21C)C(C)C
REMARK SMILES IDX 5 1 4 2 3 3 2 4 1 5 28 6 29 7 30 8 6 9 7 10 8 11 9 12 26 13
REMARK SMILES IDX 10 14 11 15 25 16 27 17 12 18 24 19 23 20 13 21 21 22 14 23
REMARK SMILES IDX 15 24 20 25 22 26 16 27 19 28 17 29 18 30
REMARK H PARENT 18 31
REMARK Flexibility Score: inf
ROOT
ATOM      1  C   UNL     1       0.077  -9.120  -5.102  1.00  0.00     0.004 C 
ENDROOT
BRANCH   1   2
ATOM      2  C   UNL     1       0.377  -9.124  -3.580  1.00  0.00     0.004 C 
BRANCH   2   3
ATOM      3  C   UNL     1       1.706  -8.407  -3.214  1.00  0.00    -0.009 C 
BRANCH   3   4
ATOM      4  C   UNL     1       2.933  -8.962  -3.999  1.00  0.00     0.000 C 
ATOM      5  C   UNL     1       3.495  -8.068  -5.107  1.00  0.00     0.004 C 
ENDBRANCH   3   4
BRANCH   3   6
ATOM      6  C   UNL     1       1.893  -8.267  -1.665  1.00  0.00    -0.014 C 
ATOM      7  C   UNL     1       2.454  -6.913  -1.187  1.00  0.00     0.007 C 
ATOM      8  C   UNL     1       0.621  -8.629  -0.881  1.00  0.00     0.007 C 
ENDBRANCH   3   6
ENDBRANCH   2   3
ENDBRANCH   1   2
BRANCH   1   9
ATOM      9  C   UNL     1      -0.771  -7.908  -5.589  1.00  0.00    -0.011 C 
ATOM     10  C   UNL     1      -0.638  -7.797  -7.124  1.00  0.00     0.008 C 
BRANCH   9  11
ATOM     11  C   UNL     1      -0.426  -6.582  -4.794  1.00  0.00    -0.002 C 
ATOM     12  C   UNL     1       0.655  -5.678  -5.473  1.00  0.00     0.005 C 
ATOM     13  C   UNL     1      -1.614  -5.579  -4.564  1.00  0.00    -0.026 C 
ATOM     14  C   UNL     1      -0.046  -4.422  -6.004  1.00  0.00     0.005 C 
ATOM     15  C   UNL     1      -1.527  -4.700  -5.819  1.00  0.00    -0.001 C 
ATOM     16  C   UNL     1      -3.063  -6.136  -4.488  1.00  0.00     0.007 C 
ATOM     17  C   UNL     1      -1.307  -4.797  -3.243  1.00  0.00     0.012 C 
ATOM     18  C   UNL     1      -2.484  -3.484  -5.790  1.00  0.00     0.000 C 
ATOM     19  C   UNL     1      -4.116  -5.005  -4.484  1.00  0.00     0.005 C 
ATOM     20  C   UNL     1      -3.949  -3.991  -5.660  1.00  0.00     0.003 C 
ATOM     21  C   UNL     1      -2.364  -2.685  -7.095  1.00  0.00     0.031 C 
ATOM     22  C   UNL     1      -4.996  -2.798  -5.641  1.00  0.00    -0.008 C 
ATOM     23  C   UNL     1      -3.344  -1.556  -7.125  1.00  0.00    -0.027 C 
ATOM     24  C   UNL     1      -4.550  -1.612  -6.518  1.00  0.00    -0.065 C 
ATOM     25  C   UNL     1      -5.208  -2.244  -4.196  1.00  0.00     0.014 C 
ATOM     26  C   UNL     1      -6.341  -3.340  -6.194  1.00  0.00     0.016 C 
ATOM     27  C   UNL     1      -5.397  -0.355  -6.491  1.00  0.00     0.063 C 
ATOM     28  C   UNL     1      -6.054  -0.954  -4.128  1.00  0.00     0.033 C 
ATOM     29  C   UNL     1      -5.518   0.152  -5.048  1.00  0.00     0.118 C 
BRANCH  29  30
ATOM     30  O   UNL     1      -4.267   0.588  -4.578  1.00  0.00    -0.393 OA
ATOM     31  H   UNL     1      -4.075   1.452  -5.027  1.00  0.00     0.210 HD
ENDBRANCH  29  30
ENDBRANCH   9  11
ENDBRANCH   1   9
TORSDOF 7
ENDMDL
MODEL 2
REMARK VINA RESULT:    -5.640      3.597      7.153
REMARK INTER + INTRA:          -9.103
REMARK INTER:                  -8.489
REMARK INTRA:                  -0.613
REMARK UNBOUND:                -1.320
REMARK SMILES CC[C@@H](CC[C@H](C)[C@H]1CC[C@@H]2[C@H]3CC=C4C[C@H](O)CC[C@]4(C)[C@@H]3CC[C@]21C)C(C)C
REMARK SMILES IDX 5 1 4 2 3 3 2 4 1 5 28 6 29 7 30 8 6 9 7 10 8 11 9 12 26 13
REMARK SMILES IDX 10 14 11 15 25 16 27 17 12 18 24 19 23 20 13 21 21 22 14 23
REMARK SMILES IDX 15 24 20 25 22 26 16 27 19 28 17 29 18 30
REMARK H PARENT 18 31
REMARK Flexibility Score: inf
ROOT
ATOM      1  C   UNL     1      -4.742  -3.215  -6.981  1.00  0.00     0.004 C 
ENDROOT
BRANCH   1   2
ATOM      2  C   UNL     1      -4.646  -4.752  -6.796  1.00  0.00     0.004 C 
BRANCH   2   3
ATOM      3  C   UNL     1      -3.355  -5.203  -6.057  1.00  0.00    -0.009 C 
BRANCH   3   4
ATOM      4  C   UNL     1      -3.624  -6.289  -4.971  1.00  0.00     0.000 C 
ATOM      5  C   UNL     1      -2.468  -7.242  -4.660  1.00  0.00     0.004 C 
ENDBRANCH   3   4
BRANCH   3   6
ATOM      6  C   UNL     1      -2.479  -3.986  -5.604  1.00  0.00    -0.014 C 
ATOM      7  C   UNL     1      -2.553  -3.642  -4.103  1.00  0.00     0.007 C 
ATOM      8  C   UNL     1      -1.016  -4.110  -6.056  1.00  0.00     0.007 C 
ENDBRANCH   3   6
ENDBRANCH   2   3
ENDBRANCH   1   2
BRANCH   1   9
ATOM      9  C   UNL     1      -5.875  -2.536  -6.155  1.00  0.00    -0.011 C 
ATOM     10  C   UNL     1      -6.982  -2.068  -7.125  1.00  0.00     0.008 C 
BRANCH   9  11
ATOM     11  C   UNL     1      -5.316  -1.409  -5.191  1.00  0.00    -0.002 C 
ATOM     12  C   UNL     1      -4.075  -0.635  -5.744  1.00  0.00     0.005 C 
ATOM     13  C   UNL     1      -6.310  -0.248  -4.829  1.00  0.00    -0.026 C 
ATOM     14  C   UNL     1      -4.527   0.785  -6.104  1.00  0.00     0.005 C 
ATOM     15  C   UNL     1      -6.038   0.758  -5.956  1.00  0.00    -0.001 C 
ATOM     16  C   UNL     1      -7.837  -0.538  -4.826  1.00  0.00     0.007 C 
ATOM     17  C   UNL     1      -5.899   0.287  -3.416  1.00  0.00     0.012 C 
ATOM     18  C   UNL     1      -6.762   2.112  -5.766  1.00  0.00     0.000 C 
ATOM     19  C   UNL     1      -8.670   0.754  -4.671  1.00  0.00     0.005 C 
ATOM     20  C   UNL     1      -8.296   1.867  -5.702  1.00  0.00     0.003 C 
ATOM     21  C   UNL     1      -6.470   3.041  -6.953  1.00  0.00     0.031 C 
ATOM     22  C   UNL     1      -9.113   3.216  -5.524  1.00  0.00    -0.008 C 
ATOM     23  C   UNL     1      -7.231   4.321  -6.832  1.00  0.00    -0.027 C 
ATOM     24  C   UNL     1      -8.441   4.406  -6.236  1.00  0.00    -0.065 C 
ATOM     25  C   UNL     1      -9.256   3.606  -4.018  1.00  0.00     0.014 C 
ATOM     26  C   UNL     1     -10.520   3.003  -6.143  1.00  0.00     0.016 C 
ATOM     27  C   UNL     1      -9.050   5.780  -6.043  1.00  0.00     0.063 C 
ATOM     28  C   UNL     1      -9.858   5.007  -3.779  1.00  0.00     0.033 C 
ATOM     29  C   UNL     1      -9.111   6.108  -4.545  1.00  0.00     0.118 C 
BRANCH  29  30
ATOM     30  O   UNL     1      -7.813   6.246  -4.022  1.00  0.00    -0.393 OA
ATOM     31  H   UNL     1      -7.398   5.345  -4.038  1.00  0.00     0.210 HD
ENDBRANCH  29  30
ENDBRANCH   9  11
ENDBRANCH   1   9
TORSDOF 7
ENDMDL
MODEL 3
REMARK VINA RESULT:    -5.487      2.644      9.300
REMARK INTER + INTRA:          -8.892
REMARK INTER:                  -7.516
REMARK INTRA:                  -1.375
REMARK UNBOUND:                -1.320
REMARK SMILES CC[C@@H](CC[C@H](C)[C@H]1CC[C@@H]2[C@H]3CC=C4C[C@H](O)CC[C@]4(C)[C@@H]3CC[C@]21C)C(C)C
REMARK SMILES IDX 5 1 4 2 3 3 2 4 1 5 28 6 29 7 30 8 6 9 7 10 8 11 9 12 26 13
REMARK SMILES IDX 10 14 11 15 25 16 27 17 12 18 24 19 23 20 13 21 21 22 14 23
REMARK SMILES IDX 15 24 20 25 22 26 16 27 19 28 17 29 18 30
REMARK H PARENT 18 31
REMARK Flexibility Score: inf
ROOT
ATOM      1  C   UNL     1      -6.618  -0.004  -7.125  1.00  0.00     0.004 C 
ENDROOT
BRANCH   1   2
ATOM      2  C   UNL     1      -8.086   0.284  -6.715  1.00  0.00     0.004 C 
BRANCH   2   3
ATOM      3  C   UNL     1      -8.307   1.732  -6.198  1.00  0.00    -0.009 C 
BRANCH   3   4
ATOM      4  C   UNL     1      -6.978   2.533  -6.045  1.00  0.00     0.000 C 
ATOM      5  C   UNL     1      -6.806   3.329  -4.749  1.00  0.00     0.004 C 
ENDBRANCH   3   4
BRANCH   3   6
ATOM      6  C   UNL     1      -9.277   1.778  -4.968  1.00  0.00    -0.014 C 
ATOM      7  C   UNL     1     -10.630   2.472  -5.220  1.00  0.00     0.007 C 
ATOM      8  C   UNL     1      -9.492   0.395  -4.334  1.00  0.00     0.007 C 
ENDBRANCH   3   6
ENDBRANCH   2   3
ENDBRANCH   1   2
BRANCH   1   9
ATOM      9  C   UNL     1      -6.051  -1.350  -6.583  1.00  0.00    -0.011 C 
ATOM     10  C   UNL     1      -7.230  -2.232  -6.117  1.00  0.00     0.008 C 
BRANCH   9  11
ATOM     11  C   UNL     1      -4.920  -1.124  -5.496  1.00  0.00    -0.002 C 
ATOM     12  C   UNL     1      -5.368  -1.398  -4.023  1.00  0.00     0.005 C 
ATOM     13  C   UNL     1      -3.635  -2.018  -5.634  1.00  0.00    -0.026 C 
ATOM     14  C   UNL     1      -4.678  -2.685  -3.552  1.00  0.00     0.005 C 
ATOM     15  C   UNL     1      -4.018  -3.246  -4.798  1.00  0.00    -0.001 C 
ATOM     16  C   UNL     1      -3.220  -2.527  -7.043  1.00  0.00     0.007 C 
ATOM     17  C   UNL     1      -2.442  -1.207  -5.024  1.00  0.00     0.012 C 
ATOM     18  C   UNL     1      -2.854  -4.247  -4.600  1.00  0.00     0.000 C 
ATOM     19  C   UNL     1      -2.078  -3.564  -6.969  1.00  0.00     0.005 C 
ATOM     20  C   UNL     1      -2.368  -4.746  -5.990  1.00  0.00     0.003 C 
ATOM     21  C   UNL     1      -3.332  -5.461  -3.791  1.00  0.00     0.031 C 
ATOM     22  C   UNL     1      -1.182  -5.794  -5.870  1.00  0.00    -0.008 C 
ATOM     23  C   UNL     1      -2.248  -6.482  -3.664  1.00  0.00    -0.027 C 
ATOM     24  C   UNL     1      -1.304  -6.676  -4.612  1.00  0.00    -0.065 C 
ATOM     25  C   UNL     1       0.207  -5.083  -5.797  1.00  0.00     0.014 C 
ATOM     26  C   UNL     1      -1.232  -6.712  -7.120  1.00  0.00     0.016 C 
ATOM     27  C   UNL     1      -0.171  -7.636  -4.309  1.00  0.00     0.063 C 
ATOM     28  C   UNL     1       1.387  -6.025  -5.474  1.00  0.00     0.033 C 
ATOM     29  C   UNL     1       1.147  -6.857  -4.205  1.00  0.00     0.118 C 
BRANCH  29  30
ATOM     30  O   UNL     1       1.125  -6.008  -3.085  1.00  0.00    -0.393 OA
ATOM     31  H   UNL     1       2.043  -5.646  -2.979  1.00  0.00     0.210 HD
ENDBRANCH  29  30
ENDBRANCH   9  11
ENDBRANCH   1   9
TORSDOF 7
ENDMDL
MODEL 4
REMARK VINA RESULT:    -5.457      1.565      3.249
REMARK INTER + INTRA:          -8.850
REMARK INTER:                  -7.150
REMARK INTRA:                  -1.700
REMARK UNBOUND:                -1.320
REMARK SMILES CC[C@@H](CC[C@H](C)[C@H]1CC[C@@H]2[C@H]3CC=C4C[C@H](O)CC[C@]4(C)[C@@H]3CC[C@]21C)C(C)C
REMARK SMILES IDX 5 1 4 2 3 3 2 4 1 5 28 6 29 7 30 8 6 9 7 10 8 11 9 12 26 13
REMARK SMILES IDX 10 14 11 15 25 16 27 17 12 18 24 19 23 20 13 21 21 22 14 23
REMARK SMILES IDX 15 24 20 25 22 26 16 27 19 28 17 29 18 30
REMARK H PARENT 18 31
REMARK Flexibility Score: inf
ROOT
ATOM      1  C   UNL     1      -1.243  -6.673  -3.255  1.00  0.00     0.004 C 
ENDROOT
BRANCH   1   2
ATOM      2  C   UNL     1       0.149  -6.253  -3.796  1.00  0.00     0.004 C 
BRANCH   2   3
ATOM      3  C   UNL     1       0.956  -7.436  -4.399  1.00  0.00    -0.009 C 
BRANCH   3   4
ATOM      4  C   UNL     1       1.831  -8.177  -3.342  1.00  0.00     0.000 C 
ATOM      5  C   UNL     1       2.442  -7.313  -2.236  1.00  0.00     0.004 C 
ENDBRANCH   3   4
BRANCH   3   6
ATOM      6  C   UNL     1       1.682  -7.038  -5.729  1.00  0.00    -0.014 C 
ATOM      7  C   UNL     1       1.332  -7.902  -6.956  1.00  0.00     0.007 C 
ATOM      8  C   UNL     1       1.530  -5.545  -6.060  1.00  0.00     0.007 C 
ENDBRANCH   3   6
ENDBRANCH   2   3
ENDBRANCH   1   2
BRANCH   1   9
ATOM      9  C   UNL     1      -2.379  -6.660  -4.321  1.00  0.00    -0.011 C 
ATOM     10  C   UNL     1      -2.570  -8.097  -4.856  1.00  0.00     0.008 C 
BRANCH   9  11
ATOM     11  C   UNL     1      -2.136  -5.562  -5.437  1.00  0.00    -0.002 C 
ATOM     12  C   UNL     1      -2.698  -5.933  -6.848  1.00  0.00     0.005 C 
ATOM     13  C   UNL     1      -2.775  -4.151  -5.175  1.00  0.00    -0.026 C 
ATOM     14  C   UNL     1      -3.910  -5.034  -7.125  1.00  0.00     0.005 C 
ATOM     15  C   UNL     1      -4.162  -4.313  -5.813  1.00  0.00    -0.001 C 
ATOM     16  C   UNL     1      -2.992  -3.684  -3.708  1.00  0.00     0.007 C 
ATOM     17  C   UNL     1      -1.881  -3.096  -5.908  1.00  0.00     0.012 C 
ATOM     18  C   UNL     1      -4.976  -2.998  -5.865  1.00  0.00     0.000 C 
ATOM     19  C   UNL     1      -3.827  -2.386  -3.633  1.00  0.00     0.005 C 
ATOM     20  C   UNL     1      -5.174  -2.462  -4.419  1.00  0.00     0.003 C 
ATOM     21  C   UNL     1      -6.359  -3.256  -6.479  1.00  0.00     0.031 C 
ATOM     22  C   UNL     1      -6.019  -1.119  -4.388  1.00  0.00    -0.008 C 
ATOM     23  C   UNL     1      -7.195  -2.017  -6.458  1.00  0.00    -0.027 C 
ATOM     24  C   UNL     1      -7.088  -1.072  -5.498  1.00  0.00    -0.065 C 
ATOM     25  C   UNL     1      -5.108   0.137  -4.578  1.00  0.00     0.014 C 
ATOM     26  C   UNL     1      -6.734  -1.041  -3.013  1.00  0.00     0.016 C 
ATOM     27  C   UNL     1      -7.882   0.208  -5.660  1.00  0.00     0.063 C 
ATOM     28  C   UNL     1      -5.881   1.460  -4.763  1.00  0.00     0.033 C 
ATOM     29  C   UNL     1      -6.922   1.383  -5.890  1.00  0.00     0.118 C 
BRANCH  29  30
ATOM     30  O   UNL     1      -6.266   1.243  -7.125  1.00  0.00    -0.393 OA
ATOM     31  H   UNL     1      -6.469   0.330  -7.458  1.00  0.00     0.210 HD
ENDBRANCH  29  30
ENDBRANCH   9  11
ENDBRANCH   1   9
TORSDOF 7
ENDMDL
MODEL 5
REMARK VINA RESULT:    -5.440      2.633      9.120
REMARK INTER + INTRA:          -8.827
REMARK INTER:                  -7.510
REMARK INTRA:                  -1.317
REMARK UNBOUND:                -1.320
REMARK SMILES CC[C@@H](CC[C@H](C)[C@H]1CC[C@@H]2[C@H]3CC=C4C[C@H](O)CC[C@]4(C)[C@@H]3CC[C@]21C)C(C)C
REMARK SMILES IDX 5 1 4 2 3 3 2 4 1 5 28 6 29 7 30 8 6 9 7 10 8 11 9 12 26 13
REMARK SMILES IDX 10 14 11 15 25 16 27 17 12 18 24 19 23 20 13 21 21 22 14 23
REMARK SMILES IDX 15 24 20 25 22 26 16 27 19 28 17 29 18 30
REMARK H PARENT 18 31
REMARK Flexibility Score: inf
ROOT
ATOM      1  C   UNL     1      -6.686  -0.940  -4.828  1.00  0.00     0.004 C 
ENDROOT
BRANCH   1   2
ATOM      2  C   UNL     1      -7.243  -0.448  -6.189  1.00  0.00     0.004 C 
BRANCH   2   3
ATOM      3  C   UNL     1      -7.966   0.924  -6.097  1.00  0.00    -0.009 C 
BRANCH   3   4
ATOM      4  C   UNL     1      -9.226   1.010  -7.013  1.00  0.00     0.000 C 
ATOM      5  C   UNL     1     -10.117   2.241  -6.833  1.00  0.00     0.004 C 
ENDBRANCH   3   4
BRANCH   3   6
ATOM      6  C   UNL     1      -6.967   2.126  -6.196  1.00  0.00    -0.014 C 
ATOM      7  C   UNL     1      -6.603   2.794  -4.856  1.00  0.00     0.007 C 
ATOM      8  C   UNL     1      -5.696   1.774  -6.985  1.00  0.00     0.007 C 
ENDBRANCH   3   6
ENDBRANCH   2   3
ENDBRANCH   1   2
BRANCH   1   9
ATOM      9  C   UNL     1      -5.191  -1.374  -4.862  1.00  0.00    -0.011 C 
ATOM     10  C   UNL     1      -4.307  -0.119  -4.687  1.00  0.00     0.008 C 
BRANCH   9  11
ATOM     11  C   UNL     1      -4.854  -2.250  -6.139  1.00  0.00    -0.002 C 
ATOM     12  C   UNL     1      -3.830  -1.599  -7.125  1.00  0.00     0.005 C 
ATOM     13  C   UNL     1      -4.216  -3.660  -5.867  1.00  0.00    -0.026 C 
ATOM     14  C   UNL     1      -2.516  -2.382  -7.026  1.00  0.00     0.005 C 
ATOM     15  C   UNL     1      -2.718  -3.328  -5.856  1.00  0.00    -0.001 C 
ATOM     16  C   UNL     1      -4.539  -4.387  -4.531  1.00  0.00     0.007 C 
ATOM     17  C   UNL     1      -4.630  -4.590  -7.056  1.00  0.00     0.012 C 
ATOM     18  C   UNL     1      -1.807  -4.577  -5.781  1.00  0.00     0.000 C 
ATOM     19  C   UNL     1      -3.662  -5.643  -4.331  1.00  0.00     0.005 C 
ATOM     20  C   UNL     1      -2.132  -5.368  -4.483  1.00  0.00     0.003 C 
ATOM     21  C   UNL     1      -0.332  -4.154  -5.734  1.00  0.00     0.031 C 
ATOM     22  C   UNL     1      -1.223  -6.660  -4.325  1.00  0.00    -0.008 C 
ATOM     23  C   UNL     1       0.561  -5.342  -5.572  1.00  0.00    -0.027 C 
ATOM     24  C   UNL     1       0.192  -6.455  -4.900  1.00  0.00    -0.065 C 
ATOM     25  C   UNL     1      -1.842  -7.891  -5.062  1.00  0.00     0.014 C 
ATOM     26  C   UNL     1      -1.099  -6.969  -2.809  1.00  0.00     0.016 C 
ATOM     27  C   UNL     1       1.124  -7.650  -4.927  1.00  0.00     0.063 C 
ATOM     28  C   UNL     1      -0.917  -9.125  -5.125  1.00  0.00     0.033 C 
ATOM     29  C   UNL     1       0.466  -8.796  -5.707  1.00  0.00     0.118 C 
BRANCH  29  30
ATOM     30  O   UNL     1       0.334  -8.450  -7.063  1.00  0.00    -0.393 OA
ATOM     31  H   UNL     1      -0.625  -8.247  -7.217  1.00  0.00     0.210 HD
ENDBRANCH  29  30
ENDBRANCH   9  11
ENDBRANCH   1   9
TORSDOF 7
ENDMDL
MODEL 6
REMARK VINA RESULT:    -5.409      3.809     10.805
REMARK INTER + INTRA:          -8.784
REMARK INTER:                  -7.499
REMARK INTRA:                  -1.284
REMARK UNBOUND:                -1.320
REMARK SMILES CC[C@@H](CC[C@H](C)[C@H]1CC[C@@H]2[C@H]3CC=C4C[C@H](O)CC[C@]4(C)[C@@H]3CC[C@]21C)C(C)C
REMARK SMILES IDX 5 1 4 2 3 3 2 4 1 5 28 6 29 7 30 8 6 9 7 10 8 11 9 12 26 13
REMARK SMILES IDX 10 14 11 15 25 16 27 17 12 18 24 19 23 20 13 21 21 22 14 23
REMARK SMILES IDX 15 24 20 25 22 26 16 27 19 28 17 29 18 30
REMARK H PARENT 18 31
REMARK Flexibility Score: inf
ROOT
ATOM      1  C   UNL     1      -7.333   3.100  -5.456  1.00  0.00     0.004 C 
ENDROOT
BRANCH   1   2
ATOM      2  C   UNL     1      -8.540   3.976  -5.880  1.00  0.00     0.004 C 
BRANCH   2   3
ATOM      3  C   UNL     1      -9.205   4.723  -4.690  1.00  0.00    -0.009 C 
BRANCH   3   4
ATOM      4  C   UNL     1     -10.666   4.252  -4.416  1.00  0.00     0.000 C 
ATOM      5  C   UNL     1     -10.948   2.760  -4.605  1.00  0.00     0.004 C 
ENDBRANCH   3   4
BRANCH   3   6
ATOM      6  C   UNL     1      -8.991   6.273  -4.774  1.00  0.00    -0.014 C 
ATOM      7  C   UNL     1      -8.471   6.795  -6.127  1.00  0.00     0.007 C 
ATOM      8  C   UNL     1     -10.232   7.064  -4.331  1.00  0.00     0.007 C 
ENDBRANCH   3   6
ENDBRANCH   2   3
ENDBRANCH   1   2
BRANCH   1   9
ATOM      9  C   UNL     1      -7.357   1.650  -6.025  1.00  0.00    -0.011 C 
ATOM     10  C   UNL     1      -8.441   1.568  -7.122  1.00  0.00     0.008 C 
BRANCH   9  11
ATOM     11  C   UNL     1      -7.487   0.562  -4.880  1.00  0.00    -0.002 C 
ATOM     12  C   UNL     1      -8.674  -0.438  -5.064  1.00  0.00     0.005 C 
ATOM     13  C   UNL     1      -6.257  -0.398  -4.690  1.00  0.00    -0.026 C 
ATOM     14  C   UNL     1      -8.085  -1.808  -5.423  1.00  0.00     0.005 C 
ATOM     15  C   UNL     1      -6.607  -1.545  -5.647  1.00  0.00    -0.001 C 
ATOM     16  C   UNL     1      -4.840   0.111  -5.075  1.00  0.00     0.007 C 
ATOM     17  C   UNL     1      -6.242  -0.834  -3.187  1.00  0.00     0.012 C 
ATOM     18  C   UNL     1      -5.643  -2.752  -5.544  1.00  0.00     0.000 C 
ATOM     19  C   UNL     1      -3.790  -1.023  -5.038  1.00  0.00     0.005 C 
ATOM     20  C   UNL     1      -4.198  -2.281  -5.870  1.00  0.00     0.003 C 
ATOM     21  C   UNL     1      -6.039  -3.834  -6.559  1.00  0.00     0.031 C 
ATOM     22  C   UNL     1      -3.149  -3.470  -5.802  1.00  0.00    -0.008 C 
ATOM     23  C   UNL     1      -5.068  -4.970  -6.538  1.00  0.00    -0.027 C 
ATOM     24  C   UNL     1      -3.758  -4.814  -6.247  1.00  0.00    -0.065 C 
ATOM     25  C   UNL     1      -2.605  -3.673  -4.351  1.00  0.00     0.014 C 
ATOM     26  C   UNL     1      -1.975  -3.121  -6.755  1.00  0.00     0.016 C 
ATOM     27  C   UNL     1      -2.901  -6.057  -6.113  1.00  0.00     0.063 C 
ATOM     28  C   UNL     1      -1.740  -4.938  -4.169  1.00  0.00     0.033 C 
ATOM     29  C   UNL     1      -2.447  -6.212  -4.655  1.00  0.00     0.118 C 
BRANCH  29  30
ATOM     30  O   UNL     1      -3.550  -6.481  -3.827  1.00  0.00    -0.393 OA
ATOM     31  H   UNL     1      -4.321  -5.979  -4.200  1.00  0.00     0.210 HD
ENDBRANCH  29  30
ENDBRANCH   9  11
ENDBRANCH   1   9
TORSDOF 7
ENDMDL
MODEL 7
REMARK VINA RESULT:    -5.094      2.045      4.322
REMARK INTER + INTRA:          -8.349
REMARK INTER:                  -7.118
REMARK INTRA:                  -1.231
REMARK UNBOUND:                -1.320
REMARK SMILES CC[C@@H](CC[C@H](C)[C@H]1CC[C@@H]2[C@H]3CC=C4C[C@H](O)CC[C@]4(C)[C@@H]3CC[C@]21C)C(C)C
REMARK SMILES IDX 5 1 4 2 3 3 2 4 1 5 28 6 29 7 30 8 6 9 7 10 8 11 9 12 26 13
REMARK SMILES IDX 10 14 11 15 25 16 27 17 12 18 24 19 23 20 13 21 21 22 14 23
REMARK SMILES IDX 15 24 20 25 22 26 16 27 19 28 17 29 18 30
REMARK H PARENT 18 31
REMARK Flexibility Score: inf
ROOT
ATOM      1  C   UNL     1      -3.219  -6.361  -5.410  1.00  0.00     0.004 C 
ENDROOT
BRANCH   1   2
ATOM      2  C   UNL     1      -1.884  -6.434  -6.196  1.00  0.00     0.004 C 
BRANCH   2   3
ATOM      3  C   UNL     1      -0.702  -6.980  -5.349  1.00  0.00    -0.009 C 
BRANCH   3   4
ATOM      4  C   UNL     1      -0.882  -6.730  -3.820  1.00  0.00     0.000 C 
ATOM      5  C   UNL     1       0.261  -6.002  -3.109  1.00  0.00     0.004 C 
ENDBRANCH   3   4
BRANCH   3   6
ATOM      6  C   UNL     1       0.689  -6.577  -5.948  1.00  0.00    -0.014 C 
ATOM      7  C   UNL     1       1.503  -7.732  -6.561  1.00  0.00     0.007 C 
ATOM      8  C   UNL     1       0.588  -5.405  -6.937  1.00  0.00     0.007 C 
ENDBRANCH   3   6
ENDBRANCH   2   3
ENDBRANCH   1   2
BRANCH   1   9
ATOM      9  C   UNL     1      -4.043  -5.063  -5.660  1.00  0.00    -0.011 C 
ATOM     10  C   UNL     1      -3.836  -4.620  -7.125  1.00  0.00     0.008 C 
BRANCH   9  11
ATOM     11  C   UNL     1      -3.737  -3.946  -4.578  1.00  0.00    -0.002 C 
ATOM     12  C   UNL     1      -2.339  -3.261  -4.726  1.00  0.00     0.005 C 
ATOM     13  C   UNL     1      -4.717  -2.718  -4.550  1.00  0.00    -0.026 C 
ATOM     14  C   UNL     1      -2.566  -1.826  -5.218  1.00  0.00     0.005 C 
ATOM     15  C   UNL     1      -4.047  -1.761  -5.545  1.00  0.00    -0.001 C 
ATOM     16  C   UNL     1      -6.186  -2.917  -5.017  1.00  0.00     0.007 C 
ATOM     17  C   UNL     1      -4.728  -2.171  -3.083  1.00  0.00     0.012 C 
ATOM     18  C   UNL     1      -4.705  -0.361  -5.597  1.00  0.00     0.000 C 
ATOM     19  C   UNL     1      -6.941  -1.574  -5.137  1.00  0.00     0.005 C 
ATOM     20  C   UNL     1      -6.197  -0.514  -6.010  1.00  0.00     0.003 C 
ATOM     21  C   UNL     1      -4.002   0.516  -6.642  1.00  0.00     0.031 C 
ATOM     22  C   UNL     1      -6.940   0.886  -6.103  1.00  0.00    -0.008 C 
ATOM     23  C   UNL     1      -4.679   1.843  -6.771  1.00  0.00    -0.027 C 
ATOM     24  C   UNL     1      -6.006   2.015  -6.580  1.00  0.00    -0.065 C 
ATOM     25  C   UNL     1      -7.514   1.323  -4.717  1.00  0.00     0.014 C 
ATOM     26  C   UNL     1      -8.098   0.740  -7.125  1.00  0.00     0.016 C 
ATOM     27  C   UNL     1      -6.554   3.427  -6.594  1.00  0.00     0.063 C 
ATOM     28  C   UNL     1      -8.069   2.763  -4.686  1.00  0.00     0.033 C 
ATOM     29  C   UNL     1      -7.053   3.798  -5.191  1.00  0.00     0.118 C 
BRANCH  29  30
ATOM     30  O   UNL     1      -5.974   3.873  -4.294  1.00  0.00    -0.393 OA
ATOM     31  H   UNL     1      -5.660   4.814  -4.296  1.00  0.00     0.210 HD
ENDBRANCH  29  30
ENDBRANCH   9  11
ENDBRANCH   1   9
TORSDOF 7
ENDMDL
MODEL 8
REMARK VINA RESULT:    -5.023      1.622      3.201
REMARK INTER + INTRA:          -8.252
REMARK INTER:                  -6.895
REMARK INTRA:                  -1.356
REMARK UNBOUND:                -1.320
REMARK SMILES CC[C@@H](CC[C@H](C)[C@H]1CC[C@@H]2[C@H]3CC=C4C[C@H](O)CC[C@]4(C)[C@@H]3CC[C@]21C)C(C)C
REMARK SMILES IDX 5 1 4 2 3 3 2 4 1 5 28 6 29 7 30 8 6 9 7 10 8 11 9 12 26 13
REMARK SMILES IDX 10 14 11 15 25 16 27 17 12 18 24 19 23 20 13 21 21 22 14 23
REMARK SMILES IDX 15 24 20 25 22 26 16 27 19 28 17 29 18 30
REMARK H PARENT 18 31
REMARK Flexibility Score: inf
ROOT
ATOM      1  C   UNL     1      -1.194  -6.395  -3.710  1.00  0.00     0.004 C 
ENDROOT
BRANCH   1   2
ATOM      2  C   UNL     1       0.032  -5.882  -4.509  1.00  0.00     0.004 C 
BRANCH   2   3
ATOM      3  C   UNL     1       1.353  -6.616  -4.146  1.00  0.00    -0.009 C 
BRANCH   3   4
ATOM      4  C   UNL     1       2.098  -7.183  -5.394  1.00  0.00     0.000 C 
ATOM      5  C   UNL     1       1.221  -7.627  -6.567  1.00  0.00     0.004 C 
ENDBRANCH   3   4
BRANCH   3   6
ATOM      6  C   UNL     1       1.165  -7.613  -2.952  1.00  0.00    -0.014 C 
ATOM      7  C   UNL     1       0.971  -9.089  -3.349  1.00  0.00     0.007 C 
ATOM      8  C   UNL     1       2.271  -7.481  -1.893  1.00  0.00     0.007 C 
ENDBRANCH   3   6
ENDBRANCH   2   3
ENDBRANCH   1   2
BRANCH   1   9
ATOM      9  C   UNL     1      -2.518  -6.450  -4.529  1.00  0.00    -0.011 C 
ATOM     10  C   UNL     1      -2.796  -7.917  -4.922  1.00  0.00     0.008 C 
BRANCH   9  11
ATOM     11  C   UNL     1      -2.514  -5.426  -5.739  1.00  0.00    -0.002 C 
ATOM     12  C   UNL     1      -3.293  -5.911  -7.004  1.00  0.00     0.005 C 
ATOM     13  C   UNL     1      -3.155  -4.019  -5.462  1.00  0.00    -0.026 C 
ATOM     14  C   UNL     1      -4.569  -5.069  -7.125  1.00  0.00     0.005 C 
ATOM     15  C   UNL     1      -4.622  -4.265  -5.838  1.00  0.00    -0.001 C 
ATOM     16  C   UNL     1      -3.137  -3.456  -4.013  1.00  0.00     0.007 C 
ATOM     17  C   UNL     1      -2.441  -2.994  -6.406  1.00  0.00     0.012 C 
ATOM     18  C   UNL     1      -5.486  -2.980  -5.835  1.00  0.00     0.000 C 
ATOM     19  C   UNL     1      -3.998  -2.180  -3.878  1.00  0.00     0.005 C 
ATOM     20  C   UNL     1      -5.456  -2.349  -4.414  1.00  0.00     0.003 C 
ATOM     21  C   UNL     1      -6.942  -3.320  -6.182  1.00  0.00     0.031 C 
ATOM     22  C   UNL     1      -6.336  -1.032  -4.324  1.00  0.00    -0.008 C 
ATOM     23  C   UNL     1      -7.811  -2.107  -6.097  1.00  0.00    -0.027 C 
ATOM     24  C   UNL     1      -7.579  -1.094  -5.233  1.00  0.00    -0.065 C 
ATOM     25  C   UNL     1      -5.522   0.233  -4.749  1.00  0.00     0.014 C 
ATOM     26  C   UNL     1      -6.808  -0.877  -2.854  1.00  0.00     0.016 C 
ATOM     27  C   UNL     1      -8.440   0.149  -5.338  1.00  0.00     0.063 C 
ATOM     28  C   UNL     1      -6.367   1.517  -4.883  1.00  0.00     0.033 C 
ATOM     29  C   UNL     1      -7.581   1.330  -5.806  1.00  0.00     0.118 C 
BRANCH  29  30
ATOM     30  O   UNL     1      -7.140   1.122  -7.124  1.00  0.00    -0.393 OA
ATOM     31  H   UNL     1      -6.253   0.682  -7.066  1.00  0.00     0.210 HD
ENDBRANCH  29  30
ENDBRANCH   9  11
ENDBRANCH   1   9
TORSDOF 7
ENDMDL
MODEL 9
REMARK VINA RESULT:    -5.023      3.256     10.048
REMARK INTER + INTRA:          -8.251
REMARK INTER:                  -7.087
REMARK INTRA:                  -1.164
REMARK UNBOUND:                -1.320
REMARK SMILES CC[C@@H](CC[C@H](C)[C@H]1CC[C@@H]2[C@H]3CC=C4C[C@H](O)CC[C@]4(C)[C@@H]3CC[C@]21C)C(C)C
REMARK SMILES IDX 5 1 4 2 3 3 2 4 1 5 28 6 29 7 30 8 6 9 7 10 8 11 9 12 26 13
REMARK SMILES IDX 10 14 11 15 25 16 27 17 12 18 24 19 23 20 13 21 21 22 14 23
REMARK SMILES IDX 15 24 20 25 22 26 16 27 19 28 17 29 18 30
REMARK H PARENT 18 31
REMARK Flexibility Score: inf
ROOT
ATOM      1  C   UNL     1      -6.252   2.384  -5.148  1.00  0.00     0.004 C 
ENDROOT
BRANCH   1   2
ATOM      2  C   UNL     1      -7.306   3.255  -5.881  1.00  0.00     0.004 C 
BRANCH   2   3
ATOM      3  C   UNL     1      -8.583   3.515  -5.036  1.00  0.00    -0.009 C 
BRANCH   3   4
ATOM      4  C   UNL     1      -9.786   2.616  -5.457  1.00  0.00     0.000 C 
ATOM      5  C   UNL     1      -9.800   1.191  -4.900  1.00  0.00     0.004 C 
ENDBRANCH   3   4
BRANCH   3   6
ATOM      6  C   UNL     1      -8.892   5.044  -4.889  1.00  0.00    -0.014 C 
ATOM      7  C   UNL     1     -10.249   5.384  -4.242  1.00  0.00     0.007 C 
ATOM      8  C   UNL     1      -7.757   5.812  -4.195  1.00  0.00     0.007 C 
ENDBRANCH   3   6
ENDBRANCH   2   3
ENDBRANCH   1   2
BRANCH   1   9
ATOM      9  C   UNL     1      -5.981   1.003  -5.816  1.00  0.00    -0.011 C 
ATOM     10  C   UNL     1      -6.797   0.918  -7.125  1.00  0.00     0.008 C 
BRANCH   9  11
ATOM     11  C   UNL     1      -6.211  -0.200  -4.810  1.00  0.00    -0.002 C 
ATOM     12  C   UNL     1      -7.475  -1.069  -5.113  1.00  0.00     0.005 C 
ATOM     13  C   UNL     1      -5.068  -1.275  -4.738  1.00  0.00    -0.026 C 
ATOM     14  C   UNL     1      -6.999  -2.430  -5.635  1.00  0.00     0.005 C 
ATOM     15  C   UNL     1      -5.502  -2.266  -5.826  1.00  0.00    -0.001 C 
ATOM     16  C   UNL     1      -3.609  -0.844  -5.059  1.00  0.00     0.007 C 
ATOM     17  C   UNL     1      -5.102  -1.889  -3.298  1.00  0.00     0.012 C 
ATOM     18  C   UNL     1      -4.643  -3.553  -5.870  1.00  0.00     0.000 C 
ATOM     19  C   UNL     1      -2.658  -2.057  -5.160  1.00  0.00     0.005 C 
ATOM     20  C   UNL     1      -3.160  -3.167  -6.137  1.00  0.00     0.003 C 
ATOM     21  C   UNL     1      -5.117  -4.467  -7.008  1.00  0.00     0.031 C 
ATOM     22  C   UNL     1      -2.214  -4.439  -6.214  1.00  0.00    -0.008 C 
ATOM     23  C   UNL     1      -4.244  -5.675  -7.125  1.00  0.00    -0.027 C 
ATOM     24  C   UNL     1      -2.927  -5.665  -6.819  1.00  0.00    -0.065 C 
ATOM     25  C   UNL     1      -1.702  -4.861  -4.799  1.00  0.00     0.014 C 
ATOM     26  C   UNL     1      -1.007  -4.078  -7.118  1.00  0.00     0.016 C 
ATOM     27  C   UNL     1      -2.178  -6.982  -6.835  1.00  0.00     0.063 C 
ATOM     28  C   UNL     1      -0.947  -6.206  -4.771  1.00  0.00     0.033 C 
ATOM     29  C   UNL     1      -1.753  -7.348  -5.407  1.00  0.00     0.118 C 
BRANCH  29  30
ATOM     30  O   UNL     1      -2.882  -7.622  -4.617  1.00  0.00    -0.393 OA
ATOM     31  H   UNL     1      -2.635  -8.366  -4.008  1.00  0.00     0.210 HD
ENDBRANCH  29  30
ENDBRANCH   9  11
ENDBRANCH   1   9
TORSDOF 7
ENDMDL
